MODEL        1
REMARK 921   NORMALIZED FREE ENERGY PREDICTED BY IDOCK:   -6.08 KCAL/MOL
REMARK 922        TOTAL FREE ENERGY PREDICTED BY IDOCK:   -7.89 KCAL/MOL
REMARK 923 INTER-LIGAND FREE ENERGY PREDICTED BY IDOCK:   -7.50 KCAL/MOL
REMARK 924 INTRA-LIGAND FREE ENERGY PREDICTED BY IDOCK:   -0.39 KCAL/MOL
REMARK 927      BINDING AFFINITY PREDICTED BY RF-SCORE:    0.00 PKD
ROOT
HETATM    1 CL   UNL     1     -13.000  15.925  73.932  1.00  0.00    -0.625 Cl 
HETATM    2  C   UNL     1     -12.698  14.866  72.613  1.00  0.00    -0.379 A  
HETATM    3  C   UNL     1     -11.783  15.228  71.629  1.00  0.00    -0.463 A  
HETATM    4  C   UNL     1     -11.539  14.362  70.561  1.00  0.00    -0.270 A  
HETATM    5  C   UNL     1     -12.206  13.128  70.465  1.00  0.00    -0.405 A  
HETATM    6  C   UNL     1     -13.124  12.775  71.465  1.00  0.00    -0.380 A  
HETATM    7  C   UNL     1     -13.369  13.643  72.534  1.00  0.00    -0.638 A  
ENDROOT
BRANCH   5   8
HETATM    8  C   UNL     1     -11.866  12.246  69.309  1.00  0.00    -0.306 C  
HETATM    9  O   UNL     1     -12.528  11.232  69.103  1.00  0.00    -0.378 OA 
HETATM   10  N   UNL     1     -10.804  12.602  68.505  1.00  0.00    -0.244 N  
HETATM   11  H   UNL     1     -10.295  13.469  68.681  1.00  0.00     0.000 HD 
BRANCH  10  12
HETATM   12  C   UNL     1     -10.414  11.737  67.408  1.00  0.00    -0.211 C  
BRANCH  12  13
HETATM   13  C   UNL     1     -10.770  12.321  66.031  1.00  0.00    -0.261 C  
BRANCH  13  14
HETATM   14  N   UNL     1     -12.219  12.499  65.788  1.00  0.00    -0.626 NA 
HETATM   15  C   UNL     1     -12.646  13.920  65.838  1.00  0.00    -0.456 C  
HETATM   16  C   UNL     1     -12.137  14.768  64.660  1.00  0.00    -0.427 C  
HETATM   17  O   UNL     1     -12.535  14.207  63.402  1.00  0.00    -0.797 OA 
HETATM   18  C   UNL     1     -12.088  12.851  63.277  1.00  0.00    -0.440 C  
HETATM   19  C   UNL     1     -12.591  11.981  64.446  1.00  0.00    -0.193 C  
ENDBRANCH  13  14
ENDBRANCH  12  13
ENDBRANCH  10  12
ENDBRANCH   5   8
TORSDOF 4
ENDMDL
MODEL        2
REMARK 921   NORMALIZED FREE ENERGY PREDICTED BY IDOCK:   -5.95 KCAL/MOL
REMARK 922        TOTAL FREE ENERGY PREDICTED BY IDOCK:   -7.73 KCAL/MOL
REMARK 923 INTER-LIGAND FREE ENERGY PREDICTED BY IDOCK:   -7.47 KCAL/MOL
REMARK 924 INTRA-LIGAND FREE ENERGY PREDICTED BY IDOCK:   -0.26 KCAL/MOL
REMARK 927      BINDING AFFINITY PREDICTED BY RF-SCORE:    0.00 PKD
ROOT
HETATM    1 CL   UNL     1     -13.453  15.966  73.431  1.00  0.00    -0.598 Cl 
HETATM    2  C   UNL     1     -12.990  14.859  72.200  1.00  0.00    -0.334 A  
HETATM    3  C   UNL     1     -12.312  15.317  71.074  1.00  0.00    -0.426 A  
HETATM    4  C   UNL     1     -11.936  14.414  70.079  1.00  0.00    -0.394 A  
HETATM    5  C   UNL     1     -12.233  13.045  70.197  1.00  0.00    -0.342 A  
HETATM    6  C   UNL     1     -12.915  12.597  71.338  1.00  0.00    -0.353 A  
HETATM    7  C   UNL     1     -13.292  13.503  72.335  1.00  0.00    -0.641 A  
ENDROOT
BRANCH   5   8
HETATM    8  C   UNL     1     -11.769  12.139  69.104  1.00  0.00    -0.328 C  
HETATM    9  O   UNL     1     -12.312  11.048  68.948  1.00  0.00    -0.516 OA 
HETATM   10  N   UNL     1     -10.732  12.562  68.301  1.00  0.00    -0.220 N  
HETATM   11  H   UNL     1     -10.325  13.488  68.434  1.00  0.00     0.000 HD 
BRANCH  10  12
HETATM   12  C   UNL     1     -10.221  11.682  67.267  1.00  0.00    -0.201 C  
BRANCH  12  13
HETATM   13  C   UNL     1     -11.053  11.732  65.975  1.00  0.00    -0.312 C  
BRANCH  13  14
HETATM   14  N   UNL     1     -10.434  12.498  64.869  1.00  0.00    -0.294 NA 
HETATM   15  C   UNL     1     -10.947  12.104  63.532  1.00  0.00    -0.453 C  
HETATM   16  C   UNL     1     -12.407  12.516  63.275  1.00  0.00    -0.371 C  
HETATM   17  O   UNL     1     -12.588  13.929  63.444  1.00  0.00    -0.853 OA 
HETATM   18  C   UNL     1     -12.168  14.350  64.748  1.00  0.00    -0.446 C  
HETATM   19  C   UNL     1     -10.705  13.951  65.026  1.00  0.00    -0.386 C  
ENDBRANCH  13  14
ENDBRANCH  12  13
ENDBRANCH  10  12
ENDBRANCH   5   8
TORSDOF 4
ENDMDL
MODEL        3
REMARK 921   NORMALIZED FREE ENERGY PREDICTED BY IDOCK:   -5.77 KCAL/MOL
REMARK 922        TOTAL FREE ENERGY PREDICTED BY IDOCK:   -7.51 KCAL/MOL
REMARK 923 INTER-LIGAND FREE ENERGY PREDICTED BY IDOCK:   -7.18 KCAL/MOL
REMARK 924 INTRA-LIGAND FREE ENERGY PREDICTED BY IDOCK:   -0.34 KCAL/MOL
REMARK 927      BINDING AFFINITY PREDICTED BY RF-SCORE:    0.00 PKD
ROOT
HETATM    1 CL   UNL     1     -12.495   6.940  72.029  1.00  0.00    -0.324 Cl 
HETATM    2  C   UNL     1     -12.379   8.594  71.575  1.00  0.00    -0.324 A  
HETATM    3  C   UNL     1     -11.390   9.000  70.685  1.00  0.00    -0.311 A  
HETATM    4  C   UNL     1     -11.302  10.344  70.317  1.00  0.00    -0.406 A  
HETATM    5  C   UNL     1     -12.198  11.294  70.835  1.00  0.00    -0.460 A  
HETATM    6  C   UNL     1     -13.192  10.870  71.730  1.00  0.00    -0.513 A  
HETATM    7  C   UNL     1     -13.279   9.524  72.099  1.00  0.00    -0.539 A  
ENDROOT
BRANCH   5   8
HETATM    8  C   UNL     1     -12.057  12.706  70.369  1.00  0.00    -0.300 C  
HETATM    9  O   UNL     1     -12.753  13.585  70.872  1.00  0.00    -0.331 OA 
HETATM   10  N   UNL     1     -11.142  12.977  69.373  1.00  0.00    -0.453 N  
HETATM   11  H   UNL     1     -10.555  12.231  69.000  1.00  0.00     0.000 HD 
BRANCH  10  12
HETATM   12  C   UNL     1     -11.021  14.328  68.859  1.00  0.00    -0.257 C  
BRANCH  12  13
HETATM   13  C   UNL     1     -11.604  14.485  67.446  1.00  0.00    -0.385 C  
BRANCH  13  14
HETATM   14  N   UNL     1     -10.747  13.958  66.359  1.00  0.00    -0.280 NA 
HETATM   15  C   UNL     1     -11.213  12.649  65.835  1.00  0.00    -0.314 C  
HETATM   16  C   UNL     1     -12.528  12.725  65.040  1.00  0.00    -0.506 C  
HETATM   17  O   UNL     1     -12.426  13.652  63.950  1.00  0.00    -0.680 OA 
HETATM   18  C   UNL     1     -12.041  14.952  64.414  1.00  0.00    -0.401 C  
HETATM   19  C   UNL     1     -10.723  14.900  65.211  1.00  0.00    -0.393 C  
ENDBRANCH  13  14
ENDBRANCH  12  13
ENDBRANCH  10  12
ENDBRANCH   5   8
TORSDOF 4
ENDMDL
MODEL        4
REMARK 921   NORMALIZED FREE ENERGY PREDICTED BY IDOCK:   -5.60 KCAL/MOL
REMARK 922        TOTAL FREE ENERGY PREDICTED BY IDOCK:   -7.31 KCAL/MOL
REMARK 923 INTER-LIGAND FREE ENERGY PREDICTED BY IDOCK:   -7.26 KCAL/MOL
REMARK 924 INTRA-LIGAND FREE ENERGY PREDICTED BY IDOCK:   -0.05 KCAL/MOL
REMARK 927      BINDING AFFINITY PREDICTED BY RF-SCORE:    0.00 PKD
ROOT
HETATM    1 CL   UNL     1     -10.648   7.261  73.373  1.00  0.00    -0.422 Cl 
HETATM    2  C   UNL     1     -10.948   8.440  72.159  1.00  0.00    -0.341 A  
HETATM    3  C   UNL     1     -12.186   9.073  72.097  1.00  0.00    -0.427 A  
HETATM    4  C   UNL     1     -12.423  10.031  71.111  1.00  0.00    -0.480 A  
HETATM    5  C   UNL     1     -11.428  10.366  70.175  1.00  0.00    -0.396 A  
HETATM    6  C   UNL     1     -10.184   9.722  70.251  1.00  0.00    -0.346 A  
HETATM    7  C   UNL     1      -9.947   8.761  71.239  1.00  0.00    -0.333 A  
ENDROOT
BRANCH   5   8
HETATM    8  C   UNL     1     -11.750  11.423  69.171  1.00  0.00    -0.342 C  
HETATM    9  O   UNL     1     -12.227  11.104  68.085  1.00  0.00    -0.612 OA 
HETATM   10  N   UNL     1     -11.493  12.738  69.500  1.00  0.00    -0.426 N  
HETATM   11  H   UNL     1     -11.129  12.973  70.423  1.00  0.00     0.000 HD 
BRANCH  10  12
HETATM   12  C   UNL     1     -11.742  13.782  68.526  1.00  0.00    -0.356 C  
BRANCH  12  13
HETATM   13  C   UNL     1     -10.882  13.638  67.260  1.00  0.00    -0.284 C  
BRANCH  13  14
HETATM   14  N   UNL     1     -11.321  14.467  66.114  1.00  0.00    -0.343 NA 
HETATM   15  C   UNL     1     -10.396  14.392  64.955  1.00  0.00    -0.421 C  
HETATM   16  C   UNL     1     -10.400  13.031  64.237  1.00  0.00    -0.362 C  
HETATM   17  O   UNL     1     -11.720  12.675  63.802  1.00  0.00    -0.409 OA 
HETATM   18  C   UNL     1     -12.640  12.669  64.900  1.00  0.00    -0.450 C  
HETATM   19  C   UNL     1     -12.655  14.025  65.632  1.00  0.00    -0.512 C  
ENDBRANCH  13  14
ENDBRANCH  12  13
ENDBRANCH  10  12
ENDBRANCH   5   8
TORSDOF 4
ENDMDL
MODEL        5
REMARK 921   NORMALIZED FREE ENERGY PREDICTED BY IDOCK:   -5.56 KCAL/MOL
REMARK 922        TOTAL FREE ENERGY PREDICTED BY IDOCK:   -7.26 KCAL/MOL
REMARK 923 INTER-LIGAND FREE ENERGY PREDICTED BY IDOCK:   -6.89 KCAL/MOL
REMARK 924 INTRA-LIGAND FREE ENERGY PREDICTED BY IDOCK:   -0.36 KCAL/MOL
REMARK 927      BINDING AFFINITY PREDICTED BY RF-SCORE:    0.00 PKD
ROOT
HETATM    1 CL   UNL     1     -12.160   6.281  72.054  1.00  0.00    -0.374 Cl 
HETATM    2  C   UNL     1     -12.222   7.965  71.714  1.00  0.00    -0.310 A  
HETATM    3  C   UNL     1     -13.306   8.720  72.150  1.00  0.00    -0.465 A  
HETATM    4  C   UNL     1     -13.351  10.088  71.874  1.00  0.00    -0.516 A  
HETATM    5  C   UNL     1     -12.315  10.714  71.159  1.00  0.00    -0.505 A  
HETATM    6  C   UNL     1     -11.227   9.941  70.727  1.00  0.00    -0.427 A  
HETATM    7  C   UNL     1     -11.184   8.570  71.004  1.00  0.00    -0.312 A  
ENDROOT
BRANCH   5   8
HETATM    8  C   UNL     1     -12.422  12.186  70.931  1.00  0.00    -0.279 C  
HETATM    9  O   UNL     1     -13.210  12.848  71.603  1.00  0.00    -0.388 OA 
HETATM   10  N   UNL     1     -11.628  12.757  69.960  1.00  0.00    -0.530 N  
HETATM   11  H   UNL     1     -10.959  12.186  69.443  1.00  0.00     0.000 HD 
BRANCH  10  12
HETATM   12  C   UNL     1     -11.749  14.175  69.677  1.00  0.00    -0.316 C  
BRANCH  12  13
HETATM   13  C   UNL     1     -11.854  14.477  68.173  1.00  0.00    -0.313 C  
BRANCH  13  14
HETATM   14  N   UNL     1     -11.150  13.514  67.296  1.00  0.00    -0.280 NA 
HETATM   15  C   UNL     1     -12.014  12.973  66.217  1.00  0.00    -0.414 C  
HETATM   16  C   UNL     1     -12.383  14.002  65.135  1.00  0.00    -0.453 C  
HETATM   17  O   UNL     1     -11.211  14.583  64.545  1.00  0.00    -0.360 OA 
HETATM   18  C   UNL     1     -10.373  15.179  65.543  1.00  0.00    -0.375 C  
HETATM   19  C   UNL     1      -9.987  14.163  66.637  1.00  0.00    -0.277 C  
ENDBRANCH  13  14
ENDBRANCH  12  13
ENDBRANCH  10  12
ENDBRANCH   5   8
TORSDOF 4
ENDMDL
MODEL        6
REMARK 921   NORMALIZED FREE ENERGY PREDICTED BY IDOCK:   -5.54 KCAL/MOL
REMARK 922        TOTAL FREE ENERGY PREDICTED BY IDOCK:   -7.22 KCAL/MOL
REMARK 923 INTER-LIGAND FREE ENERGY PREDICTED BY IDOCK:   -6.98 KCAL/MOL
REMARK 924 INTRA-LIGAND FREE ENERGY PREDICTED BY IDOCK:   -0.24 KCAL/MOL
REMARK 927      BINDING AFFINITY PREDICTED BY RF-SCORE:    0.00 PKD
ROOT
HETATM    1 CL   UNL     1      -9.109   9.484  62.878  1.00  0.00    -0.247 Cl 
HETATM    2  C   UNL     1      -9.855  10.643  63.904  1.00  0.00    -0.338 A  
HETATM    3  C   UNL     1     -10.320  11.842  63.373  1.00  0.00    -0.481 A  
HETATM    4  C   UNL     1     -10.928  12.779  64.210  1.00  0.00    -0.414 A  
HETATM    5  C   UNL     1     -11.075  12.529  65.586  1.00  0.00    -0.338 A  
HETATM    6  C   UNL     1     -10.604  11.315  66.108  1.00  0.00    -0.312 A  
HETATM    7  C   UNL     1      -9.994  10.377  65.268  1.00  0.00    -0.376 A  
ENDROOT
BRANCH   5   8
HETATM    8  C   UNL     1     -11.764  13.568  66.408  1.00  0.00    -0.369 C  
HETATM    9  O   UNL     1     -12.844  14.020  66.036  1.00  0.00    -0.438 OA 
HETATM   10  N   UNL     1     -11.154  13.994  67.569  1.00  0.00    -0.291 N  
HETATM   11  H   UNL     1     -10.273  13.574  67.869  1.00  0.00     0.000 HD 
BRANCH  10  12
HETATM   12  C   UNL     1     -11.770  15.041  68.360  1.00  0.00    -0.317 C  
BRANCH  12  13
HETATM   13  C   UNL     1     -11.985  14.635  69.827  1.00  0.00    -0.329 C  
BRANCH  13  14
HETATM   14  N   UNL     1     -12.799  15.584  70.620  1.00  0.00    -0.457 NA 
HETATM   15  C   UNL     1     -14.041  14.974  71.159  1.00  0.00    -0.339 C  
HETATM   16  C   UNL     1     -13.799  13.936  72.268  1.00  0.00    -0.571 C  
HETATM   17  O   UNL     1     -13.048  14.497  73.353  1.00  0.00    -0.587 OA 
HETATM   18  C   UNL     1     -11.806  15.042  72.893  1.00  0.00    -0.263 C  
HETATM   19  C   UNL     1     -12.025  16.089  71.783  1.00  0.00    -0.517 C  
ENDBRANCH  13  14
ENDBRANCH  12  13
ENDBRANCH  10  12
ENDBRANCH   5   8
TORSDOF 4
ENDMDL
MODEL        7
REMARK 921   NORMALIZED FREE ENERGY PREDICTED BY IDOCK:   -5.54 KCAL/MOL
REMARK 922        TOTAL FREE ENERGY PREDICTED BY IDOCK:   -7.22 KCAL/MOL
REMARK 923 INTER-LIGAND FREE ENERGY PREDICTED BY IDOCK:   -6.92 KCAL/MOL
REMARK 924 INTRA-LIGAND FREE ENERGY PREDICTED BY IDOCK:   -0.30 KCAL/MOL
REMARK 927      BINDING AFFINITY PREDICTED BY RF-SCORE:    0.00 PKD
ROOT
HETATM    1 CL   UNL     1     -12.236   6.853  71.908  1.00  0.00    -0.369 Cl 
HETATM    2  C   UNL     1     -12.168   8.508  71.450  1.00  0.00    -0.304 A  
HETATM    3  C   UNL     1     -11.237   8.928  70.506  1.00  0.00    -0.287 A  
HETATM    4  C   UNL     1     -11.188  10.273  70.134  1.00  0.00    -0.387 A  
HETATM    5  C   UNL     1     -12.068  11.211  70.703  1.00  0.00    -0.477 A  
HETATM    6  C   UNL     1     -13.004  10.772  71.651  1.00  0.00    -0.581 A  
HETATM    7  C   UNL     1     -13.051   9.425  72.023  1.00  0.00    -0.516 A  
ENDROOT
BRANCH   5   8
HETATM    8  C   UNL     1     -11.974  12.624  70.230  1.00  0.00    -0.284 C  
HETATM    9  O   UNL     1     -12.640  13.496  70.782  1.00  0.00    -0.337 OA 
HETATM   10  N   UNL     1     -11.135  12.905  69.172  1.00  0.00    -0.385 N  
HETATM   11  H   UNL     1     -10.568  12.165  68.757  1.00  0.00     0.000 HD 
BRANCH  10  12
HETATM   12  C   UNL     1     -11.062  14.257  68.654  1.00  0.00    -0.253 C  
BRANCH  12  13
HETATM   13  C   UNL     1     -11.596  14.376  67.217  1.00  0.00    -0.379 C  
BRANCH  13  14
HETATM   14  N   UNL     1     -10.550  14.458  66.172  1.00  0.00    -0.291 NA 
HETATM   15  C   UNL     1     -11.087  14.289  64.798  1.00  0.00    -0.391 C  
HETATM   16  C   UNL     1     -11.951  15.466  64.315  1.00  0.00    -0.188 C  
HETATM   17  O   UNL     1     -11.231  16.705  64.384  1.00  0.00    -1.033 OA 
HETATM   18  C   UNL     1     -10.747  16.947  65.710  1.00  0.00    -0.160 C  
HETATM   19  C   UNL     1      -9.874  15.780  66.214  1.00  0.00    -0.297 C  
ENDBRANCH  13  14
ENDBRANCH  12  13
ENDBRANCH  10  12
ENDBRANCH   5   8
TORSDOF 4
ENDMDL
MODEL        8
REMARK 921   NORMALIZED FREE ENERGY PREDICTED BY IDOCK:   -5.50 KCAL/MOL
REMARK 922        TOTAL FREE ENERGY PREDICTED BY IDOCK:   -7.18 KCAL/MOL
REMARK 923 INTER-LIGAND FREE ENERGY PREDICTED BY IDOCK:   -6.85 KCAL/MOL
REMARK 924 INTRA-LIGAND FREE ENERGY PREDICTED BY IDOCK:   -0.32 KCAL/MOL
REMARK 927      BINDING AFFINITY PREDICTED BY RF-SCORE:    0.00 PKD
ROOT
HETATM    1 CL   UNL     1     -13.990  16.091  72.880  1.00  0.00    -0.526 Cl 
HETATM    2  C   UNL     1     -13.361  14.776  71.968  1.00  0.00    -0.363 A  
HETATM    3  C   UNL     1     -13.552  13.471  72.412  1.00  0.00    -0.709 A  
HETATM    4  C   UNL     1     -13.042  12.407  71.666  1.00  0.00    -0.408 A  
HETATM    5  C   UNL     1     -12.336  12.635  70.472  1.00  0.00    -0.350 A  
HETATM    6  C   UNL     1     -12.154  13.956  70.036  1.00  0.00    -0.411 A  
HETATM    7  C   UNL     1     -12.664  15.022  70.784  1.00  0.00    -0.438 A  
ENDROOT
BRANCH   5   8
HETATM    8  C   UNL     1     -11.850  11.442  69.717  1.00  0.00    -0.364 C  
HETATM    9  O   UNL     1     -12.384  11.137  68.653  1.00  0.00    -0.549 OA 
HETATM   10  N   UNL     1     -10.809  10.712  70.248  1.00  0.00    -0.459 N  
HETATM   11  H   UNL     1     -10.363  11.010  71.116  1.00  0.00     0.000 HD 
BRANCH  10  12
HETATM   12  C   UNL     1     -10.350   9.516  69.567  1.00  0.00    -0.217 C  
BRANCH  12  13
HETATM   13  C   UNL     1     -10.193   8.313  70.511  1.00  0.00    -0.198 C  
BRANCH  13  14
HETATM   14  N   UNL     1     -11.458   7.819  71.103  1.00  0.00    -0.270 NA 
HETATM   15  C   UNL     1     -11.626   6.350  70.971  1.00  0.00    -0.325 C  
HETATM   16  C   UNL     1     -10.659   5.529  71.841  1.00  0.00    -0.234 C  
HETATM   17  O   UNL     1     -10.771   5.887  73.226  1.00  0.00    -0.238 OA 
HETATM   18  C   UNL     1     -10.551   7.290  73.414  1.00  0.00    -0.389 C  
HETATM   19  C   UNL     1     -11.512   8.133  72.554  1.00  0.00    -0.404 C  
ENDBRANCH  13  14
ENDBRANCH  12  13
ENDBRANCH  10  12
ENDBRANCH   5   8
TORSDOF 4
ENDMDL
MODEL        9
REMARK 921   NORMALIZED FREE ENERGY PREDICTED BY IDOCK:   -5.44 KCAL/MOL
REMARK 922        TOTAL FREE ENERGY PREDICTED BY IDOCK:   -7.10 KCAL/MOL
REMARK 923 INTER-LIGAND FREE ENERGY PREDICTED BY IDOCK:   -6.91 KCAL/MOL
REMARK 924 INTRA-LIGAND FREE ENERGY PREDICTED BY IDOCK:   -0.18 KCAL/MOL
REMARK 927      BINDING AFFINITY PREDICTED BY RF-SCORE:    0.00 PKD
ROOT
HETATM    1 CL   UNL     1     -10.511   7.338  73.712  1.00  0.00    -0.396 Cl 
HETATM    2  C   UNL     1     -10.703   8.388  72.365  1.00  0.00    -0.335 A  
HETATM    3  C   UNL     1     -11.962   8.893  72.054  1.00  0.00    -0.439 A  
HETATM    4  C   UNL     1     -12.112   9.748  70.961  1.00  0.00    -0.434 A  
HETATM    5  C   UNL     1     -11.008  10.106  70.167  1.00  0.00    -0.376 A  
HETATM    6  C   UNL     1      -9.745   9.591  70.493  1.00  0.00    -0.325 A  
HETATM    7  C   UNL     1      -9.595   8.733  71.588  1.00  0.00    -0.363 A  
ENDROOT
BRANCH   5   8
HETATM    8  C   UNL     1     -11.247  11.049  69.034  1.00  0.00    -0.258 C  
HETATM    9  O   UNL     1     -12.398  11.327  68.708  1.00  0.00    -0.518 OA 
HETATM   10  N   UNL     1     -10.154  11.579  68.383  1.00  0.00    -0.199 N  
HETATM   11  H   UNL     1      -9.210  11.356  68.700  1.00  0.00     0.000 HD 
BRANCH  10  12
HETATM   12  C   UNL     1     -10.352  12.454  67.244  1.00  0.00    -0.215 C  
BRANCH  12  13
HETATM   13  C   UNL     1     -10.502  11.688  65.919  1.00  0.00    -0.255 C  
BRANCH  13  14
HETATM   14  N   UNL     1     -10.176  12.474  64.708  1.00  0.00    -0.293 NA 
HETATM   15  C   UNL     1     -10.761  11.901  63.469  1.00  0.00    -0.442 C  
HETATM   16  C   UNL     1     -12.292  12.022  63.385  1.00  0.00    -0.523 C  
HETATM   17  O   UNL     1     -12.715  13.387  63.511  1.00  0.00    -0.703 OA 
HETATM   18  C   UNL     1     -12.229  13.968  64.727  1.00  0.00    -0.433 C  
HETATM   19  C   UNL     1     -10.695  13.861  64.831  1.00  0.00    -0.410 C  
ENDBRANCH  13  14
ENDBRANCH  12  13
ENDBRANCH  10  12
ENDBRANCH   5   8
TORSDOF 4
ENDMDL
MODEL       10
REMARK 921   NORMALIZED FREE ENERGY PREDICTED BY IDOCK:   -5.40 KCAL/MOL
REMARK 922        TOTAL FREE ENERGY PREDICTED BY IDOCK:   -7.05 KCAL/MOL
REMARK 923 INTER-LIGAND FREE ENERGY PREDICTED BY IDOCK:   -6.75 KCAL/MOL
REMARK 924 INTRA-LIGAND FREE ENERGY PREDICTED BY IDOCK:   -0.30 KCAL/MOL
REMARK 927      BINDING AFFINITY PREDICTED BY RF-SCORE:    0.00 PKD
ROOT
HETATM    1 CL   UNL     1     -13.123   9.360  71.843  1.00  0.00    -0.461 Cl 
HETATM    2  C   UNL     1     -12.837  10.974  71.328  1.00  0.00    -0.425 A  
HETATM    3  C   UNL     1     -12.039  11.215  70.214  1.00  0.00    -0.462 A  
HETATM    4  C   UNL     1     -11.812  12.528  69.798  1.00  0.00    -0.380 A  
HETATM    5  C   UNL     1     -12.377  13.613  70.492  1.00  0.00    -0.425 A  
HETATM    6  C   UNL     1     -13.181  13.355  71.612  1.00  0.00    -0.449 A  
HETATM    7  C   UNL     1     -13.408  12.039  72.029  1.00  0.00    -0.447 A  
ENDROOT
BRANCH   5   8
HETATM    8  C   UNL     1     -12.112  14.985  69.966  1.00  0.00    -0.337 C  
HETATM    9  O   UNL     1     -12.164  15.948  70.727  1.00  0.00    -0.402 OA 
HETATM   10  N   UNL     1     -11.819  15.126  68.626  1.00  0.00    -0.492 N  
HETATM   11  H   UNL     1     -11.749  14.303  68.027  1.00  0.00     0.000 HD 
BRANCH  10  12
HETATM   12  C   UNL     1     -11.611  16.451  68.073  1.00  0.00     0.068 C  
BRANCH  12  13
HETATM   13  C   UNL     1     -10.126  16.838  67.990  1.00  0.00    -0.284 C  
BRANCH  13  14
HETATM   14  N   UNL     1      -9.826  18.235  68.380  1.00  0.00    -0.349 NA 
HETATM   15  C   UNL     1      -8.428  18.635  68.080  1.00  0.00    -0.312 C  
HETATM   16  C   UNL     1      -8.125  18.772  66.579  1.00  0.00    -0.289 C  
HETATM   17  O   UNL     1      -9.019  19.700  65.948  1.00  0.00    -0.389 OA 
HETATM   18  C   UNL     1     -10.385  19.320  66.154  1.00  0.00    -0.494 C  
HETATM   19  C   UNL     1     -10.713  19.180  67.653  1.00  0.00    -0.417 C  
ENDBRANCH  13  14
ENDBRANCH  12  13
ENDBRANCH  10  12
ENDBRANCH   5   8
TORSDOF 4
ENDMDL
MODEL       11
REMARK 921   NORMALIZED FREE ENERGY PREDICTED BY IDOCK:   -5.39 KCAL/MOL
REMARK 922        TOTAL FREE ENERGY PREDICTED BY IDOCK:   -7.04 KCAL/MOL
REMARK 923 INTER-LIGAND FREE ENERGY PREDICTED BY IDOCK:   -6.75 KCAL/MOL
REMARK 924 INTRA-LIGAND FREE ENERGY PREDICTED BY IDOCK:   -0.29 KCAL/MOL
REMARK 927      BINDING AFFINITY PREDICTED BY RF-SCORE:    0.00 PKD
ROOT
HETATM    1 CL   UNL     1     -12.934   8.792  71.265  1.00  0.00    -0.271 Cl 
HETATM    2  C   UNL     1     -12.755  10.492  71.081  1.00  0.00    -0.418 A  
HETATM    3  C   UNL     1     -12.050  11.000  69.994  1.00  0.00    -0.441 A  
HETATM    4  C   UNL     1     -11.910  12.381  69.847  1.00  0.00    -0.376 A  
HETATM    5  C   UNL     1     -12.471  13.268  70.784  1.00  0.00    -0.403 A  
HETATM    6  C   UNL     1     -13.181  12.741  71.873  1.00  0.00    -0.511 A  
HETATM    7  C   UNL     1     -13.320  11.357  72.020  1.00  0.00    -0.388 A  
ENDROOT
BRANCH   5   8
HETATM    8  C   UNL     1     -12.303  14.731  70.538  1.00  0.00    -0.337 C  
HETATM    9  O   UNL     1     -13.208  15.505  70.839  1.00  0.00    -0.497 OA 
HETATM   10  N   UNL     1     -11.125  15.168  69.971  1.00  0.00    -0.261 N  
HETATM   11  H   UNL     1     -10.378  14.504  69.764  1.00  0.00     0.000 HD 
BRANCH  10  12
HETATM   12  C   UNL     1     -10.954  16.576  69.669  1.00  0.00    -0.287 C  
BRANCH  12  13
HETATM   13  C   UNL     1     -10.898  16.862  68.159  1.00  0.00    -0.351 C  
BRANCH  13  14
HETATM   14  N   UNL     1      -9.618  17.431  67.682  1.00  0.00    -0.257 NA 
HETATM   15  C   UNL     1      -9.673  17.880  66.268  1.00  0.00    -0.269 C  
HETATM   16  C   UNL     1     -10.547  19.124  66.039  1.00  0.00    -0.442 C  
HETATM   17  O   UNL     1     -10.119  20.221  66.858  1.00  0.00    -0.445 OA 
HETATM   18  C   UNL     1     -10.112  19.858  68.244  1.00  0.00    -0.447 C  
HETATM   19  C   UNL     1      -9.237  18.614  68.497  1.00  0.00    -0.347 C  
ENDBRANCH  13  14
ENDBRANCH  12  13
ENDBRANCH  10  12
ENDBRANCH   5   8
TORSDOF 4
ENDMDL
MODEL       12
REMARK 921   NORMALIZED FREE ENERGY PREDICTED BY IDOCK:   -5.37 KCAL/MOL
REMARK 922        TOTAL FREE ENERGY PREDICTED BY IDOCK:   -7.02 KCAL/MOL
REMARK 923 INTER-LIGAND FREE ENERGY PREDICTED BY IDOCK:   -6.72 KCAL/MOL
REMARK 924 INTRA-LIGAND FREE ENERGY PREDICTED BY IDOCK:   -0.30 KCAL/MOL
REMARK 927      BINDING AFFINITY PREDICTED BY RF-SCORE:    0.00 PKD
ROOT
HETATM    1 CL   UNL     1     -12.773  11.629  63.123  1.00  0.00    -0.365 Cl 
HETATM    2  C   UNL     1     -12.285  12.759  64.323  1.00  0.00    -0.425 A  
HETATM    3  C   UNL     1     -12.187  12.359  65.652  1.00  0.00    -0.322 A  
HETATM    4  C   UNL     1     -11.787  13.280  66.622  1.00  0.00    -0.447 A  
HETATM    5  C   UNL     1     -11.482  14.608  66.275  1.00  0.00    -0.351 A  
HETATM    6  C   UNL     1     -11.582  14.996  64.931  1.00  0.00    -0.374 A  
HETATM    7  C   UNL     1     -11.984  14.073  63.960  1.00  0.00    -0.388 A  
ENDROOT
BRANCH   5   8
HETATM    8  C   UNL     1     -11.032  15.522  67.366  1.00  0.00    -0.306 C  
HETATM    9  O   UNL     1     -10.826  16.708  67.119  1.00  0.00    -0.253 OA 
HETATM   10  N   UNL     1     -10.856  14.998  68.629  1.00  0.00    -0.241 N  
HETATM   11  H   UNL     1     -11.070  14.017  68.811  1.00  0.00     0.000 HD 
BRANCH  10  12
HETATM   12  C   UNL     1     -10.367  15.848  69.697  1.00  0.00    -0.299 C  
BRANCH  12  13
HETATM   13  C   UNL     1     -10.945  15.474  71.072  1.00  0.00    -0.266 C  
BRANCH  13  14
HETATM   14  N   UNL     1     -12.216  16.151  71.415  1.00  0.00    -0.370 NA 
HETATM   15  C   UNL     1     -13.410  15.457  70.867  1.00  0.00    -0.418 C  
HETATM   16  C   UNL     1     -13.710  14.105  71.537  1.00  0.00    -0.318 C  
HETATM   17  O   UNL     1     -13.867  14.249  72.956  1.00  0.00    -0.565 OA 
HETATM   18  C   UNL     1     -12.710  14.856  73.543  1.00  0.00    -0.499 C  
HETATM   19  C   UNL     1     -12.391  16.216  72.889  1.00  0.00    -0.511 C  
ENDBRANCH  13  14
ENDBRANCH  12  13
ENDBRANCH  10  12
ENDBRANCH   5   8
TORSDOF 4
ENDMDL
MODEL       13
REMARK 921   NORMALIZED FREE ENERGY PREDICTED BY IDOCK:   -5.34 KCAL/MOL
REMARK 922        TOTAL FREE ENERGY PREDICTED BY IDOCK:   -6.99 KCAL/MOL
REMARK 923 INTER-LIGAND FREE ENERGY PREDICTED BY IDOCK:   -6.53 KCAL/MOL
REMARK 924 INTRA-LIGAND FREE ENERGY PREDICTED BY IDOCK:   -0.46 KCAL/MOL
REMARK 927      BINDING AFFINITY PREDICTED BY RF-SCORE:    0.00 PKD
ROOT
HETATM    1 CL   UNL     1     -14.271  15.952  72.905  1.00  0.00    -0.379 Cl 
HETATM    2  C   UNL     1     -13.507  14.761  71.929  1.00  0.00    -0.371 A  
HETATM    3  C   UNL     1     -12.827  15.143  70.776  1.00  0.00    -0.473 A  
HETATM    4  C   UNL     1     -12.206  14.172  69.988  1.00  0.00    -0.418 A  
HETATM    5  C   UNL     1     -12.259  12.812  70.342  1.00  0.00    -0.371 A  
HETATM    6  C   UNL     1     -12.946  12.443  71.507  1.00  0.00    -0.385 A  
HETATM    7  C   UNL     1     -13.569  13.416  72.296  1.00  0.00    -0.703 A  
ENDROOT
BRANCH   5   8
HETATM    8  C   UNL     1     -11.543  11.840  69.463  1.00  0.00    -0.332 C  
HETATM    9  O   UNL     1     -12.078  10.771  69.178  1.00  0.00    -0.332 OA 
HETATM   10  N   UNL     1     -10.289  12.177  69.000  1.00  0.00    -0.421 N  
HETATM   11  H   UNL     1      -9.887  13.087  69.226  1.00  0.00     0.000 HD 
BRANCH  10  12
HETATM   12  C   UNL     1      -9.545  11.232  68.190  1.00  0.00    -0.186 C  
BRANCH  12  13
HETATM   13  C   UNL     1      -9.561  11.583  66.694  1.00  0.00    -0.197 C  
BRANCH  13  14
HETATM   14  N   UNL     1     -10.744  11.088  65.953  1.00  0.00    -0.203 NA 
HETATM   15  C   UNL     1     -11.777  12.134  65.743  1.00  0.00    -0.327 C  
HETATM   16  C   UNL     1     -11.361  13.234  64.753  1.00  0.00    -0.327 C  
HETATM   17  O   UNL     1     -10.995  12.681  63.481  1.00  0.00    -0.441 OA 
HETATM   18  C   UNL     1      -9.951  11.710  63.623  1.00  0.00    -0.379 C  
HETATM   19  C   UNL     1     -10.348  10.594  64.609  1.00  0.00    -0.283 C  
ENDBRANCH  13  14
ENDBRANCH  12  13
ENDBRANCH  10  12
ENDBRANCH   5   8
TORSDOF 4
ENDMDL
MODEL       14
REMARK 921   NORMALIZED FREE ENERGY PREDICTED BY IDOCK:   -5.34 KCAL/MOL
REMARK 922        TOTAL FREE ENERGY PREDICTED BY IDOCK:   -6.98 KCAL/MOL
REMARK 923 INTER-LIGAND FREE ENERGY PREDICTED BY IDOCK:   -6.73 KCAL/MOL
REMARK 924 INTRA-LIGAND FREE ENERGY PREDICTED BY IDOCK:   -0.25 KCAL/MOL
REMARK 927      BINDING AFFINITY PREDICTED BY RF-SCORE:    0.00 PKD
ROOT
HETATM    1 CL   UNL     1     -11.309   7.923  72.814  1.00  0.00    -0.462 Cl 
HETATM    2  C   UNL     1     -11.467   9.115  71.586  1.00  0.00    -0.381 A  
HETATM    3  C   UNL     1     -10.447   9.290  70.655  1.00  0.00    -0.325 A  
HETATM    4  C   UNL     1     -10.582  10.257  69.658  1.00  0.00    -0.288 A  
HETATM    5  C   UNL     1     -11.734  11.060  69.581  1.00  0.00    -0.401 A  
HETATM    6  C   UNL     1     -12.754  10.871  70.525  1.00  0.00    -0.363 A  
HETATM    7  C   UNL     1     -12.618   9.902  71.524  1.00  0.00    -0.513 A  
ENDROOT
BRANCH   5   8
HETATM    8  C   UNL     1     -11.814  12.050  68.466  1.00  0.00    -0.311 C  
HETATM    9  O   UNL     1     -11.981  11.656  67.314  1.00  0.00    -0.627 OA 
HETATM   10  N   UNL     1     -11.692  13.389  68.771  1.00  0.00    -0.318 N  
HETATM   11  H   UNL     1     -11.589  13.687  69.741  1.00  0.00     0.000 HD 
BRANCH  10  12
HETATM   12  C   UNL     1     -11.709  14.372  67.704  1.00  0.00    -0.391 C  
BRANCH  12  13
HETATM   13  C   UNL     1     -11.219  15.756  68.158  1.00  0.00    -0.344 C  
BRANCH  13  14
HETATM   14  N   UNL     1      -9.898  16.153  67.619  1.00  0.00    -0.234 NA 
HETATM   15  C   UNL     1      -9.791  15.969  66.150  1.00  0.00    -0.325 C  
HETATM   16  C   UNL     1     -10.648  16.949  65.332  1.00  0.00    -0.162 C  
HETATM   17  O   UNL     1     -10.334  18.311  65.653  1.00  0.00    -0.607 OA 
HETATM   18  C   UNL     1     -10.487  18.558  67.056  1.00  0.00    -0.402 C  
HETATM   19  C   UNL     1      -9.632  17.589  67.896  1.00  0.00    -0.277 C  
ENDBRANCH  13  14
ENDBRANCH  12  13
ENDBRANCH  10  12
ENDBRANCH   5   8
TORSDOF 4
ENDMDL
MODEL       15
REMARK 921   NORMALIZED FREE ENERGY PREDICTED BY IDOCK:   -5.34 KCAL/MOL
REMARK 922        TOTAL FREE ENERGY PREDICTED BY IDOCK:   -6.98 KCAL/MOL
REMARK 923 INTER-LIGAND FREE ENERGY PREDICTED BY IDOCK:   -6.62 KCAL/MOL
REMARK 924 INTRA-LIGAND FREE ENERGY PREDICTED BY IDOCK:   -0.36 KCAL/MOL
REMARK 927      BINDING AFFINITY PREDICTED BY RF-SCORE:    0.00 PKD
ROOT
HETATM    1 CL   UNL     1     -12.358  10.525  71.580  1.00  0.00    -0.464 Cl 
HETATM    2  C   UNL     1     -12.155  11.573  70.232  1.00  0.00    -0.359 A  
HETATM    3  C   UNL     1     -11.873  11.041  68.978  1.00  0.00    -0.399 A  
HETATM    4  C   UNL     1     -11.713  11.896  67.886  1.00  0.00    -0.368 A  
HETATM    5  C   UNL     1     -11.831  13.289  68.036  1.00  0.00    -0.392 A  
HETATM    6  C   UNL     1     -12.118  13.811  69.307  1.00  0.00    -0.374 A  
HETATM    7  C   UNL     1     -12.277  12.953  70.400  1.00  0.00    -0.381 A  
ENDROOT
BRANCH   5   8
HETATM    8  C   UNL     1     -11.676  14.133  66.814  1.00  0.00    -0.410 C  
HETATM    9  O   UNL     1     -12.538  14.097  65.938  1.00  0.00    -0.486 OA 
HETATM   10  N   UNL     1     -10.556  14.929  66.706  1.00  0.00    -0.298 N  
HETATM   11  H   UNL     1      -9.876  14.963  67.466  1.00  0.00     0.000 HD 
BRANCH  10  12
HETATM   12  C   UNL     1     -10.349  15.717  65.506  1.00  0.00    -0.404 C  
BRANCH  12  13
HETATM   13  C   UNL     1     -10.476  17.229  65.755  1.00  0.00    -0.229 C  
BRANCH  13  14
HETATM   14  N   UNL     1     -10.062  17.672  67.106  1.00  0.00    -0.315 NA 
HETATM   15  C   UNL     1      -8.597  17.882  67.225  1.00  0.00    -0.237 C  
HETATM   16  C   UNL     1      -8.073  19.097  66.441  1.00  0.00    -0.308 C  
HETATM   17  O   UNL     1      -8.748  20.301  66.832  1.00  0.00    -0.325 OA 
HETATM   18  C   UNL     1     -10.166  20.172  66.673  1.00  0.00    -0.427 C  
HETATM   19  C   UNL     1     -10.714  18.961  67.454  1.00  0.00    -0.444 C  
ENDBRANCH  13  14
ENDBRANCH  12  13
ENDBRANCH  10  12
ENDBRANCH   5   8
TORSDOF 4
ENDMDL
MODEL       16
REMARK 921   NORMALIZED FREE ENERGY PREDICTED BY IDOCK:   -5.32 KCAL/MOL
REMARK 922        TOTAL FREE ENERGY PREDICTED BY IDOCK:   -6.96 KCAL/MOL
REMARK 923 INTER-LIGAND FREE ENERGY PREDICTED BY IDOCK:   -6.64 KCAL/MOL
REMARK 924 INTRA-LIGAND FREE ENERGY PREDICTED BY IDOCK:   -0.32 KCAL/MOL
REMARK 927      BINDING AFFINITY PREDICTED BY RF-SCORE:    0.00 PKD
ROOT
HETATM    1 CL   UNL     1     -12.832  10.034  71.708  1.00  0.00    -0.517 Cl 
HETATM    2  C   UNL     1     -12.485  11.423  70.756  1.00  0.00    -0.365 A  
HETATM    3  C   UNL     1     -12.060  11.272  69.439  1.00  0.00    -0.384 A  
HETATM    4  C   UNL     1     -11.784  12.402  68.669  1.00  0.00    -0.372 A  
HETATM    5  C   UNL     1     -11.926  13.694  69.206  1.00  0.00    -0.384 A  
HETATM    6  C   UNL     1     -12.357  13.831  70.534  1.00  0.00    -0.429 A  
HETATM    7  C   UNL     1     -12.634  12.698  71.305  1.00  0.00    -0.339 A  
ENDROOT
BRANCH   5   8
HETATM    8  C   UNL     1     -11.640  14.852  68.308  1.00  0.00    -0.334 C  
HETATM    9  O   UNL     1     -12.011  15.978  68.631  1.00  0.00    -0.306 OA 
HETATM   10  N   UNL     1     -10.965  14.615  67.130  1.00  0.00    -0.307 N  
HETATM   11  H   UNL     1     -10.639  13.675  66.906  1.00  0.00     0.000 HD 
BRANCH  10  12
HETATM   12  C   UNL     1     -10.720  15.710  66.210  1.00  0.00    -0.295 C  
BRANCH  12  13
HETATM   13  C   UNL     1      -9.420  16.470  66.517  1.00  0.00    -0.273 C  
BRANCH  13  14
HETATM   14  N   UNL     1      -9.298  17.785  65.847  1.00  0.00    -0.514 NA 
HETATM   15  C   UNL     1     -10.522  18.616  65.972  1.00  0.00    -0.414 C  
HETATM   16  C   UNL     1     -10.784  19.135  67.395  1.00  0.00    -0.481 C  
HETATM   17  O   UNL     1      -9.664  19.881  67.894  1.00  0.00    -0.355 OA 
HETATM   18  C   UNL     1      -8.466  19.096  67.856  1.00  0.00    -0.300 C  
HETATM   19  C   UNL     1      -8.181  18.568  66.436  1.00  0.00    -0.268 C  
ENDBRANCH  13  14
ENDBRANCH  12  13
ENDBRANCH  10  12
ENDBRANCH   5   8
TORSDOF 4
ENDMDL
MODEL       17
REMARK 921   NORMALIZED FREE ENERGY PREDICTED BY IDOCK:   -5.30 KCAL/MOL
REMARK 922        TOTAL FREE ENERGY PREDICTED BY IDOCK:   -6.94 KCAL/MOL
REMARK 923 INTER-LIGAND FREE ENERGY PREDICTED BY IDOCK:   -6.60 KCAL/MOL
REMARK 924 INTRA-LIGAND FREE ENERGY PREDICTED BY IDOCK:   -0.34 KCAL/MOL
REMARK 927      BINDING AFFINITY PREDICTED BY RF-SCORE:    0.00 PKD
ROOT
HETATM    1 CL   UNL     1      -7.239  21.169  67.379  1.00  0.00    -0.373 Cl 
HETATM    2  C   UNL     1      -8.291  19.843  67.680  1.00  0.00    -0.321 A  
HETATM    3  C   UNL     1      -7.847  18.763  68.435  1.00  0.00    -0.351 A  
HETATM    4  C   UNL     1      -8.706  17.690  68.679  1.00  0.00    -0.266 A  
HETATM    5  C   UNL     1     -10.016  17.685  68.170  1.00  0.00    -0.330 A  
HETATM    6  C   UNL     1     -10.452  18.782  67.412  1.00  0.00    -0.490 A  
HETATM    7  C   UNL     1      -9.590  19.856  67.168  1.00  0.00    -0.508 A  
ENDROOT
BRANCH   5   8
HETATM    8  C   UNL     1     -10.883  16.515  68.501  1.00  0.00    -0.349 C  
HETATM    9  O   UNL     1     -11.398  16.436  69.614  1.00  0.00    -0.295 OA 
HETATM   10  N   UNL     1     -11.074  15.548  67.537  1.00  0.00    -0.322 N  
HETATM   11  H   UNL     1     -10.661  15.660  66.610  1.00  0.00     0.000 HD 
BRANCH  10  12
HETATM   12  C   UNL     1     -11.864  14.373  67.846  1.00  0.00    -0.349 C  
BRANCH  12  13
HETATM   13  C   UNL     1     -12.104  13.474  66.622  1.00  0.00    -0.396 C  
BRANCH  13  14
HETATM   14  N   UNL     1     -11.218  13.749  65.468  1.00  0.00    -0.297 NA 
HETATM   15  C   UNL     1     -10.102  12.777  65.349  1.00  0.00    -0.259 C  
HETATM   16  C   UNL     1     -10.544  11.363  64.935  1.00  0.00    -0.307 C  
HETATM   17  O   UNL     1     -11.275  11.385  63.701  1.00  0.00    -0.402 OA 
HETATM   18  C   UNL     1     -12.405  12.261  63.786  1.00  0.00    -0.538 C  
HETATM   19  C   UNL     1     -11.984  13.687  64.196  1.00  0.00    -0.443 C  
ENDBRANCH  13  14
ENDBRANCH  12  13
ENDBRANCH  10  12
ENDBRANCH   5   8
TORSDOF 4
ENDMDL
MODEL       18
REMARK 921   NORMALIZED FREE ENERGY PREDICTED BY IDOCK:   -5.28 KCAL/MOL
REMARK 922        TOTAL FREE ENERGY PREDICTED BY IDOCK:   -6.91 KCAL/MOL
REMARK 923 INTER-LIGAND FREE ENERGY PREDICTED BY IDOCK:   -6.52 KCAL/MOL
REMARK 924 INTRA-LIGAND FREE ENERGY PREDICTED BY IDOCK:   -0.38 KCAL/MOL
REMARK 927      BINDING AFFINITY PREDICTED BY RF-SCORE:    0.00 PKD
ROOT
HETATM    1 CL   UNL     1     -11.116   6.873  73.025  1.00  0.00    -0.287 Cl 
HETATM    2  C   UNL     1     -11.338   8.260  72.035  1.00  0.00    -0.325 A  
HETATM    3  C   UNL     1     -10.368   8.607  71.100  1.00  0.00    -0.294 A  
HETATM    4  C   UNL     1     -10.555   9.733  70.296  1.00  0.00    -0.348 A  
HETATM    5  C   UNL     1     -11.712  10.524  70.419  1.00  0.00    -0.434 A  
HETATM    6  C   UNL     1     -12.683  10.160  71.364  1.00  0.00    -0.530 A  
HETATM    7  C   UNL     1     -12.494   9.032  72.170  1.00  0.00    -0.450 A  
ENDROOT
BRANCH   5   8
HETATM    8  C   UNL     1     -11.851  11.693  69.502  1.00  0.00    -0.348 C  
HETATM    9  O   UNL     1     -12.125  11.508  68.318  1.00  0.00    -0.580 OA 
HETATM   10  N   UNL     1     -11.660  12.957  70.019  1.00  0.00    -0.525 N  
HETATM   11  H   UNL     1     -11.467  13.080  71.013  1.00  0.00     0.000 HD 
BRANCH  10  12
HETATM   12  C   UNL     1     -11.733  14.110  69.142  1.00  0.00    -0.327 C  
BRANCH  12  13
HETATM   13  C   UNL     1     -10.349  14.623  68.712  1.00  0.00    -0.248 C  
BRANCH  13  14
HETATM   14  N   UNL     1      -9.890  14.137  67.391  1.00  0.00    -0.236 NA 
HETATM   15  C   UNL     1     -10.668  14.707  66.261  1.00  0.00    -0.316 C  
HETATM   16  C   UNL     1     -10.422  16.206  66.024  1.00  0.00    -0.338 C  
HETATM   17  O   UNL     1      -9.029  16.480  65.815  1.00  0.00    -0.481 OA 
HETATM   18  C   UNL     1      -8.240  16.007  66.913  1.00  0.00    -0.242 C  
HETATM   19  C   UNL     1      -8.468  14.503  67.166  1.00  0.00    -0.212 C  
ENDBRANCH  13  14
ENDBRANCH  12  13
ENDBRANCH  10  12
ENDBRANCH   5   8
TORSDOF 4
ENDMDL
MODEL       19
REMARK 921   NORMALIZED FREE ENERGY PREDICTED BY IDOCK:   -5.27 KCAL/MOL
REMARK 922        TOTAL FREE ENERGY PREDICTED BY IDOCK:   -6.89 KCAL/MOL
REMARK 923 INTER-LIGAND FREE ENERGY PREDICTED BY IDOCK:   -6.71 KCAL/MOL
REMARK 924 INTRA-LIGAND FREE ENERGY PREDICTED BY IDOCK:   -0.18 KCAL/MOL
REMARK 927      BINDING AFFINITY PREDICTED BY RF-SCORE:    0.00 PKD
ROOT
HETATM    1 CL   UNL     1      -7.108  21.003  67.224  1.00  0.00    -0.430 Cl 
HETATM    2  C   UNL     1      -8.188  19.684  67.444  1.00  0.00    -0.298 A  
HETATM    3  C   UNL     1      -9.362  19.618  66.702  1.00  0.00    -0.460 A  
HETATM    4  C   UNL     1     -10.234  18.543  66.882  1.00  0.00    -0.411 A  
HETATM    5  C   UNL     1      -9.942  17.524  67.807  1.00  0.00    -0.312 A  
HETATM    6  C   UNL     1      -8.753  17.602  68.547  1.00  0.00    -0.285 A  
HETATM    7  C   UNL     1      -7.881  18.680  68.366  1.00  0.00    -0.344 A  
ENDROOT
BRANCH   5   8
HETATM    8  C   UNL     1     -10.911  16.393  67.918  1.00  0.00    -0.328 C  
HETATM    9  O   UNL     1     -11.524  16.219  68.969  1.00  0.00    -0.328 OA 
HETATM   10  N   UNL     1     -11.082  15.568  66.827  1.00  0.00    -0.261 N  
HETATM   11  H   UNL     1     -10.584  15.759  65.957  1.00  0.00     0.000 HD 
BRANCH  10  12
HETATM   12  C   UNL     1     -11.973  14.428  66.922  1.00  0.00    -0.399 C  
BRANCH  12  13
HETATM   13  C   UNL     1     -12.502  13.966  65.554  1.00  0.00    -0.511 C  
BRANCH  13  14
HETATM   14  N   UNL     1     -12.525  12.498  65.363  1.00  0.00    -0.647 NA 
HETATM   15  C   UNL     1     -12.402  12.096  63.938  1.00  0.00    -0.487 C  
HETATM   16  C   UNL     1     -11.013  12.360  63.332  1.00  0.00    -0.386 C  
HETATM   17  O   UNL     1      -9.981  11.711  64.089  1.00  0.00    -0.255 OA 
HETATM   18  C   UNL     1     -10.017  12.117  65.462  1.00  0.00    -0.246 C  
HETATM   19  C   UNL     1     -11.400  11.859  66.092  1.00  0.00    -0.324 C  
ENDBRANCH  13  14
ENDBRANCH  12  13
ENDBRANCH  10  12
ENDBRANCH   5   8
TORSDOF 4
ENDMDL
MODEL       20
REMARK 921   NORMALIZED FREE ENERGY PREDICTED BY IDOCK:   -5.26 KCAL/MOL
REMARK 922        TOTAL FREE ENERGY PREDICTED BY IDOCK:   -6.89 KCAL/MOL
REMARK 923 INTER-LIGAND FREE ENERGY PREDICTED BY IDOCK:   -6.50 KCAL/MOL
REMARK 924 INTRA-LIGAND FREE ENERGY PREDICTED BY IDOCK:   -0.39 KCAL/MOL
REMARK 927      BINDING AFFINITY PREDICTED BY RF-SCORE:    0.00 PKD
ROOT
HETATM    1 CL   UNL     1     -14.162  15.780  72.536  1.00  0.00    -0.558 Cl 
HETATM    2  C   UNL     1     -13.438  14.480  71.675  1.00  0.00    -0.373 A  
HETATM    3  C   UNL     1     -12.724  14.733  70.509  1.00  0.00    -0.397 A  
HETATM    4  C   UNL     1     -12.135  13.675  69.815  1.00  0.00    -0.396 A  
HETATM    5  C   UNL     1     -12.256  12.352  70.279  1.00  0.00    -0.345 A  
HETATM    6  C   UNL     1     -12.977  12.112  71.458  1.00  0.00    -0.398 A  
HETATM    7  C   UNL     1     -13.567  13.173  72.152  1.00  0.00    -0.637 A  
ENDROOT
BRANCH   5   8
HETATM    8  C   UNL     1     -11.571  11.280  69.497  1.00  0.00    -0.328 C  
HETATM    9  O   UNL     1     -12.053  10.904  68.431  1.00  0.00    -0.559 OA 
HETATM   10  N   UNL     1     -10.411  10.738  70.007  1.00  0.00    -0.409 N  
HETATM   11  H   UNL     1     -10.017  11.096  70.878  1.00  0.00     0.000 HD 
BRANCH  10  12
HETATM   12  C   UNL     1      -9.753   9.657  69.300  1.00  0.00    -0.185 C  
BRANCH  12  13
HETATM   13  C   UNL     1      -9.835   8.316  70.047  1.00  0.00    -0.182 C  
BRANCH  13  14
HETATM   14  N   UNL     1     -11.161   7.658  69.996  1.00  0.00    -0.231 NA 
HETATM   15  C   UNL     1     -11.072   6.187  69.818  1.00  0.00    -0.416 C  
HETATM   16  C   UNL     1     -10.520   5.439  71.044  1.00  0.00    -0.232 C  
HETATM   17  O   UNL     1     -11.295   5.720  72.219  1.00  0.00    -0.279 OA 
HETATM   18  C   UNL     1     -11.355   7.129  72.472  1.00  0.00    -0.279 C  
HETATM   19  C   UNL     1     -11.910   7.898  71.257  1.00  0.00    -0.296 C  
ENDBRANCH  13  14
ENDBRANCH  12  13
ENDBRANCH  10  12
ENDBRANCH   5   8
TORSDOF 4
ENDMDL
MODEL       21
REMARK 921   NORMALIZED FREE ENERGY PREDICTED BY IDOCK:   -5.24 KCAL/MOL
REMARK 922        TOTAL FREE ENERGY PREDICTED BY IDOCK:   -6.85 KCAL/MOL
REMARK 923 INTER-LIGAND FREE ENERGY PREDICTED BY IDOCK:   -6.54 KCAL/MOL
REMARK 924 INTRA-LIGAND FREE ENERGY PREDICTED BY IDOCK:   -0.32 KCAL/MOL
REMARK 927      BINDING AFFINITY PREDICTED BY RF-SCORE:    0.00 PKD
ROOT
HETATM    1 CL   UNL     1     -10.374  17.279  68.984  1.00  0.00    -0.343 Cl 
HETATM    2  C   UNL     1     -11.149  15.948  69.747  1.00  0.00    -0.324 A  
HETATM    3  C   UNL     1     -11.513  16.034  71.088  1.00  0.00    -0.470 A  
HETATM    4  C   UNL     1     -12.145  14.952  71.702  1.00  0.00    -0.415 A  
HETATM    5  C   UNL     1     -12.418  13.773  70.985  1.00  0.00    -0.458 A  
HETATM    6  C   UNL     1     -12.047  13.702  69.634  1.00  0.00    -0.378 A  
HETATM    7  C   UNL     1     -11.413  14.787  69.019  1.00  0.00    -0.316 A  
ENDROOT
BRANCH   5   8
HETATM    8  C   UNL     1     -13.124  12.672  71.706  1.00  0.00    -0.360 C  
HETATM    9  O   UNL     1     -13.931  12.946  72.590  1.00  0.00    -0.589 OA 
HETATM   10  N   UNL     1     -12.838  11.370  71.353  1.00  0.00    -0.422 N  
HETATM   11  H   UNL     1     -12.188  11.177  70.590  1.00  0.00     0.000 HD 
BRANCH  10  12
HETATM   12  C   UNL     1     -13.465  10.278  72.072  1.00  0.00    -0.281 C  
BRANCH  12  13
HETATM   13  C   UNL     1     -12.937   8.899  71.644  1.00  0.00    -0.354 C  
BRANCH  13  14
HETATM   14  N   UNL     1     -11.465   8.753  71.706  1.00  0.00    -0.318 NA 
HETATM   15  C   UNL     1     -11.022   7.760  72.717  1.00  0.00    -0.388 C  
HETATM   16  C   UNL     1     -11.358   6.304  72.354  1.00  0.00    -0.292 C  
HETATM   17  O   UNL     1     -10.809   5.944  71.079  1.00  0.00    -0.260 OA 
HETATM   18  C   UNL     1     -11.261   6.836  70.053  1.00  0.00    -0.328 C  
HETATM   19  C   UNL     1     -10.931   8.303  70.394  1.00  0.00    -0.239 C  
ENDBRANCH  13  14
ENDBRANCH  12  13
ENDBRANCH  10  12
ENDBRANCH   5   8
TORSDOF 4
ENDMDL
MODEL       22
REMARK 921   NORMALIZED FREE ENERGY PREDICTED BY IDOCK:   -5.24 KCAL/MOL
REMARK 922        TOTAL FREE ENERGY PREDICTED BY IDOCK:   -6.85 KCAL/MOL
REMARK 923 INTER-LIGAND FREE ENERGY PREDICTED BY IDOCK:   -6.45 KCAL/MOL
REMARK 924 INTRA-LIGAND FREE ENERGY PREDICTED BY IDOCK:   -0.40 KCAL/MOL
REMARK 927      BINDING AFFINITY PREDICTED BY RF-SCORE:    0.00 PKD
ROOT
HETATM    1 CL   UNL     1     -12.896  15.410  73.928  1.00  0.00    -0.644 Cl 
HETATM    2  C   UNL     1     -12.435  15.119  72.299  1.00  0.00    -0.353 A  
HETATM    3  C   UNL     1     -12.776  13.917  71.686  1.00  0.00    -0.416 A  
HETATM    4  C   UNL     1     -12.403  13.687  70.361  1.00  0.00    -0.415 A  
HETATM    5  C   UNL     1     -11.683  14.653  69.636  1.00  0.00    -0.358 A  
HETATM    6  C   UNL     1     -11.349  15.861  70.265  1.00  0.00    -0.381 A  
HETATM    7  C   UNL     1     -11.723  16.091  71.593  1.00  0.00    -0.583 A  
ENDROOT
BRANCH   5   8
HETATM    8  C   UNL     1     -11.348  14.343  68.214  1.00  0.00    -0.287 C  
HETATM    9  O   UNL     1     -12.242  14.312  67.372  1.00  0.00    -0.378 OA 
HETATM   10  N   UNL     1     -10.031  14.094  67.892  1.00  0.00    -0.227 N  
HETATM   11  H   UNL     1      -9.307  14.161  68.607  1.00  0.00     0.000 HD 
BRANCH  10  12
HETATM   12  C   UNL     1      -9.681  13.735  66.531  1.00  0.00    -0.293 C  
BRANCH  12  13
HETATM   13  C   UNL     1      -9.308  12.251  66.380  1.00  0.00    -0.219 C  
BRANCH  13  14
HETATM   14  N   UNL     1     -10.424  11.371  65.964  1.00  0.00    -0.248 NA 
HETATM   15  C   UNL     1     -11.235  11.944  64.860  1.00  0.00    -0.292 C  
HETATM   16  C   UNL     1     -10.503  11.998  63.509  1.00  0.00    -0.464 C  
HETATM   17  O   UNL     1     -10.035  10.700  63.117  1.00  0.00    -0.320 OA 
HETATM   18  C   UNL     1      -9.191  10.131  64.124  1.00  0.00    -0.270 C  
HETATM   19  C   UNL     1      -9.906  10.063  65.488  1.00  0.00    -0.303 C  
ENDBRANCH  13  14
ENDBRANCH  12  13
ENDBRANCH  10  12
ENDBRANCH   5   8
TORSDOF 4
ENDMDL
MODEL       23
REMARK 921   NORMALIZED FREE ENERGY PREDICTED BY IDOCK:   -5.23 KCAL/MOL
REMARK 922        TOTAL FREE ENERGY PREDICTED BY IDOCK:   -6.85 KCAL/MOL
REMARK 923 INTER-LIGAND FREE ENERGY PREDICTED BY IDOCK:   -6.54 KCAL/MOL
REMARK 924 INTRA-LIGAND FREE ENERGY PREDICTED BY IDOCK:   -0.30 KCAL/MOL
REMARK 927      BINDING AFFINITY PREDICTED BY RF-SCORE:    0.00 PKD
ROOT
HETATM    1 CL   UNL     1     -10.890   6.997  73.472  1.00  0.00    -0.353 Cl 
HETATM    2  C   UNL     1     -11.195   8.270  72.358  1.00  0.00    -0.381 A  
HETATM    3  C   UNL     1     -10.171   8.735  71.539  1.00  0.00    -0.371 A  
HETATM    4  C   UNL     1     -10.425   9.766  70.634  1.00  0.00    -0.358 A  
HETATM    5  C   UNL     1     -11.703  10.345  70.539  1.00  0.00    -0.434 A  
HETATM    6  C   UNL     1     -12.727   9.864  71.369  1.00  0.00    -0.503 A  
HETATM    7  C   UNL     1     -12.471   8.831  72.277  1.00  0.00    -0.455 A  
ENDROOT
BRANCH   5   8
HETATM    8  C   UNL     1     -11.901  11.422  69.525  1.00  0.00    -0.357 C  
HETATM    9  O   UNL     1     -12.208  11.123  68.373  1.00  0.00    -0.610 OA 
HETATM   10  N   UNL     1     -11.726  12.732  69.918  1.00  0.00    -0.484 N  
HETATM   11  H   UNL     1     -11.506  12.950  70.890  1.00  0.00     0.000 HD 
BRANCH  10  12
HETATM   12  C   UNL     1     -11.857  13.798  68.944  1.00  0.00    -0.360 C  
BRANCH  12  13
HETATM   13  C   UNL     1     -10.505  14.410  68.542  1.00  0.00    -0.254 C  
BRANCH  13  14
HETATM   14  N   UNL     1      -9.970  15.410  69.493  1.00  0.00    -0.255 NA 
HETATM   15  C   UNL     1      -8.518  15.665  69.312  1.00  0.00    -0.265 C  
HETATM   16  C   UNL     1      -8.171  16.412  68.013  1.00  0.00    -0.169 C  
HETATM   17  O   UNL     1      -8.877  17.658  67.922  1.00  0.00    -0.237 OA 
HETATM   18  C   UNL     1     -10.292  17.457  68.025  1.00  0.00    -0.362 C  
HETATM   19  C   UNL     1     -10.663  16.713  69.323  1.00  0.00    -0.337 C  
ENDBRANCH  13  14
ENDBRANCH  12  13
ENDBRANCH  10  12
ENDBRANCH   5   8
TORSDOF 4
ENDMDL
MODEL       24
REMARK 921   NORMALIZED FREE ENERGY PREDICTED BY IDOCK:   -5.23 KCAL/MOL
REMARK 922        TOTAL FREE ENERGY PREDICTED BY IDOCK:   -6.84 KCAL/MOL
REMARK 923 INTER-LIGAND FREE ENERGY PREDICTED BY IDOCK:   -6.46 KCAL/MOL
REMARK 924 INTRA-LIGAND FREE ENERGY PREDICTED BY IDOCK:   -0.38 KCAL/MOL
REMARK 927      BINDING AFFINITY PREDICTED BY RF-SCORE:    0.00 PKD
ROOT
HETATM    1 CL   UNL     1     -10.473  12.260  63.378  1.00  0.00    -0.450 Cl 
HETATM    2  C   UNL     1     -10.911  12.110  65.033  1.00  0.00    -0.300 A  
HETATM    3  C   UNL     1     -10.500  10.998  65.761  1.00  0.00    -0.290 A  
HETATM    4  C   UNL     1     -10.856  10.882  67.106  1.00  0.00    -0.337 A  
HETATM    5  C   UNL     1     -11.627  11.875  67.736  1.00  0.00    -0.393 A  
HETATM    6  C   UNL     1     -12.032  12.992  66.991  1.00  0.00    -0.409 A  
HETATM    7  C   UNL     1     -11.675  13.107  65.643  1.00  0.00    -0.402 A  
ENDROOT
BRANCH   5   8
HETATM    8  C   UNL     1     -11.939  11.693  69.185  1.00  0.00    -0.313 C  
HETATM    9  O   UNL     1     -11.813  12.640  69.957  1.00  0.00    -0.329 OA 
HETATM   10  N   UNL     1     -12.358  10.451  69.613  1.00  0.00    -0.546 N  
HETATM   11  H   UNL     1     -12.486   9.694  68.941  1.00  0.00     0.000 HD 
BRANCH  10  12
HETATM   12  C   UNL     1     -12.616  10.227  71.022  1.00  0.00    -0.390 C  
BRANCH  12  13
HETATM   13  C   UNL     1     -11.543   9.356  71.695  1.00  0.00    -0.396 C  
BRANCH  13  14
HETATM   14  N   UNL     1     -12.053   8.114  72.318  1.00  0.00    -0.356 NA 
HETATM   15  C   UNL     1     -12.690   7.194  71.341  1.00  0.00    -0.391 C  
HETATM   16  C   UNL     1     -11.701   6.540  70.361  1.00  0.00    -0.375 C  
HETATM   17  O   UNL     1     -10.665   5.834  71.058  1.00  0.00    -0.247 OA 
HETATM   18  C   UNL     1      -9.975   6.698  71.968  1.00  0.00    -0.165 C  
HETATM   19  C   UNL     1     -10.946   7.362  72.964  1.00  0.00    -0.374 C  
ENDBRANCH  13  14
ENDBRANCH  12  13
ENDBRANCH  10  12
ENDBRANCH   5   8
TORSDOF 4
ENDMDL
MODEL       25
REMARK 921   NORMALIZED FREE ENERGY PREDICTED BY IDOCK:   -5.23 KCAL/MOL
REMARK 922        TOTAL FREE ENERGY PREDICTED BY IDOCK:   -6.84 KCAL/MOL
REMARK 923 INTER-LIGAND FREE ENERGY PREDICTED BY IDOCK:   -6.50 KCAL/MOL
REMARK 924 INTRA-LIGAND FREE ENERGY PREDICTED BY IDOCK:   -0.35 KCAL/MOL
REMARK 927      BINDING AFFINITY PREDICTED BY RF-SCORE:    0.00 PKD
ROOT
HETATM    1 CL   UNL     1     -10.298  17.304  69.070  1.00  0.00    -0.343 Cl 
HETATM    2  C   UNL     1     -11.138  16.045  69.883  1.00  0.00    -0.352 A  
HETATM    3  C   UNL     1     -11.485  14.886  69.196  1.00  0.00    -0.324 A  
HETATM    4  C   UNL     1     -12.164  13.865  69.862  1.00  0.00    -0.393 A  
HETATM    5  C   UNL     1     -12.505  13.991  71.221  1.00  0.00    -0.448 A  
HETATM    6  C   UNL     1     -12.147  15.164  71.902  1.00  0.00    -0.448 A  
HETATM    7  C   UNL     1     -11.467  16.187  71.233  1.00  0.00    -0.433 A  
ENDROOT
BRANCH   5   8
HETATM    8  C   UNL     1     -13.204  12.842  71.869  1.00  0.00    -0.423 C  
HETATM    9  O   UNL     1     -14.097  13.056  72.685  1.00  0.00    -0.643 OA 
HETATM   10  N   UNL     1     -12.816  11.564  71.528  1.00  0.00    -0.409 N  
HETATM   11  H   UNL     1     -12.095  11.419  70.821  1.00  0.00     0.000 HD 
BRANCH  10  12
HETATM   12  C   UNL     1     -13.437  10.427  72.181  1.00  0.00    -0.196 C  
BRANCH  12  13
HETATM   13  C   UNL     1     -13.220   9.109  71.421  1.00  0.00    -0.299 C  
BRANCH  13  14
HETATM   14  N   UNL     1     -12.408   8.103  72.143  1.00  0.00    -0.333 NA 
HETATM   15  C   UNL     1     -12.400   6.776  71.477  1.00  0.00    -0.358 C  
HETATM   16  C   UNL     1     -11.626   6.748  70.148  1.00  0.00    -0.341 C  
HETATM   17  O   UNL     1     -10.272   7.188  70.323  1.00  0.00    -0.194 OA 
HETATM   18  C   UNL     1     -10.226   8.497  70.905  1.00  0.00    -0.200 C  
HETATM   19  C   UNL     1     -10.994   8.548  72.241  1.00  0.00    -0.355 C  
ENDBRANCH  13  14
ENDBRANCH  12  13
ENDBRANCH  10  12
ENDBRANCH   5   8
TORSDOF 4
ENDMDL
MODEL       26
REMARK 921   NORMALIZED FREE ENERGY PREDICTED BY IDOCK:   -5.21 KCAL/MOL
REMARK 922        TOTAL FREE ENERGY PREDICTED BY IDOCK:   -6.81 KCAL/MOL
REMARK 923 INTER-LIGAND FREE ENERGY PREDICTED BY IDOCK:   -6.56 KCAL/MOL
REMARK 924 INTRA-LIGAND FREE ENERGY PREDICTED BY IDOCK:   -0.26 KCAL/MOL
REMARK 927      BINDING AFFINITY PREDICTED BY RF-SCORE:    0.00 PKD
ROOT
HETATM    1 CL   UNL     1     -10.412   5.960  73.749  1.00  0.00    -0.266 Cl 
HETATM    2  C   UNL     1     -10.725   7.349  72.787  1.00  0.00    -0.314 A  
HETATM    3  C   UNL     1      -9.681   7.976  72.113  1.00  0.00    -0.283 A  
HETATM    4  C   UNL     1      -9.940   9.102  71.331  1.00  0.00    -0.373 A  
HETATM    5  C   UNL     1     -11.244   9.615  71.215  1.00  0.00    -0.446 A  
HETATM    6  C   UNL     1     -12.288   8.972  71.898  1.00  0.00    -0.455 A  
HETATM    7  C   UNL     1     -12.026   7.844  72.682  1.00  0.00    -0.299 A  
ENDROOT
BRANCH   5   8
HETATM    8  C   UNL     1     -11.444  10.805  70.335  1.00  0.00    -0.307 C  
HETATM    9  O   UNL     1     -12.494  11.440  70.401  1.00  0.00    -0.298 OA 
HETATM   10  N   UNL     1     -10.433  11.151  69.464  1.00  0.00    -0.439 N  
HETATM   11  H   UNL     1      -9.559  10.625  69.457  1.00  0.00     0.000 HD 
BRANCH  10  12
HETATM   12  C   UNL     1     -10.619  12.267  68.557  1.00  0.00    -0.234 C  
BRANCH  12  13
HETATM   13  C   UNL     1     -11.072  11.829  67.154  1.00  0.00    -0.296 C  
BRANCH  13  14
HETATM   14  N   UNL     1     -12.150  12.655  66.564  1.00  0.00    -0.552 NA 
HETATM   15  C   UNL     1     -11.980  14.107  66.829  1.00  0.00    -0.447 C  
HETATM   16  C   UNL     1     -10.799  14.746  66.079  1.00  0.00    -0.318 C  
HETATM   17  O   UNL     1     -10.908  14.541  64.663  1.00  0.00    -0.391 OA 
HETATM   18  C   UNL     1     -11.008  13.147  64.350  1.00  0.00    -0.390 C  
HETATM   19  C   UNL     1     -12.188  12.485  65.089  1.00  0.00    -0.448 C  
ENDBRANCH  13  14
ENDBRANCH  12  13
ENDBRANCH  10  12
ENDBRANCH   5   8
TORSDOF 4
ENDMDL
MODEL       27
REMARK 921   NORMALIZED FREE ENERGY PREDICTED BY IDOCK:   -5.16 KCAL/MOL
REMARK 922        TOTAL FREE ENERGY PREDICTED BY IDOCK:   -6.76 KCAL/MOL
REMARK 923 INTER-LIGAND FREE ENERGY PREDICTED BY IDOCK:   -6.37 KCAL/MOL
REMARK 924 INTRA-LIGAND FREE ENERGY PREDICTED BY IDOCK:   -0.39 KCAL/MOL
REMARK 927      BINDING AFFINITY PREDICTED BY RF-SCORE:    0.00 PKD
ROOT
HETATM    1 CL   UNL     1      -7.285  20.761  67.463  1.00  0.00    -0.385 Cl 
HETATM    2  C   UNL     1      -8.298  19.510  66.861  1.00  0.00    -0.288 A  
HETATM    3  C   UNL     1      -9.609  19.796  66.493  1.00  0.00    -0.509 A  
HETATM    4  C   UNL     1     -10.426  18.776  66.001  1.00  0.00    -0.483 A  
HETATM    5  C   UNL     1      -9.943  17.462  65.874  1.00  0.00    -0.166 A  
HETATM    6  C   UNL     1      -8.618  17.189  66.246  1.00  0.00    -0.276 A  
HETATM    7  C   UNL     1      -7.800  18.211  66.739  1.00  0.00    -0.257 A  
ENDROOT
BRANCH   5   8
HETATM    8  C   UNL     1     -10.870  16.436  65.311  1.00  0.00    -0.258 C  
HETATM    9  O   UNL     1     -11.340  16.593  64.187  1.00  0.00    -1.141 OA 
HETATM   10  N   UNL     1     -11.175  15.335  66.084  1.00  0.00    -0.280 N  
HETATM   11  H   UNL     1     -10.741  15.216  67.000  1.00  0.00     0.000 HD 
BRANCH  10  12
HETATM   12  C   UNL     1     -12.115  14.349  65.589  1.00  0.00    -0.354 C  
BRANCH  12  13
HETATM   13  C   UNL     1     -11.589  12.909  65.705  1.00  0.00    -0.368 C  
BRANCH  13  14
HETATM   14  N   UNL     1     -10.156  12.744  65.370  1.00  0.00    -0.281 NA 
HETATM   15  C   UNL     1      -9.544  11.552  66.011  1.00  0.00    -0.228 C  
HETATM   16  C   UNL     1     -10.042  10.212  65.444  1.00  0.00    -0.272 C  
HETATM   17  O   UNL     1      -9.836  10.135  64.026  1.00  0.00    -0.290 OA 
HETATM   18  C   UNL     1     -10.466  11.232  63.354  1.00  0.00    -0.361 C  
HETATM   19  C   UNL     1      -9.978  12.587  63.904  1.00  0.00    -0.173 C  
ENDBRANCH  13  14
ENDBRANCH  12  13
ENDBRANCH  10  12
ENDBRANCH   5   8
TORSDOF 4
ENDMDL
MODEL       28
REMARK 921   NORMALIZED FREE ENERGY PREDICTED BY IDOCK:   -5.16 KCAL/MOL
REMARK 922        TOTAL FREE ENERGY PREDICTED BY IDOCK:   -6.76 KCAL/MOL
REMARK 923 INTER-LIGAND FREE ENERGY PREDICTED BY IDOCK:   -6.58 KCAL/MOL
REMARK 924 INTRA-LIGAND FREE ENERGY PREDICTED BY IDOCK:   -0.18 KCAL/MOL
REMARK 927      BINDING AFFINITY PREDICTED BY RF-SCORE:    0.00 PKD
ROOT
HETATM    1 CL   UNL     1     -13.471   9.065  72.231  1.00  0.00    -0.485 Cl 
HETATM    2  C   UNL     1     -12.972  10.583  71.599  1.00  0.00    -0.476 A  
HETATM    3  C   UNL     1     -12.068  10.630  70.542  1.00  0.00    -0.448 A  
HETATM    4  C   UNL     1     -11.668  11.865  70.029  1.00  0.00    -0.366 A  
HETATM    5  C   UNL     1     -12.165  13.065  70.568  1.00  0.00    -0.392 A  
HETATM    6  C   UNL     1     -13.078  13.002  71.632  1.00  0.00    -0.440 A  
HETATM    7  C   UNL     1     -13.477  11.764  72.145  1.00  0.00    -0.273 A  
ENDROOT
BRANCH   5   8
HETATM    8  C   UNL     1     -11.713  14.344  69.944  1.00  0.00    -0.303 C  
HETATM    9  O   UNL     1     -12.348  15.376  70.145  1.00  0.00    -0.356 OA 
HETATM   10  N   UNL     1     -10.586  14.322  69.150  1.00  0.00    -0.340 N  
HETATM   11  H   UNL     1     -10.060  13.455  69.031  1.00  0.00     0.000 HD 
BRANCH  10  12
HETATM   12  C   UNL     1     -10.153  15.535  68.485  1.00  0.00    -0.211 C  
BRANCH  12  13
HETATM   13  C   UNL     1     -10.849  15.757  67.133  1.00  0.00    -0.289 C  
BRANCH  13  14
HETATM   14  N   UNL     1     -10.357  14.895  66.034  1.00  0.00    -0.283 NA 
HETATM   15  C   UNL     1     -10.893  13.512  66.097  1.00  0.00    -0.281 C  
HETATM   16  C   UNL     1     -12.395  13.407  65.782  1.00  0.00    -0.460 C  
HETATM   17  O   UNL     1     -12.699  13.965  64.496  1.00  0.00    -0.649 OA 
HETATM   18  C   UNL     1     -12.259  15.326  64.408  1.00  0.00    -0.210 C  
HETATM   19  C   UNL     1     -10.754  15.454  64.715  1.00  0.00    -0.314 C  
ENDBRANCH  13  14
ENDBRANCH  12  13
ENDBRANCH  10  12
ENDBRANCH   5   8
TORSDOF 4
ENDMDL
MODEL       29
REMARK 921   NORMALIZED FREE ENERGY PREDICTED BY IDOCK:   -5.15 KCAL/MOL
REMARK 922        TOTAL FREE ENERGY PREDICTED BY IDOCK:   -6.75 KCAL/MOL
REMARK 923 INTER-LIGAND FREE ENERGY PREDICTED BY IDOCK:   -6.51 KCAL/MOL
REMARK 924 INTRA-LIGAND FREE ENERGY PREDICTED BY IDOCK:   -0.24 KCAL/MOL
REMARK 927      BINDING AFFINITY PREDICTED BY RF-SCORE:    0.00 PKD
ROOT
HETATM    1 CL   UNL     1     -11.278   8.001  72.889  1.00  0.00    -0.449 Cl 
HETATM    2  C   UNL     1     -11.382   9.199  71.662  1.00  0.00    -0.376 A  
HETATM    3  C   UNL     1     -12.474  10.061  71.625  1.00  0.00    -0.513 A  
HETATM    4  C   UNL     1     -12.553  11.034  70.628  1.00  0.00    -0.427 A  
HETATM    5  C   UNL     1     -11.544  11.156  69.656  1.00  0.00    -0.398 A  
HETATM    6  C   UNL     1     -10.447  10.282  69.707  1.00  0.00    -0.300 A  
HETATM    7  C   UNL     1     -10.370   9.307  70.706  1.00  0.00    -0.348 A  
ENDROOT
BRANCH   5   8
HETATM    8  C   UNL     1     -11.687  12.242  68.642  1.00  0.00    -0.328 C  
HETATM    9  O   UNL     1     -11.801  11.952  67.453  1.00  0.00    -0.571 OA 
HETATM   10  N   UNL     1     -11.680  13.550  69.078  1.00  0.00    -0.305 N  
HETATM   11  H   UNL     1     -11.617  13.757  70.075  1.00  0.00     0.000 HD 
BRANCH  10  12
HETATM   12  C   UNL     1     -11.760  14.629  68.113  1.00  0.00    -0.330 C  
BRANCH  12  13
HETATM   13  C   UNL     1     -10.995  15.886  68.555  1.00  0.00    -0.324 C  
BRANCH  13  14
HETATM   14  N   UNL     1     -10.358  16.644  67.454  1.00  0.00    -0.288 NA 
HETATM   15  C   UNL     1     -10.568  18.110  67.561  1.00  0.00    -0.401 C  
HETATM   16  C   UNL     1      -9.810  18.768  68.727  1.00  0.00    -0.384 C  
HETATM   17  O   UNL     1      -8.402  18.505  68.649  1.00  0.00    -0.326 OA 
HETATM   18  C   UNL     1      -8.143  17.096  68.610  1.00  0.00    -0.264 C  
HETATM   19  C   UNL     1      -8.890  16.416  67.446  1.00  0.00    -0.183 C  
ENDBRANCH  13  14
ENDBRANCH  12  13
ENDBRANCH  10  12
ENDBRANCH   5   8
TORSDOF 4
ENDMDL
MODEL       30
REMARK 921   NORMALIZED FREE ENERGY PREDICTED BY IDOCK:   -5.15 KCAL/MOL
REMARK 922        TOTAL FREE ENERGY PREDICTED BY IDOCK:   -6.75 KCAL/MOL
REMARK 923 INTER-LIGAND FREE ENERGY PREDICTED BY IDOCK:   -6.41 KCAL/MOL
REMARK 924 INTRA-LIGAND FREE ENERGY PREDICTED BY IDOCK:   -0.34 KCAL/MOL
REMARK 927      BINDING AFFINITY PREDICTED BY RF-SCORE:    0.00 PKD
ROOT
HETATM    1 CL   UNL     1     -13.667  13.433  72.703  1.00  0.00    -0.616 Cl 
HETATM    2  C   UNL     1     -12.858  13.766  71.224  1.00  0.00    -0.357 A  
HETATM    3  C   UNL     1     -12.746  15.078  70.775  1.00  0.00    -0.438 A  
HETATM    4  C   UNL     1     -12.084  15.344  69.575  1.00  0.00    -0.332 A  
HETATM    5  C   UNL     1     -11.530  14.302  68.810  1.00  0.00    -0.327 A  
HETATM    6  C   UNL     1     -11.648  12.984  69.276  1.00  0.00    -0.367 A  
HETATM    7  C   UNL     1     -12.312  12.719  70.479  1.00  0.00    -0.355 A  
ENDROOT
BRANCH   5   8
HETATM    8  C   UNL     1     -10.811  14.671  67.555  1.00  0.00    -0.286 C  
HETATM    9  O   UNL     1     -10.881  13.932  66.575  1.00  0.00    -0.292 OA 
HETATM   10  N   UNL     1     -10.081  15.840  67.538  1.00  0.00    -0.241 N  
HETATM   11  H   UNL     1     -10.071  16.450  68.357  1.00  0.00     0.000 HD 
BRANCH  10  12
HETATM   12  C   UNL     1      -9.327  16.199  66.353  1.00  0.00    -0.298 C  
BRANCH  12  13
HETATM   13  C   UNL     1      -8.452  17.447  66.555  1.00  0.00    -0.264 C  
BRANCH  13  14
HETATM   14  N   UNL     1      -8.885  18.638  65.789  1.00  0.00    -0.324 NA 
HETATM   15  C   UNL     1     -10.307  18.996  66.026  1.00  0.00    -0.446 C  
HETATM   16  C   UNL     1     -10.588  19.545  67.435  1.00  0.00    -0.485 C  
HETATM   17  O   UNL     1      -9.767  20.686  67.724  1.00  0.00    -0.355 OA 
HETATM   18  C   UNL     1      -8.377  20.372  67.573  1.00  0.00    -0.282 C  
HETATM   19  C   UNL     1      -8.071  19.823  66.166  1.00  0.00    -0.342 C  
ENDBRANCH  13  14
ENDBRANCH  12  13
ENDBRANCH  10  12
ENDBRANCH   5   8
TORSDOF 4
ENDMDL
MODEL       31
REMARK 921   NORMALIZED FREE ENERGY PREDICTED BY IDOCK:   -5.15 KCAL/MOL
REMARK 922        TOTAL FREE ENERGY PREDICTED BY IDOCK:   -6.74 KCAL/MOL
REMARK 923 INTER-LIGAND FREE ENERGY PREDICTED BY IDOCK:   -6.46 KCAL/MOL
REMARK 924 INTRA-LIGAND FREE ENERGY PREDICTED BY IDOCK:   -0.28 KCAL/MOL
REMARK 927      BINDING AFFINITY PREDICTED BY RF-SCORE:    0.00 PKD
ROOT
HETATM    1 CL   UNL     1     -12.248   7.390  71.342  1.00  0.00    -0.355 Cl 
HETATM    2  C   UNL     1     -12.288   9.103  71.208  1.00  0.00    -0.315 A  
HETATM    3  C   UNL     1     -13.135   9.843  72.028  1.00  0.00    -0.545 A  
HETATM    4  C   UNL     1     -13.162  11.234  71.917  1.00  0.00    -0.491 A  
HETATM    5  C   UNL     1     -12.345  11.900  70.985  1.00  0.00    -0.362 A  
HETATM    6  C   UNL     1     -11.495  11.141  70.167  1.00  0.00    -0.361 A  
HETATM    7  C   UNL     1     -11.469   9.747  70.278  1.00  0.00    -0.317 A  
ENDROOT
BRANCH   5   8
HETATM    8  C   UNL     1     -12.410  13.391  70.950  1.00  0.00    -0.353 C  
HETATM    9  O   UNL     1     -13.222  13.981  71.659  1.00  0.00    -0.333 OA 
HETATM   10  N   UNL     1     -11.550  14.064  70.108  1.00  0.00    -0.438 N  
HETATM   11  H   UNL     1     -10.863  13.547  69.558  1.00  0.00     0.000 HD 
BRANCH  10  12
HETATM   12  C   UNL     1     -11.626  15.508  70.010  1.00  0.00    -0.341 C  
BRANCH  12  13
HETATM   13  C   UNL     1     -10.575  16.099  69.056  1.00  0.00    -0.273 C  
BRANCH  13  14
HETATM   14  N   UNL     1     -11.117  16.612  67.777  1.00  0.00    -0.226 NA 
HETATM   15  C   UNL     1     -10.578  17.947  67.412  1.00  0.00    -0.360 C  
HETATM   16  C   UNL     1      -9.093  17.935  67.013  1.00  0.00    -0.253 C  
HETATM   17  O   UNL     1      -8.850  17.023  65.932  1.00  0.00    -0.518 OA 
HETATM   18  C   UNL     1      -9.294  15.702  66.262  1.00  0.00    -0.323 C  
HETATM   19  C   UNL     1     -10.783  15.690  66.661  1.00  0.00    -0.296 C  
ENDBRANCH  13  14
ENDBRANCH  12  13
ENDBRANCH  10  12
ENDBRANCH   5   8
TORSDOF 4
ENDMDL
MODEL       32
REMARK 921   NORMALIZED FREE ENERGY PREDICTED BY IDOCK:   -5.14 KCAL/MOL
REMARK 922        TOTAL FREE ENERGY PREDICTED BY IDOCK:   -6.74 KCAL/MOL
REMARK 923 INTER-LIGAND FREE ENERGY PREDICTED BY IDOCK:   -6.31 KCAL/MOL
REMARK 924 INTRA-LIGAND FREE ENERGY PREDICTED BY IDOCK:   -0.43 KCAL/MOL
REMARK 927      BINDING AFFINITY PREDICTED BY RF-SCORE:    0.00 PKD
ROOT
HETATM    1 CL   UNL     1     -12.188  15.423  70.121  1.00  0.00    -0.387 Cl 
HETATM    2  C   UNL     1     -12.407  13.771  70.542  1.00  0.00    -0.359 A  
HETATM    3  C   UNL     1     -13.152  13.435  71.668  1.00  0.00    -0.463 A  
HETATM    4  C   UNL     1     -13.331  12.092  72.003  1.00  0.00    -0.470 A  
HETATM    5  C   UNL     1     -12.765  11.071  71.219  1.00  0.00    -0.537 A  
HETATM    6  C   UNL     1     -12.018  11.424  70.085  1.00  0.00    -0.460 A  
HETATM    7  C   UNL     1     -11.840  12.770  69.750  1.00  0.00    -0.380 A  
ENDROOT
BRANCH   5   8
HETATM    8  C   UNL     1     -13.027   9.659  71.627  1.00  0.00    -0.407 C  
HETATM    9  O   UNL     1     -13.635   9.431  72.670  1.00  0.00    -0.425 OA 
HETATM   10  N   UNL     1     -12.568   8.646  70.812  1.00  0.00    -0.482 N  
HETATM   11  H   UNL     1     -12.097   8.868  69.934  1.00  0.00     0.000 HD 
BRANCH  10  12
HETATM   12  C   UNL     1     -12.758   7.265  71.208  1.00  0.00    -0.359 C  
BRANCH  12  13
HETATM   13  C   UNL     1     -11.450   6.457  71.210  1.00  0.00    -0.314 C  
BRANCH  13  14
HETATM   14  N   UNL     1     -10.938   6.108  72.555  1.00  0.00    -0.245 NA 
HETATM   15  C   UNL     1      -9.659   5.354  72.511  1.00  0.00    -0.149 C  
HETATM   16  C   UNL     1      -8.455   6.189  72.044  1.00  0.00    -0.121 C  
HETATM   17  O   UNL     1      -8.280   7.355  72.862  1.00  0.00    -0.105 OA 
HETATM   18  C   UNL     1      -9.469   8.153  72.883  1.00  0.00    -0.275 C  
HETATM   19  C   UNL     1     -10.690   7.337  73.353  1.00  0.00    -0.369 C  
ENDBRANCH  13  14
ENDBRANCH  12  13
ENDBRANCH  10  12
ENDBRANCH   5   8
TORSDOF 4
ENDMDL
MODEL       33
REMARK 921   NORMALIZED FREE ENERGY PREDICTED BY IDOCK:   -5.13 KCAL/MOL
REMARK 922        TOTAL FREE ENERGY PREDICTED BY IDOCK:   -6.73 KCAL/MOL
REMARK 923 INTER-LIGAND FREE ENERGY PREDICTED BY IDOCK:   -6.44 KCAL/MOL
REMARK 924 INTRA-LIGAND FREE ENERGY PREDICTED BY IDOCK:   -0.28 KCAL/MOL
REMARK 927      BINDING AFFINITY PREDICTED BY RF-SCORE:    0.00 PKD
ROOT
HETATM    1 CL   UNL     1     -13.359   9.280  72.491  1.00  0.00    -0.503 Cl 
HETATM    2  C   UNL     1     -12.831  10.595  71.518  1.00  0.00    -0.462 A  
HETATM    3  C   UNL     1     -12.094  10.351  70.363  1.00  0.00    -0.402 A  
HETATM    4  C   UNL     1     -11.671  11.422  69.575  1.00  0.00    -0.417 A  
HETATM    5  C   UNL     1     -11.976  12.747  69.933  1.00  0.00    -0.368 A  
HETATM    6  C   UNL     1     -12.721  12.978  71.099  1.00  0.00    -0.372 A  
HETATM    7  C   UNL     1     -13.145  11.904  71.889  1.00  0.00    -0.474 A  
ENDROOT
BRANCH   5   8
HETATM    8  C   UNL     1     -11.513  13.834  69.020  1.00  0.00    -0.305 C  
HETATM    9  O   UNL     1     -12.255  14.235  68.127  1.00  0.00    -0.284 OA 
HETATM   10  N   UNL     1     -10.251  14.355  69.211  1.00  0.00    -0.415 N  
HETATM   11  H   UNL     1      -9.672  14.025  69.984  1.00  0.00     0.000 HD 
BRANCH  10  12
HETATM   12  C   UNL     1      -9.751  15.373  68.307  1.00  0.00    -0.209 C  
BRANCH  12  13
HETATM   13  C   UNL     1      -9.561  16.737  68.989  1.00  0.00    -0.230 C  
BRANCH  13  14
HETATM   14  N   UNL     1     -10.414  17.823  68.453  1.00  0.00    -0.368 NA 
HETATM   15  C   UNL     1     -10.001  19.170  68.920  1.00  0.00    -0.416 C  
HETATM   16  C   UNL     1      -8.663  19.653  68.336  1.00  0.00    -0.311 C  
HETATM   17  O   UNL     1      -8.687  19.646  66.901  1.00  0.00    -0.296 OA 
HETATM   18  C   UNL     1      -9.017  18.346  66.398  1.00  0.00    -0.249 C  
HETATM   19  C   UNL     1     -10.358  17.843  66.968  1.00  0.00    -0.362 C  
ENDBRANCH  13  14
ENDBRANCH  12  13
ENDBRANCH  10  12
ENDBRANCH   5   8
TORSDOF 4
ENDMDL
MODEL       34
REMARK 921   NORMALIZED FREE ENERGY PREDICTED BY IDOCK:   -5.13 KCAL/MOL
REMARK 922        TOTAL FREE ENERGY PREDICTED BY IDOCK:   -6.72 KCAL/MOL
REMARK 923 INTER-LIGAND FREE ENERGY PREDICTED BY IDOCK:   -6.56 KCAL/MOL
REMARK 924 INTRA-LIGAND FREE ENERGY PREDICTED BY IDOCK:   -0.16 KCAL/MOL
REMARK 927      BINDING AFFINITY PREDICTED BY RF-SCORE:    0.00 PKD
ROOT
HETATM    1 CL   UNL     1      -7.070  21.175  67.222  1.00  0.00    -0.406 Cl 
HETATM    2  C   UNL     1      -8.072  19.864  66.742  1.00  0.00    -0.315 A  
HETATM    3  C   UNL     1      -9.420  20.083  66.474  1.00  0.00    -0.518 A  
HETATM    4  C   UNL     1     -10.229  19.016  66.082  1.00  0.00    -0.508 A  
HETATM    5  C   UNL     1      -9.701  17.719  65.955  1.00  0.00    -0.145 A  
HETATM    6  C   UNL     1      -8.340  17.513  66.226  1.00  0.00    -0.259 A  
HETATM    7  C   UNL     1      -7.530  18.583  66.620  1.00  0.00    -0.253 A  
ENDROOT
BRANCH   5   8
HETATM    8  C   UNL     1     -10.624  16.637  65.501  1.00  0.00    -0.258 C  
HETATM    9  O   UNL     1     -11.243  16.768  64.448  1.00  0.00    -1.112 OA 
HETATM   10  N   UNL     1     -10.757  15.515  66.292  1.00  0.00    -0.310 N  
HETATM   11  H   UNL     1     -10.203  15.420  67.143  1.00  0.00     0.000 HD 
BRANCH  10  12
HETATM   12  C   UNL     1     -11.687  14.472  65.906  1.00  0.00    -0.345 C  
BRANCH  12  13
HETATM   13  C   UNL     1     -11.963  13.468  67.038  1.00  0.00    -0.394 C  
BRANCH  13  14
HETATM   14  N   UNL     1     -10.887  13.365  68.051  1.00  0.00    -0.241 NA 
HETATM   15  C   UNL     1     -11.142  14.196  69.255  1.00  0.00    -0.250 C  
HETATM   16  C   UNL     1     -12.298  13.689  70.132  1.00  0.00    -0.304 C  
HETATM   17  O   UNL     1     -12.086  12.330  70.542  1.00  0.00    -0.364 OA 
HETATM   18  C   UNL     1     -11.901  11.474  69.408  1.00  0.00    -0.350 C  
HETATM   19  C   UNL     1     -10.743  11.961  68.515  1.00  0.00    -0.224 C  
ENDBRANCH  13  14
ENDBRANCH  12  13
ENDBRANCH  10  12
ENDBRANCH   5   8
TORSDOF 4
ENDMDL
MODEL       35
REMARK 921   NORMALIZED FREE ENERGY PREDICTED BY IDOCK:   -5.12 KCAL/MOL
REMARK 922        TOTAL FREE ENERGY PREDICTED BY IDOCK:   -6.71 KCAL/MOL
REMARK 923 INTER-LIGAND FREE ENERGY PREDICTED BY IDOCK:   -6.47 KCAL/MOL
REMARK 924 INTRA-LIGAND FREE ENERGY PREDICTED BY IDOCK:   -0.25 KCAL/MOL
REMARK 927      BINDING AFFINITY PREDICTED BY RF-SCORE:    0.00 PKD
ROOT
HETATM    1 CL   UNL     1      -9.405   7.655  66.158  1.00  0.00    -0.181 Cl 
HETATM    2  C   UNL     1     -10.022   9.228  66.471  1.00  0.00    -0.274 A  
HETATM    3  C   UNL     1      -9.927  10.217  65.497  1.00  0.00    -0.363 A  
HETATM    4  C   UNL     1     -10.432  11.492  65.755  1.00  0.00    -0.308 A  
HETATM    5  C   UNL     1     -11.036  11.793  66.989  1.00  0.00    -0.358 A  
HETATM    6  C   UNL     1     -11.127  10.786  67.961  1.00  0.00    -0.359 A  
HETATM    7  C   UNL     1     -10.620   9.508  67.701  1.00  0.00    -0.329 A  
ENDROOT
BRANCH   5   8
HETATM    8  C   UNL     1     -11.579  13.171  67.175  1.00  0.00    -0.361 C  
HETATM    9  O   UNL     1     -12.338  13.644  66.333  1.00  0.00    -0.424 OA 
HETATM   10  N   UNL     1     -11.202  13.877  68.298  1.00  0.00    -0.259 N  
HETATM   11  H   UNL     1     -10.597  13.443  68.997  1.00  0.00     0.000 HD 
BRANCH  10  12
HETATM   12  C   UNL     1     -11.667  15.238  68.480  1.00  0.00    -0.332 C  
BRANCH  12  13
HETATM   13  C   UNL     1     -12.332  15.465  69.848  1.00  0.00    -0.293 C  
BRANCH  13  14
HETATM   14  N   UNL     1     -11.795  14.627  70.945  1.00  0.00    -0.311 NA 
HETATM   15  C   UNL     1     -11.591  15.384  72.206  1.00  0.00    -0.459 C  
HETATM   16  C   UNL     1     -12.896  15.813  72.897  1.00  0.00    -0.482 C  
HETATM   17  O   UNL     1     -13.742  14.685  73.163  1.00  0.00    -0.530 OA 
HETATM   18  C   UNL     1     -14.023  13.957  71.962  1.00  0.00    -0.495 C  
HETATM   19  C   UNL     1     -12.728  13.513  71.254  1.00  0.00    -0.348 C  
ENDBRANCH  13  14
ENDBRANCH  12  13
ENDBRANCH  10  12
ENDBRANCH   5   8
TORSDOF 4
ENDMDL
MODEL       36
REMARK 921   NORMALIZED FREE ENERGY PREDICTED BY IDOCK:   -5.11 KCAL/MOL
REMARK 922        TOTAL FREE ENERGY PREDICTED BY IDOCK:   -6.70 KCAL/MOL
REMARK 923 INTER-LIGAND FREE ENERGY PREDICTED BY IDOCK:   -6.58 KCAL/MOL
REMARK 924 INTRA-LIGAND FREE ENERGY PREDICTED BY IDOCK:   -0.12 KCAL/MOL
REMARK 927      BINDING AFFINITY PREDICTED BY RF-SCORE:    0.00 PKD
ROOT
HETATM    1 CL   UNL     1     -10.369  17.928  66.803  1.00  0.00    -0.357 Cl 
HETATM    2  C   UNL     1     -10.652  16.283  67.213  1.00  0.00    -0.298 A  
HETATM    3  C   UNL     1     -11.304  15.967  68.400  1.00  0.00    -0.361 A  
HETATM    4  C   UNL     1     -11.534  14.629  68.727  1.00  0.00    -0.322 A  
HETATM    5  C   UNL     1     -11.114  13.595  67.872  1.00  0.00    -0.283 A  
HETATM    6  C   UNL     1     -10.460  13.929  66.676  1.00  0.00    -0.272 A  
HETATM    7  C   UNL     1     -10.229  15.269  66.350  1.00  0.00    -0.287 A  
ENDROOT
BRANCH   5   8
HETATM    8  C   UNL     1     -11.426  12.192  68.278  1.00  0.00    -0.305 C  
HETATM    9  O   UNL     1     -12.043  11.460  67.508  1.00  0.00    -0.592 OA 
HETATM   10  N   UNL     1     -11.009  11.763  69.520  1.00  0.00    -0.454 N  
HETATM   11  H   UNL     1     -10.467  12.384  70.122  1.00  0.00     0.000 HD 
BRANCH  10  12
HETATM   12  C   UNL     1     -11.344  10.424  69.966  1.00  0.00    -0.313 C  
BRANCH  12  13
HETATM   13  C   UNL     1     -12.678  10.364  70.727  1.00  0.00    -0.371 C  
BRANCH  13  14
HETATM   14  N   UNL     1     -12.612   9.687  72.042  1.00  0.00    -0.377 NA 
HETATM   15  C   UNL     1     -13.905   9.080  72.449  1.00  0.00    -0.475 C  
HETATM   16  C   UNL     1     -14.314   7.857  71.610  1.00  0.00    -0.479 C  
HETATM   17  O   UNL     1     -13.297   6.845  71.634  1.00  0.00    -0.341 OA 
HETATM   18  C   UNL     1     -12.040   7.367  71.185  1.00  0.00    -0.325 C  
HETATM   19  C   UNL     1     -11.609   8.592  72.015  1.00  0.00    -0.370 C  
ENDBRANCH  13  14
ENDBRANCH  12  13
ENDBRANCH  10  12
ENDBRANCH   5   8
TORSDOF 4
ENDMDL
MODEL       37
REMARK 921   NORMALIZED FREE ENERGY PREDICTED BY IDOCK:   -5.11 KCAL/MOL
REMARK 922        TOTAL FREE ENERGY PREDICTED BY IDOCK:   -6.70 KCAL/MOL
REMARK 923 INTER-LIGAND FREE ENERGY PREDICTED BY IDOCK:   -6.43 KCAL/MOL
REMARK 924 INTRA-LIGAND FREE ENERGY PREDICTED BY IDOCK:   -0.27 KCAL/MOL
REMARK 927      BINDING AFFINITY PREDICTED BY RF-SCORE:    0.00 PKD
ROOT
HETATM    1 CL   UNL     1     -10.627  17.889  67.799  1.00  0.00    -0.411 Cl 
HETATM    2  C   UNL     1     -11.005  16.250  68.151  1.00  0.00    -0.343 A  
HETATM    3  C   UNL     1     -10.887  15.283  67.158  1.00  0.00    -0.322 A  
HETATM    4  C   UNL     1     -11.192  13.952  67.450  1.00  0.00    -0.330 A  
HETATM    5  C   UNL     1     -11.620  13.575  68.735  1.00  0.00    -0.362 A  
HETATM    6  C   UNL     1     -11.732  14.560  69.727  1.00  0.00    -0.356 A  
HETATM    7  C   UNL     1     -11.427  15.893  69.434  1.00  0.00    -0.351 A  
ENDROOT
BRANCH   5   8
HETATM    8  C   UNL     1     -11.897  12.127  68.975  1.00  0.00    -0.306 C  
HETATM    9  O   UNL     1     -12.109  11.383  68.021  1.00  0.00    -0.629 OA 
HETATM   10  N   UNL     1     -11.910  11.670  70.276  1.00  0.00    -0.442 N  
HETATM   11  H   UNL     1     -11.695  12.306  71.045  1.00  0.00     0.000 HD 
BRANCH  10  12
HETATM   12  C   UNL     1     -12.231  10.282  70.545  1.00  0.00    -0.301 C  
BRANCH  12  13
HETATM   13  C   UNL     1     -11.182   9.586  71.428  1.00  0.00    -0.382 C  
BRANCH  13  14
HETATM   14  N   UNL     1     -11.713   8.501  72.284  1.00  0.00    -0.371 NA 
HETATM   15  C   UNL     1     -12.550   7.529  71.537  1.00  0.00    -0.355 C  
HETATM   16  C   UNL     1     -11.758   6.646  70.556  1.00  0.00    -0.394 C  
HETATM   17  O   UNL     1     -10.706   5.937  71.225  1.00  0.00    -0.244 OA 
HETATM   18  C   UNL     1      -9.830   6.840  71.910  1.00  0.00    -0.165 C  
HETATM   19  C   UNL     1     -10.602   7.733  72.902  1.00  0.00    -0.366 C  
ENDBRANCH  13  14
ENDBRANCH  12  13
ENDBRANCH  10  12
ENDBRANCH   5   8
TORSDOF 4
ENDMDL
MODEL       38
REMARK 921   NORMALIZED FREE ENERGY PREDICTED BY IDOCK:   -5.10 KCAL/MOL
REMARK 922        TOTAL FREE ENERGY PREDICTED BY IDOCK:   -6.68 KCAL/MOL
REMARK 923 INTER-LIGAND FREE ENERGY PREDICTED BY IDOCK:   -6.30 KCAL/MOL
REMARK 924 INTRA-LIGAND FREE ENERGY PREDICTED BY IDOCK:   -0.39 KCAL/MOL
REMARK 927      BINDING AFFINITY PREDICTED BY RF-SCORE:    0.00 PKD
ROOT
HETATM    1 CL   UNL     1     -12.754  11.893  63.390  1.00  0.00    -0.655 Cl 
HETATM    2  C   UNL     1     -12.152  12.923  64.627  1.00  0.00    -0.418 A  
HETATM    3  C   UNL     1     -11.816  14.240  64.329  1.00  0.00    -0.401 A  
HETATM    4  C   UNL     1     -11.330  15.074  65.337  1.00  0.00    -0.328 A  
HETATM    5  C   UNL     1     -11.173  14.601  66.652  1.00  0.00    -0.349 A  
HETATM    6  C   UNL     1     -11.518  13.271  66.938  1.00  0.00    -0.376 A  
HETATM    7  C   UNL     1     -12.004  12.436  65.927  1.00  0.00    -0.434 A  
ENDROOT
BRANCH   5   8
HETATM    8  C   UNL     1     -10.677  15.564  67.680  1.00  0.00    -0.302 C  
HETATM    9  O   UNL     1     -10.216  15.140  68.737  1.00  0.00    -0.220 OA 
HETATM   10  N   UNL     1     -10.758  16.912  67.406  1.00  0.00    -0.287 N  
HETATM   11  H   UNL     1     -11.114  17.232  66.505  1.00  0.00     0.000 HD 
BRANCH  10  12
HETATM   12  C   UNL     1     -10.337  17.874  68.406  1.00  0.00    -0.374 C  
BRANCH  12  13
HETATM   13  C   UNL     1      -9.655  19.110  67.797  1.00  0.00    -0.313 C  
BRANCH  13  14
HETATM   14  N   UNL     1      -8.199  19.204  68.052  1.00  0.00    -0.294 NA 
HETATM   15  C   UNL     1      -7.474  17.944  67.749  1.00  0.00    -0.206 C  
HETATM   16  C   UNL     1      -7.399  17.610  66.249  1.00  0.00    -0.310 C  
HETATM   17  O   UNL     1      -6.800  18.681  65.506  1.00  0.00    -0.403 OA 
HETATM   18  C   UNL     1      -7.506  19.911  65.713  1.00  0.00    -0.315 C  
HETATM   19  C   UNL     1      -7.591  20.267  67.211  1.00  0.00    -0.311 C  
ENDBRANCH  13  14
ENDBRANCH  12  13
ENDBRANCH  10  12
ENDBRANCH   5   8
TORSDOF 4
ENDMDL
MODEL       39
REMARK 921   NORMALIZED FREE ENERGY PREDICTED BY IDOCK:   -5.08 KCAL/MOL
REMARK 922        TOTAL FREE ENERGY PREDICTED BY IDOCK:   -6.66 KCAL/MOL
REMARK 923 INTER-LIGAND FREE ENERGY PREDICTED BY IDOCK:   -6.39 KCAL/MOL
REMARK 924 INTRA-LIGAND FREE ENERGY PREDICTED BY IDOCK:   -0.27 KCAL/MOL
REMARK 927      BINDING AFFINITY PREDICTED BY RF-SCORE:    0.00 PKD
ROOT
HETATM    1 CL   UNL     1      -6.685  21.291  66.938  1.00  0.00    -0.360 Cl 
HETATM    2  C   UNL     1      -7.730  19.928  66.998  1.00  0.00    -0.278 A  
HETATM    3  C   UNL     1      -9.062  20.059  66.619  1.00  0.00    -0.463 A  
HETATM    4  C   UNL     1      -9.906  18.948  66.667  1.00  0.00    -0.396 A  
HETATM    5  C   UNL     1      -9.429  17.697  67.095  1.00  0.00    -0.267 A  
HETATM    6  C   UNL     1      -8.083  17.579  67.472  1.00  0.00    -0.213 A  
HETATM    7  C   UNL     1      -7.238  18.693  67.425  1.00  0.00    -0.211 A  
ENDROOT
BRANCH   5   8
HETATM    8  C   UNL     1     -10.386  16.552  67.088  1.00  0.00    -0.298 C  
HETATM    9  O   UNL     1     -10.753  16.072  66.018  1.00  0.00    -0.319 OA 
HETATM   10  N   UNL     1     -10.837  16.068  68.298  1.00  0.00    -0.304 N  
HETATM   11  H   UNL     1     -10.487  16.465  69.171  1.00  0.00     0.000 HD 
BRANCH  10  12
HETATM   12  C   UNL     1     -11.810  14.993  68.324  1.00  0.00    -0.268 C  
BRANCH  12  13
HETATM   13  C   UNL     1     -12.143  14.522  69.749  1.00  0.00    -0.331 C  
BRANCH  13  14
HETATM   14  N   UNL     1     -12.878  15.509  70.573  1.00  0.00    -0.418 NA 
HETATM   15  C   UNL     1     -14.081  14.936  71.228  1.00  0.00    -0.394 C  
HETATM   16  C   UNL     1     -13.765  13.930  72.348  1.00  0.00    -0.576 C  
HETATM   17  O   UNL     1     -12.922  14.514  73.352  1.00  0.00    -0.544 OA 
HETATM   18  C   UNL     1     -11.713  15.024  72.776  1.00  0.00    -0.249 C  
HETATM   19  C   UNL     1     -12.006  16.039  71.653  1.00  0.00    -0.499 C  
ENDBRANCH  13  14
ENDBRANCH  12  13
ENDBRANCH  10  12
ENDBRANCH   5   8
TORSDOF 4
ENDMDL
MODEL       40
REMARK 921   NORMALIZED FREE ENERGY PREDICTED BY IDOCK:   -5.07 KCAL/MOL
REMARK 922        TOTAL FREE ENERGY PREDICTED BY IDOCK:   -6.65 KCAL/MOL
REMARK 923 INTER-LIGAND FREE ENERGY PREDICTED BY IDOCK:   -6.27 KCAL/MOL
REMARK 924 INTRA-LIGAND FREE ENERGY PREDICTED BY IDOCK:   -0.39 KCAL/MOL
REMARK 927      BINDING AFFINITY PREDICTED BY RF-SCORE:    0.00 PKD
ROOT
HETATM    1 CL   UNL     1     -10.328  12.033  63.629  1.00  0.00    -0.437 Cl 
HETATM    2  C   UNL     1     -10.792  11.924  65.280  1.00  0.00    -0.297 A  
HETATM    3  C   UNL     1     -11.538  12.946  65.860  1.00  0.00    -0.423 A  
HETATM    4  C   UNL     1     -11.915  12.851  67.200  1.00  0.00    -0.374 A  
HETATM    5  C   UNL     1     -11.549  11.736  67.975  1.00  0.00    -0.386 A  
HETATM    6  C   UNL     1     -10.799  10.713  67.377  1.00  0.00    -0.353 A  
HETATM    7  C   UNL     1     -10.421  10.809  66.034  1.00  0.00    -0.273 A  
ENDROOT
BRANCH   5   8
HETATM    8  C   UNL     1     -12.017  11.696  69.393  1.00  0.00    -0.316 C  
HETATM    9  O   UNL     1     -11.840  12.671  70.119  1.00  0.00    -0.318 OA 
HETATM   10  N   UNL     1     -12.635  10.549  69.845  1.00  0.00    -0.535 N  
HETATM   11  H   UNL     1     -12.798   9.769  69.208  1.00  0.00     0.000 HD 
BRANCH  10  12
HETATM   12  C   UNL     1     -13.051  10.457  71.231  1.00  0.00    -0.399 C  
BRANCH  12  13
HETATM   13  C   UNL     1     -12.563   9.172  71.919  1.00  0.00    -0.388 C  
BRANCH  13  14
HETATM   14  N   UNL     1     -11.414   8.513  71.257  1.00  0.00    -0.266 NA 
HETATM   15  C   UNL     1     -10.188   8.504  72.094  1.00  0.00    -0.333 C  
HETATM   16  C   UNL     1     -10.274   7.581  73.321  1.00  0.00    -0.343 C  
HETATM   17  O   UNL     1     -10.585   6.234  72.939  1.00  0.00    -0.211 OA 
HETATM   18  C   UNL     1     -11.800   6.180  72.182  1.00  0.00    -0.285 C  
HETATM   19  C   UNL     1     -11.735   7.096  70.944  1.00  0.00    -0.328 C  
ENDBRANCH  13  14
ENDBRANCH  12  13
ENDBRANCH  10  12
ENDBRANCH   5   8
TORSDOF 4
ENDMDL
MODEL       41
REMARK 921   NORMALIZED FREE ENERGY PREDICTED BY IDOCK:   -5.07 KCAL/MOL
REMARK 922        TOTAL FREE ENERGY PREDICTED BY IDOCK:   -6.65 KCAL/MOL
REMARK 923 INTER-LIGAND FREE ENERGY PREDICTED BY IDOCK:   -6.48 KCAL/MOL
REMARK 924 INTRA-LIGAND FREE ENERGY PREDICTED BY IDOCK:   -0.17 KCAL/MOL
REMARK 927      BINDING AFFINITY PREDICTED BY RF-SCORE:    0.00 PKD
ROOT
HETATM    1 CL   UNL     1      -7.063  20.979  67.524  1.00  0.00    -0.400 Cl 
HETATM    2  C   UNL     1      -8.110  19.762  66.908  1.00  0.00    -0.297 A  
HETATM    3  C   UNL     1      -7.634  18.468  66.723  1.00  0.00    -0.246 A  
HETATM    4  C   UNL     1      -8.488  17.483  66.226  1.00  0.00    -0.247 A  
HETATM    5  C   UNL     1      -9.825  17.780  65.907  1.00  0.00    -0.078 A  
HETATM    6  C   UNL     1     -10.292  19.089  66.101  1.00  0.00    -0.537 A  
HETATM    7  C   UNL     1      -9.434  20.076  66.598  1.00  0.00    -0.524 A  
ENDROOT
BRANCH   5   8
HETATM    8  C   UNL     1     -10.683  16.664  65.410  1.00  0.00    -0.215 C  
HETATM    9  O   UNL     1     -11.242  16.766  64.320  1.00  0.00    -1.163 OA 
HETATM   10  N   UNL     1     -10.825  15.545  66.202  1.00  0.00    -0.317 N  
HETATM   11  H   UNL     1     -10.320  15.475  67.086  1.00  0.00     0.000 HD 
BRANCH  10  12
HETATM   12  C   UNL     1     -11.695  14.467  65.773  1.00  0.00    -0.344 C  
BRANCH  12  13
HETATM   13  C   UNL     1     -12.100  13.530  66.923  1.00  0.00    -0.368 C  
BRANCH  13  14
HETATM   14  N   UNL     1     -11.862  12.092  66.663  1.00  0.00    -0.612 NA 
HETATM   15  C   UNL     1     -10.733  11.849  65.730  1.00  0.00    -0.284 C  
HETATM   16  C   UNL     1      -9.351  12.181  66.320  1.00  0.00    -0.218 C  
HETATM   17  O   UNL     1      -9.115  11.456  67.535  1.00  0.00    -0.153 OA 
HETATM   18  C   UNL     1     -10.147  11.710  68.496  1.00  0.00    -0.206 C  
HETATM   19  C   UNL     1     -11.541  11.381  67.927  1.00  0.00    -0.266 C  
ENDBRANCH  13  14
ENDBRANCH  12  13
ENDBRANCH  10  12
ENDBRANCH   5   8
TORSDOF 4
ENDMDL
MODEL       42
REMARK 921   NORMALIZED FREE ENERGY PREDICTED BY IDOCK:   -5.07 KCAL/MOL
REMARK 922        TOTAL FREE ENERGY PREDICTED BY IDOCK:   -6.64 KCAL/MOL
REMARK 923 INTER-LIGAND FREE ENERGY PREDICTED BY IDOCK:   -6.35 KCAL/MOL
REMARK 924 INTRA-LIGAND FREE ENERGY PREDICTED BY IDOCK:   -0.29 KCAL/MOL
REMARK 927      BINDING AFFINITY PREDICTED BY RF-SCORE:    0.00 PKD
ROOT
HETATM    1 CL   UNL     1     -12.516  16.131  74.195  1.00  0.00    -0.694 Cl 
HETATM    2  C   UNL     1     -12.334  15.494  72.610  1.00  0.00    -0.414 A  
HETATM    3  C   UNL     1     -12.916  14.273  72.282  1.00  0.00    -0.460 A  
HETATM    4  C   UNL     1     -12.768  13.761  70.992  1.00  0.00    -0.416 A  
HETATM    5  C   UNL     1     -12.035  14.462  70.018  1.00  0.00    -0.394 A  
HETATM    6  C   UNL     1     -11.456  15.692  70.361  1.00  0.00    -0.369 A  
HETATM    7  C   UNL     1     -11.605  16.204  71.654  1.00  0.00    -0.503 A  
ENDROOT
BRANCH   5   8
HETATM    8  C   UNL     1     -11.949  13.862  68.653  1.00  0.00    -0.366 C  
HETATM    9  O   UNL     1     -12.031  14.587  67.664  1.00  0.00    -0.374 OA 
HETATM   10  N   UNL     1     -11.784  12.497  68.547  1.00  0.00    -0.310 N  
HETATM   11  H   UNL     1     -11.684  11.926  69.387  1.00  0.00     0.000 HD 
BRANCH  10  12
HETATM   12  C   UNL     1     -11.752  11.877  67.237  1.00  0.00    -0.247 C  
BRANCH  12  13
HETATM   13  C   UNL     1     -10.478  11.051  66.996  1.00  0.00    -0.240 C  
BRANCH  13  14
HETATM   14  N   UNL     1      -9.455  11.719  66.159  1.00  0.00    -0.223 NA 
HETATM   15  C   UNL     1      -8.494  10.767  65.548  1.00  0.00    -0.153 C  
HETATM   16  C   UNL     1      -9.105   9.876  64.452  1.00  0.00    -0.254 C  
HETATM   17  O   UNL     1      -9.704  10.664  63.413  1.00  0.00    -0.296 OA 
HETATM   18  C   UNL     1     -10.690  11.556  63.946  1.00  0.00    -0.395 C  
HETATM   19  C   UNL     1     -10.098  12.462  65.044  1.00  0.00    -0.247 C  
ENDBRANCH  13  14
ENDBRANCH  12  13
ENDBRANCH  10  12
ENDBRANCH   5   8
TORSDOF 4
ENDMDL
MODEL       43
REMARK 921   NORMALIZED FREE ENERGY PREDICTED BY IDOCK:   -5.05 KCAL/MOL
REMARK 922        TOTAL FREE ENERGY PREDICTED BY IDOCK:   -6.62 KCAL/MOL
REMARK 923 INTER-LIGAND FREE ENERGY PREDICTED BY IDOCK:   -6.35 KCAL/MOL
REMARK 924 INTRA-LIGAND FREE ENERGY PREDICTED BY IDOCK:   -0.27 KCAL/MOL
REMARK 927      BINDING AFFINITY PREDICTED BY RF-SCORE:    0.00 PKD
ROOT
HETATM    1 CL   UNL     1      -9.272   7.749  66.017  1.00  0.00    -0.179 Cl 
HETATM    2  C   UNL     1      -9.819   9.377  65.941  1.00  0.00    -0.291 A  
HETATM    3  C   UNL     1      -9.596  10.130  64.792  1.00  0.00    -0.378 A  
HETATM    4  C   UNL     1     -10.045  11.450  64.734  1.00  0.00    -0.326 A  
HETATM    5  C   UNL     1     -10.720  12.032  65.822  1.00  0.00    -0.319 A  
HETATM    6  C   UNL     1     -10.940  11.260  66.972  1.00  0.00    -0.352 A  
HETATM    7  C   UNL     1     -10.489   9.937  67.030  1.00  0.00    -0.296 A  
ENDROOT
BRANCH   5   8
HETATM    8  C   UNL     1     -11.196  13.439  65.670  1.00  0.00    -0.292 C  
HETATM    9  O   UNL     1     -12.371  13.711  65.902  1.00  0.00    -0.438 OA 
HETATM   10  N   UNL     1     -10.290  14.395  65.263  1.00  0.00    -0.378 N  
HETATM   11  H   UNL     1      -9.313  14.144  65.111  1.00  0.00     0.000 HD 
BRANCH  10  12
HETATM   12  C   UNL     1     -10.734  15.760  65.051  1.00  0.00    -0.421 C  
BRANCH  12  13
HETATM   13  C   UNL     1     -10.398  16.687  66.230  1.00  0.00    -0.317 C  
BRANCH  13  14
HETATM   14  N   UNL     1      -9.662  17.918  65.861  1.00  0.00    -0.544 NA 
HETATM   15  C   UNL     1     -10.458  19.154  66.069  1.00  0.00    -0.467 C  
HETATM   16  C   UNL     1     -10.705  19.499  67.547  1.00  0.00    -0.440 C  
HETATM   17  O   UNL     1      -9.470  19.614  68.269  1.00  0.00    -0.344 OA 
HETATM   18  C   UNL     1      -8.693  18.416  68.154  1.00  0.00    -0.302 C  
HETATM   19  C   UNL     1      -8.429  18.053  66.680  1.00  0.00    -0.262 C  
ENDBRANCH  13  14
ENDBRANCH  12  13
ENDBRANCH  10  12
ENDBRANCH   5   8
TORSDOF 4
ENDMDL
MODEL       44
REMARK 921   NORMALIZED FREE ENERGY PREDICTED BY IDOCK:   -5.03 KCAL/MOL
REMARK 922        TOTAL FREE ENERGY PREDICTED BY IDOCK:   -6.59 KCAL/MOL
REMARK 923 INTER-LIGAND FREE ENERGY PREDICTED BY IDOCK:   -6.27 KCAL/MOL
REMARK 924 INTRA-LIGAND FREE ENERGY PREDICTED BY IDOCK:   -0.32 KCAL/MOL
REMARK 927      BINDING AFFINITY PREDICTED BY RF-SCORE:    0.00 PKD
ROOT
HETATM    1 CL   UNL     1      -6.135  20.710  69.333  1.00  0.00    -0.339 Cl 
HETATM    2  C   UNL     1      -7.273  19.851  68.374  1.00  0.00    -0.296 A  
HETATM    3  C   UNL     1      -7.896  20.485  67.303  1.00  0.00    -0.367 A  
HETATM    4  C   UNL     1      -8.817  19.782  66.524  1.00  0.00    -0.420 A  
HETATM    5  C   UNL     1      -9.127  18.440  66.809  1.00  0.00    -0.293 A  
HETATM    6  C   UNL     1      -8.490  17.813  67.890  1.00  0.00    -0.245 A  
HETATM    7  C   UNL     1      -7.567  18.519  68.670  1.00  0.00    -0.330 A  
ENDROOT
BRANCH   5   8
HETATM    8  C   UNL     1     -10.099  17.749  65.911  1.00  0.00    -0.174 C  
HETATM    9  O   UNL     1     -10.883  18.414  65.238  1.00  0.00    -0.624 OA 
HETATM   10  N   UNL     1     -10.087  16.371  65.870  1.00  0.00    -0.345 N  
HETATM   11  H   UNL     1      -9.400  15.848  66.415  1.00  0.00     0.000 HD 
BRANCH  10  12
HETATM   12  C   UNL     1     -11.055  15.669  65.051  1.00  0.00    -0.389 C  
BRANCH  12  13
HETATM   13  C   UNL     1     -10.560  14.288  64.590  1.00  0.00    -0.340 C  
BRANCH  13  14
HETATM   14  N   UNL     1     -11.622  13.268  64.437  1.00  0.00    -0.365 NA 
HETATM   15  C   UNL     1     -11.093  11.929  64.074  1.00  0.00    -0.391 C  
HETATM   16  C   UNL     1     -10.306  11.239  65.202  1.00  0.00    -0.295 C  
HETATM   17  O   UNL     1     -11.099  11.119  66.392  1.00  0.00    -0.247 OA 
HETATM   18  C   UNL     1     -11.580  12.397  66.822  1.00  0.00    -0.379 C  
HETATM   19  C   UNL     1     -12.375  13.106  65.707  1.00  0.00    -0.435 C  
ENDBRANCH  13  14
ENDBRANCH  12  13
ENDBRANCH  10  12
ENDBRANCH   5   8
TORSDOF 4
ENDMDL
MODEL       45
REMARK 921   NORMALIZED FREE ENERGY PREDICTED BY IDOCK:   -5.01 KCAL/MOL
REMARK 922        TOTAL FREE ENERGY PREDICTED BY IDOCK:   -6.58 KCAL/MOL
REMARK 923 INTER-LIGAND FREE ENERGY PREDICTED BY IDOCK:   -6.20 KCAL/MOL
REMARK 924 INTRA-LIGAND FREE ENERGY PREDICTED BY IDOCK:   -0.38 KCAL/MOL
REMARK 927      BINDING AFFINITY PREDICTED BY RF-SCORE:    0.00 PKD
ROOT
HETATM    1 CL   UNL     1     -12.462  15.557  70.381  1.00  0.00    -0.448 Cl 
HETATM    2  C   UNL     1     -12.582  13.880  70.733  1.00  0.00    -0.354 A  
HETATM    3  C   UNL     1     -13.289  13.456  71.855  1.00  0.00    -0.539 A  
HETATM    4  C   UNL     1     -13.387  12.092  72.135  1.00  0.00    -0.438 A  
HETATM    5  C   UNL     1     -12.778  11.138  71.300  1.00  0.00    -0.531 A  
HETATM    6  C   UNL     1     -12.072  11.580  70.172  1.00  0.00    -0.432 A  
HETATM    7  C   UNL     1     -11.973  12.946  69.892  1.00  0.00    -0.377 A  
ENDROOT
BRANCH   5   8
HETATM    8  C   UNL     1     -12.955   9.698  71.652  1.00  0.00    -0.407 C  
HETATM    9  O   UNL     1     -13.639   9.390  72.625  1.00  0.00    -0.425 OA 
HETATM   10  N   UNL     1     -12.333   8.752  70.866  1.00  0.00    -0.486 N  
HETATM   11  H   UNL     1     -11.800   9.038  70.044  1.00  0.00     0.000 HD 
BRANCH  10  12
HETATM   12  C   UNL     1     -12.439   7.348  71.214  1.00  0.00    -0.346 C  
BRANCH  12  13
HETATM   13  C   UNL     1     -11.073   6.687  71.460  1.00  0.00    -0.256 C  
BRANCH  13  14
HETATM   14  N   UNL     1     -10.739   5.586  70.527  1.00  0.00    -0.267 NA 
HETATM   15  C   UNL     1     -10.823   5.989  69.100  1.00  0.00    -0.352 C  
HETATM   16  C   UNL     1      -9.723   6.969  68.660  1.00  0.00    -0.139 C  
HETATM   17  O   UNL     1      -8.416   6.437  68.917  1.00  0.00    -0.120 OA 
HETATM   18  C   UNL     1      -8.262   6.093  70.299  1.00  0.00    -0.124 C  
HETATM   19  C   UNL     1      -9.353   5.107  70.761  1.00  0.00    -0.160 C  
ENDBRANCH  13  14
ENDBRANCH  12  13
ENDBRANCH  10  12
ENDBRANCH   5   8
TORSDOF 4
ENDMDL
MODEL       46
REMARK 921   NORMALIZED FREE ENERGY PREDICTED BY IDOCK:   -5.01 KCAL/MOL
REMARK 922        TOTAL FREE ENERGY PREDICTED BY IDOCK:   -6.57 KCAL/MOL
REMARK 923 INTER-LIGAND FREE ENERGY PREDICTED BY IDOCK:   -6.26 KCAL/MOL
REMARK 924 INTRA-LIGAND FREE ENERGY PREDICTED BY IDOCK:   -0.31 KCAL/MOL
REMARK 927      BINDING AFFINITY PREDICTED BY RF-SCORE:    0.00 PKD
ROOT
HETATM    1 CL   UNL     1      -5.248  21.087  68.770  1.00  0.00    -0.360 Cl 
HETATM    2  C   UNL     1      -6.619  20.083  68.510  1.00  0.00    -0.302 A  
HETATM    3  C   UNL     1      -6.716  18.859  69.165  1.00  0.00    -0.326 A  
HETATM    4  C   UNL     1      -7.833  18.050  68.954  1.00  0.00    -0.197 A  
HETATM    5  C   UNL     1      -8.862  18.453  68.084  1.00  0.00    -0.319 A  
HETATM    6  C   UNL     1      -8.752  19.690  67.432  1.00  0.00    -0.364 A  
HETATM    7  C   UNL     1      -7.632  20.500  67.645  1.00  0.00    -0.304 A  
ENDROOT
BRANCH   5   8
HETATM    8  C   UNL     1     -10.038  17.544  67.935  1.00  0.00    -0.330 C  
HETATM    9  O   UNL     1     -10.786  17.672  66.969  1.00  0.00    -0.225 OA 
HETATM   10  N   UNL     1     -10.249  16.583  68.902  1.00  0.00    -0.250 N  
HETATM   11  H   UNL     1      -9.590  16.480  69.674  1.00  0.00     0.000 HD 
BRANCH  10  12
HETATM   12  C   UNL     1     -11.412  15.722  68.815  1.00  0.00    -0.388 C  
BRANCH  12  13
HETATM   13  C   UNL     1     -12.220  15.674  70.123  1.00  0.00    -0.361 C  
BRANCH  13  14
HETATM   14  N   UNL     1     -11.715  14.712  71.128  1.00  0.00    -0.309 NA 
HETATM   15  C   UNL     1     -11.418  15.343  72.439  1.00  0.00    -0.378 C  
HETATM   16  C   UNL     1     -12.668  15.806  73.208  1.00  0.00    -0.525 C  
HETATM   17  O   UNL     1     -13.586  14.723  73.411  1.00  0.00    -0.438 OA 
HETATM   18  C   UNL     1     -13.956  14.120  72.165  1.00  0.00    -0.531 C  
HETATM   19  C   UNL     1     -12.718  13.645  71.378  1.00  0.00    -0.352 C  
ENDBRANCH  13  14
ENDBRANCH  12  13
ENDBRANCH  10  12
ENDBRANCH   5   8
TORSDOF 4
ENDMDL
MODEL       47
REMARK 921   NORMALIZED FREE ENERGY PREDICTED BY IDOCK:   -4.97 KCAL/MOL
REMARK 922        TOTAL FREE ENERGY PREDICTED BY IDOCK:   -6.52 KCAL/MOL
REMARK 923 INTER-LIGAND FREE ENERGY PREDICTED BY IDOCK:   -6.56 KCAL/MOL
REMARK 924 INTRA-LIGAND FREE ENERGY PREDICTED BY IDOCK:    0.04 KCAL/MOL
REMARK 927      BINDING AFFINITY PREDICTED BY RF-SCORE:    0.00 PKD
ROOT
HETATM    1 CL   UNL     1     -14.081  15.864  72.866  1.00  0.00    -0.508 Cl 
HETATM    2  C   UNL     1     -13.360  14.679  71.851  1.00  0.00    -0.363 A  
HETATM    3  C   UNL     1     -13.455  13.331  72.182  1.00  0.00    -0.655 A  
HETATM    4  C   UNL     1     -12.871  12.373  71.352  1.00  0.00    -0.360 A  
HETATM    5  C   UNL     1     -12.183  12.751  70.185  1.00  0.00    -0.320 A  
HETATM    6  C   UNL     1     -12.097  14.114  69.863  1.00  0.00    -0.405 A  
HETATM    7  C   UNL     1     -12.682  15.073  70.695  1.00  0.00    -0.428 A  
ENDROOT
BRANCH   5   8
HETATM    8  C   UNL     1     -11.613  11.665  69.335  1.00  0.00    -0.327 C  
HETATM    9  O   UNL     1     -12.308  11.145  68.466  1.00  0.00    -0.561 OA 
HETATM   10  N   UNL     1     -10.310  11.273  69.561  1.00  0.00    -0.445 N  
HETATM   11  H   UNL     1      -9.748  11.747  70.268  1.00  0.00     0.000 HD 
BRANCH  10  12
HETATM   12  C   UNL     1      -9.745  10.182  68.791  1.00  0.00    -0.172 C  
BRANCH  12  13
HETATM   13  C   UNL     1     -10.355   8.817  69.149  1.00  0.00    -0.217 C  
BRANCH  13  14
HETATM   14  N   UNL     1      -9.997   8.312  70.494  1.00  0.00    -0.183 NA 
HETATM   15  C   UNL     1     -10.704   9.025  71.589  1.00  0.00    -0.371 C  
HETATM   16  C   UNL     1     -12.213   8.733  71.655  1.00  0.00    -0.339 C  
HETATM   17  O   UNL     1     -12.466   7.326  71.776  1.00  0.00    -0.320 OA 
HETATM   18  C   UNL     1     -11.859   6.598  70.703  1.00  0.00    -0.383 C  
HETATM   19  C   UNL     1     -10.344   6.873  70.620  1.00  0.00    -0.200 C  
ENDBRANCH  13  14
ENDBRANCH  12  13
ENDBRANCH  10  12
ENDBRANCH   5   8
TORSDOF 4
ENDMDL
MODEL       48
REMARK 921   NORMALIZED FREE ENERGY PREDICTED BY IDOCK:   -4.96 KCAL/MOL
REMARK 922        TOTAL FREE ENERGY PREDICTED BY IDOCK:   -6.51 KCAL/MOL
REMARK 923 INTER-LIGAND FREE ENERGY PREDICTED BY IDOCK:   -6.23 KCAL/MOL
REMARK 924 INTRA-LIGAND FREE ENERGY PREDICTED BY IDOCK:   -0.29 KCAL/MOL
REMARK 927      BINDING AFFINITY PREDICTED BY RF-SCORE:    0.00 PKD
ROOT
HETATM    1 CL   UNL     1     -12.141  15.540  70.153  1.00  0.00    -0.381 Cl 
HETATM    2  C   UNL     1     -12.430  13.908  70.605  1.00  0.00    -0.366 A  
HETATM    3  C   UNL     1     -11.920  12.872  69.828  1.00  0.00    -0.365 A  
HETATM    4  C   UNL     1     -12.155  11.548  70.201  1.00  0.00    -0.432 A  
HETATM    5  C   UNL     1     -12.903  11.245  71.353  1.00  0.00    -0.515 A  
HETATM    6  C   UNL     1     -13.409  12.298  72.128  1.00  0.00    -0.473 A  
HETATM    7  C   UNL     1     -13.173  13.625  71.753  1.00  0.00    -0.477 A  
ENDROOT
BRANCH   5   8
HETATM    8  C   UNL     1     -13.083   9.804  71.701  1.00  0.00    -0.419 C  
HETATM    9  O   UNL     1     -13.812   9.492  72.639  1.00  0.00    -0.370 OA 
HETATM   10  N   UNL     1     -12.412   8.861  70.951  1.00  0.00    -0.493 N  
HETATM   11  H   UNL     1     -11.841   9.149  70.156  1.00  0.00     0.000 HD 
BRANCH  10  12
HETATM   12  C   UNL     1     -12.523   7.457  71.299  1.00  0.00    -0.346 C  
BRANCH  12  13
HETATM   13  C   UNL     1     -11.314   6.629  70.834  1.00  0.00    -0.325 C  
BRANCH  13  14
HETATM   14  N   UNL     1     -10.237   6.486  71.840  1.00  0.00    -0.193 NA 
HETATM   15  C   UNL     1     -10.747   6.155  73.194  1.00  0.00    -0.260 C  
HETATM   16  C   UNL     1     -11.328   4.736  73.314  1.00  0.00    -0.322 C  
HETATM   17  O   UNL     1     -10.368   3.744  72.923  1.00  0.00    -0.155 OA 
HETATM   18  C   UNL     1      -9.893   3.982  71.593  1.00  0.00    -0.183 C  
HETATM   19  C   UNL     1      -9.301   5.399  71.451  1.00  0.00    -0.147 C  
ENDBRANCH  13  14
ENDBRANCH  12  13
ENDBRANCH  10  12
ENDBRANCH   5   8
TORSDOF 4
ENDMDL
MODEL       49
REMARK 921   NORMALIZED FREE ENERGY PREDICTED BY IDOCK:   -4.93 KCAL/MOL
REMARK 922        TOTAL FREE ENERGY PREDICTED BY IDOCK:   -6.47 KCAL/MOL
REMARK 923 INTER-LIGAND FREE ENERGY PREDICTED BY IDOCK:   -6.01 KCAL/MOL
REMARK 924 INTRA-LIGAND FREE ENERGY PREDICTED BY IDOCK:   -0.46 KCAL/MOL
REMARK 927      BINDING AFFINITY PREDICTED BY RF-SCORE:    0.00 PKD
ROOT
HETATM    1 CL   UNL     1     -12.057  13.288  63.330  1.00  0.00    -0.583 Cl 
HETATM    2  C   UNL     1     -11.451  12.248  64.556  1.00  0.00    -0.341 A  
HETATM    3  C   UNL     1     -11.809  12.458  65.884  1.00  0.00    -0.467 A  
HETATM    4  C   UNL     1     -11.316  11.608  66.876  1.00  0.00    -0.364 A  
HETATM    5  C   UNL     1     -10.460  10.541  66.552  1.00  0.00    -0.276 A  
HETATM    6  C   UNL     1     -10.109  10.339  65.208  1.00  0.00    -0.359 A  
HETATM    7  C   UNL     1     -10.603  11.192  64.216  1.00  0.00    -0.425 A  
ENDROOT
BRANCH   5   8
HETATM    8  C   UNL     1     -10.001   9.659  67.666  1.00  0.00    -0.174 C  
HETATM    9  O   UNL     1      -8.966   9.932  68.270  1.00  0.00    -0.119 OA 
HETATM   10  N   UNL     1     -10.760   8.552  67.979  1.00  0.00    -0.450 N  
HETATM   11  H   UNL     1     -11.633   8.371  67.482  1.00  0.00     0.000 HD 
BRANCH  10  12
HETATM   12  C   UNL     1     -10.312   7.645  69.018  1.00  0.00    -0.213 C  
BRANCH  12  13
HETATM   13  C   UNL     1     -11.356   7.445  70.128  1.00  0.00    -0.177 C  
BRANCH  13  14
HETATM   14  N   UNL     1     -11.013   8.075  71.424  1.00  0.00    -0.230 NA 
HETATM   15  C   UNL     1     -10.757   9.533  71.310  1.00  0.00    -0.316 C  
HETATM   16  C   UNL     1     -12.012  10.368  71.003  1.00  0.00    -0.382 C  
HETATM   17  O   UNL     1     -13.036  10.150  71.985  1.00  0.00    -0.424 OA 
HETATM   18  C   UNL     1     -13.367   8.760  72.085  1.00  0.00    -0.423 C  
HETATM   19  C   UNL     1     -12.123   7.904  72.397  1.00  0.00    -0.286 C  
ENDBRANCH  13  14
ENDBRANCH  12  13
ENDBRANCH  10  12
ENDBRANCH   5   8
TORSDOF 4
ENDMDL
MODEL       50
REMARK 921   NORMALIZED FREE ENERGY PREDICTED BY IDOCK:   -4.91 KCAL/MOL
REMARK 922        TOTAL FREE ENERGY PREDICTED BY IDOCK:   -6.46 KCAL/MOL
REMARK 923 INTER-LIGAND FREE ENERGY PREDICTED BY IDOCK:   -6.13 KCAL/MOL
REMARK 924 INTRA-LIGAND FREE ENERGY PREDICTED BY IDOCK:   -0.33 KCAL/MOL
REMARK 927      BINDING AFFINITY PREDICTED BY RF-SCORE:    0.00 PKD
ROOT
HETATM    1 CL   UNL     1     -12.519  17.088  74.455  1.00  0.00    -0.095 Cl 
HETATM    2  C   UNL     1     -12.406  15.965  73.159  1.00  0.00    -0.511 A  
HETATM    3  C   UNL     1     -11.684  16.296  72.016  1.00  0.00    -0.528 A  
HETATM    4  C   UNL     1     -11.592  15.379  70.968  1.00  0.00    -0.410 A  
HETATM    5  C   UNL     1     -12.222  14.124  71.049  1.00  0.00    -0.432 A  
HETATM    6  C   UNL     1     -12.944  13.804  72.208  1.00  0.00    -0.432 A  
HETATM    7  C   UNL     1     -13.036  14.723  73.258  1.00  0.00    -0.550 A  
ENDROOT
BRANCH   5   8
HETATM    8  C   UNL     1     -12.051  13.189  69.898  1.00  0.00    -0.287 C  
HETATM    9  O   UNL     1     -12.176  13.608  68.750  1.00  0.00    -0.339 OA 
HETATM   10  N   UNL     1     -11.760  11.868  70.166  1.00  0.00    -0.497 N  
HETATM   11  H   UNL     1     -11.628  11.558  71.129  1.00  0.00     0.000 HD 
BRANCH  10  12
HETATM   12  C   UNL     1     -11.643  10.923  69.073  1.00  0.00    -0.316 C  
BRANCH  12  13
HETATM   13  C   UNL     1     -10.884   9.645  69.466  1.00  0.00    -0.231 C  
BRANCH  13  14
HETATM   14  N   UNL     1     -10.932   9.314  70.908  1.00  0.00    -0.272 NA 
HETATM   15  C   UNL     1     -12.105   8.481  71.275  1.00  0.00    -0.286 C  
HETATM   16  C   UNL     1     -12.044   7.042  70.737  1.00  0.00    -0.327 C  
HETATM   17  O   UNL     1     -10.848   6.375  71.166  1.00  0.00    -0.237 OA 
HETATM   18  C   UNL     1      -9.681   7.108  70.777  1.00  0.00    -0.171 C  
HETATM   19  C   UNL     1      -9.719   8.555  71.309  1.00  0.00    -0.208 C  
ENDBRANCH  13  14
ENDBRANCH  12  13
ENDBRANCH  10  12
ENDBRANCH   5   8
TORSDOF 4
ENDMDL
MODEL       51
REMARK 921   NORMALIZED FREE ENERGY PREDICTED BY IDOCK:   -4.88 KCAL/MOL
REMARK 922        TOTAL FREE ENERGY PREDICTED BY IDOCK:   -6.41 KCAL/MOL
REMARK 923 INTER-LIGAND FREE ENERGY PREDICTED BY IDOCK:   -6.02 KCAL/MOL
REMARK 924 INTRA-LIGAND FREE ENERGY PREDICTED BY IDOCK:   -0.39 KCAL/MOL
REMARK 927      BINDING AFFINITY PREDICTED BY RF-SCORE:    0.00 PKD
ROOT
HETATM    1 CL   UNL     1     -10.779   6.929  73.740  1.00  0.00    -0.330 Cl 
HETATM    2  C   UNL     1     -10.899   8.123  72.509  1.00  0.00    -0.361 A  
HETATM    3  C   UNL     1     -12.096   8.805  72.320  1.00  0.00    -0.423 A  
HETATM    4  C   UNL     1     -12.188   9.777  71.322  1.00  0.00    -0.465 A  
HETATM    5  C   UNL     1     -11.085  10.075  70.502  1.00  0.00    -0.400 A  
HETATM    6  C   UNL     1      -9.883   9.381  70.706  1.00  0.00    -0.348 A  
HETATM    7  C   UNL     1      -9.793   8.407  71.706  1.00  0.00    -0.313 A  
ENDROOT
BRANCH   5   8
HETATM    8  C   UNL     1     -11.254  11.148  69.478  1.00  0.00    -0.277 C  
HETATM    9  O   UNL     1     -12.368  11.369  69.008  1.00  0.00    -0.407 OA 
HETATM   10  N   UNL     1     -10.141  11.859  69.085  1.00  0.00    -0.410 N  
HETATM   11  H   UNL     1      -9.236  11.676  69.519  1.00  0.00     0.000 HD 
BRANCH  10  12
HETATM   12  C   UNL     1     -10.262  12.870  68.052  1.00  0.00    -0.229 C  
BRANCH  12  13
HETATM   13  C   UNL     1      -9.819  12.367  66.668  1.00  0.00    -0.223 C  
BRANCH  13  14
HETATM   14  N   UNL     1     -10.794  11.485  65.988  1.00  0.00    -0.286 NA 
HETATM   15  C   UNL     1     -11.351  12.083  64.748  1.00  0.00    -0.313 C  
HETATM   16  C   UNL     1     -10.338  12.195  63.596  1.00  0.00    -0.452 C  
HETATM   17  O   UNL     1      -9.765  10.918  63.280  1.00  0.00    -0.295 OA 
HETATM   18  C   UNL     1      -9.154  10.327  64.433  1.00  0.00    -0.239 C  
HETATM   19  C   UNL     1     -10.154  10.202  65.600  1.00  0.00    -0.254 C  
ENDBRANCH  13  14
ENDBRANCH  12  13
ENDBRANCH  10  12
ENDBRANCH   5   8
TORSDOF 4
ENDMDL
MODEL       52
REMARK 921   NORMALIZED FREE ENERGY PREDICTED BY IDOCK:   -4.84 KCAL/MOL
REMARK 922        TOTAL FREE ENERGY PREDICTED BY IDOCK:   -6.37 KCAL/MOL
REMARK 923 INTER-LIGAND FREE ENERGY PREDICTED BY IDOCK:   -6.06 KCAL/MOL
REMARK 924 INTRA-LIGAND FREE ENERGY PREDICTED BY IDOCK:   -0.31 KCAL/MOL
REMARK 927      BINDING AFFINITY PREDICTED BY RF-SCORE:    0.00 PKD
ROOT
HETATM    1 CL   UNL     1      -8.903   9.403  63.054  1.00  0.00    -0.230 Cl 
HETATM    2  C   UNL     1      -9.648  10.648  63.976  1.00  0.00    -0.299 A  
HETATM    3  C   UNL     1     -10.017  11.840  63.361  1.00  0.00    -0.446 A  
HETATM    4  C   UNL     1     -10.625  12.846  64.114  1.00  0.00    -0.442 A  
HETATM    5  C   UNL     1     -10.868  12.673  65.488  1.00  0.00    -0.310 A  
HETATM    6  C   UNL     1     -10.492  11.465  66.094  1.00  0.00    -0.303 A  
HETATM    7  C   UNL     1      -9.883  10.457  65.339  1.00  0.00    -0.347 A  
ENDROOT
BRANCH   5   8
HETATM    8  C   UNL     1     -11.550  13.784  66.216  1.00  0.00    -0.350 C  
HETATM    9  O   UNL     1     -12.693  14.106  65.899  1.00  0.00    -0.487 OA 
HETATM   10  N   UNL     1     -10.864  14.422  67.227  1.00  0.00    -0.286 N  
HETATM   11  H   UNL     1      -9.929  14.108  67.489  1.00  0.00     0.000 HD 
BRANCH  10  12
HETATM   12  C   UNL     1     -11.477  15.541  67.915  1.00  0.00    -0.272 C  
BRANCH  12  13
HETATM   13  C   UNL     1     -10.453  16.579  68.401  1.00  0.00    -0.307 C  
BRANCH  13  14
HETATM   14  N   UNL     1     -10.759  17.978  68.024  1.00  0.00    -0.344 NA 
HETATM   15  C   UNL     1     -10.030  18.975  68.848  1.00  0.00    -0.398 C  
HETATM   16  C   UNL     1      -8.515  19.018  68.582  1.00  0.00    -0.359 C  
HETATM   17  O   UNL     1      -8.236  19.266  67.196  1.00  0.00    -0.260 OA 
HETATM   18  C   UNL     1      -8.866  18.288  66.361  1.00  0.00    -0.240 C  
HETATM   19  C   UNL     1     -10.386  18.229  66.608  1.00  0.00    -0.381 C  
ENDBRANCH  13  14
ENDBRANCH  12  13
ENDBRANCH  10  12
ENDBRANCH   5   8
TORSDOF 4
ENDMDL
MODEL       53
REMARK 921   NORMALIZED FREE ENERGY PREDICTED BY IDOCK:   -4.82 KCAL/MOL
REMARK 922        TOTAL FREE ENERGY PREDICTED BY IDOCK:   -6.34 KCAL/MOL
REMARK 923 INTER-LIGAND FREE ENERGY PREDICTED BY IDOCK:   -6.08 KCAL/MOL
REMARK 924 INTRA-LIGAND FREE ENERGY PREDICTED BY IDOCK:   -0.27 KCAL/MOL
REMARK 927      BINDING AFFINITY PREDICTED BY RF-SCORE:    0.00 PKD
ROOT
HETATM    1 CL   UNL     1     -13.344   9.505  72.191  1.00  0.00    -0.516 Cl 
HETATM    2  C   UNL     1     -12.919  11.012  71.483  1.00  0.00    -0.448 A  
HETATM    3  C   UNL     1     -13.392  12.197  72.039  1.00  0.00    -0.470 A  
HETATM    4  C   UNL     1     -13.041  13.419  71.463  1.00  0.00    -0.427 A  
HETATM    5  C   UNL     1     -12.218  13.470  70.324  1.00  0.00    -0.417 A  
HETATM    6  C   UNL     1     -11.747  12.268  69.775  1.00  0.00    -0.368 A  
HETATM    7  C   UNL     1     -12.099  11.044  70.354  1.00  0.00    -0.463 A  
ENDROOT
BRANCH   5   8
HETATM    8  C   UNL     1     -11.864  14.817  69.786  1.00  0.00    -0.316 C  
HETATM    9  O   UNL     1     -12.409  15.817  70.246  1.00  0.00    -0.391 OA 
HETATM   10  N   UNL     1     -10.930  14.892  68.774  1.00  0.00    -0.243 N  
HETATM   11  H   UNL     1     -10.470  14.046  68.437  1.00  0.00     0.000 HD 
BRANCH  10  12
HETATM   12  C   UNL     1     -10.606  16.180  68.192  1.00  0.00    -0.290 C  
BRANCH  12  13
HETATM   13  C   UNL     1      -9.323  16.795  68.775  1.00  0.00    -0.254 C  
BRANCH  13  14
HETATM   14  N   UNL     1      -8.402  17.375  67.771  1.00  0.00    -0.214 NA 
HETATM   15  C   UNL     1      -8.386  18.860  67.787  1.00  0.00    -0.279 C  
HETATM   16  C   UNL     1      -7.730  19.465  69.040  1.00  0.00    -0.315 C  
HETATM   17  O   UNL     1      -6.390  18.983  69.212  1.00  0.00    -0.268 OA 
HETATM   18  C   UNL     1      -6.359  17.552  69.269  1.00  0.00    -0.244 C  
HETATM   19  C   UNL     1      -7.008  16.923  68.020  1.00  0.00    -0.152 C  
ENDBRANCH  13  14
ENDBRANCH  12  13
ENDBRANCH  10  12
ENDBRANCH   5   8
TORSDOF 4
ENDMDL
MODEL       54
REMARK 921   NORMALIZED FREE ENERGY PREDICTED BY IDOCK:   -4.82 KCAL/MOL
REMARK 922        TOTAL FREE ENERGY PREDICTED BY IDOCK:   -6.34 KCAL/MOL
REMARK 923 INTER-LIGAND FREE ENERGY PREDICTED BY IDOCK:   -5.92 KCAL/MOL
REMARK 924 INTRA-LIGAND FREE ENERGY PREDICTED BY IDOCK:   -0.42 KCAL/MOL
REMARK 927      BINDING AFFINITY PREDICTED BY RF-SCORE:    0.00 PKD
ROOT
HETATM    1 CL   UNL     1     -10.163  18.413  68.701  1.00  0.00    -0.399 Cl 
HETATM    2  C   UNL     1     -10.532  17.097  67.658  1.00  0.00    -0.355 A  
HETATM    3  C   UNL     1     -10.176  17.156  66.315  1.00  0.00    -0.340 A  
HETATM    4  C   UNL     1     -10.475  16.083  65.473  1.00  0.00    -0.426 A  
HETATM    5  C   UNL     1     -11.135  14.943  65.964  1.00  0.00    -0.334 A  
HETATM    6  C   UNL     1     -11.487  14.896  67.321  1.00  0.00    -0.350 A  
HETATM    7  C   UNL     1     -11.187  15.972  68.164  1.00  0.00    -0.325 A  
ENDROOT
BRANCH   5   8
HETATM    8  C   UNL     1     -11.392  13.826  65.007  1.00  0.00    -0.328 C  
HETATM    9  O   UNL     1     -12.536  13.405  64.857  1.00  0.00    -0.562 OA 
HETATM   10  N   UNL     1     -10.321  13.294  64.319  1.00  0.00    -0.599 N  
HETATM   11  H   UNL     1      -9.388  13.689  64.440  1.00  0.00     0.000 HD 
BRANCH  10  12
HETATM   12  C   UNL     1     -10.529  12.172  63.424  1.00  0.00    -0.412 C  
BRANCH  12  13
HETATM   13  C   UNL     1     -10.235  10.817  64.087  1.00  0.00    -0.344 C  
BRANCH  13  14
HETATM   14  N   UNL     1      -9.227  10.862  65.171  1.00  0.00    -0.210 NA 
HETATM   15  C   UNL     1      -9.760  10.401  66.478  1.00  0.00    -0.194 C  
HETATM   16  C   UNL     1     -10.056   8.892  66.537  1.00  0.00    -0.286 C  
HETATM   17  O   UNL     1      -8.892   8.119  66.210  1.00  0.00    -0.146 OA 
HETATM   18  C   UNL     1      -8.377   8.482  64.923  1.00  0.00    -0.160 C  
HETATM   19  C   UNL     1      -8.069   9.990  64.843  1.00  0.00    -0.154 C  
ENDBRANCH  13  14
ENDBRANCH  12  13
ENDBRANCH  10  12
ENDBRANCH   5   8
TORSDOF 4
ENDMDL
MODEL       55
REMARK 921   NORMALIZED FREE ENERGY PREDICTED BY IDOCK:   -4.80 KCAL/MOL
REMARK 922        TOTAL FREE ENERGY PREDICTED BY IDOCK:   -6.32 KCAL/MOL
REMARK 923 INTER-LIGAND FREE ENERGY PREDICTED BY IDOCK:   -6.06 KCAL/MOL
REMARK 924 INTRA-LIGAND FREE ENERGY PREDICTED BY IDOCK:   -0.26 KCAL/MOL
REMARK 927      BINDING AFFINITY PREDICTED BY RF-SCORE:    0.00 PKD
ROOT
HETATM    1 CL   UNL     1     -11.562  14.779  64.730  1.00  0.00    -0.409 Cl 
HETATM    2  C   UNL     1     -11.633  13.864  66.183  1.00  0.00    -0.359 A  
HETATM    3  C   UNL     1     -11.870  14.506  67.395  1.00  0.00    -0.416 A  
HETATM    4  C   UNL     1     -11.930  13.758  68.572  1.00  0.00    -0.402 A  
HETATM    5  C   UNL     1     -11.753  12.363  68.551  1.00  0.00    -0.373 A  
HETATM    6  C   UNL     1     -11.518  11.729  67.321  1.00  0.00    -0.373 A  
HETATM    7  C   UNL     1     -11.457  12.480  66.143  1.00  0.00    -0.426 A  
ENDROOT
BRANCH   5   8
HETATM    8  C   UNL     1     -11.862  11.631  69.848  1.00  0.00    -0.358 C  
HETATM    9  O   UNL     1     -12.398  12.177  70.810  1.00  0.00    -0.376 OA 
HETATM   10  N   UNL     1     -11.348  10.355  69.925  1.00  0.00    -0.281 N  
HETATM   11  H   UNL     1     -10.940   9.916  69.099  1.00  0.00     0.000 HD 
BRANCH  10  12
HETATM   12  C   UNL     1     -11.388   9.639  71.185  1.00  0.00    -0.386 C  
BRANCH  12  13
HETATM   13  C   UNL     1     -10.734   8.251  71.107  1.00  0.00    -0.226 C  
BRANCH  13  14
HETATM   14  N   UNL     1     -11.651   7.154  70.720  1.00  0.00    -0.307 NA 
HETATM   15  C   UNL     1     -10.973   6.070  69.965  1.00  0.00    -0.380 C  
HETATM   16  C   UNL     1      -9.999   5.233  70.811  1.00  0.00    -0.211 C  
HETATM   17  O   UNL     1     -10.655   4.664  71.953  1.00  0.00    -0.149 OA 
HETATM   18  C   UNL     1     -11.271   5.681  72.753  1.00  0.00    -0.299 C  
HETATM   19  C   UNL     1     -12.255   6.531  71.925  1.00  0.00    -0.324 C  
ENDBRANCH  13  14
ENDBRANCH  12  13
ENDBRANCH  10  12
ENDBRANCH   5   8
TORSDOF 4
ENDMDL
MODEL       56
REMARK 921   NORMALIZED FREE ENERGY PREDICTED BY IDOCK:   -4.75 KCAL/MOL
REMARK 922        TOTAL FREE ENERGY PREDICTED BY IDOCK:   -6.25 KCAL/MOL
REMARK 923 INTER-LIGAND FREE ENERGY PREDICTED BY IDOCK:   -6.03 KCAL/MOL
REMARK 924 INTRA-LIGAND FREE ENERGY PREDICTED BY IDOCK:   -0.22 KCAL/MOL
REMARK 927      BINDING AFFINITY PREDICTED BY RF-SCORE:    0.00 PKD
ROOT
HETATM    1 CL   UNL     1      -7.129  21.137  67.349  1.00  0.00    -0.403 Cl 
HETATM    2  C   UNL     1      -7.483  19.456  67.398  1.00  0.00    -0.231 A  
HETATM    3  C   UNL     1      -7.178  18.651  66.305  1.00  0.00    -0.281 A  
HETATM    4  C   UNL     1      -7.464  17.286  66.351  1.00  0.00    -0.336 A  
HETATM    5  C   UNL     1      -8.060  16.712  67.487  1.00  0.00    -0.184 A  
HETATM    6  C   UNL     1      -8.360  17.535  68.583  1.00  0.00    -0.258 A  
HETATM    7  C   UNL     1      -8.074  18.903  68.536  1.00  0.00    -0.383 A  
ENDROOT
BRANCH   5   8
HETATM    8  C   UNL     1      -8.306  15.239  67.470  1.00  0.00    -0.175 C  
HETATM    9  O   UNL     1      -7.376  14.470  67.240  1.00  0.00    -0.189 OA 
HETATM   10  N   UNL     1      -9.586  14.787  67.711  1.00  0.00    -0.207 N  
HETATM   11  H   UNL     1     -10.330  15.448  67.933  1.00  0.00     0.000 HD 
BRANCH  10  12
HETATM   12  C   UNL     1      -9.869  13.366  67.646  1.00  0.00    -0.226 C  
BRANCH  12  13
HETATM   13  C   UNL     1     -10.801  12.994  66.481  1.00  0.00    -0.279 C  
BRANCH  13  14
HETATM   14  N   UNL     1     -10.288  13.349  65.138  1.00  0.00    -0.332 NA 
HETATM   15  C   UNL     1     -10.727  12.404  64.080  1.00  0.00    -0.379 C  
HETATM   16  C   UNL     1     -12.228  12.483  63.753  1.00  0.00    -0.525 C  
HETATM   17  O   UNL     1     -12.610  13.813  63.376  1.00  0.00    -0.842 OA 
HETATM   18  C   UNL     1     -12.267  14.758  64.397  1.00  0.00    -0.428 C  
HETATM   19  C   UNL     1     -10.765  14.699  64.739  1.00  0.00    -0.377 C  
ENDBRANCH  13  14
ENDBRANCH  12  13
ENDBRANCH  10  12
ENDBRANCH   5   8
TORSDOF 4
ENDMDL
MODEL       57
REMARK 921   NORMALIZED FREE ENERGY PREDICTED BY IDOCK:   -4.75 KCAL/MOL
REMARK 922        TOTAL FREE ENERGY PREDICTED BY IDOCK:   -6.25 KCAL/MOL
REMARK 923 INTER-LIGAND FREE ENERGY PREDICTED BY IDOCK:   -6.22 KCAL/MOL
REMARK 924 INTRA-LIGAND FREE ENERGY PREDICTED BY IDOCK:   -0.03 KCAL/MOL
REMARK 927      BINDING AFFINITY PREDICTED BY RF-SCORE:    0.00 PKD
ROOT
HETATM    1 CL   UNL     1      -9.772  20.822  67.579  1.00  0.00    -0.539 Cl 
HETATM    2  C   UNL     1      -9.738  19.104  67.582  1.00  0.00    -0.321 A  
HETATM    3  C   UNL     1      -9.444  18.414  66.410  1.00  0.00    -0.297 A  
HETATM    4  C   UNL     1      -9.414  17.019  66.418  1.00  0.00    -0.294 A  
HETATM    5  C   UNL     1      -9.679  16.299  67.596  1.00  0.00    -0.234 A  
HETATM    6  C   UNL     1      -9.972  17.007  68.771  1.00  0.00    -0.293 A  
HETATM    7  C   UNL     1     -10.002  18.405  68.762  1.00  0.00    -0.404 A  
ENDROOT
BRANCH   5   8
HETATM    8  C   UNL     1      -9.597  14.809  67.530  1.00  0.00    -0.208 C  
HETATM    9  O   UNL     1      -8.507  14.268  67.360  1.00  0.00    -0.179 OA 
HETATM   10  N   UNL     1     -10.762  14.083  67.657  1.00  0.00    -0.255 N  
HETATM   11  H   UNL     1     -11.647  14.561  67.832  1.00  0.00     0.000 HD 
BRANCH  10  12
HETATM   12  C   UNL     1     -10.724  12.638  67.542  1.00  0.00    -0.225 C  
BRANCH  12  13
HETATM   13  C   UNL     1     -11.440  12.120  66.284  1.00  0.00    -0.374 C  
BRANCH  13  14
HETATM   14  N   UNL     1     -10.695  12.316  65.020  1.00  0.00    -0.288 NA 
HETATM   15  C   UNL     1     -11.235  11.509  63.896  1.00  0.00    -0.355 C  
HETATM   16  C   UNL     1     -12.612  11.975  63.396  1.00  0.00    -0.469 C  
HETATM   17  O   UNL     1     -12.587  13.356  63.007  1.00  0.00    -0.669 OA 
HETATM   18  C   UNL     1     -12.134  14.186  64.083  1.00  0.00    -0.406 C  
HETATM   19  C   UNL     1     -10.752  13.740  64.598  1.00  0.00    -0.414 C  
ENDBRANCH  13  14
ENDBRANCH  12  13
ENDBRANCH  10  12
ENDBRANCH   5   8
TORSDOF 4
ENDMDL
MODEL       58
REMARK 921   NORMALIZED FREE ENERGY PREDICTED BY IDOCK:   -4.74 KCAL/MOL
REMARK 922        TOTAL FREE ENERGY PREDICTED BY IDOCK:   -6.24 KCAL/MOL
REMARK 923 INTER-LIGAND FREE ENERGY PREDICTED BY IDOCK:   -5.84 KCAL/MOL
REMARK 924 INTRA-LIGAND FREE ENERGY PREDICTED BY IDOCK:   -0.40 KCAL/MOL
REMARK 927      BINDING AFFINITY PREDICTED BY RF-SCORE:    0.00 PKD
ROOT
HETATM    1 CL   UNL     1     -13.410  12.361  72.167  1.00  0.00    -0.601 Cl 
HETATM    2  C   UNL     1     -12.722  13.521  71.102  1.00  0.00    -0.344 A  
HETATM    3  C   UNL     1     -12.173  13.111  69.891  1.00  0.00    -0.293 A  
HETATM    4  C   UNL     1     -11.618  14.057  69.029  1.00  0.00    -0.345 A  
HETATM    5  C   UNL     1     -11.603  15.422  69.368  1.00  0.00    -0.354 A  
HETATM    6  C   UNL     1     -12.162  15.821  70.591  1.00  0.00    -0.422 A  
HETATM    7  C   UNL     1     -12.717  14.872  71.455  1.00  0.00    -0.408 A  
ENDROOT
BRANCH   5   8
HETATM    8  C   UNL     1     -11.019  16.375  68.377  1.00  0.00    -0.353 C  
HETATM    9  O   UNL     1     -10.762  15.987  67.240  1.00  0.00    -0.314 OA 
HETATM   10  N   UNL     1     -10.780  17.672  68.780  1.00  0.00    -0.321 N  
HETATM   11  H   UNL     1     -11.036  17.972  69.720  1.00  0.00     0.000 HD 
BRANCH  10  12
HETATM   12  C   UNL     1     -10.162  18.606  67.859  1.00  0.00    -0.392 C  
BRANCH  12  13
HETATM   13  C   UNL     1      -8.980  19.367  68.482  1.00  0.00    -0.370 C  
BRANCH  13  14
HETATM   14  N   UNL     1      -7.744  19.367  67.668  1.00  0.00    -0.259 NA 
HETATM   15  C   UNL     1      -6.521  19.629  68.468  1.00  0.00    -0.269 C  
HETATM   16  C   UNL     1      -6.139  18.483  69.420  1.00  0.00    -0.259 C  
HETATM   17  O   UNL     1      -5.973  17.248  68.710  1.00  0.00    -0.157 OA 
HETATM   18  C   UNL     1      -7.155  16.916  67.971  1.00  0.00    -0.157 C  
HETATM   19  C   UNL     1      -7.555  18.050  67.007  1.00  0.00    -0.217 C  
ENDBRANCH  13  14
ENDBRANCH  12  13
ENDBRANCH  10  12
ENDBRANCH   5   8
TORSDOF 4
ENDMDL
MODEL       59
REMARK 921   NORMALIZED FREE ENERGY PREDICTED BY IDOCK:   -4.72 KCAL/MOL
REMARK 922        TOTAL FREE ENERGY PREDICTED BY IDOCK:   -6.21 KCAL/MOL
REMARK 923 INTER-LIGAND FREE ENERGY PREDICTED BY IDOCK:   -5.83 KCAL/MOL
REMARK 924 INTRA-LIGAND FREE ENERGY PREDICTED BY IDOCK:   -0.39 KCAL/MOL
REMARK 927      BINDING AFFINITY PREDICTED BY RF-SCORE:    0.00 PKD
ROOT
HETATM    1 CL   UNL     1      -9.578  19.723  67.725  1.00  0.00    -0.446 Cl 
HETATM    2  C   UNL     1     -10.201  18.153  67.405  1.00  0.00    -0.372 A  
HETATM    3  C   UNL     1     -10.379  17.732  66.091  1.00  0.00    -0.340 A  
HETATM    4  C   UNL     1     -10.882  16.455  65.837  1.00  0.00    -0.116 A  
HETATM    5  C   UNL     1     -11.214  15.587  66.892  1.00  0.00    -0.159 A  
HETATM    6  C   UNL     1     -11.027  16.024  68.212  1.00  0.00    -0.335 A  
HETATM    7  C   UNL     1     -10.524  17.304  68.466  1.00  0.00    -0.375 A  
ENDROOT
BRANCH   5   8
HETATM    8  C   UNL     1     -11.717  14.227  66.536  1.00  0.00    -0.394 C  
HETATM    9  O   UNL     1     -11.796  13.362  67.406  1.00  0.00    -0.353 OA 
HETATM   10  N   UNL     1     -12.075  13.983  65.227  1.00  0.00    -0.388 N  
HETATM   11  H   UNL     1     -12.030  14.732  64.536  1.00  0.00     0.000 HD 
BRANCH  10  12
HETATM   12  C   UNL     1     -12.514  12.656  64.839  1.00  0.00    -0.494 C  
BRANCH  12  13
HETATM   13  C   UNL     1     -11.636  12.033  63.742  1.00  0.00    -0.476 C  
BRANCH  13  14
HETATM   14  N   UNL     1     -10.178  12.164  63.965  1.00  0.00    -0.354 NA 
HETATM   15  C   UNL     1      -9.717  11.486  65.203  1.00  0.00    -0.237 C  
HETATM   16  C   UNL     1      -9.775   9.950  65.134  1.00  0.00    -0.306 C  
HETATM   17  O   UNL     1      -9.023   9.449  64.021  1.00  0.00    -0.213 OA 
HETATM   18  C   UNL     1      -9.476  10.025  62.790  1.00  0.00    -0.192 C  
HETATM   19  C   UNL     1      -9.422  11.565  62.835  1.00  0.00    -0.277 C  
ENDBRANCH  13  14
ENDBRANCH  12  13
ENDBRANCH  10  12
ENDBRANCH   5   8
TORSDOF 4
ENDMDL
MODEL       60
REMARK 921   NORMALIZED FREE ENERGY PREDICTED BY IDOCK:   -4.71 KCAL/MOL
REMARK 922        TOTAL FREE ENERGY PREDICTED BY IDOCK:   -6.20 KCAL/MOL
REMARK 923 INTER-LIGAND FREE ENERGY PREDICTED BY IDOCK:   -5.85 KCAL/MOL
REMARK 924 INTRA-LIGAND FREE ENERGY PREDICTED BY IDOCK:   -0.35 KCAL/MOL
REMARK 927      BINDING AFFINITY PREDICTED BY RF-SCORE:    0.00 PKD
ROOT
HETATM    1 CL   UNL     1      -8.058   8.678  62.620  1.00  0.00    -0.168 Cl 
HETATM    2  C   UNL     1      -9.061   9.751  63.512  1.00  0.00    -0.228 A  
HETATM    3  C   UNL     1      -9.634  10.851  62.882  1.00  0.00    -0.371 A  
HETATM    4  C   UNL     1     -10.451  11.717  63.610  1.00  0.00    -0.483 A  
HETATM    5  C   UNL     1     -10.701  11.495  64.976  1.00  0.00    -0.350 A  
HETATM    6  C   UNL     1     -10.118  10.381  65.598  1.00  0.00    -0.337 A  
HETATM    7  C   UNL     1      -9.300   9.514  64.868  1.00  0.00    -0.264 A  
ENDROOT
BRANCH   5   8
HETATM    8  C   UNL     1     -11.610  12.450  65.677  1.00  0.00    -0.392 C  
HETATM    9  O   UNL     1     -12.782  12.547  65.320  1.00  0.00    -0.654 OA 
HETATM   10  N   UNL     1     -11.096  13.203  66.711  1.00  0.00    -0.283 N  
HETATM   11  H   UNL     1     -10.128  13.075  67.007  1.00  0.00     0.000 HD 
BRANCH  10  12
HETATM   12  C   UNL     1     -11.938  14.180  67.375  1.00  0.00    -0.404 C  
BRANCH  12  13
HETATM   13  C   UNL     1     -11.233  15.529  67.591  1.00  0.00    -0.291 C  
BRANCH  13  14
HETATM   14  N   UNL     1     -10.226  15.874  66.562  1.00  0.00    -0.279 NA 
HETATM   15  C   UNL     1     -10.515  17.159  65.875  1.00  0.00    -0.258 C  
HETATM   16  C   UNL     1     -10.333  18.400  66.765  1.00  0.00    -0.394 C  
HETATM   17  O   UNL     1      -9.010  18.456  67.317  1.00  0.00    -0.258 OA 
HETATM   18  C   UNL     1      -8.706  17.262  68.049  1.00  0.00    -0.231 C  
HETATM   19  C   UNL     1      -8.879  16.004  67.175  1.00  0.00    -0.204 C  
ENDBRANCH  13  14
ENDBRANCH  12  13
ENDBRANCH  10  12
ENDBRANCH   5   8
TORSDOF 4
ENDMDL
MODEL       61
REMARK 921   NORMALIZED FREE ENERGY PREDICTED BY IDOCK:   -4.70 KCAL/MOL
REMARK 922        TOTAL FREE ENERGY PREDICTED BY IDOCK:   -6.19 KCAL/MOL
REMARK 923 INTER-LIGAND FREE ENERGY PREDICTED BY IDOCK:   -5.88 KCAL/MOL
REMARK 924 INTRA-LIGAND FREE ENERGY PREDICTED BY IDOCK:   -0.31 KCAL/MOL
REMARK 927      BINDING AFFINITY PREDICTED BY RF-SCORE:    0.00 PKD
ROOT
HETATM    1 CL   UNL     1     -10.750  14.711  66.722  1.00  0.00    -0.296 Cl 
HETATM    2  C   UNL     1     -11.321  13.622  67.922  1.00  0.00    -0.295 A  
HETATM    3  C   UNL     1     -11.432  12.266  67.632  1.00  0.00    -0.401 A  
HETATM    4  C   UNL     1     -11.893  11.385  68.611  1.00  0.00    -0.377 A  
HETATM    5  C   UNL     1     -12.250  11.849  69.889  1.00  0.00    -0.269 A  
HETATM    6  C   UNL     1     -12.131  13.219  70.169  1.00  0.00    -0.403 A  
HETATM    7  C   UNL     1     -11.669  14.101  69.187  1.00  0.00    -0.368 A  
ENDROOT
BRANCH   5   8
HETATM    8  C   UNL     1     -12.705  10.839  70.891  1.00  0.00    -0.384 C  
HETATM    9  O   UNL     1     -13.174  11.215  71.963  1.00  0.00    -0.493 OA 
HETATM   10  N   UNL     1     -12.578   9.503  70.576  1.00  0.00    -0.497 N  
HETATM   11  H   UNL     1     -12.217   9.223  69.664  1.00  0.00     0.000 HD 
BRANCH  10  12
HETATM   12  C   UNL     1     -12.958   8.498  71.549  1.00  0.00    -0.303 C  
BRANCH  12  13
HETATM   13  C   UNL     1     -11.853   8.213  72.579  1.00  0.00    -0.376 C  
BRANCH  13  14
HETATM   14  N   UNL     1     -10.661   7.523  72.035  1.00  0.00    -0.219 NA 
HETATM   15  C   UNL     1      -9.467   7.650  72.908  1.00  0.00    -0.206 C  
HETATM   16  C   UNL     1      -9.571   6.867  74.228  1.00  0.00    -0.262 C  
HETATM   17  O   UNL     1      -9.828   5.476  73.991  1.00  0.00    -0.161 OA 
HETATM   18  C   UNL     1     -11.012   5.297  73.204  1.00  0.00    -0.305 C  
HETATM   19  C   UNL     1     -10.928   6.070  71.873  1.00  0.00    -0.264 C  
ENDBRANCH  13  14
ENDBRANCH  12  13
ENDBRANCH  10  12
ENDBRANCH   5   8
TORSDOF 4
ENDMDL
MODEL       62
REMARK 921   NORMALIZED FREE ENERGY PREDICTED BY IDOCK:   -4.67 KCAL/MOL
REMARK 922        TOTAL FREE ENERGY PREDICTED BY IDOCK:   -6.15 KCAL/MOL
REMARK 923 INTER-LIGAND FREE ENERGY PREDICTED BY IDOCK:   -5.83 KCAL/MOL
REMARK 924 INTRA-LIGAND FREE ENERGY PREDICTED BY IDOCK:   -0.33 KCAL/MOL
REMARK 927      BINDING AFFINITY PREDICTED BY RF-SCORE:    0.00 PKD
ROOT
HETATM    1 CL   UNL     1     -13.283  15.664  71.151  1.00  0.00    -0.551 Cl 
HETATM    2  C   UNL     1     -12.992  13.970  71.121  1.00  0.00    -0.332 A  
HETATM    3  C   UNL     1     -12.168  13.426  70.141  1.00  0.00    -0.385 A  
HETATM    4  C   UNL     1     -11.933  12.050  70.123  1.00  0.00    -0.401 A  
HETATM    5  C   UNL     1     -12.519  11.205  71.081  1.00  0.00    -0.498 A  
HETATM    6  C   UNL     1     -13.346  11.768  72.065  1.00  0.00    -0.417 A  
HETATM    7  C   UNL     1     -13.582  13.147  72.082  1.00  0.00    -0.637 A  
ENDROOT
BRANCH   5   8
HETATM    8  C   UNL     1     -12.193   9.749  71.012  1.00  0.00    -0.347 C  
HETATM    9  O   UNL     1     -12.708   8.973  71.813  1.00  0.00    -0.322 OA 
HETATM   10  N   UNL     1     -11.311   9.322  70.043  1.00  0.00    -0.407 N  
HETATM   11  H   UNL     1     -10.927   9.986  69.370  1.00  0.00     0.000 HD 
BRANCH  10  12
HETATM   12  C   UNL     1     -10.931   7.923  69.985  1.00  0.00    -0.207 C  
BRANCH  12  13
HETATM   13  C   UNL     1      -9.716   7.671  69.079  1.00  0.00    -0.160 C  
BRANCH  13  14
HETATM   14  N   UNL     1      -9.955   7.916  67.638  1.00  0.00    -0.168 NA 
HETATM   15  C   UNL     1      -8.743   7.711  66.805  1.00  0.00    -0.133 C  
HETATM   16  C   UNL     1      -8.302   6.242  66.692  1.00  0.00    -0.112 C  
HETATM   17  O   UNL     1      -9.360   5.417  66.184  1.00  0.00    -0.152 OA 
HETATM   18  C   UNL     1     -10.536   5.530  66.994  1.00  0.00    -0.274 C  
HETATM   19  C   UNL     1     -10.998   6.995  67.119  1.00  0.00    -0.323 C  
ENDBRANCH  13  14
ENDBRANCH  12  13
ENDBRANCH  10  12
ENDBRANCH   5   8
TORSDOF 4
ENDMDL
MODEL       63
REMARK 921   NORMALIZED FREE ENERGY PREDICTED BY IDOCK:   -4.67 KCAL/MOL
REMARK 922        TOTAL FREE ENERGY PREDICTED BY IDOCK:   -6.15 KCAL/MOL
REMARK 923 INTER-LIGAND FREE ENERGY PREDICTED BY IDOCK:   -5.83 KCAL/MOL
REMARK 924 INTRA-LIGAND FREE ENERGY PREDICTED BY IDOCK:   -0.32 KCAL/MOL
REMARK 927      BINDING AFFINITY PREDICTED BY RF-SCORE:    0.00 PKD
ROOT
HETATM    1 CL   UNL     1     -12.714  15.696  74.128  1.00  0.00    -0.694 Cl 
HETATM    2  C   UNL     1     -12.378  15.244  72.504  1.00  0.00    -0.369 A  
HETATM    3  C   UNL     1     -11.689  16.119  71.670  1.00  0.00    -0.558 A  
HETATM    4  C   UNL     1     -11.415  15.746  70.353  1.00  0.00    -0.380 A  
HETATM    5  C   UNL     1     -11.830  14.497  69.856  1.00  0.00    -0.373 A  
HETATM    6  C   UNL     1     -12.522  13.625  70.709  1.00  0.00    -0.432 A  
HETATM    7  C   UNL     1     -12.796  14.000  72.028  1.00  0.00    -0.415 A  
ENDROOT
BRANCH   5   8
HETATM    8  C   UNL     1     -11.472  14.161  68.446  1.00  0.00    -0.302 C  
HETATM    9  O   UNL     1     -12.254  14.437  67.538  1.00  0.00    -0.342 OA 
HETATM   10  N   UNL     1     -10.265  13.540  68.207  1.00  0.00    -0.245 N  
HETATM   11  H   UNL     1      -9.622  13.355  68.978  1.00  0.00     0.000 HD 
BRANCH  10  12
HETATM   12  C   UNL     1      -9.913  13.150  66.855  1.00  0.00    -0.245 C  
BRANCH  12  13
HETATM   13  C   UNL     1      -9.336  11.727  66.774  1.00  0.00    -0.194 C  
BRANCH  13  14
HETATM   14  N   UNL     1     -10.298  10.692  66.334  1.00  0.00    -0.237 NA 
HETATM   15  C   UNL     1      -9.711   9.725  65.371  1.00  0.00    -0.313 C  
HETATM   16  C   UNL     1      -8.664   8.783  65.990  1.00  0.00    -0.167 C  
HETATM   17  O   UNL     1      -9.207   8.059  67.103  1.00  0.00    -0.134 OA 
HETATM   18  C   UNL     1      -9.729   8.952  68.094  1.00  0.00    -0.160 C  
HETATM   19  C   UNL     1     -10.784   9.904  67.497  1.00  0.00    -0.272 C  
ENDBRANCH  13  14
ENDBRANCH  12  13
ENDBRANCH  10  12
ENDBRANCH   5   8
TORSDOF 4
ENDMDL
MODEL       64
REMARK 921   NORMALIZED FREE ENERGY PREDICTED BY IDOCK:   -4.66 KCAL/MOL
REMARK 922        TOTAL FREE ENERGY PREDICTED BY IDOCK:   -6.14 KCAL/MOL
REMARK 923 INTER-LIGAND FREE ENERGY PREDICTED BY IDOCK:   -5.77 KCAL/MOL
REMARK 924 INTRA-LIGAND FREE ENERGY PREDICTED BY IDOCK:   -0.38 KCAL/MOL
REMARK 927      BINDING AFFINITY PREDICTED BY RF-SCORE:    0.00 PKD
ROOT
HETATM    1 CL   UNL     1      -9.904  19.389  67.571  1.00  0.00    -0.419 Cl 
HETATM    2  C   UNL     1     -10.371  17.750  67.348  1.00  0.00    -0.369 A  
HETATM    3  C   UNL     1     -10.217  17.149  66.103  1.00  0.00    -0.343 A  
HETATM    4  C   UNL     1     -10.595  15.816  65.928  1.00  0.00    -0.350 A  
HETATM    5  C   UNL     1     -11.132  15.073  66.994  1.00  0.00    -0.334 A  
HETATM    6  C   UNL     1     -11.280  15.691  68.244  1.00  0.00    -0.353 A  
HETATM    7  C   UNL     1     -10.902  17.027  68.418  1.00  0.00    -0.333 A  
ENDROOT
BRANCH   5   8
HETATM    8  C   UNL     1     -11.483  13.645  66.734  1.00  0.00    -0.346 C  
HETATM    9  O   UNL     1     -12.422  13.376  65.988  1.00  0.00    -0.420 OA 
HETATM   10  N   UNL     1     -10.735  12.664  67.351  1.00  0.00    -0.227 N  
HETATM   11  H   UNL     1      -9.940  12.919  67.937  1.00  0.00     0.000 HD 
BRANCH  10  12
HETATM   12  C   UNL     1     -11.086  11.270  67.162  1.00  0.00    -0.301 C  
BRANCH  12  13
HETATM   13  C   UNL     1     -11.729  10.641  68.409  1.00  0.00    -0.091 C  
BRANCH  13  14
HETATM   14  N   UNL     1     -11.160  11.098  69.698  1.00  0.00    -0.250 NA 
HETATM   15  C   UNL     1     -12.189  11.611  70.637  1.00  0.00    -0.366 C  
HETATM   16  C   UNL     1     -13.122  10.525  71.199  1.00  0.00    -0.358 C  
HETATM   17  O   UNL     1     -12.379   9.483  71.847  1.00  0.00    -0.373 OA 
HETATM   18  C   UNL     1     -11.414   8.908  70.958  1.00  0.00    -0.294 C  
HETATM   19  C   UNL     1     -10.465   9.980  70.386  1.00  0.00    -0.240 C  
ENDBRANCH  13  14
ENDBRANCH  12  13
ENDBRANCH  10  12
ENDBRANCH   5   8
TORSDOF 4
ENDMDL
MODEL       65
REMARK 921   NORMALIZED FREE ENERGY PREDICTED BY IDOCK:   -4.65 KCAL/MOL
REMARK 922        TOTAL FREE ENERGY PREDICTED BY IDOCK:   -6.12 KCAL/MOL
REMARK 923 INTER-LIGAND FREE ENERGY PREDICTED BY IDOCK:   -5.88 KCAL/MOL
REMARK 924 INTRA-LIGAND FREE ENERGY PREDICTED BY IDOCK:   -0.24 KCAL/MOL
REMARK 927      BINDING AFFINITY PREDICTED BY RF-SCORE:    0.00 PKD
ROOT
HETATM    1 CL   UNL     1     -10.716   7.188  73.613  1.00  0.00    -0.385 Cl 
HETATM    2  C   UNL     1     -10.727   8.256  72.266  1.00  0.00    -0.329 A  
HETATM    3  C   UNL     1     -11.895   8.931  71.926  1.00  0.00    -0.440 A  
HETATM    4  C   UNL     1     -11.898   9.799  70.834  1.00  0.00    -0.420 A  
HETATM    5  C   UNL     1     -10.735  10.001  70.069  1.00  0.00    -0.348 A  
HETATM    6  C   UNL     1      -9.564   9.316  70.425  1.00  0.00    -0.292 A  
HETATM    7  C   UNL     1      -9.562   8.445  71.520  1.00  0.00    -0.273 A  
ENDROOT
BRANCH   5   8
HETATM    8  C   UNL     1     -10.812  10.970  68.935  1.00  0.00    -0.217 C  
HETATM    9  O   UNL     1     -11.821  11.007  68.235  1.00  0.00    -0.537 OA 
HETATM   10  N   UNL     1      -9.732  11.796  68.707  1.00  0.00    -0.384 N  
HETATM   11  H   UNL     1      -8.922  11.766  69.327  1.00  0.00     0.000 HD 
BRANCH  10  12
HETATM   12  C   UNL     1      -9.753  12.709  67.580  1.00  0.00    -0.196 C  
BRANCH  12  13
HETATM   13  C   UNL     1      -9.822  14.184  68.006  1.00  0.00    -0.223 C  
BRANCH  13  14
HETATM   14  N   UNL     1     -11.149  14.818  67.834  1.00  0.00    -0.282 NA 
HETATM   15  C   UNL     1     -12.223  14.135  68.599  1.00  0.00    -0.181 C  
HETATM   16  C   UNL     1     -12.111  14.306  70.123  1.00  0.00    -0.339 C  
HETATM   17  O   UNL     1     -12.087  15.692  70.493  1.00  0.00    -0.352 OA 
HETATM   18  C   UNL     1     -11.023  16.384  69.828  1.00  0.00    -0.341 C  
HETATM   19  C   UNL     1     -11.117  16.229  68.298  1.00  0.00    -0.346 C  
ENDBRANCH  13  14
ENDBRANCH  12  13
ENDBRANCH  10  12
ENDBRANCH   5   8
TORSDOF 4
ENDMDL
MODEL       66
REMARK 921   NORMALIZED FREE ENERGY PREDICTED BY IDOCK:   -4.63 KCAL/MOL
REMARK 922        TOTAL FREE ENERGY PREDICTED BY IDOCK:   -6.11 KCAL/MOL
REMARK 923 INTER-LIGAND FREE ENERGY PREDICTED BY IDOCK:   -5.81 KCAL/MOL
REMARK 924 INTRA-LIGAND FREE ENERGY PREDICTED BY IDOCK:   -0.30 KCAL/MOL
REMARK 927      BINDING AFFINITY PREDICTED BY RF-SCORE:    0.00 PKD
ROOT
HETATM    1 CL   UNL     1     -13.625  16.046  73.321  1.00  0.00    -0.612 Cl 
HETATM    2  C   UNL     1     -13.116  14.801  72.251  1.00  0.00    -0.356 A  
HETATM    3  C   UNL     1     -12.237  15.095  71.214  1.00  0.00    -0.395 A  
HETATM    4  C   UNL     1     -11.823  14.080  70.350  1.00  0.00    -0.356 A  
HETATM    5  C   UNL     1     -12.284  12.761  70.513  1.00  0.00    -0.389 A  
HETATM    6  C   UNL     1     -13.168  12.479  71.565  1.00  0.00    -0.298 A  
HETATM    7  C   UNL     1     -13.583  13.497  72.429  1.00  0.00    -0.709 A  
ENDROOT
BRANCH   5   8
HETATM    8  C   UNL     1     -11.771  11.727  69.566  1.00  0.00    -0.343 C  
HETATM    9  O   UNL     1     -12.560  10.965  69.013  1.00  0.00    -0.350 OA 
HETATM   10  N   UNL     1     -10.412  11.657  69.347  1.00  0.00    -0.436 N  
HETATM   11  H   UNL     1      -9.785  12.326  69.796  1.00  0.00     0.000 HD 
BRANCH  10  12
HETATM   12  C   UNL     1      -9.877  10.628  68.477  1.00  0.00    -0.168 C  
BRANCH  12  13
HETATM   13  C   UNL     1      -9.645  11.121  67.039  1.00  0.00    -0.181 C  
BRANCH  13  14
HETATM   14  N   UNL     1     -10.171  10.225  65.984  1.00  0.00    -0.248 NA 
HETATM   15  C   UNL     1      -9.700  10.590  64.624  1.00  0.00    -0.309 C  
HETATM   16  C   UNL     1      -8.203  10.327  64.389  1.00  0.00    -0.159 C  
HETATM   17  O   UNL     1      -7.868   8.955  64.644  1.00  0.00    -0.111 OA 
HETATM   18  C   UNL     1      -8.244   8.572  65.972  1.00  0.00    -0.118 C  
HETATM   19  C   UNL     1      -9.743   8.823  66.230  1.00  0.00    -0.272 C  
ENDBRANCH  13  14
ENDBRANCH  12  13
ENDBRANCH  10  12
ENDBRANCH   5   8
TORSDOF 4
ENDMDL
MODEL       67
REMARK 921   NORMALIZED FREE ENERGY PREDICTED BY IDOCK:   -4.63 KCAL/MOL
REMARK 922        TOTAL FREE ENERGY PREDICTED BY IDOCK:   -6.10 KCAL/MOL
REMARK 923 INTER-LIGAND FREE ENERGY PREDICTED BY IDOCK:   -5.74 KCAL/MOL
REMARK 924 INTRA-LIGAND FREE ENERGY PREDICTED BY IDOCK:   -0.36 KCAL/MOL
REMARK 927      BINDING AFFINITY PREDICTED BY RF-SCORE:    0.00 PKD
ROOT
HETATM    1 CL   UNL     1     -12.343  15.076  64.172  1.00  0.00    -0.362 Cl 
HETATM    2  C   UNL     1     -11.751  13.662  64.949  1.00  0.00    -0.360 A  
HETATM    3  C   UNL     1     -12.056  13.426  66.286  1.00  0.00    -0.475 A  
HETATM    4  C   UNL     1     -11.576  12.275  66.912  1.00  0.00    -0.427 A  
HETATM    5  C   UNL     1     -10.784  11.349  66.209  1.00  0.00    -0.322 A  
HETATM    6  C   UNL     1     -10.485  11.599  64.862  1.00  0.00    -0.339 A  
HETATM    7  C   UNL     1     -10.967  12.753  64.236  1.00  0.00    -0.414 A  
ENDROOT
BRANCH   5   8
HETATM    8  C   UNL     1     -10.334  10.128  66.941  1.00  0.00    -0.236 C  
HETATM    9  O   UNL     1     -10.136   9.086  66.320  1.00  0.00    -0.295 OA 
HETATM   10  N   UNL     1     -10.160  10.210  68.306  1.00  0.00    -0.151 N  
HETATM   11  H   UNL     1     -10.299  11.098  68.788  1.00  0.00     0.000 HD 
BRANCH  10  12
HETATM   12  C   UNL     1      -9.778   9.027  69.053  1.00  0.00    -0.167 C  
BRANCH  12  13
HETATM   13  C   UNL     1     -10.974   8.329  69.721  1.00  0.00    -0.129 C  
BRANCH  13  14
HETATM   14  N   UNL     1     -11.063   8.518  71.187  1.00  0.00    -0.249 NA 
HETATM   15  C   UNL     1     -11.761   9.771  71.570  1.00  0.00    -0.375 C  
HETATM   16  C   UNL     1     -13.270   9.763  71.273  1.00  0.00    -0.373 C  
HETATM   17  O   UNL     1     -13.921   8.654  71.911  1.00  0.00    -0.399 OA 
HETATM   18  C   UNL     1     -13.324   7.412  71.521  1.00  0.00    -0.372 C  
HETATM   19  C   UNL     1     -11.810   7.397  71.813  1.00  0.00    -0.294 C  
ENDBRANCH  13  14
ENDBRANCH  12  13
ENDBRANCH  10  12
ENDBRANCH   5   8
TORSDOF 4
ENDMDL
MODEL       68
REMARK 921   NORMALIZED FREE ENERGY PREDICTED BY IDOCK:   -4.61 KCAL/MOL
REMARK 922        TOTAL FREE ENERGY PREDICTED BY IDOCK:   -6.08 KCAL/MOL
REMARK 923 INTER-LIGAND FREE ENERGY PREDICTED BY IDOCK:   -5.72 KCAL/MOL
REMARK 924 INTRA-LIGAND FREE ENERGY PREDICTED BY IDOCK:   -0.36 KCAL/MOL
REMARK 927      BINDING AFFINITY PREDICTED BY RF-SCORE:    0.00 PKD
ROOT
HETATM    1 CL   UNL     1     -12.092  14.801  64.332  1.00  0.00    -0.490 Cl 
HETATM    2  C   UNL     1     -11.579  13.304  65.003  1.00  0.00    -0.316 A  
HETATM    3  C   UNL     1     -10.929  12.372  64.201  1.00  0.00    -0.416 A  
HETATM    4  C   UNL     1     -10.511  11.159  64.751  1.00  0.00    -0.388 A  
HETATM    5  C   UNL     1     -10.739  10.865  66.108  1.00  0.00    -0.225 A  
HETATM    6  C   UNL     1     -11.393  11.816  66.905  1.00  0.00    -0.386 A  
HETATM    7  C   UNL     1     -11.812  13.030  66.353  1.00  0.00    -0.465 A  
ENDROOT
BRANCH   5   8
HETATM    8  C   UNL     1     -10.233   9.560  66.627  1.00  0.00    -0.240 C  
HETATM    9  O   UNL     1      -9.234   9.051  66.124  1.00  0.00    -0.183 OA 
HETATM   10  N   UNL     1     -10.917   8.959  67.663  1.00  0.00    -0.475 N  
HETATM   11  H   UNL     1     -11.723   9.423  68.082  1.00  0.00     0.000 HD 
BRANCH  10  12
HETATM   12  C   UNL     1     -10.485   7.664  68.152  1.00  0.00    -0.181 C  
BRANCH  12  13
HETATM   13  C   UNL     1      -9.874   7.731  69.562  1.00  0.00    -0.179 C  
BRANCH  13  14
HETATM   14  N   UNL     1     -10.388   6.715  70.509  1.00  0.00    -0.196 NA 
HETATM   15  C   UNL     1      -9.857   6.883  71.885  1.00  0.00    -0.164 C  
HETATM   16  C   UNL     1     -10.389   8.129  72.614  1.00  0.00    -0.328 C  
HETATM   17  O   UNL     1     -11.823   8.131  72.665  1.00  0.00    -0.395 OA 
HETATM   18  C   UNL     1     -12.386   8.037  71.351  1.00  0.00    -0.306 C  
HETATM   19  C   UNL     1     -11.869   6.792  70.603  1.00  0.00    -0.387 C  
ENDBRANCH  13  14
ENDBRANCH  12  13
ENDBRANCH  10  12
ENDBRANCH   5   8
TORSDOF 4
ENDMDL
MODEL       69
REMARK 921   NORMALIZED FREE ENERGY PREDICTED BY IDOCK:   -4.61 KCAL/MOL
REMARK 922        TOTAL FREE ENERGY PREDICTED BY IDOCK:   -6.08 KCAL/MOL
REMARK 923 INTER-LIGAND FREE ENERGY PREDICTED BY IDOCK:   -5.83 KCAL/MOL
REMARK 924 INTRA-LIGAND FREE ENERGY PREDICTED BY IDOCK:   -0.25 KCAL/MOL
REMARK 927      BINDING AFFINITY PREDICTED BY RF-SCORE:    0.00 PKD
ROOT
HETATM    1 CL   UNL     1     -12.098  13.125  63.234  1.00  0.00    -0.589 Cl 
HETATM    2  C   UNL     1     -11.706  12.505  64.788  1.00  0.00    -0.358 A  
HETATM    3  C   UNL     1     -10.898  11.378  64.901  1.00  0.00    -0.323 A  
HETATM    4  C   UNL     1     -10.579  10.880  66.166  1.00  0.00    -0.270 A  
HETATM    5  C   UNL     1     -11.066  11.502  67.329  1.00  0.00    -0.351 A  
HETATM    6  C   UNL     1     -11.877  12.639  67.200  1.00  0.00    -0.399 A  
HETATM    7  C   UNL     1     -12.196  13.136  65.933  1.00  0.00    -0.497 A  
ENDROOT
BRANCH   5   8
HETATM    8  C   UNL     1     -10.655  10.926  68.645  1.00  0.00    -0.195 C  
HETATM    9  O   UNL     1      -9.490  11.037  69.018  1.00  0.00    -0.184 OA 
HETATM   10  N   UNL     1     -11.607  10.278  69.401  1.00  0.00    -0.431 N  
HETATM   11  H   UNL     1     -12.575  10.233  69.079  1.00  0.00     0.000 HD 
BRANCH  10  12
HETATM   12  C   UNL     1     -11.227   9.660  70.657  1.00  0.00    -0.320 C  
BRANCH  12  13
HETATM   13  C   UNL     1     -10.638   8.252  70.477  1.00  0.00    -0.219 C  
BRANCH  13  14
HETATM   14  N   UNL     1     -11.639   7.162  70.436  1.00  0.00    -0.283 NA 
HETATM   15  C   UNL     1     -11.085   5.884  69.921  1.00  0.00    -0.347 C  
HETATM   16  C   UNL     1     -10.085   5.207  70.873  1.00  0.00    -0.232 C  
HETATM   17  O   UNL     1     -10.667   4.974  72.163  1.00  0.00    -0.213 OA 
HETATM   18  C   UNL     1     -11.159   6.193  72.733  1.00  0.00    -0.259 C  
HETATM   19  C   UNL     1     -12.168   6.888  71.797  1.00  0.00    -0.356 C  
ENDBRANCH  13  14
ENDBRANCH  12  13
ENDBRANCH  10  12
ENDBRANCH   5   8
TORSDOF 4
ENDMDL
MODEL       70
REMARK 921   NORMALIZED FREE ENERGY PREDICTED BY IDOCK:   -4.60 KCAL/MOL
REMARK 922        TOTAL FREE ENERGY PREDICTED BY IDOCK:   -6.07 KCAL/MOL
REMARK 923 INTER-LIGAND FREE ENERGY PREDICTED BY IDOCK:   -5.73 KCAL/MOL
REMARK 924 INTRA-LIGAND FREE ENERGY PREDICTED BY IDOCK:   -0.34 KCAL/MOL
REMARK 927      BINDING AFFINITY PREDICTED BY RF-SCORE:    0.00 PKD
ROOT
HETATM    1 CL   UNL     1     -10.660  17.644  67.624  1.00  0.00    -0.375 Cl 
HETATM    2  C   UNL     1     -10.952  15.999  68.024  1.00  0.00    -0.341 A  
HETATM    3  C   UNL     1     -11.798  15.682  69.082  1.00  0.00    -0.378 A  
HETATM    4  C   UNL     1     -12.035  14.344  69.401  1.00  0.00    -0.370 A  
HETATM    5  C   UNL     1     -11.428  13.309  68.667  1.00  0.00    -0.339 A  
HETATM    6  C   UNL     1     -10.579  13.643  67.602  1.00  0.00    -0.245 A  
HETATM    7  C   UNL     1     -10.342  14.984  67.283  1.00  0.00    -0.249 A  
ENDROOT
BRANCH   5   8
HETATM    8  C   UNL     1     -11.756  11.904  69.052  1.00  0.00    -0.331 C  
HETATM    9  O   UNL     1     -12.143  11.114  68.194  1.00  0.00    -0.633 OA 
HETATM   10  N   UNL     1     -11.616  11.537  70.373  1.00  0.00    -0.503 N  
HETATM   11  H   UNL     1     -11.259  12.206  71.056  1.00  0.00     0.000 HD 
BRANCH  10  12
HETATM   12  C   UNL     1     -11.980  10.196  70.788  1.00  0.00    -0.348 C  
BRANCH  12  13
HETATM   13  C   UNL     1     -10.808   9.425  71.416  1.00  0.00    -0.360 C  
BRANCH  13  14
HETATM   14  N   UNL     1     -10.073   8.543  70.481  1.00  0.00    -0.188 NA 
HETATM   15  C   UNL     1      -9.240   7.528  71.173  1.00  0.00    -0.147 C  
HETATM   16  C   UNL     1     -10.050   6.436  71.891  1.00  0.00    -0.183 C  
HETATM   17  O   UNL     1     -10.940   5.767  70.985  1.00  0.00    -0.271 OA 
HETATM   18  C   UNL     1     -11.814   6.700  70.339  1.00  0.00    -0.346 C  
HETATM   19  C   UNL     1     -11.022   7.803  69.609  1.00  0.00    -0.122 C  
ENDBRANCH  13  14
ENDBRANCH  12  13
ENDBRANCH  10  12
ENDBRANCH   5   8
TORSDOF 4
ENDMDL
MODEL       71
REMARK 921   NORMALIZED FREE ENERGY PREDICTED BY IDOCK:   -4.58 KCAL/MOL
REMARK 922        TOTAL FREE ENERGY PREDICTED BY IDOCK:   -6.05 KCAL/MOL
REMARK 923 INTER-LIGAND FREE ENERGY PREDICTED BY IDOCK:   -5.59 KCAL/MOL
REMARK 924 INTRA-LIGAND FREE ENERGY PREDICTED BY IDOCK:   -0.46 KCAL/MOL
REMARK 927      BINDING AFFINITY PREDICTED BY RF-SCORE:    0.00 PKD
ROOT
HETATM    1 CL   UNL     1     -13.959  15.892  72.829  1.00  0.00    -0.592 Cl 
HETATM    2  C   UNL     1     -13.304  14.615  71.882  1.00  0.00    -0.363 A  
HETATM    3  C   UNL     1     -13.426  13.298  72.315  1.00  0.00    -0.679 A  
HETATM    4  C   UNL     1     -12.896  12.265  71.540  1.00  0.00    -0.384 A  
HETATM    5  C   UNL     1     -12.237  12.537  70.328  1.00  0.00    -0.345 A  
HETATM    6  C   UNL     1     -12.123  13.869  69.903  1.00  0.00    -0.406 A  
HETATM    7  C   UNL     1     -12.654  14.904  70.680  1.00  0.00    -0.420 A  
ENDROOT
BRANCH   5   8
HETATM    8  C   UNL     1     -11.724  11.374  69.544  1.00  0.00    -0.348 C  
HETATM    9  O   UNL     1     -12.218  11.116  68.448  1.00  0.00    -0.610 OA 
HETATM   10  N   UNL     1     -10.706  10.618  70.084  1.00  0.00    -0.463 N  
HETATM   11  H   UNL     1     -10.293  10.879  70.980  1.00  0.00     0.000 HD 
BRANCH  10  12
HETATM   12  C   UNL     1     -10.224   9.450  69.372  1.00  0.00    -0.207 C  
BRANCH  12  13
HETATM   13  C   UNL     1      -8.691   9.399  69.273  1.00  0.00    -0.145 C  
BRANCH  13  14
HETATM   14  N   UNL     1      -8.159   9.377  67.892  1.00  0.00    -0.103 NA 
HETATM   15  C   UNL     1      -8.751  10.427  67.025  1.00  0.00    -0.130 C  
HETATM   16  C   UNL     1      -8.317  11.857  67.388  1.00  0.00    -0.163 C  
HETATM   17  O   UNL     1      -6.888  11.990  67.369  1.00  0.00    -0.115 OA 
HETATM   18  C   UNL     1      -6.271  11.038  68.245  1.00  0.00    -0.049 C  
HETATM   19  C   UNL     1      -6.689   9.596  67.896  1.00  0.00    -0.066 C  
ENDBRANCH  13  14
ENDBRANCH  12  13
ENDBRANCH  10  12
ENDBRANCH   5   8
TORSDOF 4
ENDMDL
MODEL       72
REMARK 921   NORMALIZED FREE ENERGY PREDICTED BY IDOCK:   -4.57 KCAL/MOL
REMARK 922        TOTAL FREE ENERGY PREDICTED BY IDOCK:   -6.03 KCAL/MOL
REMARK 923 INTER-LIGAND FREE ENERGY PREDICTED BY IDOCK:   -5.61 KCAL/MOL
REMARK 924 INTRA-LIGAND FREE ENERGY PREDICTED BY IDOCK:   -0.42 KCAL/MOL
REMARK 927      BINDING AFFINITY PREDICTED BY RF-SCORE:    0.00 PKD
ROOT
HETATM    1 CL   UNL     1      -7.511  20.924  67.331  1.00  0.00    -0.389 Cl 
HETATM    2  C   UNL     1      -8.543  19.559  67.496  1.00  0.00    -0.307 A  
HETATM    3  C   UNL     1      -9.719  19.486  66.756  1.00  0.00    -0.464 A  
HETATM    4  C   UNL     1     -10.552  18.374  66.891  1.00  0.00    -0.381 A  
HETATM    5  C   UNL     1     -10.219  17.325  67.767  1.00  0.00    -0.332 A  
HETATM    6  C   UNL     1      -9.029  17.411  68.505  1.00  0.00    -0.276 A  
HETATM    7  C   UNL     1      -8.196  18.526  68.369  1.00  0.00    -0.351 A  
ENDROOT
BRANCH   5   8
HETATM    8  C   UNL     1     -11.147  16.157  67.831  1.00  0.00    -0.293 C  
HETATM    9  O   UNL     1     -11.686  15.867  68.897  1.00  0.00    -0.390 OA 
HETATM   10  N   UNL     1     -11.366  15.431  66.680  1.00  0.00    -0.181 N  
HETATM   11  H   UNL     1     -10.930  15.718  65.802  1.00  0.00     0.000 HD 
BRANCH  10  12
HETATM   12  C   UNL     1     -12.217  14.258  66.722  1.00  0.00    -0.352 C  
BRANCH  12  13
HETATM   13  C   UNL     1     -11.584  13.035  66.040  1.00  0.00    -0.365 C  
BRANCH  13  14
HETATM   14  N   UNL     1     -11.591  11.798  66.854  1.00  0.00    -0.548 NA 
HETATM   15  C   UNL     1     -10.660  10.761  66.343  1.00  0.00    -0.203 C  
HETATM   16  C   UNL     1      -9.173  11.113  66.519  1.00  0.00    -0.179 C  
HETATM   17  O   UNL     1      -8.860  11.383  67.893  1.00  0.00    -0.139 OA 
HETATM   18  C   UNL     1      -9.690  12.427  68.416  1.00  0.00    -0.189 C  
HETATM   19  C   UNL     1     -11.187  12.093  68.253  1.00  0.00    -0.268 C  
ENDBRANCH  13  14
ENDBRANCH  12  13
ENDBRANCH  10  12
ENDBRANCH   5   8
TORSDOF 4
ENDMDL
MODEL       73
REMARK 921   NORMALIZED FREE ENERGY PREDICTED BY IDOCK:   -4.56 KCAL/MOL
REMARK 922        TOTAL FREE ENERGY PREDICTED BY IDOCK:   -6.02 KCAL/MOL
REMARK 923 INTER-LIGAND FREE ENERGY PREDICTED BY IDOCK:   -5.60 KCAL/MOL
REMARK 924 INTRA-LIGAND FREE ENERGY PREDICTED BY IDOCK:   -0.42 KCAL/MOL
REMARK 927      BINDING AFFINITY PREDICTED BY RF-SCORE:    0.00 PKD
ROOT
HETATM    1 CL   UNL     1     -10.216  18.364  68.351  1.00  0.00    -0.406 Cl 
HETATM    2  C   UNL     1     -10.529  16.908  67.493  1.00  0.00    -0.328 A  
HETATM    3  C   UNL     1     -10.161  16.799  66.156  1.00  0.00    -0.363 A  
HETATM    4  C   UNL     1     -10.415  15.614  65.464  1.00  0.00    -0.426 A  
HETATM    5  C   UNL     1     -11.040  14.526  66.100  1.00  0.00    -0.334 A  
HETATM    6  C   UNL     1     -11.403  14.650  67.450  1.00  0.00    -0.368 A  
HETATM    7  C   UNL     1     -11.149  15.838  68.142  1.00  0.00    -0.341 A  
ENDROOT
BRANCH   5   8
HETATM    8  C   UNL     1     -11.248  13.283  65.300  1.00  0.00    -0.295 C  
HETATM    9  O   UNL     1     -12.171  12.524  65.587  1.00  0.00    -0.554 OA 
HETATM   10  N   UNL     1     -10.384  13.023  64.258  1.00  0.00    -0.525 N  
HETATM   11  H   UNL     1      -9.649  13.691  64.023  1.00  0.00     0.000 HD 
BRANCH  10  12
HETATM   12  C   UNL     1     -10.525  11.797  63.497  1.00  0.00    -0.449 C  
BRANCH  12  13
HETATM   13  C   UNL     1      -9.218  10.992  63.411  1.00  0.00    -0.245 C  
BRANCH  13  14
HETATM   14  N   UNL     1      -9.268   9.658  64.051  1.00  0.00    -0.218 NA 
HETATM   15  C   UNL     1      -7.921   9.095  64.326  1.00  0.00    -0.139 C  
HETATM   16  C   UNL     1      -7.152   9.827  65.438  1.00  0.00    -0.113 C  
HETATM   17  O   UNL     1      -7.903   9.855  66.661  1.00  0.00    -0.108 OA 
HETATM   18  C   UNL     1      -9.190  10.451  66.462  1.00  0.00    -0.160 C  
HETATM   19  C   UNL     1      -9.981   9.731  65.353  1.00  0.00    -0.232 C  
ENDBRANCH  13  14
ENDBRANCH  12  13
ENDBRANCH  10  12
ENDBRANCH   5   8
TORSDOF 4
ENDMDL
MODEL       74
REMARK 921   NORMALIZED FREE ENERGY PREDICTED BY IDOCK:   -4.55 KCAL/MOL
REMARK 922        TOTAL FREE ENERGY PREDICTED BY IDOCK:   -6.00 KCAL/MOL
REMARK 923 INTER-LIGAND FREE ENERGY PREDICTED BY IDOCK:   -5.64 KCAL/MOL
REMARK 924 INTRA-LIGAND FREE ENERGY PREDICTED BY IDOCK:   -0.36 KCAL/MOL
REMARK 927      BINDING AFFINITY PREDICTED BY RF-SCORE:    0.00 PKD
ROOT
HETATM    1 CL   UNL     1     -12.875  11.734  63.263  1.00  0.00    -0.499 Cl 
HETATM    2  C   UNL     1     -11.833  12.493  64.400  1.00  0.00    -0.386 A  
HETATM    3  C   UNL     1     -11.675  13.875  64.380  1.00  0.00    -0.427 A  
HETATM    4  C   UNL     1     -10.830  14.487  65.308  1.00  0.00    -0.377 A  
HETATM    5  C   UNL     1     -10.135  13.725  66.263  1.00  0.00    -0.304 A  
HETATM    6  C   UNL     1     -10.306  12.332  66.273  1.00  0.00    -0.257 A  
HETATM    7  C   UNL     1     -11.152  11.720  65.343  1.00  0.00    -0.336 A  
ENDROOT
BRANCH   5   8
HETATM    8  C   UNL     1      -9.275  14.457  67.240  1.00  0.00    -0.209 C  
HETATM    9  O   UNL     1      -8.222  13.951  67.621  1.00  0.00    -0.150 OA 
HETATM   10  N   UNL     1      -9.699  15.689  67.690  1.00  0.00    -0.224 N  
HETATM   11  H   UNL     1     -10.561  16.098  67.328  1.00  0.00     0.000 HD 
BRANCH  10  12
HETATM   12  C   UNL     1      -8.915  16.400  68.681  1.00  0.00    -0.233 C  
BRANCH  12  13
HETATM   13  C   UNL     1      -8.151  17.598  68.092  1.00  0.00    -0.252 C  
BRANCH  13  14
HETATM   14  N   UNL     1      -8.299  18.861  68.851  1.00  0.00    -0.287 NA 
HETATM   15  C   UNL     1      -7.414  19.944  68.352  1.00  0.00    -0.277 C  
HETATM   16  C   UNL     1      -7.810  20.489  66.969  1.00  0.00    -0.294 C  
HETATM   17  O   UNL     1      -9.167  20.955  66.961  1.00  0.00    -0.249 OA 
HETATM   18  C   UNL     1     -10.070  19.922  67.373  1.00  0.00    -0.430 C  
HETATM   19  C   UNL     1      -9.694  19.363  68.760  1.00  0.00    -0.449 C  
ENDBRANCH  13  14
ENDBRANCH  12  13
ENDBRANCH  10  12
ENDBRANCH   5   8
TORSDOF 4
ENDMDL
MODEL       75
REMARK 921   NORMALIZED FREE ENERGY PREDICTED BY IDOCK:   -4.54 KCAL/MOL
REMARK 922        TOTAL FREE ENERGY PREDICTED BY IDOCK:   -6.00 KCAL/MOL
REMARK 923 INTER-LIGAND FREE ENERGY PREDICTED BY IDOCK:   -5.72 KCAL/MOL
REMARK 924 INTRA-LIGAND FREE ENERGY PREDICTED BY IDOCK:   -0.28 KCAL/MOL
REMARK 927      BINDING AFFINITY PREDICTED BY RF-SCORE:    0.00 PKD
ROOT
HETATM    1 CL   UNL     1      -6.737  20.340  68.722  1.00  0.00    -0.311 Cl 
HETATM    2  C   UNL     1      -7.816  19.298  67.883  1.00  0.00    -0.289 A  
HETATM    3  C   UNL     1      -8.696  19.824  66.942  1.00  0.00    -0.389 A  
HETATM    4  C   UNL     1      -9.569  18.974  66.261  1.00  0.00    -0.367 A  
HETATM    5  C   UNL     1      -9.572  17.590  66.514  1.00  0.00    -0.295 A  
HETATM    6  C   UNL     1      -8.678  17.074  67.463  1.00  0.00    -0.215 A  
HETATM    7  C   UNL     1      -7.805  17.927  68.146  1.00  0.00    -0.266 A  
ENDROOT
BRANCH   5   8
HETATM    8  C   UNL     1     -10.514  16.745  65.722  1.00  0.00    -0.292 C  
HETATM    9  O   UNL     1     -11.024  17.197  64.700  1.00  0.00    -1.005 OA 
HETATM   10  N   UNL     1     -10.786  15.470  66.173  1.00  0.00    -0.317 N  
HETATM   11  H   UNL     1     -10.320  15.111  67.006  1.00  0.00     0.000 HD 
BRANCH  10  12
HETATM   12  C   UNL     1     -11.739  14.644  65.457  1.00  0.00    -0.316 C  
BRANCH  12  13
HETATM   13  C   UNL     1     -11.292  13.178  65.341  1.00  0.00    -0.297 C  
BRANCH  13  14
HETATM   14  N   UNL     1     -10.191  12.792  66.253  1.00  0.00    -0.249 NA 
HETATM   15  C   UNL     1     -10.667  12.398  67.603  1.00  0.00    -0.221 C  
HETATM   16  C   UNL     1     -11.434  11.066  67.633  1.00  0.00    -0.224 C  
HETATM   17  O   UNL     1     -10.646   9.998  67.088  1.00  0.00    -0.241 OA 
HETATM   18  C   UNL     1     -10.216  10.302  65.756  1.00  0.00    -0.219 C  
HETATM   19  C   UNL     1      -9.441  11.634  65.703  1.00  0.00    -0.209 C  
ENDBRANCH  13  14
ENDBRANCH  12  13
ENDBRANCH  10  12
ENDBRANCH   5   8
TORSDOF 4
ENDMDL
MODEL       76
REMARK 921   NORMALIZED FREE ENERGY PREDICTED BY IDOCK:   -4.53 KCAL/MOL
REMARK 922        TOTAL FREE ENERGY PREDICTED BY IDOCK:   -5.99 KCAL/MOL
REMARK 923 INTER-LIGAND FREE ENERGY PREDICTED BY IDOCK:   -5.63 KCAL/MOL
REMARK 924 INTRA-LIGAND FREE ENERGY PREDICTED BY IDOCK:   -0.36 KCAL/MOL
REMARK 927      BINDING AFFINITY PREDICTED BY RF-SCORE:    0.00 PKD
ROOT
HETATM    1 CL   UNL     1      -8.608   5.963  73.829  1.00  0.00    -0.121 Cl 
HETATM    2  C   UNL     1      -9.507   7.167  72.994  1.00  0.00    -0.158 A  
HETATM    3  C   UNL     1     -10.892   7.211  73.122  1.00  0.00    -0.373 A  
HETATM    4  C   UNL     1     -11.617   8.193  72.445  1.00  0.00    -0.463 A  
HETATM    5  C   UNL     1     -10.967   9.137  71.631  1.00  0.00    -0.445 A  
HETATM    6  C   UNL     1      -9.571   9.082  71.513  1.00  0.00    -0.340 A  
HETATM    7  C   UNL     1      -8.845   8.098  72.192  1.00  0.00    -0.238 A  
ENDROOT
BRANCH   5   8
HETATM    8  C   UNL     1     -11.811  10.173  70.964  1.00  0.00    -0.383 C  
HETATM    9  O   UNL     1     -12.955  10.376  71.365  1.00  0.00    -0.379 OA 
HETATM   10  N   UNL     1     -11.273  10.873  69.905  1.00  0.00    -0.339 N  
HETATM   11  H   UNL     1     -10.308  10.706  69.618  1.00  0.00     0.000 HD 
BRANCH  10  12
HETATM   12  C   UNL     1     -12.086  11.846  69.201  1.00  0.00    -0.201 C  
BRANCH  12  13
HETATM   13  C   UNL     1     -11.475  13.257  69.213  1.00  0.00    -0.288 C  
BRANCH  13  14
HETATM   14  N   UNL     1     -12.454  14.355  69.385  1.00  0.00    -0.181 NA 
HETATM   15  C   UNL     1     -13.064  14.382  70.738  1.00  0.00    -0.285 C  
HETATM   16  C   UNL     1     -12.092  14.798  71.855  1.00  0.00    -0.335 C  
HETATM   17  O   UNL     1     -11.503  16.078  71.585  1.00  0.00    -0.417 OA 
HETATM   18  C   UNL     1     -10.842  16.083  70.314  1.00  0.00    -0.321 C  
HETATM   19  C   UNL     1     -11.800  15.672  69.177  1.00  0.00    -0.362 C  
ENDBRANCH  13  14
ENDBRANCH  12  13
ENDBRANCH  10  12
ENDBRANCH   5   8
TORSDOF 4
ENDMDL
MODEL       77
REMARK 921   NORMALIZED FREE ENERGY PREDICTED BY IDOCK:   -4.53 KCAL/MOL
REMARK 922        TOTAL FREE ENERGY PREDICTED BY IDOCK:   -5.98 KCAL/MOL
REMARK 923 INTER-LIGAND FREE ENERGY PREDICTED BY IDOCK:   -5.69 KCAL/MOL
REMARK 924 INTRA-LIGAND FREE ENERGY PREDICTED BY IDOCK:   -0.29 KCAL/MOL
REMARK 927      BINDING AFFINITY PREDICTED BY RF-SCORE:    0.00 PKD
ROOT
HETATM    1 CL   UNL     1      -5.560  20.768  69.185  1.00  0.00    -0.395 Cl 
HETATM    2  C   UNL     1      -6.657  19.480  68.885  1.00  0.00    -0.304 A  
HETATM    3  C   UNL     1      -7.925  19.752  68.380  1.00  0.00    -0.315 A  
HETATM    4  C   UNL     1      -8.811  18.702  68.135  1.00  0.00    -0.335 A  
HETATM    5  C   UNL     1      -8.441  17.370  68.393  1.00  0.00    -0.263 A  
HETATM    6  C   UNL     1      -7.159  17.110  68.899  1.00  0.00    -0.242 A  
HETATM    7  C   UNL     1      -6.272  18.163  69.145  1.00  0.00    -0.244 A  
ENDROOT
BRANCH   5   8
HETATM    8  C   UNL     1      -9.435  16.302  68.075  1.00  0.00    -0.223 C  
HETATM    9  O   UNL     1     -10.604  16.607  67.854  1.00  0.00    -0.319 OA 
HETATM   10  N   UNL     1      -9.002  14.993  68.046  1.00  0.00    -0.171 N  
HETATM   11  H   UNL     1      -8.017  14.776  68.200  1.00  0.00     0.000 HD 
BRANCH  10  12
HETATM   12  C   UNL     1      -9.954  13.928  67.795  1.00  0.00    -0.241 C  
BRANCH  12  13
HETATM   13  C   UNL     1      -9.783  13.288  66.408  1.00  0.00    -0.276 C  
BRANCH  13  14
HETATM   14  N   UNL     1     -10.756  12.216  66.096  1.00  0.00    -0.263 NA 
HETATM   15  C   UNL     1     -12.159  12.601  66.393  1.00  0.00    -0.260 C  
HETATM   16  C   UNL     1     -12.727  13.675  65.450  1.00  0.00    -0.453 C  
HETATM   17  O   UNL     1     -12.639  13.264  64.078  1.00  0.00    -0.645 OA 
HETATM   18  C   UNL     1     -11.289  12.943  63.722  1.00  0.00    -0.435 C  
HETATM   19  C   UNL     1     -10.700  11.865  64.653  1.00  0.00    -0.307 C  
ENDBRANCH  13  14
ENDBRANCH  12  13
ENDBRANCH  10  12
ENDBRANCH   5   8
TORSDOF 4
ENDMDL
MODEL       78
REMARK 921   NORMALIZED FREE ENERGY PREDICTED BY IDOCK:   -4.52 KCAL/MOL
REMARK 922        TOTAL FREE ENERGY PREDICTED BY IDOCK:   -5.97 KCAL/MOL
REMARK 923 INTER-LIGAND FREE ENERGY PREDICTED BY IDOCK:   -5.56 KCAL/MOL
REMARK 924 INTRA-LIGAND FREE ENERGY PREDICTED BY IDOCK:   -0.40 KCAL/MOL
REMARK 927      BINDING AFFINITY PREDICTED BY RF-SCORE:    0.00 PKD
ROOT
HETATM    1 CL   UNL     1     -12.824  15.421  73.822  1.00  0.00    -0.663 Cl 
HETATM    2  C   UNL     1     -12.391  15.057  72.199  1.00  0.00    -0.355 A  
HETATM    3  C   UNL     1     -12.689  13.807  71.666  1.00  0.00    -0.409 A  
HETATM    4  C   UNL     1     -12.339  13.517  70.347  1.00  0.00    -0.397 A  
HETATM    5  C   UNL     1     -11.685  14.471  69.547  1.00  0.00    -0.361 A  
HETATM    6  C   UNL     1     -11.393  15.728  70.097  1.00  0.00    -0.361 A  
HETATM    7  C   UNL     1     -11.744  16.018  71.419  1.00  0.00    -0.536 A  
ENDROOT
BRANCH   5   8
HETATM    8  C   UNL     1     -11.371  14.094  68.137  1.00  0.00    -0.290 C  
HETATM    9  O   UNL     1     -12.248  14.166  67.279  1.00  0.00    -0.402 OA 
HETATM   10  N   UNL     1     -10.094  13.668  67.842  1.00  0.00    -0.238 N  
HETATM   11  H   UNL     1      -9.378  13.652  68.569  1.00  0.00     0.000 HD 
BRANCH  10  12
HETATM   12  C   UNL     1      -9.773  13.242  66.494  1.00  0.00    -0.273 C  
BRANCH  12  13
HETATM   13  C   UNL     1      -9.488  11.735  66.394  1.00  0.00    -0.221 C  
BRANCH  13  14
HETATM   14  N   UNL     1      -9.605  10.996  67.672  1.00  0.00    -0.167 NA 
HETATM   15  C   UNL     1     -10.667   9.959  67.649  1.00  0.00    -0.281 C  
HETATM   16  C   UNL     1     -10.348   8.756  66.746  1.00  0.00    -0.258 C  
HETATM   17  O   UNL     1      -9.106   8.140  67.116  1.00  0.00    -0.134 OA 
HETATM   18  C   UNL     1      -8.033   9.089  67.089  1.00  0.00    -0.102 C  
HETATM   19  C   UNL     1      -8.330  10.303  67.992  1.00  0.00    -0.114 C  
ENDBRANCH  13  14
ENDBRANCH  12  13
ENDBRANCH  10  12
ENDBRANCH   5   8
TORSDOF 4
ENDMDL
MODEL       79
REMARK 921   NORMALIZED FREE ENERGY PREDICTED BY IDOCK:   -4.51 KCAL/MOL
REMARK 922        TOTAL FREE ENERGY PREDICTED BY IDOCK:   -5.95 KCAL/MOL
REMARK 923 INTER-LIGAND FREE ENERGY PREDICTED BY IDOCK:   -5.74 KCAL/MOL
REMARK 924 INTRA-LIGAND FREE ENERGY PREDICTED BY IDOCK:   -0.22 KCAL/MOL
REMARK 927      BINDING AFFINITY PREDICTED BY RF-SCORE:    0.00 PKD
ROOT
HETATM    1 CL   UNL     1     -11.425   5.319  73.256  1.00  0.00    -0.322 Cl 
HETATM    2  C   UNL     1     -11.197   6.619  72.156  1.00  0.00    -0.264 A  
HETATM    3  C   UNL     1     -11.319   7.932  72.599  1.00  0.00    -0.468 A  
HETATM    4  C   UNL     1     -11.130   8.985  71.702  1.00  0.00    -0.433 A  
HETATM    5  C   UNL     1     -10.818   8.737  70.354  1.00  0.00    -0.256 A  
HETATM    6  C   UNL     1     -10.695   7.408  69.921  1.00  0.00    -0.254 A  
HETATM    7  C   UNL     1     -10.886   6.354  70.820  1.00  0.00    -0.321 A  
ENDROOT
BRANCH   5   8
HETATM    8  C   UNL     1     -10.600   9.917  69.466  1.00  0.00    -0.242 C  
HETATM    9  O   UNL     1      -9.455  10.263  69.184  1.00  0.00    -0.193 OA 
HETATM   10  N   UNL     1     -11.705  10.590  68.989  1.00  0.00    -0.487 N  
HETATM   11  H   UNL     1     -12.644  10.258  69.213  1.00  0.00     0.000 HD 
BRANCH  10  12
HETATM   12  C   UNL     1     -11.527  11.774  68.170  1.00  0.00    -0.316 C  
BRANCH  12  13
HETATM   13  C   UNL     1     -11.465  13.069  68.996  1.00  0.00    -0.303 C  
BRANCH  13  14
HETATM   14  N   UNL     1     -12.233  14.202  68.431  1.00  0.00    -0.260 NA 
HETATM   15  C   UNL     1     -11.862  15.510  69.028  1.00  0.00    -0.354 C  
HETATM   16  C   UNL     1     -10.458  16.001  68.637  1.00  0.00    -0.251 C  
HETATM   17  O   UNL     1     -10.312  16.081  67.212  1.00  0.00    -0.282 OA 
HETATM   18  C   UNL     1     -10.595  14.821  66.592  1.00  0.00    -0.299 C  
HETATM   19  C   UNL     1     -12.001  14.311  66.968  1.00  0.00    -0.433 C  
ENDBRANCH  13  14
ENDBRANCH  12  13
ENDBRANCH  10  12
ENDBRANCH   5   8
TORSDOF 4
ENDMDL
MODEL       80
REMARK 921   NORMALIZED FREE ENERGY PREDICTED BY IDOCK:   -4.49 KCAL/MOL
REMARK 922        TOTAL FREE ENERGY PREDICTED BY IDOCK:   -5.93 KCAL/MOL
REMARK 923 INTER-LIGAND FREE ENERGY PREDICTED BY IDOCK:   -5.62 KCAL/MOL
REMARK 924 INTRA-LIGAND FREE ENERGY PREDICTED BY IDOCK:   -0.31 KCAL/MOL
REMARK 927      BINDING AFFINITY PREDICTED BY RF-SCORE:    0.00 PKD
ROOT
HETATM    1 CL   UNL     1     -12.710  15.758  74.334  1.00  0.00    -0.635 Cl 
HETATM    2  C   UNL     1     -12.334  15.326  72.714  1.00  0.00    -0.396 A  
HETATM    3  C   UNL     1     -11.610  16.204  71.913  1.00  0.00    -0.491 A  
HETATM    4  C   UNL     1     -11.304  15.847  70.599  1.00  0.00    -0.421 A  
HETATM    5  C   UNL     1     -11.719  14.612  70.071  1.00  0.00    -0.348 A  
HETATM    6  C   UNL     1     -12.446  13.736  70.890  1.00  0.00    -0.451 A  
HETATM    7  C   UNL     1     -12.753  14.094  72.207  1.00  0.00    -0.362 A  
ENDROOT
BRANCH   5   8
HETATM    8  C   UNL     1     -11.326  14.292  68.666  1.00  0.00    -0.275 C  
HETATM    9  O   UNL     1     -10.910  13.168  68.392  1.00  0.00    -0.244 OA 
HETATM   10  N   UNL     1     -11.438  15.282  67.713  1.00  0.00    -0.329 N  
HETATM   11  H   UNL     1     -11.819  16.195  67.965  1.00  0.00     0.000 HD 
BRANCH  10  12
HETATM   12  C   UNL     1     -11.011  15.020  66.352  1.00  0.00    -0.336 C  
BRANCH  12  13
HETATM   13  C   UNL     1      -9.743  15.797  65.963  1.00  0.00    -0.345 C  
BRANCH  13  14
HETATM   14  N   UNL     1      -9.242  16.726  67.001  1.00  0.00    -0.219 NA 
HETATM   15  C   UNL     1      -8.263  16.094  67.922  1.00  0.00    -0.153 C  
HETATM   16  C   UNL     1      -6.910  15.766  67.269  1.00  0.00    -0.185 C  
HETATM   17  O   UNL     1      -6.314  16.936  66.690  1.00  0.00    -0.193 OA 
HETATM   18  C   UNL     1      -7.196  17.547  65.741  1.00  0.00    -0.011 C  
HETATM   19  C   UNL     1      -8.559  17.888  66.376  1.00  0.00    -0.227 C  
ENDBRANCH  13  14
ENDBRANCH  12  13
ENDBRANCH  10  12
ENDBRANCH   5   8
TORSDOF 4
ENDMDL
MODEL       81
REMARK 921   NORMALIZED FREE ENERGY PREDICTED BY IDOCK:   -4.49 KCAL/MOL
REMARK 922        TOTAL FREE ENERGY PREDICTED BY IDOCK:   -5.93 KCAL/MOL
REMARK 923 INTER-LIGAND FREE ENERGY PREDICTED BY IDOCK:   -5.64 KCAL/MOL
REMARK 924 INTRA-LIGAND FREE ENERGY PREDICTED BY IDOCK:   -0.29 KCAL/MOL
REMARK 927      BINDING AFFINITY PREDICTED BY RF-SCORE:    0.00 PKD
ROOT
HETATM    1 CL   UNL     1     -12.389  13.422  63.178  1.00  0.00    -0.340 Cl 
HETATM    2  C   UNL     1     -11.665  12.444  64.392  1.00  0.00    -0.366 A  
HETATM    3  C   UNL     1     -12.051  12.589  65.720  1.00  0.00    -0.443 A  
HETATM    4  C   UNL     1     -11.462  11.791  66.702  1.00  0.00    -0.337 A  
HETATM    5  C   UNL     1     -10.480  10.841  66.367  1.00  0.00    -0.293 A  
HETATM    6  C   UNL     1     -10.103  10.704  65.023  1.00  0.00    -0.388 A  
HETATM    7  C   UNL     1     -10.693  11.505  64.040  1.00  0.00    -0.445 A  
ENDROOT
BRANCH   5   8
HETATM    8  C   UNL     1      -9.921  10.004  67.470  1.00  0.00    -0.190 C  
HETATM    9  O   UNL     1      -8.816  10.272  67.935  1.00  0.00    -0.122 OA 
HETATM   10  N   UNL     1     -10.671   8.943  67.931  1.00  0.00    -0.449 N  
HETATM   11  H   UNL     1     -11.601   8.768  67.548  1.00  0.00     0.000 HD 
BRANCH  10  12
HETATM   12  C   UNL     1     -10.132   8.079  68.963  1.00  0.00    -0.201 C  
BRANCH  12  13
HETATM   13  C   UNL     1     -10.549   8.507  70.380  1.00  0.00    -0.223 C  
BRANCH  13  14
HETATM   14  N   UNL     1     -11.760   7.832  70.901  1.00  0.00    -0.286 NA 
HETATM   15  C   UNL     1     -11.711   6.356  70.751  1.00  0.00    -0.312 C  
HETATM   16  C   UNL     1     -10.685   5.667  71.667  1.00  0.00    -0.251 C  
HETATM   17  O   UNL     1     -10.917   5.988  73.045  1.00  0.00    -0.250 OA 
HETATM   18  C   UNL     1     -10.907   7.405  73.254  1.00  0.00    -0.368 C  
HETATM   19  C   UNL     1     -11.933   8.116  72.349  1.00  0.00    -0.372 C  
ENDBRANCH  13  14
ENDBRANCH  12  13
ENDBRANCH  10  12
ENDBRANCH   5   8
TORSDOF 4
ENDMDL
MODEL       82
REMARK 921   NORMALIZED FREE ENERGY PREDICTED BY IDOCK:   -4.47 KCAL/MOL
REMARK 922        TOTAL FREE ENERGY PREDICTED BY IDOCK:   -5.91 KCAL/MOL
REMARK 923 INTER-LIGAND FREE ENERGY PREDICTED BY IDOCK:   -5.49 KCAL/MOL
REMARK 924 INTRA-LIGAND FREE ENERGY PREDICTED BY IDOCK:   -0.42 KCAL/MOL
REMARK 927      BINDING AFFINITY PREDICTED BY RF-SCORE:    0.00 PKD
ROOT
HETATM    1 CL   UNL     1      -8.092  20.489  67.183  1.00  0.00    -0.375 Cl 
HETATM    2  C   UNL     1      -8.763  18.989  66.678  1.00  0.00    -0.310 A  
HETATM    3  C   UNL     1     -10.107  18.913  66.328  1.00  0.00    -0.460 A  
HETATM    4  C   UNL     1     -10.646  17.694  65.916  1.00  0.00    -0.203 A  
HETATM    5  C   UNL     1      -9.849  16.537  65.851  1.00  0.00    -0.324 A  
HETATM    6  C   UNL     1      -8.495  16.628  66.205  1.00  0.00    -0.308 A  
HETATM    7  C   UNL     1      -7.956  17.851  66.618  1.00  0.00    -0.278 A  
ENDROOT
BRANCH   5   8
HETATM    8  C   UNL     1     -10.493  15.278  65.371  1.00  0.00    -0.398 C  
HETATM    9  O   UNL     1     -11.643  15.311  64.938  1.00  0.00    -0.352 OA 
HETATM   10  N   UNL     1      -9.769  14.107  65.435  1.00  0.00    -0.566 N  
HETATM   11  H   UNL     1      -8.804  14.118  65.768  1.00  0.00     0.000 HD 
BRANCH  10  12
HETATM   12  C   UNL     1     -10.386  12.859  65.029  1.00  0.00    -0.315 C  
BRANCH  12  13
HETATM   13  C   UNL     1     -10.137  11.716  66.027  1.00  0.00    -0.224 C  
BRANCH  13  14
HETATM   14  N   UNL     1     -11.341  11.254  66.753  1.00  0.00    -0.379 NA 
HETATM   15  C   UNL     1     -11.063  10.130  67.683  1.00  0.00    -0.206 C  
HETATM   16  C   UNL     1     -10.223  10.525  68.909  1.00  0.00    -0.208 C  
HETATM   17  O   UNL     1     -10.840  11.592  69.643  1.00  0.00    -0.139 OA 
HETATM   18  C   UNL     1     -11.070  12.729  68.802  1.00  0.00    -0.260 C  
HETATM   19  C   UNL     1     -11.914  12.357  67.567  1.00  0.00    -0.183 C  
ENDBRANCH  13  14
ENDBRANCH  12  13
ENDBRANCH  10  12
ENDBRANCH   5   8
TORSDOF 4
ENDMDL
MODEL       83
REMARK 921   NORMALIZED FREE ENERGY PREDICTED BY IDOCK:   -4.44 KCAL/MOL
REMARK 922        TOTAL FREE ENERGY PREDICTED BY IDOCK:   -5.87 KCAL/MOL
REMARK 923 INTER-LIGAND FREE ENERGY PREDICTED BY IDOCK:   -5.39 KCAL/MOL
REMARK 924 INTRA-LIGAND FREE ENERGY PREDICTED BY IDOCK:   -0.48 KCAL/MOL
REMARK 927      BINDING AFFINITY PREDICTED BY RF-SCORE:    0.00 PKD
ROOT
HETATM    1 CL   UNL     1     -10.192  19.595  67.873  1.00  0.00    -0.542 Cl 
HETATM    2  C   UNL     1     -10.462  17.985  67.337  1.00  0.00    -0.387 A  
HETATM    3  C   UNL     1     -10.397  17.686  65.980  1.00  0.00    -0.305 A  
HETATM    4  C   UNL     1     -10.614  16.376  65.550  1.00  0.00    -0.346 A  
HETATM    5  C   UNL     1     -10.901  15.352  66.470  1.00  0.00    -0.298 A  
HETATM    6  C   UNL     1     -10.962  15.668  67.836  1.00  0.00    -0.319 A  
HETATM    7  C   UNL     1     -10.745  16.981  68.265  1.00  0.00    -0.372 A  
ENDROOT
BRANCH   5   8
HETATM    8  C   UNL     1     -11.091  13.972  65.933  1.00  0.00    -0.301 C  
HETATM    9  O   UNL     1     -12.175  13.410  66.070  1.00  0.00    -0.420 OA 
HETATM   10  N   UNL     1     -10.028  13.365  65.299  1.00  0.00    -0.505 N  
HETATM   11  H   UNL     1      -9.151  13.871  65.171  1.00  0.00     0.000 HD 
BRANCH  10  12
HETATM   12  C   UNL     1     -10.162  12.004  64.816  1.00  0.00    -0.279 C  
BRANCH  12  13
HETATM   13  C   UNL     1      -9.216  11.022  65.525  1.00  0.00    -0.213 C  
BRANCH  13  14
HETATM   14  N   UNL     1      -9.894   9.942  66.277  1.00  0.00    -0.228 NA 
HETATM   15  C   UNL     1      -8.945   9.017  66.947  1.00  0.00    -0.123 C  
HETATM   16  C   UNL     1      -8.187   9.645  68.129  1.00  0.00    -0.106 C  
HETATM   17  O   UNL     1      -9.093  10.172  69.109  1.00  0.00    -0.161 OA 
HETATM   18  C   UNL     1      -9.990  11.122  68.523  1.00  0.00    -0.199 C  
HETATM   19  C   UNL     1     -10.764  10.512  67.338  1.00  0.00    -0.281 C  
ENDBRANCH  13  14
ENDBRANCH  12  13
ENDBRANCH  10  12
ENDBRANCH   5   8
TORSDOF 4
ENDMDL
MODEL       84
REMARK 921   NORMALIZED FREE ENERGY PREDICTED BY IDOCK:   -4.43 KCAL/MOL
REMARK 922        TOTAL FREE ENERGY PREDICTED BY IDOCK:   -5.86 KCAL/MOL
REMARK 923 INTER-LIGAND FREE ENERGY PREDICTED BY IDOCK:   -5.56 KCAL/MOL
REMARK 924 INTRA-LIGAND FREE ENERGY PREDICTED BY IDOCK:   -0.30 KCAL/MOL
REMARK 927      BINDING AFFINITY PREDICTED BY RF-SCORE:    0.00 PKD
ROOT
HETATM    1 CL   UNL     1     -13.599  13.759  72.684  1.00  0.00    -0.654 Cl 
HETATM    2  C   UNL     1     -12.901  12.911  71.361  1.00  0.00    -0.283 A  
HETATM    3  C   UNL     1     -12.872  11.520  71.367  1.00  0.00    -0.489 A  
HETATM    4  C   UNL     1     -12.307  10.836  70.289  1.00  0.00    -0.423 A  
HETATM    5  C   UNL     1     -11.764  11.535  69.196  1.00  0.00    -0.395 A  
HETATM    6  C   UNL     1     -11.803  12.937  69.203  1.00  0.00    -0.353 A  
HETATM    7  C   UNL     1     -12.368  13.621  70.283  1.00  0.00    -0.392 A  
ENDROOT
BRANCH   5   8
HETATM    8  C   UNL     1     -11.206  10.730  68.069  1.00  0.00    -0.307 C  
HETATM    9  O   UNL     1     -10.942  11.280  67.002  1.00  0.00    -0.270 OA 
HETATM   10  N   UNL     1     -11.010   9.379  68.264  1.00  0.00    -0.471 N  
HETATM   11  H   UNL     1     -11.207   8.959  69.172  1.00  0.00     0.000 HD 
BRANCH  10  12
HETATM   12  C   UNL     1     -10.522   8.560  67.171  1.00  0.00    -0.299 C  
BRANCH  12  13
HETATM   13  C   UNL     1     -10.429   7.070  67.536  1.00  0.00    -0.250 C  
BRANCH  13  14
HETATM   14  N   UNL     1      -9.273   6.712  68.390  1.00  0.00    -0.124 NA 
HETATM   15  C   UNL     1      -9.653   6.457  69.803  1.00  0.00    -0.151 C  
HETATM   16  C   UNL     1     -10.467   5.168  70.009  1.00  0.00    -0.235 C  
HETATM   17  O   UNL     1      -9.768   4.023  69.501  1.00  0.00    -0.202 OA 
HETATM   18  C   UNL     1      -9.437   4.193  68.118  1.00  0.00    -0.158 C  
HETATM   19  C   UNL     1      -8.616   5.478  67.888  1.00  0.00    -0.104 C  
ENDBRANCH  13  14
ENDBRANCH  12  13
ENDBRANCH  10  12
ENDBRANCH   5   8
TORSDOF 4
ENDMDL
MODEL       85
REMARK 921   NORMALIZED FREE ENERGY PREDICTED BY IDOCK:   -4.40 KCAL/MOL
REMARK 922        TOTAL FREE ENERGY PREDICTED BY IDOCK:   -5.82 KCAL/MOL
REMARK 923 INTER-LIGAND FREE ENERGY PREDICTED BY IDOCK:   -5.47 KCAL/MOL
REMARK 924 INTRA-LIGAND FREE ENERGY PREDICTED BY IDOCK:   -0.35 KCAL/MOL
REMARK 927      BINDING AFFINITY PREDICTED BY RF-SCORE:    0.00 PKD
ROOT
HETATM    1 CL   UNL     1     -12.028   5.912  71.976  1.00  0.00    -0.239 Cl 
HETATM    2  C   UNL     1     -12.249   7.608  71.804  1.00  0.00    -0.311 A  
HETATM    3  C   UNL     1     -11.194   8.405  71.372  1.00  0.00    -0.316 A  
HETATM    4  C   UNL     1     -11.380   9.781  71.231  1.00  0.00    -0.445 A  
HETATM    5  C   UNL     1     -12.621  10.375  71.522  1.00  0.00    -0.544 A  
HETATM    6  C   UNL     1     -13.677   9.559  71.954  1.00  0.00    -0.410 A  
HETATM    7  C   UNL     1     -13.489   8.180  72.096  1.00  0.00    -0.253 A  
ENDROOT
BRANCH   5   8
HETATM    8  C   UNL     1     -12.748  11.849  71.316  1.00  0.00    -0.298 C  
HETATM    9  O   UNL     1     -13.508  12.498  72.031  1.00  0.00    -0.493 OA 
HETATM   10  N   UNL     1     -12.003  12.436  70.316  1.00  0.00    -0.488 N  
HETATM   11  H   UNL     1     -11.355  11.875  69.763  1.00  0.00     0.000 HD 
BRANCH  10  12
HETATM   12  C   UNL     1     -12.146  13.855  70.055  1.00  0.00    -0.345 C  
BRANCH  12  13
HETATM   13  C   UNL     1     -11.080  14.396  69.088  1.00  0.00    -0.265 C  
BRANCH  13  14
HETATM   14  N   UNL     1     -10.369  13.359  68.307  1.00  0.00    -0.244 NA 
HETATM   15  C   UNL     1     -10.488  13.553  66.839  1.00  0.00    -0.271 C  
HETATM   16  C   UNL     1      -9.721  14.774  66.305  1.00  0.00    -0.303 C  
HETATM   17  O   UNL     1      -8.331  14.710  66.653  1.00  0.00    -0.128 OA 
HETATM   18  C   UNL     1      -8.160  14.589  68.071  1.00  0.00    -0.139 C  
HETATM   19  C   UNL     1      -8.918  13.368  68.628  1.00  0.00     0.018 C  
ENDBRANCH  13  14
ENDBRANCH  12  13
ENDBRANCH  10  12
ENDBRANCH   5   8
TORSDOF 4
ENDMDL
MODEL       86
REMARK 921   NORMALIZED FREE ENERGY PREDICTED BY IDOCK:   -4.38 KCAL/MOL
REMARK 922        TOTAL FREE ENERGY PREDICTED BY IDOCK:   -5.79 KCAL/MOL
REMARK 923 INTER-LIGAND FREE ENERGY PREDICTED BY IDOCK:   -5.36 KCAL/MOL
REMARK 924 INTRA-LIGAND FREE ENERGY PREDICTED BY IDOCK:   -0.44 KCAL/MOL
REMARK 927      BINDING AFFINITY PREDICTED BY RF-SCORE:    0.00 PKD
ROOT
HETATM    1 CL   UNL     1     -10.496  18.209  68.133  1.00  0.00    -0.385 Cl 
HETATM    2  C   UNL     1     -10.899  16.574  68.477  1.00  0.00    -0.349 A  
HETATM    3  C   UNL     1     -10.915  15.634  67.451  1.00  0.00    -0.293 A  
HETATM    4  C   UNL     1     -11.241  14.307  67.736  1.00  0.00    -0.309 A  
HETATM    5  C   UNL     1     -11.555  13.906  69.047  1.00  0.00    -0.351 A  
HETATM    6  C   UNL     1     -11.533  14.864  70.071  1.00  0.00    -0.317 A  
HETATM    7  C   UNL     1     -11.207  16.194  69.785  1.00  0.00    -0.343 A  
ENDROOT
BRANCH   5   8
HETATM    8  C   UNL     1     -11.862  12.463  69.275  1.00  0.00    -0.304 C  
HETATM    9  O   UNL     1     -12.158  11.747  68.321  1.00  0.00    -0.525 OA 
HETATM   10  N   UNL     1     -11.809  11.978  70.564  1.00  0.00    -0.510 N  
HETATM   11  H   UNL     1     -11.526  12.589  71.330  1.00  0.00     0.000 HD 
BRANCH  10  12
HETATM   12  C   UNL     1     -12.156  10.594  70.825  1.00  0.00    -0.374 C  
BRANCH  12  13
HETATM   13  C   UNL     1     -10.926   9.705  71.074  1.00  0.00    -0.361 C  
BRANCH  13  14
HETATM   14  N   UNL     1     -10.428   8.988  69.878  1.00  0.00    -0.208 NA 
HETATM   15  C   UNL     1      -9.419   9.764  69.114  1.00  0.00    -0.188 C  
HETATM   16  C   UNL     1      -8.070   9.920  69.836  1.00  0.00    -0.188 C  
HETATM   17  O   UNL     1      -7.512   8.644  70.179  1.00  0.00    -0.050 OA 
HETATM   18  C   UNL     1      -8.424   7.880  70.976  1.00  0.00    -0.123 C  
HETATM   19  C   UNL     1      -9.784   7.708  70.270  1.00  0.00    -0.179 C  
ENDBRANCH  13  14
ENDBRANCH  12  13
ENDBRANCH  10  12
ENDBRANCH   5   8
TORSDOF 4
ENDMDL
MODEL       87
REMARK 921   NORMALIZED FREE ENERGY PREDICTED BY IDOCK:   -4.36 KCAL/MOL
REMARK 922        TOTAL FREE ENERGY PREDICTED BY IDOCK:   -5.77 KCAL/MOL
REMARK 923 INTER-LIGAND FREE ENERGY PREDICTED BY IDOCK:   -6.45 KCAL/MOL
REMARK 924 INTRA-LIGAND FREE ENERGY PREDICTED BY IDOCK:    0.68 KCAL/MOL
REMARK 927      BINDING AFFINITY PREDICTED BY RF-SCORE:    0.00 PKD
ROOT
HETATM    1 CL   UNL     1     -12.464  16.357  74.333  1.00  0.00    -0.589 Cl 
HETATM    2  C   UNL     1     -12.413  15.458  72.869  1.00  0.00    -0.418 A  
HETATM    3  C   UNL     1     -11.751  15.977  71.760  1.00  0.00    -0.593 A  
HETATM    4  C   UNL     1     -11.709  15.241  70.574  1.00  0.00    -0.355 A  
HETATM    5  C   UNL     1     -12.330  13.983  70.483  1.00  0.00    -0.437 A  
HETATM    6  C   UNL     1     -12.991  13.472  71.610  1.00  0.00    -0.447 A  
HETATM    7  C   UNL     1     -13.033  14.209  72.797  1.00  0.00    -0.516 A  
ENDROOT
BRANCH   5   8
HETATM    8  C   UNL     1     -12.214  13.246  69.190  1.00  0.00    -0.124 C  
HETATM    9  O   UNL     1     -12.121  12.020  69.195  1.00  0.00    -0.274 OA 
HETATM   10  N   UNL     1     -12.209  13.975  68.020  1.00  0.00    -0.528 N  
HETATM   11  H   UNL     1     -12.323  14.988  68.047  1.00  0.00     0.000 HD 
BRANCH  10  12
HETATM   12  C   UNL     1     -12.042  13.293  66.751  1.00  0.00    -0.345 C  
BRANCH  12  13
HETATM   13  C   UNL     1     -13.079  13.722  65.700  1.00  0.00    -0.126 C  
BRANCH  13  14
HETATM   14  N   UNL     1     -12.531  13.946  64.343  1.00  0.00    -0.659 NA 
HETATM   15  C   UNL     1     -12.275  15.379  64.048  1.00  0.00     0.051 C  
HETATM   16  C   UNL     1     -11.105  15.982  64.843  1.00  0.00    -0.370 C  
HETATM   17  O   UNL     1      -9.895  15.241  64.633  1.00  0.00    -0.053 OA 
HETATM   18  C   UNL     1     -10.071  13.859  64.968  1.00  0.00    -0.290 C  
HETATM   19  C   UNL     1     -11.238  13.232  64.179  1.00  0.00    -0.379 C  
ENDBRANCH  13  14
ENDBRANCH  12  13
ENDBRANCH  10  12
ENDBRANCH   5   8
TORSDOF 4
ENDMDL
MODEL       88
REMARK 921   NORMALIZED FREE ENERGY PREDICTED BY IDOCK:   -4.35 KCAL/MOL
REMARK 922        TOTAL FREE ENERGY PREDICTED BY IDOCK:   -5.76 KCAL/MOL
REMARK 923 INTER-LIGAND FREE ENERGY PREDICTED BY IDOCK:   -5.39 KCAL/MOL
REMARK 924 INTRA-LIGAND FREE ENERGY PREDICTED BY IDOCK:   -0.37 KCAL/MOL
REMARK 927      BINDING AFFINITY PREDICTED BY RF-SCORE:    0.00 PKD
ROOT
HETATM    1 CL   UNL     1      -9.515   4.966  70.729  1.00  0.00    -0.217 Cl 
HETATM    2  C   UNL     1      -9.971   6.525  70.167  1.00  0.00    -0.167 A  
HETATM    3  C   UNL     1      -9.836   7.630  71.002  1.00  0.00    -0.181 A  
HETATM    4  C   UNL     1     -10.204   8.894  70.539  1.00  0.00    -0.247 A  
HETATM    5  C   UNL     1     -10.713   9.067  69.240  1.00  0.00    -0.189 A  
HETATM    6  C   UNL     1     -10.842   7.945  68.409  1.00  0.00     0.025 A  
HETATM    7  C   UNL     1     -10.473   6.678  68.873  1.00  0.00    -0.239 A  
ENDROOT
BRANCH   5   8
HETATM    8  C   UNL     1     -11.056  10.456  68.810  1.00  0.00    -0.250 C  
HETATM    9  O   UNL     1     -12.211  10.859  68.923  1.00  0.00    -0.494 OA 
HETATM   10  N   UNL     1     -10.053  11.246  68.290  1.00  0.00    -0.182 N  
HETATM   11  H   UNL     1      -9.096  10.894  68.241  1.00  0.00     0.000 HD 
BRANCH  10  12
HETATM   12  C   UNL     1     -10.364  12.579  67.812  1.00  0.00    -0.222 C  
BRANCH  12  13
HETATM   13  C   UNL     1     -10.547  12.640  66.286  1.00  0.00    -0.252 C  
BRANCH  13  14
HETATM   14  N   UNL     1     -11.932  12.409  65.818  1.00  0.00    -0.557 NA 
HETATM   15  C   UNL     1     -12.723  13.661  65.703  1.00  0.00    -0.454 C  
HETATM   16  C   UNL     1     -12.271  14.584  64.559  1.00  0.00    -0.465 C  
HETATM   17  O   UNL     1     -12.295  13.902  63.297  1.00  0.00    -0.749 OA 
HETATM   18  C   UNL     1     -11.491  12.717  63.336  1.00  0.00    -0.435 C  
HETATM   19  C   UNL     1     -11.929  11.774  64.475  1.00  0.00    -0.115 C  
ENDBRANCH  13  14
ENDBRANCH  12  13
ENDBRANCH  10  12
ENDBRANCH   5   8
TORSDOF 4
ENDMDL
MODEL       89
REMARK 921   NORMALIZED FREE ENERGY PREDICTED BY IDOCK:   -4.32 KCAL/MOL
REMARK 922        TOTAL FREE ENERGY PREDICTED BY IDOCK:   -5.72 KCAL/MOL
REMARK 923 INTER-LIGAND FREE ENERGY PREDICTED BY IDOCK:   -5.33 KCAL/MOL
REMARK 924 INTRA-LIGAND FREE ENERGY PREDICTED BY IDOCK:   -0.39 KCAL/MOL
REMARK 927      BINDING AFFINITY PREDICTED BY RF-SCORE:    0.00 PKD
ROOT
HETATM    1 CL   UNL     1     -11.795  14.262  67.133  1.00  0.00    -0.435 Cl 
HETATM    2  C   UNL     1     -11.718  12.906  68.186  1.00  0.00    -0.352 A  
HETATM    3  C   UNL     1     -12.117  13.034  69.512  1.00  0.00    -0.289 A  
HETATM    4  C   UNL     1     -12.055  11.929  70.362  1.00  0.00    -0.421 A  
HETATM    5  C   UNL     1     -11.593  10.685  69.897  1.00  0.00    -0.396 A  
HETATM    6  C   UNL     1     -11.197  10.569  68.556  1.00  0.00    -0.332 A  
HETATM    7  C   UNL     1     -11.258  11.678  67.705  1.00  0.00    -0.333 A  
ENDROOT
BRANCH   5   8
HETATM    8  C   UNL     1     -11.587   9.545  70.861  1.00  0.00    -0.326 C  
HETATM    9  O   UNL     1     -10.746   9.511  71.756  1.00  0.00    -0.264 OA 
HETATM   10  N   UNL     1     -12.533   8.554  70.708  1.00  0.00    -0.489 N  
HETATM   11  H   UNL     1     -13.239   8.628  69.975  1.00  0.00     0.000 HD 
BRANCH  10  12
HETATM   12  C   UNL     1     -12.518   7.405  71.593  1.00  0.00    -0.349 C  
BRANCH  12  13
HETATM   13  C   UNL     1     -11.644   6.255  71.066  1.00  0.00    -0.272 C  
BRANCH  13  14
HETATM   14  N   UNL     1     -10.313   6.146  71.704  1.00  0.00    -0.211 NA 
HETATM   15  C   UNL     1     -10.380   6.106  73.187  1.00  0.00    -0.219 C  
HETATM   16  C   UNL     1     -10.984   4.809  73.751  1.00  0.00    -0.300 C  
HETATM   17  O   UNL     1     -10.269   3.656  73.288  1.00  0.00    -0.134 OA 
HETATM   18  C   UNL     1     -10.232   3.613  71.856  1.00  0.00    -0.041 C  
HETATM   19  C   UNL     1      -9.626   4.902  71.268  1.00  0.00    -0.168 C  
ENDBRANCH  13  14
ENDBRANCH  12  13
ENDBRANCH  10  12
ENDBRANCH   5   8
TORSDOF 4
ENDMDL
MODEL       90
REMARK 921   NORMALIZED FREE ENERGY PREDICTED BY IDOCK:   -4.31 KCAL/MOL
REMARK 922        TOTAL FREE ENERGY PREDICTED BY IDOCK:   -5.71 KCAL/MOL
REMARK 923 INTER-LIGAND FREE ENERGY PREDICTED BY IDOCK:   -5.45 KCAL/MOL
REMARK 924 INTRA-LIGAND FREE ENERGY PREDICTED BY IDOCK:   -0.27 KCAL/MOL
REMARK 927      BINDING AFFINITY PREDICTED BY RF-SCORE:    0.00 PKD
ROOT
HETATM    1 CL   UNL     1     -13.960  15.891  72.829  1.00  0.00    -0.592 Cl 
HETATM    2  C   UNL     1     -13.311  14.612  71.881  1.00  0.00    -0.363 A  
HETATM    3  C   UNL     1     -13.438  13.296  72.314  1.00  0.00    -0.679 A  
HETATM    4  C   UNL     1     -12.913  12.261  71.539  1.00  0.00    -0.390 A  
HETATM    5  C   UNL     1     -12.255  12.530  70.325  1.00  0.00    -0.345 A  
HETATM    6  C   UNL     1     -12.137  13.861  69.900  1.00  0.00    -0.406 A  
HETATM    7  C   UNL     1     -12.663  14.898  70.678  1.00  0.00    -0.422 A  
ENDROOT
BRANCH   5   8
HETATM    8  C   UNL     1     -11.748  11.365  69.540  1.00  0.00    -0.348 C  
HETATM    9  O   UNL     1     -12.245  11.109  68.445  1.00  0.00    -0.610 OA 
HETATM   10  N   UNL     1     -10.732  10.605  70.078  1.00  0.00    -0.448 N  
HETATM   11  H   UNL     1     -10.317  10.864  70.974  1.00  0.00     0.000 HD 
BRANCH  10  12
HETATM   12  C   UNL     1     -10.256   9.435  69.365  1.00  0.00    -0.207 C  
BRANCH  12  13
HETATM   13  C   UNL     1      -8.723   9.378  69.264  1.00  0.00    -0.145 C  
BRANCH  13  14
HETATM   14  N   UNL     1      -8.194   9.354  67.882  1.00  0.00    -0.114 NA 
HETATM   15  C   UNL     1      -6.731   9.603  67.816  1.00  0.00    -0.066 C  
HETATM   16  C   UNL     1      -5.876   8.457  68.383  1.00  0.00    -0.041 C  
HETATM   17  O   UNL     1      -6.166   7.215  67.727  1.00  0.00    -0.039 OA 
HETATM   18  C   UNL     1      -7.560   6.896  67.820  1.00  0.00    -0.107 C  
HETATM   19  C   UNL     1      -8.437   8.030  67.253  1.00  0.00    -0.125 C  
ENDBRANCH  13  14
ENDBRANCH  12  13
ENDBRANCH  10  12
ENDBRANCH   5   8
TORSDOF 4
ENDMDL
MODEL       91
REMARK 921   NORMALIZED FREE ENERGY PREDICTED BY IDOCK:   -4.29 KCAL/MOL
REMARK 922        TOTAL FREE ENERGY PREDICTED BY IDOCK:   -5.68 KCAL/MOL
REMARK 923 INTER-LIGAND FREE ENERGY PREDICTED BY IDOCK:   -5.26 KCAL/MOL
REMARK 924 INTRA-LIGAND FREE ENERGY PREDICTED BY IDOCK:   -0.42 KCAL/MOL
REMARK 927      BINDING AFFINITY PREDICTED BY RF-SCORE:    0.00 PKD
ROOT
HETATM    1 CL   UNL     1     -11.975   8.378  72.402  1.00  0.00    -0.452 Cl 
HETATM    2  C   UNL     1     -11.906   9.837  71.496  1.00  0.00    -0.399 A  
HETATM    3  C   UNL     1     -11.014   9.952  70.434  1.00  0.00    -0.379 A  
HETATM    4  C   UNL     1     -10.965  11.138  69.700  1.00  0.00    -0.254 A  
HETATM    5  C   UNL     1     -11.803  12.221  70.020  1.00  0.00    -0.372 A  
HETATM    6  C   UNL     1     -12.699  12.089  71.091  1.00  0.00    -0.365 A  
HETATM    7  C   UNL     1     -12.747  10.901  71.827  1.00  0.00    -0.435 A  
ENDROOT
BRANCH   5   8
HETATM    8  C   UNL     1     -11.711  13.443  69.167  1.00  0.00    -0.326 C  
HETATM    9  O   UNL     1     -12.338  14.452  69.481  1.00  0.00    -0.305 OA 
HETATM   10  N   UNL     1     -10.919  13.396  68.039  1.00  0.00    -0.237 N  
HETATM   11  H   UNL     1     -10.383  12.554  67.824  1.00  0.00     0.000 HD 
BRANCH  10  12
HETATM   12  C   UNL     1     -10.852  14.547  67.160  1.00  0.00    -0.296 C  
BRANCH  12  13
HETATM   13  C   UNL     1      -9.515  15.299  67.260  1.00  0.00    -0.208 C  
BRANCH  13  14
HETATM   14  N   UNL     1      -9.322  16.059  68.516  1.00  0.00    -0.206 NA 
HETATM   15  C   UNL     1      -8.161  15.584  69.310  1.00  0.00    -0.255 C  
HETATM   16  C   UNL     1      -6.797  15.896  68.671  1.00  0.00    -0.125 C  
HETATM   17  O   UNL     1      -6.646  17.300  68.422  1.00  0.00    -0.164 OA 
HETATM   18  C   UNL     1      -7.711  17.795  67.601  1.00  0.00    -0.208 C  
HETATM   19  C   UNL     1      -9.089  17.497  68.224  1.00  0.00    -0.274 C  
ENDBRANCH  13  14
ENDBRANCH  12  13
ENDBRANCH  10  12
ENDBRANCH   5   8
TORSDOF 4
ENDMDL
MODEL       92
REMARK 921   NORMALIZED FREE ENERGY PREDICTED BY IDOCK:   -4.28 KCAL/MOL
REMARK 922        TOTAL FREE ENERGY PREDICTED BY IDOCK:   -5.68 KCAL/MOL
REMARK 923 INTER-LIGAND FREE ENERGY PREDICTED BY IDOCK:   -5.34 KCAL/MOL
REMARK 924 INTRA-LIGAND FREE ENERGY PREDICTED BY IDOCK:   -0.34 KCAL/MOL
REMARK 927      BINDING AFFINITY PREDICTED BY RF-SCORE:    0.00 PKD
ROOT
HETATM    1 CL   UNL     1     -12.391  14.558  64.144  1.00  0.00    -0.441 Cl 
HETATM    2  C   UNL     1     -11.619  13.086  64.578  1.00  0.00    -0.360 A  
HETATM    3  C   UNL     1     -11.608  12.675  65.908  1.00  0.00    -0.443 A  
HETATM    4  C   UNL     1     -10.982  11.476  66.255  1.00  0.00    -0.328 A  
HETATM    5  C   UNL     1     -10.361  10.677  65.278  1.00  0.00    -0.321 A  
HETATM    6  C   UNL     1     -10.383  11.102  63.942  1.00  0.00    -0.441 A  
HETATM    7  C   UNL     1     -11.009  12.304  63.595  1.00  0.00    -0.532 A  
ENDROOT
BRANCH   5   8
HETATM    8  C   UNL     1      -9.741   9.395  65.726  1.00  0.00    -0.284 C  
HETATM    9  O   UNL     1      -8.601   9.113  65.366  1.00  0.00    -0.148 OA 
HETATM   10  N   UNL     1     -10.481   8.557  66.534  1.00  0.00    -0.331 N  
HETATM   11  H   UNL     1     -11.412   8.835  66.844  1.00  0.00     0.000 HD 
BRANCH  10  12
HETATM   12  C   UNL     1      -9.928   7.279  66.940  1.00  0.00    -0.232 C  
BRANCH  12  13
HETATM   13  C   UNL     1      -9.395   7.289  68.382  1.00  0.00    -0.143 C  
BRANCH  13  14
HETATM   14  N   UNL     1      -9.895   6.187  69.235  1.00  0.00    -0.145 NA 
HETATM   15  C   UNL     1      -9.106   6.014  70.481  1.00  0.00    -0.149 C  
HETATM   16  C   UNL     1      -9.281   7.156  71.497  1.00  0.00    -0.145 C  
HETATM   17  O   UNL     1     -10.662   7.339  71.842  1.00  0.00    -0.213 OA 
HETATM   18  C   UNL     1     -11.458   7.577  70.675  1.00  0.00    -0.269 C  
HETATM   19  C   UNL     1     -11.301   6.442  69.644  1.00  0.00    -0.412 C  
ENDBRANCH  13  14
ENDBRANCH  12  13
ENDBRANCH  10  12
ENDBRANCH   5   8
TORSDOF 4
ENDMDL
MODEL       93
REMARK 921   NORMALIZED FREE ENERGY PREDICTED BY IDOCK:   -4.28 KCAL/MOL
REMARK 922        TOTAL FREE ENERGY PREDICTED BY IDOCK:   -5.67 KCAL/MOL
REMARK 923 INTER-LIGAND FREE ENERGY PREDICTED BY IDOCK:   -5.24 KCAL/MOL
REMARK 924 INTRA-LIGAND FREE ENERGY PREDICTED BY IDOCK:   -0.43 KCAL/MOL
REMARK 927      BINDING AFFINITY PREDICTED BY RF-SCORE:    0.00 PKD
ROOT
HETATM    1 CL   UNL     1      -7.198   6.997  64.040  1.00  0.00    -0.064 Cl 
HETATM    2  C   UNL     1      -8.257   8.350  64.077  1.00  0.00    -0.113 A  
HETATM    3  C   UNL     1      -8.831   8.748  65.280  1.00  0.00    -0.205 A  
HETATM    4  C   UNL     1      -9.688   9.850  65.305  1.00  0.00    -0.383 A  
HETATM    5  C   UNL     1      -9.981  10.563  64.129  1.00  0.00    -0.385 A  
HETATM    6  C   UNL     1      -9.393  10.152  62.924  1.00  0.00    -0.320 A  
HETATM    7  C   UNL     1      -8.535   9.047  62.899  1.00  0.00    -0.200 A  
ENDROOT
BRANCH   5   8
HETATM    8  C   UNL     1     -10.883  11.748  64.245  1.00  0.00    -0.349 C  
HETATM    9  O   UNL     1     -11.046  12.484  63.274  1.00  0.00    -0.438 OA 
HETATM   10  N   UNL     1     -11.504  11.982  65.453  1.00  0.00    -0.331 N  
HETATM   11  H   UNL     1     -11.375  11.333  66.230  1.00  0.00     0.000 HD 
BRANCH  10  12
HETATM   12  C   UNL     1     -12.341  13.155  65.614  1.00  0.00    -0.461 C  
BRANCH  12  13
HETATM   13  C   UNL     1     -12.131  13.859  66.965  1.00  0.00    -0.415 C  
BRANCH  13  14
HETATM   14  N   UNL     1     -11.528  15.208  66.874  1.00  0.00    -0.273 NA 
HETATM   15  C   UNL     1     -11.177  15.778  68.199  1.00  0.00    -0.344 C  
HETATM   16  C   UNL     1      -9.997  15.073  68.890  1.00  0.00    -0.236 C  
HETATM   17  O   UNL     1      -8.828  15.075  68.059  1.00  0.00    -0.159 OA 
HETATM   18  C   UNL     1      -9.099  14.473  66.787  1.00  0.00    -0.261 C  
HETATM   19  C   UNL     1     -10.277  15.167  66.074  1.00  0.00    -0.307 C  
ENDBRANCH  13  14
ENDBRANCH  12  13
ENDBRANCH  10  12
ENDBRANCH   5   8
TORSDOF 4
ENDMDL
MODEL       94
REMARK 921   NORMALIZED FREE ENERGY PREDICTED BY IDOCK:   -4.24 KCAL/MOL
REMARK 922        TOTAL FREE ENERGY PREDICTED BY IDOCK:   -5.63 KCAL/MOL
REMARK 923 INTER-LIGAND FREE ENERGY PREDICTED BY IDOCK:   -5.37 KCAL/MOL
REMARK 924 INTRA-LIGAND FREE ENERGY PREDICTED BY IDOCK:   -0.26 KCAL/MOL
REMARK 927      BINDING AFFINITY PREDICTED BY RF-SCORE:    0.00 PKD
ROOT
HETATM    1 CL   UNL     1      -9.523   2.921  67.670  1.00  0.00    -0.228 Cl 
HETATM    2  C   UNL     1      -9.791   4.583  68.013  1.00  0.00    -0.092 A  
HETATM    3  C   UNL     1      -9.467   5.094  69.265  1.00  0.00    -0.196 A  
HETATM    4  C   UNL     1      -9.684   6.446  69.538  1.00  0.00    -0.167 A  
HETATM    5  C   UNL     1     -10.229   7.300  68.563  1.00  0.00    -0.197 A  
HETATM    6  C   UNL     1     -10.549   6.772  67.303  1.00  0.00    -0.390 A  
HETATM    7  C   UNL     1     -10.332   5.417  67.032  1.00  0.00    -0.299 A  
ENDROOT
BRANCH   5   8
HETATM    8  C   UNL     1     -10.401   8.739  68.922  1.00  0.00    -0.212 C  
HETATM    9  O   UNL     1      -9.898   9.171  69.956  1.00  0.00    -0.174 OA 
HETATM   10  N   UNL     1     -11.133   9.542  68.073  1.00  0.00    -0.514 N  
HETATM   11  H   UNL     1     -11.509   9.161  67.205  1.00  0.00     0.000 HD 
BRANCH  10  12
HETATM   12  C   UNL     1     -11.366  10.930  68.422  1.00  0.00    -0.304 C  
BRANCH  12  13
HETATM   13  C   UNL     1     -11.012  11.901  67.283  1.00  0.00    -0.268 C  
BRANCH  13  14
HETATM   14  N   UNL     1     -12.136  12.743  66.815  1.00  0.00    -0.485 NA 
HETATM   15  C   UNL     1     -12.079  14.131  67.341  1.00  0.00    -0.344 C  
HETATM   16  C   UNL     1     -10.934  14.975  66.758  1.00  0.00    -0.323 C  
HETATM   17  O   UNL     1     -10.998  15.023  65.326  1.00  0.00    -0.337 OA 
HETATM   18  C   UNL     1     -10.988  13.705  64.765  1.00  0.00    -0.378 C  
HETATM   19  C   UNL     1     -12.132  12.841  65.333  1.00  0.00    -0.462 C  
ENDBRANCH  13  14
ENDBRANCH  12  13
ENDBRANCH  10  12
ENDBRANCH   5   8
TORSDOF 4
ENDMDL
MODEL       95
REMARK 921   NORMALIZED FREE ENERGY PREDICTED BY IDOCK:   -4.20 KCAL/MOL
REMARK 922        TOTAL FREE ENERGY PREDICTED BY IDOCK:   -5.57 KCAL/MOL
REMARK 923 INTER-LIGAND FREE ENERGY PREDICTED BY IDOCK:   -5.32 KCAL/MOL
REMARK 924 INTRA-LIGAND FREE ENERGY PREDICTED BY IDOCK:   -0.26 KCAL/MOL
REMARK 927      BINDING AFFINITY PREDICTED BY RF-SCORE:    0.00 PKD
ROOT
HETATM    1 CL   UNL     1     -13.872  15.967  73.020  1.00  0.00    -0.610 Cl 
HETATM    2  C   UNL     1     -13.318  14.592  72.150  1.00  0.00    -0.381 A  
HETATM    3  C   UNL     1     -12.515  14.760  71.026  1.00  0.00    -0.400 A  
HETATM    4  C   UNL     1     -12.065  13.640  70.325  1.00  0.00    -0.427 A  
HETATM    5  C   UNL     1     -12.413  12.342  70.738  1.00  0.00    -0.356 A  
HETATM    6  C   UNL     1     -13.222  12.187  71.875  1.00  0.00    -0.474 A  
HETATM    7  C   UNL     1     -13.673  13.310  72.576  1.00  0.00    -0.613 A  
ENDROOT
BRANCH   5   8
HETATM    8  C   UNL     1     -11.867  11.195  69.953  1.00  0.00    -0.363 C  
HETATM    9  O   UNL     1     -12.576  10.636  69.120  1.00  0.00    -0.252 OA 
HETATM   10  N   UNL     1     -10.570  10.795  70.196  1.00  0.00    -0.438 N  
HETATM   11  H   UNL     1      -9.995  11.302  70.870  1.00  0.00     0.000 HD 
BRANCH  10  12
HETATM   12  C   UNL     1     -10.028   9.650  69.490  1.00  0.00    -0.209 C  
BRANCH  12  13
HETATM   13  C   UNL     1      -9.538   8.541  70.436  1.00  0.00    -0.172 C  
BRANCH  13  14
HETATM   14  N   UNL     1      -9.350   7.219  69.796  1.00  0.00    -0.151 NA 
HETATM   15  C   UNL     1      -8.201   7.187  68.856  1.00  0.00    -0.125 C  
HETATM   16  C   UNL     1      -6.828   7.280  69.541  1.00  0.00    -0.050 C  
HETATM   17  O   UNL     1      -6.660   6.240  70.516  1.00  0.00    -0.045 OA 
HETATM   18  C   UNL     1      -7.711   6.271  71.488  1.00  0.00    -0.100 C  
HETATM   19  C   UNL     1      -9.099   6.175  70.823  1.00  0.00    -0.150 C  
ENDBRANCH  13  14
ENDBRANCH  12  13
ENDBRANCH  10  12
ENDBRANCH   5   8
TORSDOF 4
ENDMDL
MODEL       96
REMARK 921   NORMALIZED FREE ENERGY PREDICTED BY IDOCK:   -4.19 KCAL/MOL
REMARK 922        TOTAL FREE ENERGY PREDICTED BY IDOCK:   -5.56 KCAL/MOL
REMARK 923 INTER-LIGAND FREE ENERGY PREDICTED BY IDOCK:   -5.35 KCAL/MOL
REMARK 924 INTRA-LIGAND FREE ENERGY PREDICTED BY IDOCK:   -0.21 KCAL/MOL
REMARK 927      BINDING AFFINITY PREDICTED BY RF-SCORE:    0.00 PKD
ROOT
HETATM    1 CL   UNL     1      -7.959   6.404  71.355  1.00  0.00    -0.104 Cl 
HETATM    2  C   UNL     1      -8.665   7.826  70.697  1.00  0.00    -0.139 A  
HETATM    3  C   UNL     1      -9.692   8.469  71.379  1.00  0.00    -0.287 A  
HETATM    4  C   UNL     1     -10.260   9.626  70.843  1.00  0.00    -0.303 A  
HETATM    5  C   UNL     1      -9.808  10.151  69.619  1.00  0.00    -0.254 A  
HETATM    6  C   UNL     1      -8.769   9.493  68.943  1.00  0.00    -0.133 A  
HETATM    7  C   UNL     1      -8.202   8.334  69.481  1.00  0.00    -0.119 A  
ENDROOT
BRANCH   5   8
HETATM    8  C   UNL     1     -10.445  11.409  69.128  1.00  0.00    -0.127 C  
HETATM    9  O   UNL     1     -10.169  11.833  68.008  1.00  0.00    -0.182 OA 
HETATM   10  N   UNL     1     -11.329  12.063  69.960  1.00  0.00    -0.507 N  
HETATM   11  H   UNL     1     -11.564  11.667  70.871  1.00  0.00     0.000 HD 
BRANCH  10  12
HETATM   12  C   UNL     1     -11.922  13.316  69.534  1.00  0.00    -0.307 C  
BRANCH  12  13
HETATM   13  C   UNL     1     -11.353  14.532  70.283  1.00  0.00    -0.171 C  
BRANCH  13  14
HETATM   14  N   UNL     1     -12.372  15.463  70.818  1.00  0.00    -0.364 NA 
HETATM   15  C   UNL     1     -13.660  14.796  71.135  1.00  0.00    -0.371 C  
HETATM   16  C   UNL     1     -13.593  13.849  72.345  1.00  0.00    -0.575 C  
HETATM   17  O   UNL     1     -13.123  14.532  73.516  1.00  0.00    -0.564 OA 
HETATM   18  C   UNL     1     -11.847  15.140  73.281  1.00  0.00    -0.315 C  
HETATM   19  C   UNL     1     -11.891  16.097  72.073  1.00  0.00    -0.530 C  
ENDBRANCH  13  14
ENDBRANCH  12  13
ENDBRANCH  10  12
ENDBRANCH   5   8
TORSDOF 4
ENDMDL
MODEL       97
REMARK 921   NORMALIZED FREE ENERGY PREDICTED BY IDOCK:   -4.19 KCAL/MOL
REMARK 922        TOTAL FREE ENERGY PREDICTED BY IDOCK:   -5.56 KCAL/MOL
REMARK 923 INTER-LIGAND FREE ENERGY PREDICTED BY IDOCK:   -5.31 KCAL/MOL
REMARK 924 INTRA-LIGAND FREE ENERGY PREDICTED BY IDOCK:   -0.26 KCAL/MOL
REMARK 927      BINDING AFFINITY PREDICTED BY RF-SCORE:    0.00 PKD
ROOT
HETATM    1 CL   UNL     1      -8.593  20.940  67.452  1.00  0.00    -0.242 Cl 
HETATM    2  C   UNL     1      -9.140  19.325  67.239  1.00  0.00    -0.297 A  
HETATM    3  C   UNL     1     -10.413  18.962  67.666  1.00  0.00    -0.514 A  
HETATM    4  C   UNL     1     -10.854  17.650  67.487  1.00  0.00    -0.205 A  
HETATM    5  C   UNL     1     -10.027  16.687  66.883  1.00  0.00    -0.272 A  
HETATM    6  C   UNL     1      -8.746  17.067  66.455  1.00  0.00    -0.297 A  
HETATM    7  C   UNL     1      -8.305  18.382  66.635  1.00  0.00    -0.280 A  
ENDROOT
BRANCH   5   8
HETATM    8  C   UNL     1     -10.583  15.313  66.700  1.00  0.00    -0.304 C  
HETATM    9  O   UNL     1     -10.359  14.700  65.659  1.00  0.00    -0.309 OA 
HETATM   10  N   UNL     1     -11.342  14.774  67.717  1.00  0.00    -0.317 N  
HETATM   11  H   UNL     1     -11.482  15.295  68.584  1.00  0.00     0.000 HD 
BRANCH  10  12
HETATM   12  C   UNL     1     -11.943  13.465  67.548  1.00  0.00    -0.339 C  
BRANCH  12  13
HETATM   13  C   UNL     1     -11.276  12.385  68.414  1.00  0.00    -0.273 C  
BRANCH  13  14
HETATM   14  N   UNL     1     -11.854  11.029  68.269  1.00  0.00    -0.576 NA 
HETATM   15  C   UNL     1     -10.899  10.048  67.695  1.00  0.00    -0.278 C  
HETATM   16  C   UNL     1      -9.741   9.677  68.637  1.00  0.00    -0.155 C  
HETATM   17  O   UNL     1     -10.229   9.173  69.889  1.00  0.00    -0.188 OA 
HETATM   18  C   UNL     1     -11.107  10.115  70.517  1.00  0.00    -0.327 C  
HETATM   19  C   UNL     1     -12.278  10.499  69.590  1.00  0.00    -0.137 C  
ENDBRANCH  13  14
ENDBRANCH  12  13
ENDBRANCH  10  12
ENDBRANCH   5   8
TORSDOF 4
ENDMDL
MODEL       98
REMARK 921   NORMALIZED FREE ENERGY PREDICTED BY IDOCK:   -4.15 KCAL/MOL
REMARK 922        TOTAL FREE ENERGY PREDICTED BY IDOCK:   -5.51 KCAL/MOL
REMARK 923 INTER-LIGAND FREE ENERGY PREDICTED BY IDOCK:   -5.31 KCAL/MOL
REMARK 924 INTRA-LIGAND FREE ENERGY PREDICTED BY IDOCK:   -0.20 KCAL/MOL
REMARK 927      BINDING AFFINITY PREDICTED BY RF-SCORE:    0.00 PKD
ROOT
HETATM    1 CL   UNL     1     -12.891  11.927  63.391  1.00  0.00    -0.588 Cl 
HETATM    2  C   UNL     1     -11.822  12.760  64.448  1.00  0.00    -0.384 A  
HETATM    3  C   UNL     1     -11.736  14.147  64.395  1.00  0.00    -0.409 A  
HETATM    4  C   UNL     1     -10.869  14.819  65.258  1.00  0.00    -0.395 A  
HETATM    5  C   UNL     1     -10.078  14.112  66.182  1.00  0.00    -0.324 A  
HETATM    6  C   UNL     1     -10.177  12.713  66.226  1.00  0.00    -0.264 A  
HETATM    7  C   UNL     1     -11.046  12.041  65.360  1.00  0.00    -0.369 A  
ENDROOT
BRANCH   5   8
HETATM    8  C   UNL     1      -9.199  14.906  67.091  1.00  0.00    -0.220 C  
HETATM    9  O   UNL     1      -7.978  14.841  66.965  1.00  0.00    -0.200 OA 
HETATM   10  N   UNL     1      -9.794  15.690  68.056  1.00  0.00    -0.209 N  
HETATM   11  H   UNL     1     -10.811  15.749  68.113  1.00  0.00     0.000 HD 
BRANCH  10  12
HETATM   12  C   UNL     1      -8.967  16.429  68.990  1.00  0.00    -0.239 C  
BRANCH  12  13
HETATM   13  C   UNL     1      -8.752  17.892  68.571  1.00  0.00    -0.292 C  
BRANCH  13  14
HETATM   14  N   UNL     1      -7.458  18.163  67.904  1.00  0.00    -0.223 NA 
HETATM   15  C   UNL     1      -6.998  19.564  68.076  1.00  0.00    -0.263 C  
HETATM   16  C   UNL     1      -6.565  19.910  69.511  1.00  0.00    -0.337 C  
HETATM   17  O   UNL     1      -5.537  19.023  69.974  1.00  0.00    -0.216 OA 
HETATM   18  C   UNL     1      -5.958  17.656  69.890  1.00  0.00    -0.221 C  
HETATM   19  C   UNL     1      -6.394  17.286  68.458  1.00  0.00    -0.163 C  
ENDBRANCH  13  14
ENDBRANCH  12  13
ENDBRANCH  10  12
ENDBRANCH   5   8
TORSDOF 4
ENDMDL
MODEL       99
REMARK 921   NORMALIZED FREE ENERGY PREDICTED BY IDOCK:   -4.15 KCAL/MOL
REMARK 922        TOTAL FREE ENERGY PREDICTED BY IDOCK:   -5.51 KCAL/MOL
REMARK 923 INTER-LIGAND FREE ENERGY PREDICTED BY IDOCK:   -5.24 KCAL/MOL
REMARK 924 INTRA-LIGAND FREE ENERGY PREDICTED BY IDOCK:   -0.27 KCAL/MOL
REMARK 927      BINDING AFFINITY PREDICTED BY RF-SCORE:    0.00 PKD
ROOT
HETATM    1 CL   UNL     1     -10.186  19.751  68.612  1.00  0.00    -0.551 Cl 
HETATM    2  C   UNL     1     -10.289  18.225  67.827  1.00  0.00    -0.401 A  
HETATM    3  C   UNL     1     -10.666  17.098  68.550  1.00  0.00    -0.326 A  
HETATM    4  C   UNL     1     -10.752  15.862  67.908  1.00  0.00    -0.312 A  
HETATM    5  C   UNL     1     -10.461  15.739  66.537  1.00  0.00    -0.304 A  
HETATM    6  C   UNL     1     -10.084  16.884  65.820  1.00  0.00    -0.251 A  
HETATM    7  C   UNL     1      -9.998  18.122  66.465  1.00  0.00    -0.374 A  
ENDROOT
BRANCH   5   8
HETATM    8  C   UNL     1     -10.606  14.388  65.918  1.00  0.00    -0.307 C  
HETATM    9  O   UNL     1     -10.440  14.254  64.707  1.00  0.00    -0.431 OA 
HETATM   10  N   UNL     1     -10.930  13.325  66.734  1.00  0.00    -0.284 N  
HETATM   11  H   UNL     1     -11.026  13.462  67.740  1.00  0.00     0.000 HD 
BRANCH  10  12
HETATM   12  C   UNL     1     -11.132  12.011  66.154  1.00  0.00    -0.322 C  
BRANCH  12  13
HETATM   13  C   UNL     1     -10.731  10.870  67.103  1.00  0.00    -0.270 C  
BRANCH  13  14
HETATM   14  N   UNL     1      -9.449  10.208  66.770  1.00  0.00    -0.163 NA 
HETATM   15  C   UNL     1      -8.622   9.911  67.967  1.00  0.00    -0.121 C  
HETATM   16  C   UNL     1      -9.197   8.803  68.866  1.00  0.00    -0.141 C  
HETATM   17  O   UNL     1      -9.404   7.589  68.130  1.00  0.00    -0.137 OA 
HETATM   18  C   UNL     1     -10.253   7.811  66.998  1.00  0.00    -0.305 C  
HETATM   19  C   UNL     1      -9.694   8.916  66.080  1.00  0.00    -0.238 C  
ENDBRANCH  13  14
ENDBRANCH  12  13
ENDBRANCH  10  12
ENDBRANCH   5   8
TORSDOF 4
ENDMDL
MODEL      100
REMARK 921   NORMALIZED FREE ENERGY PREDICTED BY IDOCK:   -4.14 KCAL/MOL
REMARK 922        TOTAL FREE ENERGY PREDICTED BY IDOCK:   -5.51 KCAL/MOL
REMARK 923 INTER-LIGAND FREE ENERGY PREDICTED BY IDOCK:   -5.20 KCAL/MOL
REMARK 924 INTRA-LIGAND FREE ENERGY PREDICTED BY IDOCK:   -0.30 KCAL/MOL
REMARK 927      BINDING AFFINITY PREDICTED BY RF-SCORE:    0.00 PKD
ROOT
HETATM    1 CL   UNL     1     -12.161  14.921  64.380  1.00  0.00    -0.474 Cl 
HETATM    2  C   UNL     1     -11.398  13.751  65.381  1.00  0.00    -0.308 A  
HETATM    3  C   UNL     1     -10.300  14.112  66.155  1.00  0.00    -0.304 A  
HETATM    4  C   UNL     1      -9.686  13.159  66.969  1.00  0.00    -0.241 A  
HETATM    5  C   UNL     1     -10.161  11.836  67.017  1.00  0.00    -0.240 A  
HETATM    6  C   UNL     1     -11.271  11.488  66.233  1.00  0.00    -0.286 A  
HETATM    7  C   UNL     1     -11.885  12.443  65.417  1.00  0.00    -0.460 A  
ENDROOT
BRANCH   5   8
HETATM    8  C   UNL     1      -9.469  10.885  67.936  1.00  0.00    -0.159 C  
HETATM    9  O   UNL     1      -8.573  10.164  67.502  1.00  0.00    -0.119 OA 
HETATM   10  N   UNL     1      -9.866  10.843  69.255  1.00  0.00    -0.396 N  
HETATM   11  H   UNL     1     -10.589  11.478  69.593  1.00  0.00     0.000 HD 
BRANCH  10  12
HETATM   12  C   UNL     1      -9.252   9.890  70.160  1.00  0.00    -0.135 C  
BRANCH  12  13
HETATM   13  C   UNL     1     -10.183   8.723  70.523  1.00  0.00    -0.202 C  
BRANCH  13  14
HETATM   14  N   UNL     1     -10.844   8.843  71.842  1.00  0.00    -0.356 NA 
HETATM   15  C   UNL     1     -12.326   8.788  71.757  1.00  0.00    -0.351 C  
HETATM   16  C   UNL     1     -12.880   7.405  71.377  1.00  0.00    -0.365 C  
HETATM   17  O   UNL     1     -12.428   6.393  72.288  1.00  0.00    -0.230 OA 
HETATM   18  C   UNL     1     -10.998   6.361  72.356  1.00  0.00    -0.250 C  
HETATM   19  C   UNL     1     -10.420   7.738  72.740  1.00  0.00    -0.328 C  
ENDBRANCH  13  14
ENDBRANCH  12  13
ENDBRANCH  10  12
ENDBRANCH   5   8
TORSDOF 4
ENDMDL
MODEL      101
REMARK 921   NORMALIZED FREE ENERGY PREDICTED BY IDOCK:   -4.12 KCAL/MOL
REMARK 922        TOTAL FREE ENERGY PREDICTED BY IDOCK:   -5.47 KCAL/MOL
REMARK 923 INTER-LIGAND FREE ENERGY PREDICTED BY IDOCK:   -5.05 KCAL/MOL
REMARK 924 INTRA-LIGAND FREE ENERGY PREDICTED BY IDOCK:   -0.42 KCAL/MOL
REMARK 927      BINDING AFFINITY PREDICTED BY RF-SCORE:    0.00 PKD
ROOT
HETATM    1 CL   UNL     1     -12.386  14.986  64.257  1.00  0.00    -0.410 Cl 
HETATM    2  C   UNL     1     -11.834  13.873  65.445  1.00  0.00    -0.355 A  
HETATM    3  C   UNL     1     -11.545  12.561  65.084  1.00  0.00    -0.395 A  
HETATM    4  C   UNL     1     -11.093  11.662  66.052  1.00  0.00    -0.325 A  
HETATM    5  C   UNL     1     -10.927  12.065  67.389  1.00  0.00    -0.311 A  
HETATM    6  C   UNL     1     -11.220  13.391  67.738  1.00  0.00    -0.306 A  
HETATM    7  C   UNL     1     -11.674  14.291  66.767  1.00  0.00    -0.424 A  
ENDROOT
BRANCH   5   8
HETATM    8  C   UNL     1     -10.411  11.052  68.358  1.00  0.00    -0.183 C  
HETATM    9  O   UNL     1      -9.267  11.157  68.794  1.00  0.00    -0.180 OA 
HETATM   10  N   UNL     1     -11.244  10.019  68.730  1.00  0.00    -0.441 N  
HETATM   11  H   UNL     1     -12.200   9.978  68.377  1.00  0.00     0.000 HD 
BRANCH  10  12
HETATM   12  C   UNL     1     -10.753   8.989  69.625  1.00  0.00    -0.219 C  
BRANCH  12  13
HETATM   13  C   UNL     1     -10.294   7.722  68.885  1.00  0.00    -0.213 C  
BRANCH  13  14
HETATM   14  N   UNL     1     -10.562   7.723  67.429  1.00  0.00    -0.284 NA 
HETATM   15  C   UNL     1      -9.338   7.924  66.613  1.00  0.00    -0.193 C  
HETATM   16  C   UNL     1      -8.365   6.733  66.641  1.00  0.00    -0.118 C  
HETATM   17  O   UNL     1      -9.009   5.522  66.221  1.00  0.00    -0.131 OA 
HETATM   18  C   UNL     1     -10.164   5.248  67.024  1.00  0.00    -0.234 C  
HETATM   19  C   UNL     1     -11.156   6.428  67.008  1.00  0.00    -0.329 C  
ENDBRANCH  13  14
ENDBRANCH  12  13
ENDBRANCH  10  12
ENDBRANCH   5   8
TORSDOF 4
ENDMDL
MODEL      102
REMARK 921   NORMALIZED FREE ENERGY PREDICTED BY IDOCK:   -4.10 KCAL/MOL
REMARK 922        TOTAL FREE ENERGY PREDICTED BY IDOCK:   -5.46 KCAL/MOL
REMARK 923 INTER-LIGAND FREE ENERGY PREDICTED BY IDOCK:   -5.18 KCAL/MOL
REMARK 924 INTRA-LIGAND FREE ENERGY PREDICTED BY IDOCK:   -0.28 KCAL/MOL
REMARK 927      BINDING AFFINITY PREDICTED BY RF-SCORE:    0.00 PKD
ROOT
HETATM    1 CL   UNL     1     -10.339  18.310  68.425  1.00  0.00    -0.383 Cl 
HETATM    2  C   UNL     1     -10.631  16.721  67.839  1.00  0.00    -0.350 A  
HETATM    3  C   UNL     1      -9.898  16.233  66.762  1.00  0.00    -0.254 A  
HETATM    4  C   UNL     1     -10.137  14.941  66.292  1.00  0.00    -0.298 A  
HETATM    5  C   UNL     1     -11.111  14.124  66.891  1.00  0.00    -0.312 A  
HETATM    6  C   UNL     1     -11.842  14.628  67.978  1.00  0.00    -0.343 A  
HETATM    7  C   UNL     1     -11.602  15.923  68.448  1.00  0.00    -0.317 A  
ENDROOT
BRANCH   5   8
HETATM    8  C   UNL     1     -11.285  12.743  66.350  1.00  0.00    -0.299 C  
HETATM    9  O   UNL     1     -12.347  12.428  65.819  1.00  0.00    -0.644 OA 
HETATM   10  N   UNL     1     -10.237  11.856  66.471  1.00  0.00    -0.200 N  
HETATM   11  H   UNL     1      -9.355  12.158  66.886  1.00  0.00     0.000 HD 
BRANCH  10  12
HETATM   12  C   UNL     1     -10.394  10.492  66.005  1.00  0.00    -0.211 C  
BRANCH  12  13
HETATM   13  C   UNL     1     -10.781   9.517  67.129  1.00  0.00    -0.182 C  
BRANCH  13  14
HETATM   14  N   UNL     1      -9.696   8.608  67.563  1.00  0.00    -0.157 NA 
HETATM   15  C   UNL     1      -9.670   8.395  69.032  1.00  0.00    -0.171 C  
HETATM   16  C   UNL     1     -10.853   7.570  69.566  1.00  0.00    -0.175 C  
HETATM   17  O   UNL     1     -10.937   6.295  68.912  1.00  0.00    -0.306 OA 
HETATM   18  C   UNL     1     -11.032   6.450  67.491  1.00  0.00    -0.364 C  
HETATM   19  C   UNL     1      -9.852   7.271  66.933  1.00  0.00    -0.214 C  
ENDBRANCH  13  14
ENDBRANCH  12  13
ENDBRANCH  10  12
ENDBRANCH   5   8
TORSDOF 4
ENDMDL
MODEL      103
REMARK 921   NORMALIZED FREE ENERGY PREDICTED BY IDOCK:   -4.10 KCAL/MOL
REMARK 922        TOTAL FREE ENERGY PREDICTED BY IDOCK:   -5.45 KCAL/MOL
REMARK 923 INTER-LIGAND FREE ENERGY PREDICTED BY IDOCK:   -5.12 KCAL/MOL
REMARK 924 INTRA-LIGAND FREE ENERGY PREDICTED BY IDOCK:   -0.33 KCAL/MOL
REMARK 927      BINDING AFFINITY PREDICTED BY RF-SCORE:    0.00 PKD
ROOT
HETATM    1 CL   UNL     1     -14.046  15.589  71.990  1.00  0.00    -0.601 Cl 
HETATM    2  C   UNL     1     -13.407  14.048  71.578  1.00  0.00    -0.350 A  
HETATM    3  C   UNL     1     -12.527  13.926  70.507  1.00  0.00    -0.422 A  
HETATM    4  C   UNL     1     -12.009  12.672  70.178  1.00  0.00    -0.375 A  
HETATM    5  C   UNL     1     -12.366  11.528  70.914  1.00  0.00    -0.460 A  
HETATM    6  C   UNL     1     -13.252  11.666  71.992  1.00  0.00    -0.443 A  
HETATM    7  C   UNL     1     -13.771  12.923  72.321  1.00  0.00    -0.553 A  
ENDROOT
BRANCH   5   8
HETATM    8  C   UNL     1     -11.744  10.229  70.518  1.00  0.00    -0.331 C  
HETATM    9  O   UNL     1     -12.145   9.184  71.026  1.00  0.00    -0.290 OA 
HETATM   10  N   UNL     1     -10.726  10.247  69.589  1.00  0.00    -0.246 N  
HETATM   11  H   UNL     1     -10.439  11.127  69.160  1.00  0.00     0.000 HD 
BRANCH  10  12
HETATM   12  C   UNL     1     -10.065   9.009  69.225  1.00  0.00    -0.195 C  
BRANCH  12  13
HETATM   13  C   UNL     1      -9.185   9.146  67.972  1.00  0.00    -0.134 C  
BRANCH  13  14
HETATM   14  N   UNL     1      -8.389  10.394  67.907  1.00  0.00    -0.113 NA 
HETATM   15  C   UNL     1      -6.928  10.146  67.813  1.00  0.00    -0.084 C  
HETATM   16  C   UNL     1      -6.480   9.547  66.469  1.00  0.00    -0.067 C  
HETATM   17  O   UNL     1      -6.882  10.374  65.369  1.00  0.00    -0.137 OA 
HETATM   18  C   UNL     1      -8.299  10.588  65.377  1.00  0.00    -0.165 C  
HETATM   19  C   UNL     1      -8.771  11.193  66.714  1.00  0.00    -0.157 C  
ENDBRANCH  13  14
ENDBRANCH  12  13
ENDBRANCH  10  12
ENDBRANCH   5   8
TORSDOF 4
ENDMDL
MODEL      104
REMARK 921   NORMALIZED FREE ENERGY PREDICTED BY IDOCK:   -4.10 KCAL/MOL
REMARK 922        TOTAL FREE ENERGY PREDICTED BY IDOCK:   -5.45 KCAL/MOL
REMARK 923 INTER-LIGAND FREE ENERGY PREDICTED BY IDOCK:   -5.13 KCAL/MOL
REMARK 924 INTRA-LIGAND FREE ENERGY PREDICTED BY IDOCK:   -0.32 KCAL/MOL
REMARK 927      BINDING AFFINITY PREDICTED BY RF-SCORE:    0.00 PKD
ROOT
HETATM    1 CL   UNL     1     -14.097  15.677  72.660  1.00  0.00    -0.617 Cl 
HETATM    2  C   UNL     1     -13.242  14.747  71.495  1.00  0.00    -0.356 A  
HETATM    3  C   UNL     1     -12.660  15.375  70.399  1.00  0.00    -0.433 A  
HETATM    4  C   UNL     1     -11.964  14.615  69.457  1.00  0.00    -0.361 A  
HETATM    5  C   UNL     1     -11.844  13.221  69.600  1.00  0.00    -0.391 A  
HETATM    6  C   UNL     1     -12.435  12.602  70.712  1.00  0.00    -0.357 A  
HETATM    7  C   UNL     1     -13.133  13.364  71.654  1.00  0.00    -0.463 A  
ENDROOT
BRANCH   5   8
HETATM    8  C   UNL     1     -11.058  12.485  68.566  1.00  0.00    -0.262 C  
HETATM    9  O   UNL     1     -10.307  13.105  67.817  1.00  0.00    -0.222 OA 
HETATM   10  N   UNL     1     -11.207  11.117  68.483  1.00  0.00    -0.234 N  
HETATM   11  H   UNL     1     -11.812  10.626  69.142  1.00  0.00     0.000 HD 
BRANCH  10  12
HETATM   12  C   UNL     1     -10.500  10.379  67.453  1.00  0.00    -0.249 C  
BRANCH  12  13
HETATM   13  C   UNL     1     -10.480   8.864  67.710  1.00  0.00    -0.239 C  
BRANCH  13  14
HETATM   14  N   UNL     1      -9.951   8.466  69.034  1.00  0.00    -0.185 NA 
HETATM   15  C   UNL     1     -10.514   7.182  69.523  1.00  0.00    -0.225 C  
HETATM   16  C   UNL     1     -10.039   5.950  68.734  1.00  0.00    -0.172 C  
HETATM   17  O   UNL     1      -8.607   5.856  68.726  1.00  0.00    -0.110 OA 
HETATM   18  C   UNL     1      -8.016   7.050  68.199  1.00  0.00    -0.119 C  
HETATM   19  C   UNL     1      -8.476   8.298  68.978  1.00  0.00    -0.131 C  
ENDBRANCH  13  14
ENDBRANCH  12  13
ENDBRANCH  10  12
ENDBRANCH   5   8
TORSDOF 4
ENDMDL
MODEL      105
REMARK 921   NORMALIZED FREE ENERGY PREDICTED BY IDOCK:   -4.09 KCAL/MOL
REMARK 922        TOTAL FREE ENERGY PREDICTED BY IDOCK:   -5.44 KCAL/MOL
REMARK 923 INTER-LIGAND FREE ENERGY PREDICTED BY IDOCK:   -5.11 KCAL/MOL
REMARK 924 INTRA-LIGAND FREE ENERGY PREDICTED BY IDOCK:   -0.33 KCAL/MOL
REMARK 927      BINDING AFFINITY PREDICTED BY RF-SCORE:    0.00 PKD
ROOT
HETATM    1 CL   UNL     1      -7.747   5.907  68.169  1.00  0.00    -0.099 Cl 
HETATM    2  C   UNL     1      -8.749   7.302  68.115  1.00  0.00    -0.128 A  
HETATM    3  C   UNL     1      -9.899   7.301  67.333  1.00  0.00    -0.206 A  
HETATM    4  C   UNL     1     -10.711   8.435  67.295  1.00  0.00    -0.230 A  
HETATM    5  C   UNL     1     -10.381   9.583  68.037  1.00  0.00    -0.260 A  
HETATM    6  C   UNL     1      -9.220   9.570  68.824  1.00  0.00    -0.140 A  
HETATM    7  C   UNL     1      -8.407   8.433  68.860  1.00  0.00    -0.119 A  
ENDROOT
BRANCH   5   8
HETATM    8  C   UNL     1     -11.318  10.744  67.968  1.00  0.00    -0.307 C  
HETATM    9  O   UNL     1     -12.306  10.773  68.697  1.00  0.00    -0.430 OA 
HETATM   10  N   UNL     1     -11.041  11.756  67.073  1.00  0.00    -0.288 N  
HETATM   11  H   UNL     1     -10.193  11.720  66.505  1.00  0.00     0.000 HD 
BRANCH  10  12
HETATM   12  C   UNL     1     -11.960  12.870  66.941  1.00  0.00    -0.335 C  
BRANCH  12  13
HETATM   13  C   UNL     1     -11.281  14.233  67.152  1.00  0.00    -0.322 C  
BRANCH  13  14
HETATM   14  N   UNL     1     -10.161  14.517  66.227  1.00  0.00    -0.284 NA 
HETATM   15  C   UNL     1     -10.598  14.678  64.817  1.00  0.00    -0.353 C  
HETATM   16  C   UNL     1     -11.409  15.959  64.556  1.00  0.00    -0.309 C  
HETATM   17  O   UNL     1     -10.680  17.129  64.953  1.00  0.00    -0.737 OA 
HETATM   18  C   UNL     1     -10.291  17.051  66.330  1.00  0.00    -0.306 C  
HETATM   19  C   UNL     1      -9.473  15.776  66.614  1.00  0.00    -0.257 C  
ENDBRANCH  13  14
ENDBRANCH  12  13
ENDBRANCH  10  12
ENDBRANCH   5   8
TORSDOF 4
ENDMDL
MODEL      106
REMARK 921   NORMALIZED FREE ENERGY PREDICTED BY IDOCK:   -4.09 KCAL/MOL
REMARK 922        TOTAL FREE ENERGY PREDICTED BY IDOCK:   -5.44 KCAL/MOL
REMARK 923 INTER-LIGAND FREE ENERGY PREDICTED BY IDOCK:   -5.19 KCAL/MOL
REMARK 924 INTRA-LIGAND FREE ENERGY PREDICTED BY IDOCK:   -0.25 KCAL/MOL
REMARK 927      BINDING AFFINITY PREDICTED BY RF-SCORE:    0.00 PKD
ROOT
HETATM    1 CL   UNL     1     -11.577  12.374  62.900  1.00  0.00    -0.012 Cl 
HETATM    2  C   UNL     1     -11.562  12.230  64.612  1.00  0.00    -0.344 A  
HETATM    3  C   UNL     1     -11.021  11.095  65.208  1.00  0.00    -0.153 A  
HETATM    4  C   UNL     1     -11.008  10.985  66.599  1.00  0.00    -0.253 A  
HETATM    5  C   UNL     1     -11.536  12.006  67.409  1.00  0.00    -0.388 A  
HETATM    6  C   UNL     1     -12.076  13.146  66.795  1.00  0.00    -0.389 A  
HETATM    7  C   UNL     1     -12.089  13.255  65.401  1.00  0.00    -0.464 A  
ENDROOT
BRANCH   5   8
HETATM    8  C   UNL     1     -11.457  11.826  68.889  1.00  0.00    -0.297 C  
HETATM    9  O   UNL     1     -10.361  11.841  69.445  1.00  0.00     0.022 OA 
HETATM   10  N   UNL     1     -12.630  11.642  69.590  1.00  0.00     0.036 N  
HETATM   11  H   UNL     1     -13.527  11.669  69.104  1.00  0.00     0.000 HD 
BRANCH  10  12
HETATM   12  C   UNL     1     -12.582  11.408  71.020  1.00  0.00    -0.386 C  
BRANCH  12  13
HETATM   13  C   UNL     1     -12.740  12.698  71.842  1.00  0.00    -0.081 C  
BRANCH  13  14
HETATM   14  N   UNL     1     -13.048  13.907  71.046  1.00  0.00    -0.283 NA 
HETATM   15  C   UNL     1     -14.065  14.780  71.685  1.00  0.00    -0.503 C  
HETATM   16  C   UNL     1     -13.570  15.493  72.955  1.00  0.00    -0.544 C  
HETATM   17  O   UNL     1     -12.391  16.267  72.692  1.00  0.00    -0.472 OA 
HETATM   18  C   UNL     1     -11.353  15.453  72.134  1.00  0.00    -0.356 C  
HETATM   19  C   UNL     1     -11.827  14.732  70.856  1.00  0.00    -0.322 C  
ENDBRANCH  13  14
ENDBRANCH  12  13
ENDBRANCH  10  12
ENDBRANCH   5   8
TORSDOF 4
ENDMDL
MODEL      107
REMARK 921   NORMALIZED FREE ENERGY PREDICTED BY IDOCK:   -4.09 KCAL/MOL
REMARK 922        TOTAL FREE ENERGY PREDICTED BY IDOCK:   -5.44 KCAL/MOL
REMARK 923 INTER-LIGAND FREE ENERGY PREDICTED BY IDOCK:   -5.21 KCAL/MOL
REMARK 924 INTRA-LIGAND FREE ENERGY PREDICTED BY IDOCK:   -0.23 KCAL/MOL
REMARK 927      BINDING AFFINITY PREDICTED BY RF-SCORE:    0.00 PKD
ROOT
HETATM    1 CL   UNL     1     -10.322  12.316  63.546  1.00  0.00    -0.454 Cl 
HETATM    2  C   UNL     1     -10.452  11.415  65.004  1.00  0.00    -0.303 A  
HETATM    3  C   UNL     1     -11.118  11.959  66.098  1.00  0.00    -0.374 A  
HETATM    4  C   UNL     1     -11.224  11.222  67.278  1.00  0.00    -0.364 A  
HETATM    5  C   UNL     1     -10.665   9.936  67.379  1.00  0.00    -0.323 A  
HETATM    6  C   UNL     1      -9.998   9.399  66.267  1.00  0.00    -0.353 A  
HETATM    7  C   UNL     1      -9.892  10.139  65.085  1.00  0.00    -0.394 A  
ENDROOT
BRANCH   5   8
HETATM    8  C   UNL     1     -10.848   9.200  68.665  1.00  0.00    -0.049 C  
HETATM    9  O   UNL     1     -10.462   8.037  68.761  1.00  0.00    -0.208 OA 
HETATM   10  N   UNL     1     -11.456   9.857  69.714  1.00  0.00    -0.399 N  
HETATM   11  H   UNL     1     -11.734  10.834  69.615  1.00  0.00     0.000 HD 
BRANCH  10  12
HETATM   12  C   UNL     1     -11.699   9.152  70.958  1.00  0.00    -0.301 C  
BRANCH  12  13
HETATM   13  C   UNL     1     -10.434   9.005  71.819  1.00  0.00    -0.348 C  
BRANCH  13  14
HETATM   14  N   UNL     1     -10.537   8.007  72.907  1.00  0.00    -0.356 NA 
HETATM   15  C   UNL     1     -11.106   6.712  72.455  1.00  0.00    -0.261 C  
HETATM   16  C   UNL     1     -10.176   5.909  71.529  1.00  0.00    -0.205 C  
HETATM   17  O   UNL     1      -8.905   5.668  72.147  1.00  0.00    -0.136 OA 
HETATM   18  C   UNL     1      -8.283   6.896  72.543  1.00  0.00    -0.106 C  
HETATM   19  C   UNL     1      -9.195   7.716  73.476  1.00  0.00    -0.275 C  
ENDBRANCH  13  14
ENDBRANCH  12  13
ENDBRANCH  10  12
ENDBRANCH   5   8
TORSDOF 4
ENDMDL
MODEL      108
REMARK 921   NORMALIZED FREE ENERGY PREDICTED BY IDOCK:   -4.08 KCAL/MOL
REMARK 922        TOTAL FREE ENERGY PREDICTED BY IDOCK:   -5.42 KCAL/MOL
REMARK 923 INTER-LIGAND FREE ENERGY PREDICTED BY IDOCK:   -6.22 KCAL/MOL
REMARK 924 INTRA-LIGAND FREE ENERGY PREDICTED BY IDOCK:    0.80 KCAL/MOL
REMARK 927      BINDING AFFINITY PREDICTED BY RF-SCORE:    0.00 PKD
ROOT
HETATM    1 CL   UNL     1     -12.523  16.092  74.551  1.00  0.00    -0.727 Cl 
HETATM    2  C   UNL     1     -12.393  15.476  72.952  1.00  0.00    -0.429 A  
HETATM    3  C   UNL     1     -11.727  16.213  71.978  1.00  0.00    -0.574 A  
HETATM    4  C   UNL     1     -11.621  15.708  70.681  1.00  0.00    -0.394 A  
HETATM    5  C   UNL     1     -12.180  14.462  70.344  1.00  0.00    -0.404 A  
HETATM    6  C   UNL     1     -12.846  13.729  71.337  1.00  0.00    -0.449 A  
HETATM    7  C   UNL     1     -12.953  14.237  72.636  1.00  0.00    -0.526 A  
ENDROOT
BRANCH   5   8
HETATM    8  C   UNL     1     -11.997  13.977  68.944  1.00  0.00    -0.352 C  
HETATM    9  O   UNL     1     -12.012  14.782  68.015  1.00  0.00    -0.316 OA 
HETATM   10  N   UNL     1     -11.821  12.626  68.737  1.00  0.00    -0.311 N  
HETATM   11  H   UNL     1     -11.778  11.987  69.532  1.00  0.00     0.000 HD 
BRANCH  10  12
HETATM   12  C   UNL     1     -11.696  12.117  67.385  1.00  0.00    -0.304 C  
BRANCH  12  13
HETATM   13  C   UNL     1     -10.752  10.908  67.285  1.00  0.00    -0.268 C  
BRANCH  13  14
HETATM   14  N   UNL     1      -9.591  11.100  66.386  1.00  0.00    -0.194 NA 
HETATM   15  C   UNL     1      -9.904  11.947  65.207  1.00  0.00    -0.230 C  
HETATM   16  C   UNL     1     -10.146  13.428  65.547  1.00  0.00    -0.266 C  
HETATM   17  O   UNL     1      -9.026  13.994  66.242  1.00  0.00    -0.100 OA 
HETATM   18  C   UNL     1      -8.725  13.247  67.427  1.00  0.00    -0.206 C  
HETATM   19  C   UNL     1      -8.474  11.760  67.110  1.00  0.00    -0.170 C  
ENDBRANCH  13  14
ENDBRANCH  12  13
ENDBRANCH  10  12
ENDBRANCH   5   8
TORSDOF 4
ENDMDL
MODEL      109
REMARK 921   NORMALIZED FREE ENERGY PREDICTED BY IDOCK:   -4.07 KCAL/MOL
REMARK 922        TOTAL FREE ENERGY PREDICTED BY IDOCK:   -5.41 KCAL/MOL
REMARK 923 INTER-LIGAND FREE ENERGY PREDICTED BY IDOCK:   -4.97 KCAL/MOL
REMARK 924 INTRA-LIGAND FREE ENERGY PREDICTED BY IDOCK:   -0.45 KCAL/MOL
REMARK 927      BINDING AFFINITY PREDICTED BY RF-SCORE:    0.00 PKD
ROOT
HETATM    1 CL   UNL     1     -13.872  15.967  73.020  1.00  0.00    -0.610 Cl 
HETATM    2  C   UNL     1     -13.318  14.592  72.150  1.00  0.00    -0.381 A  
HETATM    3  C   UNL     1     -12.515  14.760  71.026  1.00  0.00    -0.400 A  
HETATM    4  C   UNL     1     -12.065  13.640  70.325  1.00  0.00    -0.427 A  
HETATM    5  C   UNL     1     -12.413  12.342  70.738  1.00  0.00    -0.356 A  
HETATM    6  C   UNL     1     -13.222  12.187  71.875  1.00  0.00    -0.474 A  
HETATM    7  C   UNL     1     -13.673  13.310  72.576  1.00  0.00    -0.613 A  
ENDROOT
BRANCH   5   8
HETATM    8  C   UNL     1     -11.867  11.195  69.953  1.00  0.00    -0.363 C  
HETATM    9  O   UNL     1     -12.151  10.045  70.279  1.00  0.00    -0.234 OA 
HETATM   10  N   UNL     1     -11.047  11.470  68.879  1.00  0.00    -0.215 N  
HETATM   11  H   UNL     1     -10.858  12.436  68.612  1.00  0.00     0.000 HD 
BRANCH  10  12
HETATM   12  C   UNL     1     -10.455  10.378  68.131  1.00  0.00    -0.188 C  
BRANCH  12  13
HETATM   13  C   UNL     1      -8.920  10.437  68.099  1.00  0.00    -0.132 C  
BRANCH  13  14
HETATM   14  N   UNL     1      -8.268  10.343  69.425  1.00  0.00    -0.163 NA 
HETATM   15  C   UNL     1      -8.393   8.997  70.040  1.00  0.00    -0.142 C  
HETATM   16  C   UNL     1      -7.571   7.907  69.331  1.00  0.00    -0.103 C  
HETATM   17  O   UNL     1      -6.183   8.260  69.263  1.00  0.00    -0.037 OA 
HETATM   18  C   UNL     1      -6.004   9.526  68.617  1.00  0.00    -0.043 C  
HETATM   19  C   UNL     1      -6.815  10.636  69.314  1.00  0.00    -0.086 C  
ENDBRANCH  13  14
ENDBRANCH  12  13
ENDBRANCH  10  12
ENDBRANCH   5   8
TORSDOF 4
ENDMDL
MODEL      110
REMARK 921   NORMALIZED FREE ENERGY PREDICTED BY IDOCK:   -4.07 KCAL/MOL
REMARK 922        TOTAL FREE ENERGY PREDICTED BY IDOCK:   -5.41 KCAL/MOL
REMARK 923 INTER-LIGAND FREE ENERGY PREDICTED BY IDOCK:   -5.20 KCAL/MOL
REMARK 924 INTRA-LIGAND FREE ENERGY PREDICTED BY IDOCK:   -0.22 KCAL/MOL
REMARK 927      BINDING AFFINITY PREDICTED BY RF-SCORE:    0.00 PKD
ROOT
HETATM    1 CL   UNL     1     -12.692  14.437  65.054  1.00  0.00    -0.332 Cl 
HETATM    2  C   UNL     1     -11.719  13.021  65.005  1.00  0.00    -0.339 A  
HETATM    3  C   UNL     1     -11.461  12.400  63.787  1.00  0.00    -0.544 A  
HETATM    4  C   UNL     1     -10.667  11.252  63.752  1.00  0.00    -0.448 A  
HETATM    5  C   UNL     1     -10.127  10.712  64.933  1.00  0.00    -0.402 A  
HETATM    6  C   UNL     1     -10.394  11.350  66.153  1.00  0.00    -0.294 A  
HETATM    7  C   UNL     1     -11.189  12.500  66.187  1.00  0.00    -0.362 A  
ENDROOT
BRANCH   5   8
HETATM    8  C   UNL     1      -9.264   9.500  64.807  1.00  0.00    -0.205 C  
HETATM    9  O   UNL     1      -8.435   9.435  63.902  1.00  0.00    -0.174 OA 
HETATM   10  N   UNL     1      -9.432   8.480  65.719  1.00  0.00    -0.431 N  
HETATM   11  H   UNL     1     -10.104   8.578  66.480  1.00  0.00     0.000 HD 
BRANCH  10  12
HETATM   12  C   UNL     1      -8.648   7.266  65.591  1.00  0.00    -0.109 C  
BRANCH  12  13
HETATM   13  C   UNL     1      -8.673   6.401  66.861  1.00  0.00    -0.115 C  
BRANCH  13  14
HETATM   14  N   UNL     1      -9.805   5.449  66.941  1.00  0.00    -0.150 NA 
HETATM   15  C   UNL     1      -9.519   4.279  67.808  1.00  0.00    -0.168 C  
HETATM   16  C   UNL     1      -9.431   4.616  69.306  1.00  0.00    -0.162 C  
HETATM   17  O   UNL     1     -10.629   5.257  69.769  1.00  0.00    -0.307 OA 
HETATM   18  C   UNL     1     -10.913   6.434  69.002  1.00  0.00    -0.348 C  
HETATM   19  C   UNL     1     -11.010   6.117  67.497  1.00  0.00    -0.307 C  
ENDBRANCH  13  14
ENDBRANCH  12  13
ENDBRANCH  10  12
ENDBRANCH   5   8
TORSDOF 4
ENDMDL
MODEL      111
REMARK 921   NORMALIZED FREE ENERGY PREDICTED BY IDOCK:   -4.07 KCAL/MOL
REMARK 922        TOTAL FREE ENERGY PREDICTED BY IDOCK:   -5.41 KCAL/MOL
REMARK 923 INTER-LIGAND FREE ENERGY PREDICTED BY IDOCK:   -5.06 KCAL/MOL
REMARK 924 INTRA-LIGAND FREE ENERGY PREDICTED BY IDOCK:   -0.35 KCAL/MOL
REMARK 927      BINDING AFFINITY PREDICTED BY RF-SCORE:    0.00 PKD
ROOT
HETATM    1 CL   UNL     1      -9.449   9.074  65.640  1.00  0.00    -0.301 Cl 
HETATM    2  C   UNL     1     -10.012  10.490  66.435  1.00  0.00    -0.218 A  
HETATM    3  C   UNL     1     -10.640  11.492  65.703  1.00  0.00    -0.326 A  
HETATM    4  C   UNL     1     -11.099  12.639  66.354  1.00  0.00    -0.325 A  
HETATM    5  C   UNL     1     -10.932  12.796  67.742  1.00  0.00    -0.266 A  
HETATM    6  C   UNL     1     -10.299  11.776  68.467  1.00  0.00    -0.228 A  
HETATM    7  C   UNL     1      -9.840  10.628  67.814  1.00  0.00    -0.187 A  
ENDROOT
BRANCH   5   8
HETATM    8  C   UNL     1     -11.478  14.037  68.368  1.00  0.00    -0.306 C  
HETATM    9  O   UNL     1     -12.350  13.950  69.229  1.00  0.00    -0.323 OA 
HETATM   10  N   UNL     1     -10.982  15.253  67.949  1.00  0.00    -0.296 N  
HETATM   11  H   UNL     1     -10.233  15.291  67.257  1.00  0.00     0.000 HD 
BRANCH  10  12
HETATM   12  C   UNL     1     -11.530  16.479  68.497  1.00  0.00    -0.133 C  
BRANCH  12  13
HETATM   13  C   UNL     1     -10.524  17.641  68.488  1.00  0.00    -0.337 C  
BRANCH  13  14
HETATM   14  N   UNL     1      -9.397  17.478  67.542  1.00  0.00    -0.244 NA 
HETATM   15  C   UNL     1      -9.437  18.447  66.418  1.00  0.00    -0.295 C  
HETATM   16  C   UNL     1      -9.147  19.900  66.833  1.00  0.00    -0.356 C  
HETATM   17  O   UNL     1      -7.880  20.010  67.496  1.00  0.00    -0.282 OA 
HETATM   18  C   UNL     1      -7.815  19.138  68.632  1.00  0.00    -0.354 C  
HETATM   19  C   UNL     1      -8.099  17.675  68.238  1.00  0.00    -0.278 C  
ENDBRANCH  13  14
ENDBRANCH  12  13
ENDBRANCH  10  12
ENDBRANCH   5   8
TORSDOF 4
ENDMDL
MODEL      112
REMARK 921   NORMALIZED FREE ENERGY PREDICTED BY IDOCK:   -4.04 KCAL/MOL
REMARK 922        TOTAL FREE ENERGY PREDICTED BY IDOCK:   -5.38 KCAL/MOL
REMARK 923 INTER-LIGAND FREE ENERGY PREDICTED BY IDOCK:   -5.13 KCAL/MOL
REMARK 924 INTRA-LIGAND FREE ENERGY PREDICTED BY IDOCK:   -0.26 KCAL/MOL
REMARK 927      BINDING AFFINITY PREDICTED BY RF-SCORE:    0.00 PKD
ROOT
HETATM    1 CL   UNL     1     -12.120  14.540  64.357  1.00  0.00    -0.503 Cl 
HETATM    2  C   UNL     1     -11.989  13.699  65.851  1.00  0.00    -0.405 A  
HETATM    3  C   UNL     1     -11.732  12.332  65.856  1.00  0.00    -0.451 A  
HETATM    4  C   UNL     1     -11.623  11.654  67.071  1.00  0.00    -0.268 A  
HETATM    5  C   UNL     1     -11.772  12.335  68.293  1.00  0.00    -0.392 A  
HETATM    6  C   UNL     1     -12.028  13.714  68.272  1.00  0.00    -0.385 A  
HETATM    7  C   UNL     1     -12.138  14.392  67.054  1.00  0.00    -0.374 A  
ENDROOT
BRANCH   5   8
HETATM    8  C   UNL     1     -11.611  11.544  69.549  1.00  0.00    -0.333 C  
HETATM    9  O   UNL     1     -12.114  11.954  70.593  1.00  0.00    -0.373 OA 
HETATM   10  N   UNL     1     -10.891  10.370  69.496  1.00  0.00    -0.238 N  
HETATM   11  H   UNL     1     -10.515  10.039  68.607  1.00  0.00     0.000 HD 
BRANCH  10  12
HETATM   12  C   UNL     1     -10.669   9.608  70.710  1.00  0.00    -0.331 C  
BRANCH  12  13
HETATM   13  C   UNL     1      -9.229   9.085  70.833  1.00  0.00    -0.259 C  
BRANCH  13  14
HETATM   14  N   UNL     1      -9.119   7.650  71.183  1.00  0.00    -0.145 NA 
HETATM   15  C   UNL     1     -10.192   6.821  70.579  1.00  0.00    -0.192 C  
HETATM   16  C   UNL     1     -10.081   6.668  69.052  1.00  0.00    -0.162 C  
HETATM   17  O   UNL     1      -8.808   6.128  68.673  1.00  0.00    -0.115 OA 
HETATM   18  C   UNL     1      -7.735   6.933  69.178  1.00  0.00    -0.106 C  
HETATM   19  C   UNL     1      -7.824   7.097  70.708  1.00  0.00    -0.095 C  
ENDBRANCH  13  14
ENDBRANCH  12  13
ENDBRANCH  10  12
ENDBRANCH   5   8
TORSDOF 4
ENDMDL
MODEL      113
REMARK 921   NORMALIZED FREE ENERGY PREDICTED BY IDOCK:   -4.03 KCAL/MOL
REMARK 922        TOTAL FREE ENERGY PREDICTED BY IDOCK:   -5.37 KCAL/MOL
REMARK 923 INTER-LIGAND FREE ENERGY PREDICTED BY IDOCK:   -5.01 KCAL/MOL
REMARK 924 INTRA-LIGAND FREE ENERGY PREDICTED BY IDOCK:   -0.36 KCAL/MOL
REMARK 927      BINDING AFFINITY PREDICTED BY RF-SCORE:    0.00 PKD
ROOT
HETATM    1 CL   UNL     1     -11.572  14.851  65.138  1.00  0.00    -0.350 Cl 
HETATM    2  C   UNL     1     -11.639  13.820  66.511  1.00  0.00    -0.365 A  
HETATM    3  C   UNL     1     -11.805  14.366  67.780  1.00  0.00    -0.402 A  
HETATM    4  C   UNL     1     -11.862  13.524  68.892  1.00  0.00    -0.384 A  
HETATM    5  C   UNL     1     -11.752  12.130  68.748  1.00  0.00    -0.374 A  
HETATM    6  C   UNL     1     -11.587  11.593  67.462  1.00  0.00    -0.345 A  
HETATM    7  C   UNL     1     -11.530  12.438  66.349  1.00  0.00    -0.427 A  
ENDROOT
BRANCH   5   8
HETATM    8  C   UNL     1     -11.853  11.296  69.983  1.00  0.00    -0.367 C  
HETATM    9  O   UNL     1     -12.494  11.712  70.945  1.00  0.00    -0.376 OA 
HETATM   10  N   UNL     1     -11.212  10.076  70.003  1.00  0.00    -0.271 N  
HETATM   11  H   UNL     1     -10.716   9.744  69.175  1.00  0.00     0.000 HD 
BRANCH  10  12
HETATM   12  C   UNL     1     -11.245   9.268  71.207  1.00  0.00    -0.355 C  
BRANCH  12  13
HETATM   13  C   UNL     1      -9.843   8.954  71.755  1.00  0.00    -0.315 C  
BRANCH  13  14
HETATM   14  N   UNL     1      -8.853   8.549  70.730  1.00  0.00    -0.148 NA 
HETATM   15  C   UNL     1      -7.450   8.679  71.196  1.00  0.00    -0.095 C  
HETATM   16  C   UNL     1      -7.052   7.660  72.278  1.00  0.00    -0.071 C  
HETATM   17  O   UNL     1      -7.272   6.314  71.833  1.00  0.00    -0.084 OA 
HETATM   18  C   UNL     1      -8.634   6.119  71.433  1.00  0.00    -0.128 C  
HETATM   19  C   UNL     1      -9.053   7.128  70.345  1.00  0.00    -0.156 C  
ENDBRANCH  13  14
ENDBRANCH  12  13
ENDBRANCH  10  12
ENDBRANCH   5   8
TORSDOF 4
ENDMDL
MODEL      114
REMARK 921   NORMALIZED FREE ENERGY PREDICTED BY IDOCK:   -4.01 KCAL/MOL
REMARK 922        TOTAL FREE ENERGY PREDICTED BY IDOCK:   -5.34 KCAL/MOL
REMARK 923 INTER-LIGAND FREE ENERGY PREDICTED BY IDOCK:   -5.11 KCAL/MOL
REMARK 924 INTRA-LIGAND FREE ENERGY PREDICTED BY IDOCK:   -0.23 KCAL/MOL
REMARK 927      BINDING AFFINITY PREDICTED BY RF-SCORE:    0.00 PKD
ROOT
HETATM    1 CL   UNL     1     -10.183   6.973  66.803  1.00  0.00    -0.297 Cl 
HETATM    2  C   UNL     1     -10.364   8.614  67.282  1.00  0.00    -0.296 A  
HETATM    3  C   UNL     1     -10.359   9.621  66.321  1.00  0.00    -0.230 A  
HETATM    4  C   UNL     1     -10.510  10.951  66.715  1.00  0.00    -0.302 A  
HETATM    5  C   UNL     1     -10.664  11.290  68.071  1.00  0.00    -0.245 A  
HETATM    6  C   UNL     1     -10.669  10.264  69.028  1.00  0.00    -0.257 A  
HETATM    7  C   UNL     1     -10.517   8.931  68.633  1.00  0.00    -0.223 A  
ENDROOT
BRANCH   5   8
HETATM    8  C   UNL     1     -10.850  12.733  68.407  1.00  0.00    -0.249 C  
HETATM    9  O   UNL     1     -11.985  13.186  68.530  1.00  0.00    -0.337 OA 
HETATM   10  N   UNL     1      -9.728  13.518  68.564  1.00  0.00    -0.333 N  
HETATM   11  H   UNL     1      -8.798  13.104  68.490  1.00  0.00     0.000 HD 
BRANCH  10  12
HETATM   12  C   UNL     1      -9.875  14.935  68.836  1.00  0.00    -0.230 C  
BRANCH  12  13
HETATM   13  C   UNL     1     -10.010  15.778  67.558  1.00  0.00    -0.236 C  
BRANCH  13  14
HETATM   14  N   UNL     1     -10.605  17.119  67.759  1.00  0.00    -0.364 NA 
HETATM   15  C   UNL     1     -10.006  17.854  68.902  1.00  0.00    -0.334 C  
HETATM   16  C   UNL     1      -8.555  18.306  68.665  1.00  0.00    -0.283 C  
HETATM   17  O   UNL     1      -8.448  19.115  67.485  1.00  0.00    -0.281 OA 
HETATM   18  C   UNL     1      -8.954  18.423  66.337  1.00  0.00    -0.249 C  
HETATM   19  C   UNL     1     -10.409  17.962  66.552  1.00  0.00    -0.362 C  
ENDBRANCH  13  14
ENDBRANCH  12  13
ENDBRANCH  10  12
ENDBRANCH   5   8
TORSDOF 4
ENDMDL
MODEL      115
REMARK 921   NORMALIZED FREE ENERGY PREDICTED BY IDOCK:   -4.00 KCAL/MOL
REMARK 922        TOTAL FREE ENERGY PREDICTED BY IDOCK:   -5.33 KCAL/MOL
REMARK 923 INTER-LIGAND FREE ENERGY PREDICTED BY IDOCK:   -5.06 KCAL/MOL
REMARK 924 INTRA-LIGAND FREE ENERGY PREDICTED BY IDOCK:   -0.27 KCAL/MOL
REMARK 927      BINDING AFFINITY PREDICTED BY RF-SCORE:    0.00 PKD
ROOT
HETATM    1 CL   UNL     1     -10.694   8.174  67.884  1.00  0.00    -0.196 Cl 
HETATM    2  C   UNL     1     -10.207   9.798  67.602  1.00  0.00    -0.213 A  
HETATM    3  C   UNL     1      -8.855  10.107  67.492  1.00  0.00    -0.126 A  
HETATM    4  C   UNL     1      -8.465  11.427  67.260  1.00  0.00    -0.148 A  
HETATM    5  C   UNL     1      -9.421  12.451  67.138  1.00  0.00    -0.198 A  
HETATM    6  C   UNL     1     -10.781  12.124  67.249  1.00  0.00    -0.264 A  
HETATM    7  C   UNL     1     -11.171  10.801  67.482  1.00  0.00    -0.346 A  
ENDROOT
BRANCH   5   8
HETATM    8  C   UNL     1      -8.925  13.832  66.859  1.00  0.00    -0.221 C  
HETATM    9  O   UNL     1      -7.846  14.194  67.323  1.00  0.00    -0.183 OA 
HETATM   10  N   UNL     1      -9.706  14.665  66.087  1.00  0.00    -0.306 N  
HETATM   11  H   UNL     1     -10.581  14.323  65.688  1.00  0.00     0.000 HD 
BRANCH  10  12
HETATM   12  C   UNL     1      -9.278  16.029  65.845  1.00  0.00    -0.286 C  
BRANCH  12  13
HETATM   13  C   UNL     1     -10.269  17.072  66.388  1.00  0.00    -0.326 C  
BRANCH  13  14
HETATM   14  N   UNL     1      -9.924  18.477  66.075  1.00  0.00    -0.534 NA 
HETATM   15  C   UNL     1     -10.722  19.458  66.853  1.00  0.00    -0.465 C  
HETATM   16  C   UNL     1     -10.383  19.493  68.352  1.00  0.00    -0.377 C  
HETATM   17  O   UNL     1      -8.988  19.755  68.566  1.00  0.00    -0.320 OA 
HETATM   18  C   UNL     1      -8.173  18.792  67.887  1.00  0.00    -0.269 C  
HETATM   19  C   UNL     1      -8.494  18.743  66.380  1.00  0.00    -0.284 C  
ENDBRANCH  13  14
ENDBRANCH  12  13
ENDBRANCH  10  12
ENDBRANCH   5   8
TORSDOF 4
ENDMDL
MODEL      116
REMARK 921   NORMALIZED FREE ENERGY PREDICTED BY IDOCK:   -3.97 KCAL/MOL
REMARK 922        TOTAL FREE ENERGY PREDICTED BY IDOCK:   -5.29 KCAL/MOL
REMARK 923 INTER-LIGAND FREE ENERGY PREDICTED BY IDOCK:   -4.94 KCAL/MOL
REMARK 924 INTRA-LIGAND FREE ENERGY PREDICTED BY IDOCK:   -0.34 KCAL/MOL
REMARK 927      BINDING AFFINITY PREDICTED BY RF-SCORE:    0.00 PKD
ROOT
HETATM    1 CL   UNL     1      -9.505   3.436  67.205  1.00  0.00    -0.239 Cl 
HETATM    2  C   UNL     1      -9.915   4.856  68.082  1.00  0.00    -0.108 A  
HETATM    3  C   UNL     1     -10.490   5.936  67.421  1.00  0.00    -0.311 A  
HETATM    4  C   UNL     1     -10.825   7.086  68.139  1.00  0.00    -0.214 A  
HETATM    5  C   UNL     1     -10.587   7.169  69.522  1.00  0.00    -0.247 A  
HETATM    6  C   UNL     1     -10.008   6.070  70.176  1.00  0.00    -0.228 A  
HETATM    7  C   UNL     1      -9.673   4.919  69.456  1.00  0.00    -0.266 A  
ENDROOT
BRANCH   5   8
HETATM    8  C   UNL     1     -11.001   8.421  70.222  1.00  0.00    -0.232 C  
HETATM    9  O   UNL     1     -11.143   8.416  71.443  1.00  0.00    -0.236 OA 
HETATM   10  N   UNL     1     -11.218   9.552  69.465  1.00  0.00    -0.422 N  
HETATM   11  H   UNL     1     -11.058   9.534  68.458  1.00  0.00     0.000 HD 
BRANCH  10  12
HETATM   12  C   UNL     1     -11.675  10.769  70.108  1.00  0.00    -0.339 C  
BRANCH  12  13
HETATM   13  C   UNL     1     -11.900  11.922  69.117  1.00  0.00    -0.311 C  
BRANCH  13  14
HETATM   14  N   UNL     1     -10.938  11.969  67.992  1.00  0.00    -0.210 NA 
HETATM   15  C   UNL     1     -11.571  12.345  66.702  1.00  0.00    -0.385 C  
HETATM   16  C   UNL     1     -12.035  13.810  66.637  1.00  0.00    -0.431 C  
HETATM   17  O   UNL     1     -10.952  14.713  66.904  1.00  0.00    -0.309 OA 
HETATM   18  C   UNL     1     -10.349  14.432  68.173  1.00  0.00    -0.231 C  
HETATM   19  C   UNL     1      -9.872  12.969  68.260  1.00  0.00    -0.225 C  
ENDBRANCH  13  14
ENDBRANCH  12  13
ENDBRANCH  10  12
ENDBRANCH   5   8
TORSDOF 4
ENDMDL
MODEL      117
REMARK 921   NORMALIZED FREE ENERGY PREDICTED BY IDOCK:   -3.96 KCAL/MOL
REMARK 922        TOTAL FREE ENERGY PREDICTED BY IDOCK:   -5.28 KCAL/MOL
REMARK 923 INTER-LIGAND FREE ENERGY PREDICTED BY IDOCK:   -4.83 KCAL/MOL
REMARK 924 INTRA-LIGAND FREE ENERGY PREDICTED BY IDOCK:   -0.46 KCAL/MOL
REMARK 927      BINDING AFFINITY PREDICTED BY RF-SCORE:    0.00 PKD
ROOT
HETATM    1 CL   UNL     1     -12.102  13.762  65.242  1.00  0.00    -0.395 Cl 
HETATM    2  C   UNL     1     -11.713  12.657  66.500  1.00  0.00    -0.400 A  
HETATM    3  C   UNL     1     -11.239  11.387  66.185  1.00  0.00    -0.203 A  
HETATM    4  C   UNL     1     -10.921  10.495  67.210  1.00  0.00    -0.325 A  
HETATM    5  C   UNL     1     -11.074  10.861  68.559  1.00  0.00    -0.311 A  
HETATM    6  C   UNL     1     -11.550  12.145  68.862  1.00  0.00    -0.377 A  
HETATM    7  C   UNL     1     -11.870  13.038  67.834  1.00  0.00    -0.389 A  
ENDROOT
BRANCH   5   8
HETATM    8  C   UNL     1     -10.683   9.860  69.596  1.00  0.00    -0.252 C  
HETATM    9  O   UNL     1      -9.559   9.906  70.091  1.00  0.00    -0.245 OA 
HETATM   10  N   UNL     1     -11.606   8.904  69.964  1.00  0.00    -0.457 N  
HETATM   11  H   UNL     1     -12.543   8.914  69.560  1.00  0.00     0.000 HD 
BRANCH  10  12
HETATM   12  C   UNL     1     -11.238   7.885  70.927  1.00  0.00    -0.270 C  
BRANCH  12  13
HETATM   13  C   UNL     1     -10.937   6.526  70.275  1.00  0.00    -0.310 C  
BRANCH  13  14
HETATM   14  N   UNL     1      -9.554   6.374  69.767  1.00  0.00    -0.151 NA 
HETATM   15  C   UNL     1      -8.956   5.056  70.099  1.00  0.00    -0.111 C  
HETATM   16  C   UNL     1      -9.583   3.875  69.340  1.00  0.00    -0.169 C  
HETATM   17  O   UNL     1      -9.516   4.072  67.920  1.00  0.00    -0.165 OA 
HETATM   18  C   UNL     1     -10.142   5.303  67.541  1.00  0.00    -0.179 C  
HETATM   19  C   UNL     1      -9.525   6.503  68.287  1.00  0.00    -0.118 C  
ENDBRANCH  13  14
ENDBRANCH  12  13
ENDBRANCH  10  12
ENDBRANCH   5   8
TORSDOF 4
ENDMDL
MODEL      118
REMARK 921   NORMALIZED FREE ENERGY PREDICTED BY IDOCK:   -3.96 KCAL/MOL
REMARK 922        TOTAL FREE ENERGY PREDICTED BY IDOCK:   -5.28 KCAL/MOL
REMARK 923 INTER-LIGAND FREE ENERGY PREDICTED BY IDOCK:   -5.01 KCAL/MOL
REMARK 924 INTRA-LIGAND FREE ENERGY PREDICTED BY IDOCK:   -0.28 KCAL/MOL
REMARK 927      BINDING AFFINITY PREDICTED BY RF-SCORE:    0.00 PKD
ROOT
HETATM    1 CL   UNL     1      -9.381  19.233  68.599  1.00  0.00    -0.429 Cl 
HETATM    2  C   UNL     1      -9.755  17.569  68.390  1.00  0.00    -0.316 A  
HETATM    3  C   UNL     1      -9.171  16.852  67.350  1.00  0.00    -0.224 A  
HETATM    4  C   UNL     1      -9.475  15.500  67.187  1.00  0.00    -0.223 A  
HETATM    5  C   UNL     1     -10.366  14.850  68.059  1.00  0.00    -0.244 A  
HETATM    6  C   UNL     1     -10.945  15.584  69.105  1.00  0.00    -0.259 A  
HETATM    7  C   UNL     1     -10.641  16.939  69.267  1.00  0.00    -0.325 A  
ENDROOT
BRANCH   5   8
HETATM    8  C   UNL     1     -10.615  13.395  67.836  1.00  0.00    -0.245 C  
HETATM    9  O   UNL     1     -10.052  12.817  66.910  1.00  0.00    -0.227 OA 
HETATM   10  N   UNL     1     -11.484  12.742  68.685  1.00  0.00    -0.279 N  
HETATM   11  H   UNL     1     -11.909  13.241  69.467  1.00  0.00     0.000 HD 
BRANCH  10  12
HETATM   12  C   UNL     1     -11.790  11.342  68.461  1.00  0.00    -0.294 C  
BRANCH  12  13
HETATM   13  C   UNL     1     -12.285  10.628  69.729  1.00  0.00    -0.247 C  
BRANCH  13  14
HETATM   14  N   UNL     1     -11.223  10.282  70.701  1.00  0.00    -0.330 NA 
HETATM   15  C   UNL     1     -11.657   9.275  71.702  1.00  0.00    -0.393 C  
HETATM   16  C   UNL     1     -11.868   7.866  71.121  1.00  0.00    -0.287 C  
HETATM   17  O   UNL     1     -10.685   7.390  70.465  1.00  0.00    -0.224 OA 
HETATM   18  C   UNL     1     -10.262   8.298  69.441  1.00  0.00    -0.204 C  
HETATM   19  C   UNL     1     -10.040   9.717  70.002  1.00  0.00    -0.257 C  
ENDBRANCH  13  14
ENDBRANCH  12  13
ENDBRANCH  10  12
ENDBRANCH   5   8
TORSDOF 4
ENDMDL
MODEL      119
REMARK 921   NORMALIZED FREE ENERGY PREDICTED BY IDOCK:   -3.95 KCAL/MOL
REMARK 922        TOTAL FREE ENERGY PREDICTED BY IDOCK:   -5.27 KCAL/MOL
REMARK 923 INTER-LIGAND FREE ENERGY PREDICTED BY IDOCK:   -4.84 KCAL/MOL
REMARK 924 INTRA-LIGAND FREE ENERGY PREDICTED BY IDOCK:   -0.43 KCAL/MOL
REMARK 927      BINDING AFFINITY PREDICTED BY RF-SCORE:    0.00 PKD
ROOT
HETATM    1 CL   UNL     1     -10.938   7.438  73.304  1.00  0.00    -0.413 Cl 
HETATM    2  C   UNL     1     -10.248   8.324  72.004  1.00  0.00    -0.269 A  
HETATM    3  C   UNL     1     -11.056   8.770  70.962  1.00  0.00    -0.328 A  
HETATM    4  C   UNL     1     -10.491   9.492  69.910  1.00  0.00    -0.269 A  
HETATM    5  C   UNL     1      -9.114   9.776  69.887  1.00  0.00    -0.257 A  
HETATM    6  C   UNL     1      -8.312   9.323  70.944  1.00  0.00    -0.196 A  
HETATM    7  C   UNL     1      -8.879   8.598  71.998  1.00  0.00    -0.264 A  
ENDROOT
BRANCH   5   8
HETATM    8  C   UNL     1      -8.593  10.580  68.742  1.00  0.00    -0.146 C  
HETATM    9  O   UNL     1      -8.265  10.015  67.701  1.00  0.00    -0.113 OA 
HETATM   10  N   UNL     1      -8.491  11.947  68.895  1.00  0.00    -0.368 N  
HETATM   11  H   UNL     1      -8.804  12.390  69.759  1.00  0.00     0.000 HD 
BRANCH  10  12
HETATM   12  C   UNL     1      -7.936  12.749  67.822  1.00  0.00    -0.157 C  
BRANCH  12  13
HETATM   13  C   UNL     1      -8.813  13.961  67.467  1.00  0.00    -0.196 C  
BRANCH  13  14
HETATM   14  N   UNL     1      -9.462  13.888  66.138  1.00  0.00    -0.221 NA 
HETATM   15  C   UNL     1     -10.072  12.563  65.861  1.00  0.00    -0.254 C  
HETATM   16  C   UNL     1     -11.315  12.256  66.713  1.00  0.00    -0.339 C  
HETATM   17  O   UNL     1     -12.318  13.270  66.558  1.00  0.00    -0.358 OA 
HETATM   18  C   UNL     1     -11.795  14.565  66.879  1.00  0.00    -0.377 C  
HETATM   19  C   UNL     1     -10.549  14.896  66.033  1.00  0.00    -0.315 C  
ENDBRANCH  13  14
ENDBRANCH  12  13
ENDBRANCH  10  12
ENDBRANCH   5   8
TORSDOF 4
ENDMDL
MODEL      120
REMARK 921   NORMALIZED FREE ENERGY PREDICTED BY IDOCK:   -3.94 KCAL/MOL
REMARK 922        TOTAL FREE ENERGY PREDICTED BY IDOCK:   -5.25 KCAL/MOL
REMARK 923 INTER-LIGAND FREE ENERGY PREDICTED BY IDOCK:   -4.91 KCAL/MOL
REMARK 924 INTRA-LIGAND FREE ENERGY PREDICTED BY IDOCK:   -0.34 KCAL/MOL
REMARK 927      BINDING AFFINITY PREDICTED BY RF-SCORE:    0.00 PKD
ROOT
HETATM    1 CL   UNL     1     -13.380  13.285  72.599  1.00  0.00    -0.559 Cl 
HETATM    2  C   UNL     1     -12.754  13.339  70.999  1.00  0.00    -0.293 A  
HETATM    3  C   UNL     1     -12.488  12.155  70.318  1.00  0.00    -0.164 A  
HETATM    4  C   UNL     1     -11.982  12.205  69.018  1.00  0.00    -0.302 A  
HETATM    5  C   UNL     1     -11.735  13.436  68.386  1.00  0.00    -0.390 A  
HETATM    6  C   UNL     1     -12.010  14.622  69.084  1.00  0.00    -0.329 A  
HETATM    7  C   UNL     1     -12.516  14.571  70.387  1.00  0.00    -0.407 A  
ENDROOT
BRANCH   5   8
HETATM    8  C   UNL     1     -11.223  13.404  66.984  1.00  0.00    -0.305 C  
HETATM    9  O   UNL     1     -10.718  14.413  66.498  1.00  0.00    -0.298 OA 
HETATM   10  N   UNL     1     -11.341  12.230  66.271  1.00  0.00    -0.327 N  
HETATM   11  H   UNL     1     -11.733  11.398  66.714  1.00  0.00     0.000 HD 
BRANCH  10  12
HETATM   12  C   UNL     1     -10.904  12.182  64.889  1.00  0.00    -0.308 C  
BRANCH  12  13
HETATM   13  C   UNL     1      -9.540  11.495  64.716  1.00  0.00    -0.174 C  
BRANCH  13  14
HETATM   14  N   UNL     1      -9.605  10.030  64.511  1.00  0.00    -0.303 NA 
HETATM   15  C   UNL     1      -8.633   9.542  63.500  1.00  0.00    -0.213 C  
HETATM   16  C   UNL     1      -7.165   9.619  63.955  1.00  0.00    -0.118 C  
HETATM   17  O   UNL     1      -6.961   8.904  65.181  1.00  0.00    -0.078 OA 
HETATM   18  C   UNL     1      -7.833   9.385  66.211  1.00  0.00    -0.100 C  
HETATM   19  C   UNL     1      -9.311   9.312  65.778  1.00  0.00    -0.244 C  
ENDBRANCH  13  14
ENDBRANCH  12  13
ENDBRANCH  10  12
ENDBRANCH   5   8
TORSDOF 4
ENDMDL
MODEL      121
REMARK 921   NORMALIZED FREE ENERGY PREDICTED BY IDOCK:   -3.93 KCAL/MOL
REMARK 922        TOTAL FREE ENERGY PREDICTED BY IDOCK:   -5.24 KCAL/MOL
REMARK 923 INTER-LIGAND FREE ENERGY PREDICTED BY IDOCK:   -4.78 KCAL/MOL
REMARK 924 INTRA-LIGAND FREE ENERGY PREDICTED BY IDOCK:   -0.46 KCAL/MOL
REMARK 927      BINDING AFFINITY PREDICTED BY RF-SCORE:    0.00 PKD
ROOT
HETATM    1 CL   UNL     1     -12.161  11.800  69.617  1.00  0.00    -0.344 Cl 
HETATM    2  C   UNL     1     -11.851  10.424  70.598  1.00  0.00    -0.350 A  
HETATM    3  C   UNL     1     -10.573   9.875  70.639  1.00  0.00    -0.341 A  
HETATM    4  C   UNL     1     -10.325   8.759  71.440  1.00  0.00    -0.348 A  
HETATM    5  C   UNL     1     -11.352   8.179  72.207  1.00  0.00    -0.429 A  
HETATM    6  C   UNL     1     -12.635   8.745  72.158  1.00  0.00    -0.463 A  
HETATM    7  C   UNL     1     -12.882   9.863  71.354  1.00  0.00    -0.505 A  
ENDROOT
BRANCH   5   8
HETATM    8  C   UNL     1     -10.999   7.007  73.061  1.00  0.00    -0.292 C  
HETATM    9  O   UNL     1     -10.172   7.137  73.961  1.00  0.00    -0.342 OA 
HETATM   10  N   UNL     1     -11.617   5.801  72.805  1.00  0.00    -0.477 N  
HETATM   11  H   UNL     1     -12.324   5.733  72.073  1.00  0.00     0.000 HD 
BRANCH  10  12
HETATM   12  C   UNL     1     -11.255   4.630  73.580  1.00  0.00    -0.316 C  
BRANCH  12  13
HETATM   13  C   UNL     1     -10.302   3.686  72.829  1.00  0.00    -0.161 C  
BRANCH  13  14
HETATM   14  N   UNL     1      -9.305   3.003  73.683  1.00  0.00    -0.087 NA 
HETATM   15  C   UNL     1      -8.334   2.190  72.907  1.00  0.00    -0.058 C  
HETATM   16  C   UNL     1      -7.349   3.023  72.069  1.00  0.00    -0.047 C  
HETATM   17  O   UNL     1      -6.627   3.955  72.886  1.00  0.00    -0.036 OA 
HETATM   18  C   UNL     1      -7.522   4.809  73.608  1.00  0.00    -0.090 C  
HETATM   19  C   UNL     1      -8.517   3.995  74.459  1.00  0.00    -0.092 C  
ENDBRANCH  13  14
ENDBRANCH  12  13
ENDBRANCH  10  12
ENDBRANCH   5   8
TORSDOF 4
ENDMDL
MODEL      122
REMARK 921   NORMALIZED FREE ENERGY PREDICTED BY IDOCK:   -3.91 KCAL/MOL
REMARK 922        TOTAL FREE ENERGY PREDICTED BY IDOCK:   -5.22 KCAL/MOL
REMARK 923 INTER-LIGAND FREE ENERGY PREDICTED BY IDOCK:   -4.98 KCAL/MOL
REMARK 924 INTRA-LIGAND FREE ENERGY PREDICTED BY IDOCK:   -0.24 KCAL/MOL
REMARK 927      BINDING AFFINITY PREDICTED BY RF-SCORE:    0.00 PKD
ROOT
HETATM    1 CL   UNL     1      -6.340  21.300  67.686  1.00  0.00    -0.420 Cl 
HETATM    2  C   UNL     1      -6.828  19.664  67.490  1.00  0.00    -0.220 A  
HETATM    3  C   UNL     1      -6.402  18.941  66.380  1.00  0.00    -0.214 A  
HETATM    4  C   UNL     1      -6.798  17.612  66.228  1.00  0.00    -0.322 A  
HETATM    5  C   UNL     1      -7.624  16.991  67.181  1.00  0.00    -0.205 A  
HETATM    6  C   UNL     1      -8.044  17.731  68.297  1.00  0.00    -0.283 A  
HETATM    7  C   UNL     1      -7.647  19.063  68.448  1.00  0.00    -0.343 A  
ENDROOT
BRANCH   5   8
HETATM    8  C   UNL     1      -7.978  15.557  66.962  1.00  0.00    -0.233 C  
HETATM    9  O   UNL     1      -7.152  14.682  67.213  1.00  0.00    -0.172 OA 
HETATM   10  N   UNL     1      -9.232  15.260  66.473  1.00  0.00    -0.269 N  
HETATM   11  H   UNL     1      -9.908  16.007  66.307  1.00  0.00     0.000 HD 
BRANCH  10  12
HETATM   12  C   UNL     1      -9.587  13.881  66.197  1.00  0.00    -0.229 C  
BRANCH  12  13
HETATM   13  C   UNL     1     -10.054  13.121  67.448  1.00  0.00    -0.229 C  
BRANCH  13  14
HETATM   14  N   UNL     1     -11.517  12.908  67.535  1.00  0.00    -0.314 NA 
HETATM   15  C   UNL     1     -11.878  11.581  68.094  1.00  0.00    -0.236 C  
HETATM   16  C   UNL     1     -11.560  11.425  69.591  1.00  0.00    -0.330 C  
HETATM   17  O   UNL     1     -12.198  12.448  70.370  1.00  0.00    -0.346 OA 
HETATM   18  C   UNL     1     -11.828  13.753  69.909  1.00  0.00    -0.327 C  
HETATM   19  C   UNL     1     -12.142  13.933  68.410  1.00  0.00    -0.291 C  
ENDBRANCH  13  14
ENDBRANCH  12  13
ENDBRANCH  10  12
ENDBRANCH   5   8
TORSDOF 4
ENDMDL
MODEL      123
REMARK 921   NORMALIZED FREE ENERGY PREDICTED BY IDOCK:   -3.91 KCAL/MOL
REMARK 922        TOTAL FREE ENERGY PREDICTED BY IDOCK:   -5.21 KCAL/MOL
REMARK 923 INTER-LIGAND FREE ENERGY PREDICTED BY IDOCK:   -4.98 KCAL/MOL
REMARK 924 INTRA-LIGAND FREE ENERGY PREDICTED BY IDOCK:   -0.23 KCAL/MOL
REMARK 927      BINDING AFFINITY PREDICTED BY RF-SCORE:    0.00 PKD
ROOT
HETATM    1 CL   UNL     1     -14.026  13.788  72.477  1.00  0.00    -0.624 Cl 
HETATM    2  C   UNL     1     -13.163  12.593  71.594  1.00  0.00    -0.298 A  
HETATM    3  C   UNL     1     -12.364  12.968  70.518  1.00  0.00    -0.365 A  
HETATM    4  C   UNL     1     -11.663  11.994  69.806  1.00  0.00    -0.390 A  
HETATM    5  C   UNL     1     -11.754  10.636  70.159  1.00  0.00    -0.417 A  
HETATM    6  C   UNL     1     -12.562  10.272  71.247  1.00  0.00    -0.522 A  
HETATM    7  C   UNL     1     -13.265  11.249  71.960  1.00  0.00    -0.437 A  
ENDROOT
BRANCH   5   8
HETATM    8  C   UNL     1     -10.949   9.659  69.367  1.00  0.00    -0.190 C  
HETATM    9  O   UNL     1     -10.062  10.066  68.621  1.00  0.00    -0.160 OA 
HETATM   10  N   UNL     1     -11.236   8.317  69.496  1.00  0.00    -0.439 N  
HETATM   11  H   UNL     1     -11.956   8.007  70.150  1.00  0.00     0.000 HD 
BRANCH  10  12
HETATM   12  C   UNL     1     -10.510   7.347  68.699  1.00  0.00    -0.189 C  
BRANCH  12  13
HETATM   13  C   UNL     1      -9.198   6.892  69.359  1.00  0.00    -0.147 C  
BRANCH  13  14
HETATM   14  N   UNL     1      -9.279   5.596  70.070  1.00  0.00    -0.142 NA 
HETATM   15  C   UNL     1      -7.965   5.133  70.584  1.00  0.00    -0.088 C  
HETATM   16  C   UNL     1      -7.417   5.973  71.750  1.00  0.00    -0.095 C  
HETATM   17  O   UNL     1      -8.350   6.025  72.839  1.00  0.00    -0.117 OA 
HETATM   18  C   UNL     1      -9.619   6.530  72.407  1.00  0.00    -0.145 C  
HETATM   19  C   UNL     1     -10.190   5.700  71.240  1.00  0.00    -0.220 C  
ENDBRANCH  13  14
ENDBRANCH  12  13
ENDBRANCH  10  12
ENDBRANCH   5   8
TORSDOF 4
ENDMDL
MODEL      124
REMARK 921   NORMALIZED FREE ENERGY PREDICTED BY IDOCK:   -3.89 KCAL/MOL
REMARK 922        TOTAL FREE ENERGY PREDICTED BY IDOCK:   -5.19 KCAL/MOL
REMARK 923 INTER-LIGAND FREE ENERGY PREDICTED BY IDOCK:   -4.95 KCAL/MOL
REMARK 924 INTRA-LIGAND FREE ENERGY PREDICTED BY IDOCK:   -0.24 KCAL/MOL
REMARK 927      BINDING AFFINITY PREDICTED BY RF-SCORE:    0.00 PKD
ROOT
HETATM    1 CL   UNL     1     -14.149  13.892  72.319  1.00  0.00    -0.632 Cl 
HETATM    2  C   UNL     1     -13.152  12.912  71.320  1.00  0.00    -0.167 A  
HETATM    3  C   UNL     1     -12.490  13.476  70.234  1.00  0.00    -0.309 A  
HETATM    4  C   UNL     1     -11.679  12.676  69.428  1.00  0.00    -0.387 A  
HETATM    5  C   UNL     1     -11.522  11.305  69.697  1.00  0.00    -0.380 A  
HETATM    6  C   UNL     1     -12.193  10.750  70.797  1.00  0.00    -0.480 A  
HETATM    7  C   UNL     1     -13.006  11.552  71.604  1.00  0.00    -0.499 A  
ENDROOT
BRANCH   5   8
HETATM    8  C   UNL     1     -10.612  10.524  68.806  1.00  0.00    -0.207 C  
HETATM    9  O   UNL     1      -9.426  10.835  68.726  1.00  0.00    -0.170 OA 
HETATM   10  N   UNL     1     -11.142   9.472  68.090  1.00  0.00    -0.503 N  
HETATM   11  H   UNL     1     -12.124   9.217  68.204  1.00  0.00     0.000 HD 
BRANCH  10  12
HETATM   12  C   UNL     1     -10.298   8.730  67.174  1.00  0.00    -0.293 C  
BRANCH  12  13
HETATM   13  C   UNL     1      -9.598   7.534  67.840  1.00  0.00    -0.143 C  
BRANCH  13  14
HETATM   14  N   UNL     1     -10.257   6.227  67.616  1.00  0.00    -0.149 NA 
HETATM   15  C   UNL     1      -9.715   5.498  66.442  1.00  0.00    -0.163 C  
HETATM   16  C   UNL     1      -8.282   4.974  66.636  1.00  0.00    -0.108 C  
HETATM   17  O   UNL     1      -8.187   4.130  67.792  1.00  0.00    -0.093 OA 
HETATM   18  C   UNL     1      -8.638   4.813  68.968  1.00  0.00    -0.080 C  
HETATM   19  C   UNL     1     -10.076   5.343  68.797  1.00  0.00    -0.185 C  
ENDBRANCH  13  14
ENDBRANCH  12  13
ENDBRANCH  10  12
ENDBRANCH   5   8
TORSDOF 4
ENDMDL
MODEL      125
REMARK 921   NORMALIZED FREE ENERGY PREDICTED BY IDOCK:   -3.89 KCAL/MOL
REMARK 922        TOTAL FREE ENERGY PREDICTED BY IDOCK:   -5.19 KCAL/MOL
REMARK 923 INTER-LIGAND FREE ENERGY PREDICTED BY IDOCK:   -4.83 KCAL/MOL
REMARK 924 INTRA-LIGAND FREE ENERGY PREDICTED BY IDOCK:   -0.36 KCAL/MOL
REMARK 927      BINDING AFFINITY PREDICTED BY RF-SCORE:    0.00 PKD
ROOT
HETATM    1 CL   UNL     1     -11.320  16.071  68.206  1.00  0.00    -0.350 Cl 
HETATM    2  C   UNL     1     -11.113  14.432  67.731  1.00  0.00    -0.287 A  
HETATM    3  C   UNL     1     -10.020  13.708  68.197  1.00  0.00    -0.246 A  
HETATM    4  C   UNL     1      -9.858  12.376  67.811  1.00  0.00    -0.203 A  
HETATM    5  C   UNL     1     -10.784  11.755  66.955  1.00  0.00    -0.288 A  
HETATM    6  C   UNL     1     -11.883  12.497  66.494  1.00  0.00    -0.434 A  
HETATM    7  C   UNL     1     -12.044  13.831  66.881  1.00  0.00    -0.454 A  
ENDROOT
BRANCH   5   8
HETATM    8  C   UNL     1     -10.557  10.320  66.613  1.00  0.00    -0.162 C  
HETATM    9  O   UNL     1     -10.278  10.007  65.458  1.00  0.00    -0.280 OA 
HETATM   10  N   UNL     1     -10.673   9.382  67.617  1.00  0.00    -0.402 N  
HETATM   11  H   UNL     1     -10.871   9.677  68.574  1.00  0.00     0.000 HD 
BRANCH  10  12
HETATM   12  C   UNL     1     -10.513   7.975  67.306  1.00  0.00    -0.314 C  
BRANCH  12  13
HETATM   13  C   UNL     1      -9.648   7.230  68.335  1.00  0.00    -0.139 C  
BRANCH  13  14
HETATM   14  N   UNL     1     -10.317   6.086  68.997  1.00  0.00    -0.201 NA 
HETATM   15  C   UNL     1      -9.474   5.442  70.036  1.00  0.00    -0.160 C  
HETATM   16  C   UNL     1      -9.257   6.305  71.290  1.00  0.00    -0.152 C  
HETATM   17  O   UNL     1     -10.506   6.692  71.879  1.00  0.00    -0.200 OA 
HETATM   18  C   UNL     1     -11.332   7.379  70.931  1.00  0.00    -0.276 C  
HETATM   19  C   UNL     1     -11.567   6.530  69.666  1.00  0.00    -0.283 C  
ENDBRANCH  13  14
ENDBRANCH  12  13
ENDBRANCH  10  12
ENDBRANCH   5   8
TORSDOF 4
ENDMDL
MODEL      126
REMARK 921   NORMALIZED FREE ENERGY PREDICTED BY IDOCK:   -3.87 KCAL/MOL
REMARK 922        TOTAL FREE ENERGY PREDICTED BY IDOCK:   -5.17 KCAL/MOL
REMARK 923 INTER-LIGAND FREE ENERGY PREDICTED BY IDOCK:   -4.79 KCAL/MOL
REMARK 924 INTRA-LIGAND FREE ENERGY PREDICTED BY IDOCK:   -0.38 KCAL/MOL
REMARK 927      BINDING AFFINITY PREDICTED BY RF-SCORE:    0.00 PKD
ROOT
HETATM    1 CL   UNL     1      -6.110   6.494  63.348  1.00  0.00    -0.030 Cl 
HETATM    2  C   UNL     1      -7.271   7.633  63.904  1.00  0.00    -0.081 A  
HETATM    3  C   UNL     1      -7.724   8.634  63.050  1.00  0.00    -0.126 A  
HETATM    4  C   UNL     1      -8.670   9.554  63.506  1.00  0.00    -0.235 A  
HETATM    5  C   UNL     1      -9.171   9.485  64.818  1.00  0.00    -0.267 A  
HETATM    6  C   UNL     1      -8.707   8.469  65.666  1.00  0.00    -0.213 A  
HETATM    7  C   UNL     1      -7.759   7.547  65.209  1.00  0.00    -0.112 A  
ENDROOT
BRANCH   5   8
HETATM    8  C   UNL     1     -10.203  10.487  65.219  1.00  0.00    -0.282 C  
HETATM    9  O   UNL     1     -10.883  11.037  64.356  1.00  0.00    -0.334 OA 
HETATM   10  N   UNL     1     -10.355  10.769  66.559  1.00  0.00    -0.238 N  
HETATM   11  H   UNL     1      -9.798  10.271  67.255  1.00  0.00     0.000 HD 
BRANCH  10  12
HETATM   12  C   UNL     1     -11.309  11.778  66.977  1.00  0.00    -0.321 C  
BRANCH  12  13
HETATM   13  C   UNL     1     -10.699  13.188  67.043  1.00  0.00    -0.262 C  
BRANCH  13  14
HETATM   14  N   UNL     1     -11.685  14.292  67.018  1.00  0.00    -0.386 NA 
HETATM   15  C   UNL     1     -11.054  15.631  66.895  1.00  0.00    -0.181 C  
HETATM   16  C   UNL     1     -10.414  15.897  65.522  1.00  0.00    -0.404 C  
HETATM   17  O   UNL     1     -11.367  15.733  64.462  1.00  0.00    -0.432 OA 
HETATM   18  C   UNL     1     -11.957  14.428  64.498  1.00  0.00    -0.472 C  
HETATM   19  C   UNL     1     -12.609  14.140  65.865  1.00  0.00    -0.417 C  
ENDBRANCH  13  14
ENDBRANCH  12  13
ENDBRANCH  10  12
ENDBRANCH   5   8
TORSDOF 4
ENDMDL
MODEL      127
REMARK 921   NORMALIZED FREE ENERGY PREDICTED BY IDOCK:   -3.86 KCAL/MOL
REMARK 922        TOTAL FREE ENERGY PREDICTED BY IDOCK:   -5.15 KCAL/MOL
REMARK 923 INTER-LIGAND FREE ENERGY PREDICTED BY IDOCK:   -4.88 KCAL/MOL
REMARK 924 INTRA-LIGAND FREE ENERGY PREDICTED BY IDOCK:   -0.27 KCAL/MOL
REMARK 927      BINDING AFFINITY PREDICTED BY RF-SCORE:    0.00 PKD
ROOT
HETATM    1 CL   UNL     1     -12.765  15.759  71.138  1.00  0.00    -0.522 Cl 
HETATM    2  C   UNL     1     -12.283  14.549  70.017  1.00  0.00    -0.342 A  
HETATM    3  C   UNL     1     -12.027  14.892  68.693  1.00  0.00    -0.276 A  
HETATM    4  C   UNL     1     -11.633  13.906  67.788  1.00  0.00    -0.381 A  
HETATM    5  C   UNL     1     -11.493  12.567  68.194  1.00  0.00    -0.368 A  
HETATM    6  C   UNL     1     -11.753  12.236  69.532  1.00  0.00    -0.398 A  
HETATM    7  C   UNL     1     -12.148  13.224  70.439  1.00  0.00    -0.401 A  
ENDROOT
BRANCH   5   8
HETATM    8  C   UNL     1     -11.038  11.578  67.172  1.00  0.00    -0.297 C  
HETATM    9  O   UNL     1     -11.668  11.453  66.125  1.00  0.00    -0.266 OA 
HETATM   10  N   UNL     1      -9.916  10.825  67.445  1.00  0.00    -0.180 N  
HETATM   11  H   UNL     1      -9.395  10.976  68.309  1.00  0.00     0.000 HD 
BRANCH  10  12
HETATM   12  C   UNL     1      -9.481   9.817  66.498  1.00  0.00    -0.177 C  
BRANCH  12  13
HETATM   13  C   UNL     1      -9.465   8.401  67.096  1.00  0.00    -0.163 C  
BRANCH  13  14
HETATM   14  N   UNL     1     -10.773   7.927  67.603  1.00  0.00    -0.191 NA 
HETATM   15  C   UNL     1     -11.007   6.483  67.344  1.00  0.00    -0.378 C  
HETATM   16  C   UNL     1     -10.114   5.545  68.174  1.00  0.00    -0.172 C  
HETATM   17  O   UNL     1     -10.259   5.795  69.580  1.00  0.00    -0.195 OA 
HETATM   18  C   UNL     1      -9.978   7.165  69.891  1.00  0.00    -0.182 C  
HETATM   19  C   UNL     1     -10.865   8.124  69.073  1.00  0.00     0.010 C  
ENDBRANCH  13  14
ENDBRANCH  12  13
ENDBRANCH  10  12
ENDBRANCH   5   8
TORSDOF 4
ENDMDL
MODEL      128
REMARK 921   NORMALIZED FREE ENERGY PREDICTED BY IDOCK:   -3.82 KCAL/MOL
REMARK 922        TOTAL FREE ENERGY PREDICTED BY IDOCK:   -5.11 KCAL/MOL
REMARK 923 INTER-LIGAND FREE ENERGY PREDICTED BY IDOCK:   -4.76 KCAL/MOL
REMARK 924 INTRA-LIGAND FREE ENERGY PREDICTED BY IDOCK:   -0.35 KCAL/MOL
REMARK 927      BINDING AFFINITY PREDICTED BY RF-SCORE:    0.00 PKD
ROOT
HETATM    1 CL   UNL     1      -8.299   7.333  69.694  1.00  0.00    -0.131 Cl 
HETATM    2  C   UNL     1      -9.179   8.729  69.213  1.00  0.00    -0.149 A  
HETATM    3  C   UNL     1      -8.600   9.649  68.345  1.00  0.00    -0.119 A  
HETATM    4  C   UNL     1      -9.320  10.779  67.955  1.00  0.00    -0.152 A  
HETATM    5  C   UNL     1     -10.624  11.003  68.430  1.00  0.00    -0.224 A  
HETATM    6  C   UNL     1     -11.196  10.066  69.304  1.00  0.00    -0.213 A  
HETATM    7  C   UNL     1     -10.474   8.934  69.694  1.00  0.00    -0.218 A  
ENDROOT
BRANCH   5   8
HETATM    8  C   UNL     1     -11.339  12.220  67.943  1.00  0.00    -0.298 C  
HETATM    9  O   UNL     1     -12.020  12.156  66.922  1.00  0.00    -0.603 OA 
HETATM   10  N   UNL     1     -11.204  13.390  68.660  1.00  0.00    -0.254 N  
HETATM   11  H   UNL     1     -10.660  13.402  69.523  1.00  0.00     0.000 HD 
BRANCH  10  12
HETATM   12  C   UNL     1     -11.840  14.602  68.182  1.00  0.00    -0.298 C  
BRANCH  12  13
HETATM   13  C   UNL     1     -10.832  15.706  67.824  1.00  0.00    -0.307 C  
BRANCH  13  14
HETATM   14  N   UNL     1     -10.305  15.640  66.442  1.00  0.00    -0.286 NA 
HETATM   15  C   UNL     1     -10.850  16.704  65.561  1.00  0.00    -0.163 C  
HETATM   16  C   UNL     1     -10.349  18.118  65.904  1.00  0.00    -0.277 C  
HETATM   17  O   UNL     1      -8.916  18.183  65.881  1.00  0.00    -0.503 OA 
HETATM   18  C   UNL     1      -8.341  17.216  66.767  1.00  0.00    -0.234 C  
HETATM   19  C   UNL     1      -8.827  15.790  66.439  1.00  0.00    -0.336 C  
ENDBRANCH  13  14
ENDBRANCH  12  13
ENDBRANCH  10  12
ENDBRANCH   5   8
TORSDOF 4
ENDMDL
MODEL      129
REMARK 921   NORMALIZED FREE ENERGY PREDICTED BY IDOCK:   -3.82 KCAL/MOL
REMARK 922        TOTAL FREE ENERGY PREDICTED BY IDOCK:   -5.10 KCAL/MOL
REMARK 923 INTER-LIGAND FREE ENERGY PREDICTED BY IDOCK:   -4.71 KCAL/MOL
REMARK 924 INTRA-LIGAND FREE ENERGY PREDICTED BY IDOCK:   -0.39 KCAL/MOL
REMARK 927      BINDING AFFINITY PREDICTED BY RF-SCORE:    0.00 PKD
ROOT
HETATM    1 CL   UNL     1     -11.048  14.291  64.767  1.00  0.00    -0.389 Cl 
HETATM    2  C   UNL     1     -10.875  12.721  65.446  1.00  0.00    -0.286 A  
HETATM    3  C   UNL     1     -11.447  12.433  66.681  1.00  0.00    -0.429 A  
HETATM    4  C   UNL     1     -11.308  11.156  67.226  1.00  0.00    -0.302 A  
HETATM    5  C   UNL     1     -10.594  10.154  66.544  1.00  0.00    -0.179 A  
HETATM    6  C   UNL     1     -10.024  10.458  65.299  1.00  0.00    -0.376 A  
HETATM    7  C   UNL     1     -10.164  11.739  64.754  1.00  0.00    -0.324 A  
ENDROOT
BRANCH   5   8
HETATM    8  C   UNL     1     -10.515   8.806  67.180  1.00  0.00    -0.283 C  
HETATM    9  O   UNL     1     -10.147   7.841  66.514  1.00  0.00    -0.233 OA 
HETATM   10  N   UNL     1     -10.869   8.687  68.507  1.00  0.00    -0.441 N  
HETATM   11  H   UNL     1     -11.137   9.513  69.042  1.00  0.00     0.000 HD 
BRANCH  10  12
HETATM   12  C   UNL     1     -10.857   7.381  69.139  1.00  0.00    -0.111 C  
BRANCH  12  13
HETATM   13  C   UNL     1      -9.874   7.295  70.317  1.00  0.00    -0.179 C  
BRANCH  13  14
HETATM   14  N   UNL     1      -9.580   8.589  70.975  1.00  0.00    -0.178 NA 
HETATM   15  C   UNL     1     -10.182   8.702  72.328  1.00  0.00    -0.301 C  
HETATM   16  C   UNL     1      -9.533   7.786  73.380  1.00  0.00    -0.287 C  
HETATM   17  O   UNL     1      -8.121   8.021  73.478  1.00  0.00    -0.164 OA 
HETATM   18  C   UNL     1      -7.483   7.858  72.205  1.00  0.00    -0.090 C  
HETATM   19  C   UNL     1      -8.115   8.771  71.136  1.00  0.00    -0.157 C  
ENDBRANCH  13  14
ENDBRANCH  12  13
ENDBRANCH  10  12
ENDBRANCH   5   8
TORSDOF 4
ENDMDL
MODEL      130
REMARK 921   NORMALIZED FREE ENERGY PREDICTED BY IDOCK:   -3.81 KCAL/MOL
REMARK 922        TOTAL FREE ENERGY PREDICTED BY IDOCK:   -5.10 KCAL/MOL
REMARK 923 INTER-LIGAND FREE ENERGY PREDICTED BY IDOCK:   -4.84 KCAL/MOL
REMARK 924 INTRA-LIGAND FREE ENERGY PREDICTED BY IDOCK:   -0.25 KCAL/MOL
REMARK 927      BINDING AFFINITY PREDICTED BY RF-SCORE:    0.00 PKD
ROOT
HETATM    1 CL   UNL     1     -10.187  19.793  65.836  1.00  0.00    -0.569 Cl 
HETATM    2  C   UNL     1     -10.363  18.207  66.474  1.00  0.00    -0.386 A  
HETATM    3  C   UNL     1     -10.192  17.103  65.644  1.00  0.00    -0.162 A  
HETATM    4  C   UNL     1     -10.332  15.817  66.168  1.00  0.00    -0.333 A  
HETATM    5  C   UNL     1     -10.647  15.621  67.525  1.00  0.00    -0.297 A  
HETATM    6  C   UNL     1     -10.815  16.743  68.350  1.00  0.00    -0.355 A  
HETATM    7  C   UNL     1     -10.675  18.031  67.824  1.00  0.00    -0.350 A  
ENDROOT
BRANCH   5   8
HETATM    8  C   UNL     1     -10.750  14.214  68.015  1.00  0.00    -0.242 C  
HETATM    9  O   UNL     1     -11.632  13.913  68.815  1.00  0.00    -0.287 OA 
HETATM   10  N   UNL     1      -9.838  13.291  67.550  1.00  0.00    -0.216 N  
HETATM   11  H   UNL     1      -9.138  13.565  66.859  1.00  0.00     0.000 HD 
BRANCH  10  12
HETATM   12  C   UNL     1      -9.876  11.930  68.049  1.00  0.00    -0.190 C  
BRANCH  12  13
HETATM   13  C   UNL     1      -9.211  10.924  67.096  1.00  0.00    -0.148 C  
BRANCH  13  14
HETATM   14  N   UNL     1     -10.154  10.127  66.279  1.00  0.00    -0.237 NA 
HETATM   15  C   UNL     1      -9.820  10.136  64.832  1.00  0.00    -0.319 C  
HETATM   16  C   UNL     1      -8.539   9.360  64.480  1.00  0.00    -0.198 C  
HETATM   17  O   UNL     1      -8.612   8.001  64.932  1.00  0.00    -0.099 OA 
HETATM   18  C   UNL     1      -8.868   7.939  66.341  1.00  0.00    -0.158 C  
HETATM   19  C   UNL     1     -10.151   8.707  66.716  1.00  0.00    -0.296 C  
ENDBRANCH  13  14
ENDBRANCH  12  13
ENDBRANCH  10  12
ENDBRANCH   5   8
TORSDOF 4
ENDMDL
MODEL      131
REMARK 921   NORMALIZED FREE ENERGY PREDICTED BY IDOCK:   -3.77 KCAL/MOL
REMARK 922        TOTAL FREE ENERGY PREDICTED BY IDOCK:   -5.05 KCAL/MOL
REMARK 923 INTER-LIGAND FREE ENERGY PREDICTED BY IDOCK:   -4.83 KCAL/MOL
REMARK 924 INTRA-LIGAND FREE ENERGY PREDICTED BY IDOCK:   -0.22 KCAL/MOL
REMARK 927      BINDING AFFINITY PREDICTED BY RF-SCORE:    0.00 PKD
ROOT
HETATM    1 CL   UNL     1      -7.721   6.118  65.443  1.00  0.00    -0.087 Cl 
HETATM    2  C   UNL     1      -8.708   7.384  66.058  1.00  0.00    -0.153 A  
HETATM    3  C   UNL     1      -9.899   7.080  66.710  1.00  0.00    -0.250 A  
HETATM    4  C   UNL     1     -10.695   8.112  67.210  1.00  0.00    -0.263 A  
HETATM    5  C   UNL     1     -10.312   9.457  67.061  1.00  0.00    -0.322 A  
HETATM    6  C   UNL     1      -9.108   9.748  66.403  1.00  0.00    -0.187 A  
HETATM    7  C   UNL     1      -8.311   8.714  65.902  1.00  0.00    -0.140 A  
ENDROOT
BRANCH   5   8
HETATM    8  C   UNL     1     -11.203  10.499  67.651  1.00  0.00    -0.265 C  
HETATM    9  O   UNL     1     -11.689  11.364  66.926  1.00  0.00    -0.507 OA 
HETATM   10  N   UNL     1     -11.450  10.459  69.007  1.00  0.00    -0.423 N  
HETATM   11  H   UNL     1     -11.059   9.708  69.577  1.00  0.00     0.000 HD 
BRANCH  10  12
HETATM   12  C   UNL     1     -12.266  11.490  69.619  1.00  0.00    -0.229 C  
BRANCH  12  13
HETATM   13  C   UNL     1     -11.527  12.830  69.764  1.00  0.00    -0.129 C  
BRANCH  13  14
HETATM   14  N   UNL     1     -12.294  14.013  69.312  1.00  0.00    -0.267 NA 
HETATM   15  C   UNL     1     -12.778  14.855  70.435  1.00  0.00    -0.321 C  
HETATM   16  C   UNL     1     -11.662  15.608  71.180  1.00  0.00    -0.413 C  
HETATM   17  O   UNL     1     -10.896  16.424  70.283  1.00  0.00    -0.309 OA 
HETATM   18  C   UNL     1     -10.350  15.643  69.214  1.00  0.00    -0.250 C  
HETATM   19  C   UNL     1     -11.452  14.883  68.450  1.00  0.00    -0.318 C  
ENDBRANCH  13  14
ENDBRANCH  12  13
ENDBRANCH  10  12
ENDBRANCH   5   8
TORSDOF 4
ENDMDL
MODEL      132
REMARK 921   NORMALIZED FREE ENERGY PREDICTED BY IDOCK:   -3.75 KCAL/MOL
REMARK 922        TOTAL FREE ENERGY PREDICTED BY IDOCK:   -5.02 KCAL/MOL
REMARK 923 INTER-LIGAND FREE ENERGY PREDICTED BY IDOCK:   -4.75 KCAL/MOL
REMARK 924 INTRA-LIGAND FREE ENERGY PREDICTED BY IDOCK:   -0.26 KCAL/MOL
REMARK 927      BINDING AFFINITY PREDICTED BY RF-SCORE:    0.00 PKD
ROOT
HETATM    1 CL   UNL     1      -5.606  20.804  69.614  1.00  0.00    -0.405 Cl 
HETATM    2  C   UNL     1      -6.622  19.556  69.010  1.00  0.00    -0.320 A  
HETATM    3  C   UNL     1      -7.632  19.863  68.103  1.00  0.00    -0.316 A  
HETATM    4  C   UNL     1      -8.452  18.845  67.612  1.00  0.00    -0.304 A  
HETATM    5  C   UNL     1      -8.273  17.513  68.024  1.00  0.00    -0.239 A  
HETATM    6  C   UNL     1      -7.250  17.218  68.937  1.00  0.00    -0.243 A  
HETATM    7  C   UNL     1      -6.429  18.238  69.429  1.00  0.00    -0.239 A  
ENDROOT
BRANCH   5   8
HETATM    8  C   UNL     1      -9.172  16.479  67.430  1.00  0.00    -0.216 C  
HETATM    9  O   UNL     1      -9.191  16.317  66.212  1.00  0.00    -0.276 OA 
HETATM   10  N   UNL     1      -9.963  15.734  68.279  1.00  0.00    -0.219 N  
HETATM   11  H   UNL     1      -9.900  15.868  69.288  1.00  0.00     0.000 HD 
BRANCH  10  12
HETATM   12  C   UNL     1     -10.887  14.761  67.729  1.00  0.00    -0.278 C  
BRANCH  12  13
HETATM   13  C   UNL     1     -10.460  13.310  68.002  1.00  0.00    -0.242 C  
BRANCH  13  14
HETATM   14  N   UNL     1     -11.372  12.281  67.452  1.00  0.00    -0.303 NA 
HETATM   15  C   UNL     1     -11.018  11.872  66.069  1.00  0.00    -0.309 C  
HETATM   16  C   UNL     1      -9.713  11.063  65.970  1.00  0.00    -0.224 C  
HETATM   17  O   UNL     1      -9.758   9.896  66.803  1.00  0.00    -0.174 OA 
HETATM   18  C   UNL     1     -10.033  10.245  68.165  1.00  0.00    -0.146 C  
HETATM   19  C   UNL     1     -11.339  11.054  68.289  1.00  0.00    -0.299 C  
ENDBRANCH  13  14
ENDBRANCH  12  13
ENDBRANCH  10  12
ENDBRANCH   5   8
TORSDOF 4
ENDMDL
MODEL      133
REMARK 921   NORMALIZED FREE ENERGY PREDICTED BY IDOCK:   -3.74 KCAL/MOL
REMARK 922        TOTAL FREE ENERGY PREDICTED BY IDOCK:   -5.01 KCAL/MOL
REMARK 923 INTER-LIGAND FREE ENERGY PREDICTED BY IDOCK:   -4.93 KCAL/MOL
REMARK 924 INTRA-LIGAND FREE ENERGY PREDICTED BY IDOCK:   -0.08 KCAL/MOL
REMARK 927      BINDING AFFINITY PREDICTED BY RF-SCORE:    0.00 PKD
ROOT
HETATM    1 CL   UNL     1     -10.646  19.940  67.213  1.00  0.00    -0.547 Cl 
HETATM    2  C   UNL     1      -9.821  18.433  67.249  1.00  0.00    -0.317 A  
HETATM    3  C   UNL     1      -8.914  18.164  68.269  1.00  0.00    -0.306 A  
HETATM    4  C   UNL     1      -8.249  16.937  68.296  1.00  0.00    -0.222 A  
HETATM    5  C   UNL     1      -8.482  15.968  67.304  1.00  0.00    -0.206 A  
HETATM    6  C   UNL     1      -9.401  16.252  66.283  1.00  0.00    -0.360 A  
HETATM    7  C   UNL     1     -10.066  17.482  66.257  1.00  0.00    -0.341 A  
ENDROOT
BRANCH   5   8
HETATM    8  C   UNL     1      -7.754  14.669  67.421  1.00  0.00    -0.201 C  
HETATM    9  O   UNL     1      -6.534  14.667  67.564  1.00  0.00    -0.258 OA 
HETATM   10  N   UNL     1      -8.485  13.502  67.359  1.00  0.00    -0.190 N  
HETATM   11  H   UNL     1      -9.501  13.537  67.274  1.00  0.00     0.000 HD 
BRANCH  10  12
HETATM   12  C   UNL     1      -7.802  12.224  67.413  1.00  0.00    -0.171 C  
BRANCH  12  13
HETATM   13  C   UNL     1      -8.328  11.311  68.533  1.00  0.00    -0.155 C  
BRANCH  13  14
HETATM   14  N   UNL     1      -9.112  10.145  68.066  1.00  0.00    -0.131 NA 
HETATM   15  C   UNL     1     -10.026   9.607  69.105  1.00  0.00    -0.185 C  
HETATM   16  C   UNL     1     -11.210  10.530  69.437  1.00  0.00    -0.269 C  
HETATM   17  O   UNL     1     -11.974  10.842  68.263  1.00  0.00    -0.561 OA 
HETATM   18  C   UNL     1     -11.146  11.428  67.250  1.00  0.00    -0.303 C  
HETATM   19  C   UNL     1      -9.953  10.517  66.899  1.00  0.00    -0.200 C  
ENDBRANCH  13  14
ENDBRANCH  12  13
ENDBRANCH  10  12
ENDBRANCH   5   8
TORSDOF 4
ENDMDL
MODEL      134
REMARK 921   NORMALIZED FREE ENERGY PREDICTED BY IDOCK:   -3.71 KCAL/MOL
REMARK 922        TOTAL FREE ENERGY PREDICTED BY IDOCK:   -4.97 KCAL/MOL
REMARK 923 INTER-LIGAND FREE ENERGY PREDICTED BY IDOCK:   -4.62 KCAL/MOL
REMARK 924 INTRA-LIGAND FREE ENERGY PREDICTED BY IDOCK:   -0.35 KCAL/MOL
REMARK 927      BINDING AFFINITY PREDICTED BY RF-SCORE:    0.00 PKD
ROOT
HETATM    1 CL   UNL     1     -10.095   4.361  68.951  1.00  0.00    -0.083 Cl 
HETATM    2  C   UNL     1     -10.490   5.959  69.444  1.00  0.00    -0.275 A  
HETATM    3  C   UNL     1      -9.959   7.047  68.758  1.00  0.00    -0.160 A  
HETATM    4  C   UNL     1     -10.286   8.343  69.160  1.00  0.00    -0.217 A  
HETATM    5  C   UNL     1     -11.144   8.566  70.252  1.00  0.00    -0.222 A  
HETATM    6  C   UNL     1     -11.674   7.459  70.932  1.00  0.00    -0.325 A  
HETATM    7  C   UNL     1     -11.346   6.161  70.529  1.00  0.00    -0.381 A  
ENDROOT
BRANCH   5   8
HETATM    8  C   UNL     1     -11.468   9.981  70.600  1.00  0.00    -0.345 C  
HETATM    9  O   UNL     1     -11.957  10.240  71.697  1.00  0.00    -0.332 OA 
HETATM   10  N   UNL     1     -11.211  10.960  69.664  1.00  0.00    -0.262 N  
HETATM   11  H   UNL     1     -10.773  10.717  68.775  1.00  0.00     0.000 HD 
BRANCH  10  12
HETATM   12  C   UNL     1     -11.566  12.337  69.950  1.00  0.00    -0.203 C  
BRANCH  12  13
HETATM   13  C   UNL     1     -12.078  13.092  68.712  1.00  0.00    -0.162 C  
BRANCH  13  14
HETATM   14  N   UNL     1     -11.238  14.238  68.294  1.00  0.00    -0.264 NA 
HETATM   15  C   UNL     1      -9.796  13.897  68.197  1.00  0.00    -0.240 C  
HETATM   16  C   UNL     1      -9.453  12.955  67.031  1.00  0.00    -0.235 C  
HETATM   17  O   UNL     1      -9.887  13.499  65.776  1.00  0.00    -0.268 OA 
HETATM   18  C   UNL     1     -11.291  13.785  65.796  1.00  0.00    -0.304 C  
HETATM   19  C   UNL     1     -11.658  14.731  66.957  1.00  0.00    -0.339 C  
ENDBRANCH  13  14
ENDBRANCH  12  13
ENDBRANCH  10  12
ENDBRANCH   5   8
TORSDOF 4
ENDMDL
MODEL      135
REMARK 921   NORMALIZED FREE ENERGY PREDICTED BY IDOCK:   -3.70 KCAL/MOL
REMARK 922        TOTAL FREE ENERGY PREDICTED BY IDOCK:   -4.96 KCAL/MOL
REMARK 923 INTER-LIGAND FREE ENERGY PREDICTED BY IDOCK:   -4.58 KCAL/MOL
REMARK 924 INTRA-LIGAND FREE ENERGY PREDICTED BY IDOCK:   -0.38 KCAL/MOL
REMARK 927      BINDING AFFINITY PREDICTED BY RF-SCORE:    0.00 PKD
ROOT
HETATM    1 CL   UNL     1     -13.822  13.200  72.142  1.00  0.00    -0.554 Cl 
HETATM    2  C   UNL     1     -12.969  11.880  71.447  1.00  0.00    -0.284 A  
HETATM    3  C   UNL     1     -12.063  12.106  70.416  1.00  0.00    -0.395 A  
HETATM    4  C   UNL     1     -11.370  11.031  69.857  1.00  0.00    -0.364 A  
HETATM    5  C   UNL     1     -11.576   9.720  70.320  1.00  0.00    -0.283 A  
HETATM    6  C   UNL     1     -12.491   9.507  71.362  1.00  0.00    -0.450 A  
HETATM    7  C   UNL     1     -13.185  10.584  71.921  1.00  0.00    -0.526 A  
ENDROOT
BRANCH   5   8
HETATM    8  C   UNL     1     -10.774   8.629  69.691  1.00  0.00    -0.200 C  
HETATM    9  O   UNL     1     -11.019   7.457  69.968  1.00  0.00    -0.257 OA 
HETATM   10  N   UNL     1      -9.769   8.978  68.815  1.00  0.00    -0.157 N  
HETATM   11  H   UNL     1      -9.612   9.958  68.579  1.00  0.00     0.000 HD 
BRANCH  10  12
HETATM   12  C   UNL     1      -8.936   7.945  68.230  1.00  0.00    -0.132 C  
BRANCH  12  13
HETATM   13  C   UNL     1      -9.077   7.856  66.702  1.00  0.00    -0.163 C  
BRANCH  13  14
HETATM   14  N   UNL     1      -7.817   8.052  65.950  1.00  0.00    -0.095 NA 
HETATM   15  C   UNL     1      -8.020   8.099  64.479  1.00  0.00    -0.142 C  
HETATM   16  C   UNL     1      -8.751   9.360  63.988  1.00  0.00    -0.200 C  
HETATM   17  O   UNL     1      -8.069  10.553  64.401  1.00  0.00    -0.138 OA 
HETATM   18  C   UNL     1      -7.907  10.587  65.824  1.00  0.00    -0.154 C  
HETATM   19  C   UNL     1      -7.173   9.333  66.339  1.00  0.00    -0.088 C  
ENDBRANCH  13  14
ENDBRANCH  12  13
ENDBRANCH  10  12
ENDBRANCH   5   8
TORSDOF 4
ENDMDL
MODEL      136
REMARK 921   NORMALIZED FREE ENERGY PREDICTED BY IDOCK:   -3.67 KCAL/MOL
REMARK 922        TOTAL FREE ENERGY PREDICTED BY IDOCK:   -4.92 KCAL/MOL
REMARK 923 INTER-LIGAND FREE ENERGY PREDICTED BY IDOCK:   -4.55 KCAL/MOL
REMARK 924 INTRA-LIGAND FREE ENERGY PREDICTED BY IDOCK:   -0.37 KCAL/MOL
REMARK 927      BINDING AFFINITY PREDICTED BY RF-SCORE:    0.00 PKD
ROOT
HETATM    1 CL   UNL     1     -12.573  11.049  71.528  1.00  0.00    -0.481 Cl 
HETATM    2  C   UNL     1     -12.005  11.417  69.948  1.00  0.00    -0.359 A  
HETATM    3  C   UNL     1     -11.529  10.399  69.128  1.00  0.00    -0.261 A  
HETATM    4  C   UNL     1     -11.072  10.702  67.844  1.00  0.00    -0.371 A  
HETATM    5  C   UNL     1     -11.083  12.026  67.368  1.00  0.00    -0.337 A  
HETATM    6  C   UNL     1     -11.567  13.042  68.206  1.00  0.00    -0.375 A  
HETATM    7  C   UNL     1     -12.025  12.737  69.492  1.00  0.00    -0.338 A  
ENDROOT
BRANCH   5   8
HETATM    8  C   UNL     1     -10.606  12.263  65.974  1.00  0.00    -0.254 C  
HETATM    9  O   UNL     1     -10.220  13.383  65.646  1.00  0.00    -0.285 OA 
HETATM   10  N   UNL     1     -10.619  11.206  65.089  1.00  0.00    -0.275 N  
HETATM   11  H   UNL     1     -10.912  10.280  65.401  1.00  0.00     0.000 HD 
BRANCH  10  12
HETATM   12  C   UNL     1     -10.215  11.418  63.712  1.00  0.00    -0.382 C  
BRANCH  12  13
HETATM   13  C   UNL     1      -8.957  10.621  63.329  1.00  0.00    -0.224 C  
BRANCH  13  14
HETATM   14  N   UNL     1      -8.254   9.988  64.467  1.00  0.00    -0.157 NA 
HETATM   15  C   UNL     1      -8.427   8.514  64.509  1.00  0.00    -0.090 C  
HETATM   16  C   UNL     1      -7.701   7.765  63.378  1.00  0.00    -0.135 C  
HETATM   17  O   UNL     1      -6.299   8.068  63.368  1.00  0.00    -0.070 OA 
HETATM   18  C   UNL     1      -6.078   9.480  63.261  1.00  0.00    -0.094 C  
HETATM   19  C   UNL     1      -6.793  10.250  64.388  1.00  0.00    -0.059 C  
ENDBRANCH  13  14
ENDBRANCH  12  13
ENDBRANCH  10  12
ENDBRANCH   5   8
TORSDOF 4
ENDMDL
MODEL      137
REMARK 921   NORMALIZED FREE ENERGY PREDICTED BY IDOCK:   -3.67 KCAL/MOL
REMARK 922        TOTAL FREE ENERGY PREDICTED BY IDOCK:   -4.92 KCAL/MOL
REMARK 923 INTER-LIGAND FREE ENERGY PREDICTED BY IDOCK:   -4.56 KCAL/MOL
REMARK 924 INTRA-LIGAND FREE ENERGY PREDICTED BY IDOCK:   -0.36 KCAL/MOL
REMARK 927      BINDING AFFINITY PREDICTED BY RF-SCORE:    0.00 PKD
ROOT
HETATM    1 CL   UNL     1     -13.375  16.545  73.830  1.00  0.00    -0.056 Cl 
HETATM    2  C   UNL     1     -12.870  15.432  72.622  1.00  0.00    -0.402 A  
HETATM    3  C   UNL     1     -11.890  15.801  71.705  1.00  0.00    -0.539 A  
HETATM    4  C   UNL     1     -11.481  14.892  70.728  1.00  0.00    -0.313 A  
HETATM    5  C   UNL     1     -12.047  13.607  70.655  1.00  0.00    -0.398 A  
HETATM    6  C   UNL     1     -13.032  13.248  71.587  1.00  0.00    -0.441 A  
HETATM    7  C   UNL     1     -13.442  14.160  72.566  1.00  0.00    -0.634 A  
ENDROOT
BRANCH   5   8
HETATM    8  C   UNL     1     -11.534  12.683  69.601  1.00  0.00    -0.182 C  
HETATM    9  O   UNL     1     -11.938  11.524  69.559  1.00  0.00    -0.312 OA 
HETATM   10  N   UNL     1     -10.607  13.167  68.702  1.00  0.00    -0.278 N  
HETATM   11  H   UNL     1     -10.316  14.144  68.741  1.00  0.00     0.000 HD 
BRANCH  10  12
HETATM   12  C   UNL     1     -10.047  12.280  67.701  1.00  0.00    -0.200 C  
BRANCH  12  13
HETATM   13  C   UNL     1      -8.677  11.712  68.104  1.00  0.00    -0.159 C  
BRANCH  13  14
HETATM   14  N   UNL     1      -7.522  12.327  67.410  1.00  0.00    -0.151 NA 
HETATM   15  C   UNL     1      -7.395  13.783  67.673  1.00  0.00    -0.172 C  
HETATM   16  C   UNL     1      -6.974  14.124  69.112  1.00  0.00    -0.111 C  
HETATM   17  O   UNL     1      -5.741  13.479  69.462  1.00  0.00    -0.088 OA 
HETATM   18  C   UNL     1      -5.835  12.060  69.288  1.00  0.00    -0.074 C  
HETATM   19  C   UNL     1      -6.252  11.694  67.850  1.00  0.00    -0.050 C  
ENDBRANCH  13  14
ENDBRANCH  12  13
ENDBRANCH  10  12
ENDBRANCH   5   8
TORSDOF 4
ENDMDL
MODEL      138
REMARK 921   NORMALIZED FREE ENERGY PREDICTED BY IDOCK:   -3.67 KCAL/MOL
REMARK 922        TOTAL FREE ENERGY PREDICTED BY IDOCK:   -4.92 KCAL/MOL
REMARK 923 INTER-LIGAND FREE ENERGY PREDICTED BY IDOCK:   -4.59 KCAL/MOL
REMARK 924 INTRA-LIGAND FREE ENERGY PREDICTED BY IDOCK:   -0.33 KCAL/MOL
REMARK 927      BINDING AFFINITY PREDICTED BY RF-SCORE:    0.00 PKD
ROOT
HETATM    1 CL   UNL     1      -7.915   5.622  67.997  1.00  0.00    -0.097 Cl 
HETATM    2  C   UNL     1      -8.745   7.112  67.790  1.00  0.00    -0.125 A  
HETATM    3  C   UNL     1      -9.690   7.245  66.777  1.00  0.00    -0.260 A  
HETATM    4  C   UNL     1     -10.363   8.457  66.616  1.00  0.00    -0.298 A  
HETATM    5  C   UNL     1     -10.099   9.548  67.463  1.00  0.00    -0.257 A  
HETATM    6  C   UNL     1      -9.146   9.399  68.481  1.00  0.00    -0.131 A  
HETATM    7  C   UNL     1      -8.471   8.185  68.642  1.00  0.00    -0.127 A  
ENDROOT
BRANCH   5   8
HETATM    8  C   UNL     1     -10.884  10.800  67.244  1.00  0.00    -0.288 C  
HETATM    9  O   UNL     1     -11.935  10.973  67.856  1.00  0.00    -0.620 OA 
HETATM   10  N   UNL     1     -10.399  11.728  66.347  1.00  0.00    -0.216 N  
HETATM   11  H   UNL     1      -9.505  11.571  65.880  1.00  0.00     0.000 HD 
BRANCH  10  12
HETATM   12  C   UNL     1     -11.165  12.928  66.071  1.00  0.00    -0.293 C  
BRANCH  12  13
HETATM   13  C   UNL     1     -10.353  14.217  66.274  1.00  0.00    -0.292 C  
BRANCH  13  14
HETATM   14  N   UNL     1     -11.117  15.347  66.850  1.00  0.00    -0.296 NA 
HETATM   15  C   UNL     1     -11.681  15.045  68.189  1.00  0.00    -0.312 C  
HETATM   16  C   UNL     1     -10.624  14.925  69.301  1.00  0.00    -0.243 C  
HETATM   17  O   UNL     1      -9.825  16.113  69.391  1.00  0.00    -0.242 OA 
HETATM   18  C   UNL     1      -9.203  16.412  68.135  1.00  0.00    -0.201 C  
HETATM   19  C   UNL     1     -10.245  16.540  67.006  1.00  0.00    -0.288 C  
ENDBRANCH  13  14
ENDBRANCH  12  13
ENDBRANCH  10  12
ENDBRANCH   5   8
TORSDOF 4
ENDMDL
MODEL      139
REMARK 921   NORMALIZED FREE ENERGY PREDICTED BY IDOCK:   -3.64 KCAL/MOL
REMARK 922        TOTAL FREE ENERGY PREDICTED BY IDOCK:   -4.88 KCAL/MOL
REMARK 923 INTER-LIGAND FREE ENERGY PREDICTED BY IDOCK:   -4.72 KCAL/MOL
REMARK 924 INTRA-LIGAND FREE ENERGY PREDICTED BY IDOCK:   -0.16 KCAL/MOL
REMARK 927      BINDING AFFINITY PREDICTED BY RF-SCORE:    0.00 PKD
ROOT
HETATM    1 CL   UNL     1      -7.596   6.238  71.651  1.00  0.00    -0.094 Cl 
HETATM    2  C   UNL     1      -8.216   7.671  70.931  1.00  0.00    -0.108 A  
HETATM    3  C   UNL     1      -9.444   8.179  71.343  1.00  0.00    -0.211 A  
HETATM    4  C   UNL     1      -9.941   9.344  70.757  1.00  0.00    -0.358 A  
HETATM    5  C   UNL     1      -9.218  10.012  69.753  1.00  0.00    -0.227 A  
HETATM    6  C   UNL     1      -7.980   9.490  69.349  1.00  0.00    -0.099 A  
HETATM    7  C   UNL     1      -7.483   8.322  69.936  1.00  0.00    -0.065 A  
ENDROOT
BRANCH   5   8
HETATM    8  C   UNL     1      -9.803  11.269  69.199  1.00  0.00    -0.004 C  
HETATM    9  O   UNL     1      -9.130  11.975  68.452  1.00  0.00    -0.188 OA 
HETATM   10  N   UNL     1     -11.094  11.600  69.551  1.00  0.00    -0.427 N  
HETATM   11  H   UNL     1     -11.640  10.975  70.145  1.00  0.00     0.000 HD 
BRANCH  10  12
HETATM   12  C   UNL     1     -11.672  12.842  69.074  1.00  0.00    -0.327 C  
BRANCH  12  13
HETATM   13  C   UNL     1     -11.972  12.822  67.567  1.00  0.00    -0.281 C  
BRANCH  13  14
HETATM   14  N   UNL     1     -12.201  14.154  66.962  1.00  0.00    -0.406 NA 
HETATM   15  C   UNL     1     -10.958  14.957  66.841  1.00  0.00    -0.327 C  
HETATM   16  C   UNL     1      -9.968  14.423  65.791  1.00  0.00    -0.329 C  
HETATM   17  O   UNL     1     -10.582  14.319  64.499  1.00  0.00    -0.388 OA 
HETATM   18  C   UNL     1     -11.754  13.497  64.551  1.00  0.00    -0.397 C  
HETATM   19  C   UNL     1     -12.763  14.016  65.594  1.00  0.00    -0.481 C  
ENDBRANCH  13  14
ENDBRANCH  12  13
ENDBRANCH  10  12
ENDBRANCH   5   8
TORSDOF 4
ENDMDL
MODEL      140
REMARK 921   NORMALIZED FREE ENERGY PREDICTED BY IDOCK:   -3.62 KCAL/MOL
REMARK 922        TOTAL FREE ENERGY PREDICTED BY IDOCK:   -4.86 KCAL/MOL
REMARK 923 INTER-LIGAND FREE ENERGY PREDICTED BY IDOCK:   -4.54 KCAL/MOL
REMARK 924 INTRA-LIGAND FREE ENERGY PREDICTED BY IDOCK:   -0.32 KCAL/MOL
REMARK 927      BINDING AFFINITY PREDICTED BY RF-SCORE:    0.00 PKD
ROOT
HETATM    1 CL   UNL     1      -5.202  16.714  70.767  1.00  0.00    -0.208 Cl 
HETATM    2  C   UNL     1      -5.860  15.444  69.814  1.00  0.00    -0.135 A  
HETATM    3  C   UNL     1      -6.386  15.722  68.556  1.00  0.00    -0.108 A  
HETATM    4  C   UNL     1      -6.917  14.686  67.785  1.00  0.00    -0.194 A  
HETATM    5  C   UNL     1      -6.928  13.364  68.262  1.00  0.00    -0.108 A  
HETATM    6  C   UNL     1      -6.392  13.098  69.531  1.00  0.00    -0.103 A  
HETATM    7  C   UNL     1      -5.862  14.136  70.303  1.00  0.00    -0.147 A  
ENDROOT
BRANCH   5   8
HETATM    8  C   UNL     1      -7.485  12.309  67.364  1.00  0.00    -0.160 C  
HETATM    9  O   UNL     1      -6.721  11.554  66.767  1.00  0.00    -0.140 OA 
HETATM   10  N   UNL     1      -8.854  12.220  67.230  1.00  0.00    -0.182 N  
HETATM   11  H   UNL     1      -9.463  12.838  67.766  1.00  0.00     0.000 HD 
BRANCH  10  12
HETATM   12  C   UNL     1      -9.424  11.242  66.323  1.00  0.00    -0.204 C  
BRANCH  12  13
HETATM   13  C   UNL     1     -10.210  11.885  65.168  1.00  0.00    -0.277 C  
BRANCH  13  14
HETATM   14  N   UNL     1     -11.668  12.004  65.401  1.00  0.00    -0.320 NA 
HETATM   15  C   UNL     1     -12.051  13.291  66.034  1.00  0.00    -0.436 C  
HETATM   16  C   UNL     1     -11.891  14.514  65.115  1.00  0.00    -0.374 C  
HETATM   17  O   UNL     1     -12.635  14.354  63.899  1.00  0.00    -0.814 OA 
HETATM   18  C   UNL     1     -12.253  13.155  63.214  1.00  0.00    -0.360 C  
HETATM   19  C   UNL     1     -12.409  11.915  64.117  1.00  0.00    -0.267 C  
ENDBRANCH  13  14
ENDBRANCH  12  13
ENDBRANCH  10  12
ENDBRANCH   5   8
TORSDOF 4
ENDMDL
MODEL      141
REMARK 921   NORMALIZED FREE ENERGY PREDICTED BY IDOCK:   -3.62 KCAL/MOL
REMARK 922        TOTAL FREE ENERGY PREDICTED BY IDOCK:   -4.86 KCAL/MOL
REMARK 923 INTER-LIGAND FREE ENERGY PREDICTED BY IDOCK:   -4.38 KCAL/MOL
REMARK 924 INTRA-LIGAND FREE ENERGY PREDICTED BY IDOCK:   -0.48 KCAL/MOL
REMARK 927      BINDING AFFINITY PREDICTED BY RF-SCORE:    0.00 PKD
ROOT
HETATM    1 CL   UNL     1      -7.776  18.104  68.591  1.00  0.00    -0.309 Cl 
HETATM    2  C   UNL     1      -8.551  16.708  67.957  1.00  0.00    -0.193 A  
HETATM    3  C   UNL     1      -7.793  15.600  67.591  1.00  0.00    -0.173 A  
HETATM    4  C   UNL     1      -8.427  14.467  67.080  1.00  0.00    -0.206 A  
HETATM    5  C   UNL     1      -9.825  14.430  66.926  1.00  0.00    -0.263 A  
HETATM    6  C   UNL     1     -10.577  15.553  67.301  1.00  0.00    -0.299 A  
HETATM    7  C   UNL     1      -9.940  16.688  67.813  1.00  0.00    -0.262 A  
ENDROOT
BRANCH   5   8
HETATM    8  C   UNL     1     -10.430  13.170  66.401  1.00  0.00    -0.282 C  
HETATM    9  O   UNL     1     -11.620  12.937  66.602  1.00  0.00    -0.333 OA 
HETATM   10  N   UNL     1      -9.622  12.297  65.704  1.00  0.00    -0.393 N  
HETATM   11  H   UNL     1      -8.646  12.535  65.523  1.00  0.00     0.000 HD 
BRANCH  10  12
HETATM   12  C   UNL     1     -10.166  11.039  65.229  1.00  0.00    -0.284 C  
BRANCH  12  13
HETATM   13  C   UNL     1      -9.717   9.836  66.074  1.00  0.00    -0.255 C  
BRANCH  13  14
HETATM   14  N   UNL     1     -10.756   9.291  66.978  1.00  0.00    -0.196 NA 
HETATM   15  C   UNL     1     -10.681   7.816  67.126  1.00  0.00    -0.267 C  
HETATM   16  C   UNL     1      -9.451   7.327  67.910  1.00  0.00    -0.135 C  
HETATM   17  O   UNL     1      -9.389   7.929  69.211  1.00  0.00    -0.149 OA 
HETATM   18  C   UNL     1      -9.392   9.359  69.118  1.00  0.00    -0.159 C  
HETATM   19  C   UNL     1     -10.619   9.871  68.339  1.00  0.00    -0.222 C  
ENDBRANCH  13  14
ENDBRANCH  12  13
ENDBRANCH  10  12
ENDBRANCH   5   8
TORSDOF 4
ENDMDL
MODEL      142
REMARK 921   NORMALIZED FREE ENERGY PREDICTED BY IDOCK:   -3.61 KCAL/MOL
REMARK 922        TOTAL FREE ENERGY PREDICTED BY IDOCK:   -4.84 KCAL/MOL
REMARK 923 INTER-LIGAND FREE ENERGY PREDICTED BY IDOCK:   -4.42 KCAL/MOL
REMARK 924 INTRA-LIGAND FREE ENERGY PREDICTED BY IDOCK:   -0.42 KCAL/MOL
REMARK 927      BINDING AFFINITY PREDICTED BY RF-SCORE:    0.00 PKD
ROOT
HETATM    1 CL   UNL     1     -10.538  11.667  63.845  1.00  0.00    -0.401 Cl 
HETATM    2  C   UNL     1     -10.761  11.378  65.525  1.00  0.00    -0.253 A  
HETATM    3  C   UNL     1     -10.236  10.229  66.106  1.00  0.00    -0.285 A  
HETATM    4  C   UNL     1     -10.417  10.000  67.471  1.00  0.00    -0.307 A  
HETATM    5  C   UNL     1     -11.127  10.916  68.268  1.00  0.00    -0.324 A  
HETATM    6  C   UNL     1     -11.649  12.072  67.669  1.00  0.00    -0.392 A  
HETATM    7  C   UNL     1     -11.467  12.300  66.301  1.00  0.00    -0.435 A  
ENDROOT
BRANCH   5   8
HETATM    8  C   UNL     1     -11.251  10.614  69.725  1.00  0.00    -0.297 C  
HETATM    9  O   UNL     1     -11.415  11.533  70.524  1.00  0.00    -0.153 OA 
HETATM   10  N   UNL     1     -11.171   9.299  70.130  1.00  0.00    -0.332 N  
HETATM   11  H   UNL     1     -11.070   8.555  69.439  1.00  0.00     0.000 HD 
BRANCH  10  12
HETATM   12  C   UNL     1     -11.232   8.978  71.543  1.00  0.00    -0.348 C  
BRANCH  12  13
HETATM   13  C   UNL     1      -9.931   8.351  72.071  1.00  0.00    -0.284 C  
BRANCH  13  14
HETATM   14  N   UNL     1      -8.961   7.961  71.022  1.00  0.00    -0.140 NA 
HETATM   15  C   UNL     1      -7.737   8.802  71.022  1.00  0.00    -0.119 C  
HETATM   16  C   UNL     1      -6.824   8.579  72.240  1.00  0.00    -0.077 C  
HETATM   17  O   UNL     1      -6.442   7.201  72.359  1.00  0.00    -0.052 OA 
HETATM   18  C   UNL     1      -7.593   6.351  72.430  1.00  0.00    -0.097 C  
HETATM   19  C   UNL     1      -8.521   6.556  71.216  1.00  0.00    -0.126 C  
ENDBRANCH  13  14
ENDBRANCH  12  13
ENDBRANCH  10  12
ENDBRANCH   5   8
TORSDOF 4
ENDMDL
MODEL      143
REMARK 921   NORMALIZED FREE ENERGY PREDICTED BY IDOCK:   -3.59 KCAL/MOL
REMARK 922        TOTAL FREE ENERGY PREDICTED BY IDOCK:   -4.82 KCAL/MOL
REMARK 923 INTER-LIGAND FREE ENERGY PREDICTED BY IDOCK:   -4.54 KCAL/MOL
REMARK 924 INTRA-LIGAND FREE ENERGY PREDICTED BY IDOCK:   -0.27 KCAL/MOL
REMARK 927      BINDING AFFINITY PREDICTED BY RF-SCORE:    0.00 PKD
ROOT
HETATM    1 CL   UNL     1     -10.329  17.429  66.411  1.00  0.00    -0.334 Cl 
HETATM    2  C   UNL     1     -10.604  15.869  67.077  1.00  0.00    -0.306 A  
HETATM    3  C   UNL     1     -10.231  14.734  66.362  1.00  0.00    -0.299 A  
HETATM    4  C   UNL     1     -10.453  13.470  66.909  1.00  0.00    -0.271 A  
HETATM    5  C   UNL     1     -11.052  13.325  68.173  1.00  0.00    -0.286 A  
HETATM    6  C   UNL     1     -11.421  14.477  68.883  1.00  0.00    -0.327 A  
HETATM    7  C   UNL     1     -11.198  15.744  68.334  1.00  0.00    -0.362 A  
ENDROOT
BRANCH   5   8
HETATM    8  C   UNL     1     -11.227  11.939  68.701  1.00  0.00    -0.257 C  
HETATM    9  O   UNL     1     -12.283  11.343  68.503  1.00  0.00    -0.557 OA 
HETATM   10  N   UNL     1     -10.187  11.371  69.406  1.00  0.00    -0.433 N  
HETATM   11  H   UNL     1      -9.310  11.879  69.523  1.00  0.00     0.000 HD 
BRANCH  10  12
HETATM   12  C   UNL     1     -10.347  10.048  69.979  1.00  0.00    -0.272 C  
BRANCH  12  13
HETATM   13  C   UNL     1      -9.989   8.923  68.995  1.00  0.00    -0.190 C  
BRANCH  13  14
HETATM   14  N   UNL     1      -8.648   8.328  69.195  1.00  0.00    -0.137 NA 
HETATM   15  C   UNL     1      -8.541   6.944  68.667  1.00  0.00    -0.123 C  
HETATM   16  C   UNL     1      -8.578   6.855  67.132  1.00  0.00    -0.121 C  
HETATM   17  O   UNL     1      -7.549   7.660  66.538  1.00  0.00    -0.092 OA 
HETATM   18  C   UNL     1      -7.649   9.023  66.966  1.00  0.00    -0.091 C  
HETATM   19  C   UNL     1      -7.611   9.137  68.503  1.00  0.00    -0.085 C  
ENDBRANCH  13  14
ENDBRANCH  12  13
ENDBRANCH  10  12
ENDBRANCH   5   8
TORSDOF 4
ENDMDL
MODEL      144
REMARK 921   NORMALIZED FREE ENERGY PREDICTED BY IDOCK:   -3.58 KCAL/MOL
REMARK 922        TOTAL FREE ENERGY PREDICTED BY IDOCK:   -4.80 KCAL/MOL
REMARK 923 INTER-LIGAND FREE ENERGY PREDICTED BY IDOCK:   -4.53 KCAL/MOL
REMARK 924 INTRA-LIGAND FREE ENERGY PREDICTED BY IDOCK:   -0.28 KCAL/MOL
REMARK 927      BINDING AFFINITY PREDICTED BY RF-SCORE:    0.00 PKD
ROOT
HETATM    1 CL   UNL     1      -9.450  14.393  66.542  1.00  0.00    -0.297 Cl 
HETATM    2  C   UNL     1      -9.778  12.725  66.800  1.00  0.00    -0.243 A  
HETATM    3  C   UNL     1      -8.740  11.800  66.760  1.00  0.00    -0.192 A  
HETATM    4  C   UNL     1      -9.011  10.448  66.974  1.00  0.00    -0.150 A  
HETATM    5  C   UNL     1     -10.322  10.006  67.228  1.00  0.00    -0.293 A  
HETATM    6  C   UNL     1     -11.358  10.950  67.268  1.00  0.00    -0.230 A  
HETATM    7  C   UNL     1     -11.085  12.305  67.053  1.00  0.00    -0.339 A  
ENDROOT
BRANCH   5   8
HETATM    8  C   UNL     1     -10.524   8.548  67.476  1.00  0.00    -0.258 C  
HETATM    9  O   UNL     1     -10.560   7.769  66.527  1.00  0.00    -0.179 OA 
HETATM   10  N   UNL     1     -10.672   8.120  68.779  1.00  0.00    -0.403 N  
HETATM   11  H   UNL     1     -10.603   8.787  69.548  1.00  0.00     0.000 HD 
BRANCH  10  12
HETATM   12  C   UNL     1     -10.926   6.718  69.050  1.00  0.00    -0.233 C  
BRANCH  12  13
HETATM   13  C   UNL     1     -11.605   6.485  70.409  1.00  0.00    -0.407 C  
BRANCH  13  14
HETATM   14  N   UNL     1     -10.873   5.575  71.319  1.00  0.00    -0.219 NA 
HETATM   15  C   UNL     1      -9.400   5.759  71.264  1.00  0.00    -0.146 C  
HETATM   16  C   UNL     1      -8.912   7.087  71.866  1.00  0.00    -0.132 C  
HETATM   17  O   UNL     1      -9.348   7.236  73.224  1.00  0.00    -0.151 OA 
HETATM   18  C   UNL     1     -10.773   7.132  73.323  1.00  0.00    -0.361 C  
HETATM   19  C   UNL     1     -11.285   5.805  72.728  1.00  0.00    -0.292 C  
ENDBRANCH  13  14
ENDBRANCH  12  13
ENDBRANCH  10  12
ENDBRANCH   5   8
TORSDOF 4
ENDMDL
MODEL      145
REMARK 921   NORMALIZED FREE ENERGY PREDICTED BY IDOCK:   -3.57 KCAL/MOL
REMARK 922        TOTAL FREE ENERGY PREDICTED BY IDOCK:   -4.79 KCAL/MOL
REMARK 923 INTER-LIGAND FREE ENERGY PREDICTED BY IDOCK:   -4.55 KCAL/MOL
REMARK 924 INTRA-LIGAND FREE ENERGY PREDICTED BY IDOCK:   -0.24 KCAL/MOL
REMARK 927      BINDING AFFINITY PREDICTED BY RF-SCORE:    0.00 PKD
ROOT
HETATM    1 CL   UNL     1      -7.544  20.869  66.958  1.00  0.00    -0.306 Cl 
HETATM    2  C   UNL     1      -8.173  19.389  67.563  1.00  0.00    -0.286 A  
HETATM    3  C   UNL     1      -9.522  19.090  67.400  1.00  0.00    -0.347 A  
HETATM    4  C   UNL     1     -10.027  17.885  67.891  1.00  0.00    -0.329 A  
HETATM    5  C   UNL     1      -9.190  16.967  68.550  1.00  0.00    -0.266 A  
HETATM    6  C   UNL     1      -7.832  17.280  68.705  1.00  0.00    -0.254 A  
HETATM    7  C   UNL     1      -7.327  18.488  68.214  1.00  0.00    -0.294 A  
ENDROOT
BRANCH   5   8
HETATM    8  C   UNL     1      -9.800  15.687  69.018  1.00  0.00    -0.236 C  
HETATM    9  O   UNL     1     -10.232  15.604  70.166  1.00  0.00    -0.302 OA 
HETATM   10  N   UNL     1      -9.855  14.628  68.138  1.00  0.00    -0.219 N  
HETATM   11  H   UNL     1      -9.520  14.739  67.180  1.00  0.00     0.000 HD 
BRANCH  10  12
HETATM   12  C   UNL     1     -10.391  13.355  68.579  1.00  0.00    -0.236 C  
BRANCH  12  13
HETATM   13  C   UNL     1     -10.449  12.308  67.455  1.00  0.00    -0.210 C  
BRANCH  13  14
HETATM   14  N   UNL     1      -9.319  11.352  67.438  1.00  0.00    -0.166 NA 
HETATM   15  C   UNL     1      -9.597  10.110  68.203  1.00  0.00    -0.139 C  
HETATM   16  C   UNL     1     -10.648   9.196  67.551  1.00  0.00    -0.249 C  
HETATM   17  O   UNL     1     -10.274   8.842  66.212  1.00  0.00    -0.284 OA 
HETATM   18  C   UNL     1     -10.057  10.011  65.412  1.00  0.00    -0.247 C  
HETATM   19  C   UNL     1      -9.004  10.942  66.046  1.00  0.00    -0.186 C  
ENDBRANCH  13  14
ENDBRANCH  12  13
ENDBRANCH  10  12
ENDBRANCH   5   8
TORSDOF 4
ENDMDL
MODEL      146
REMARK 921   NORMALIZED FREE ENERGY PREDICTED BY IDOCK:   -3.53 KCAL/MOL
REMARK 922        TOTAL FREE ENERGY PREDICTED BY IDOCK:   -4.74 KCAL/MOL
REMARK 923 INTER-LIGAND FREE ENERGY PREDICTED BY IDOCK:   -4.37 KCAL/MOL
REMARK 924 INTRA-LIGAND FREE ENERGY PREDICTED BY IDOCK:   -0.37 KCAL/MOL
REMARK 927      BINDING AFFINITY PREDICTED BY RF-SCORE:    0.00 PKD
ROOT
HETATM    1 CL   UNL     1     -10.579   5.185  74.119  1.00  0.00    -0.327 Cl 
HETATM    2  C   UNL     1     -10.307   5.990  72.625  1.00  0.00    -0.196 A  
HETATM    3  C   UNL     1     -11.369   6.597  71.962  1.00  0.00    -0.317 A  
HETATM    4  C   UNL     1     -11.143   7.252  70.750  1.00  0.00    -0.290 A  
HETATM    5  C   UNL     1      -9.855   7.305  70.188  1.00  0.00    -0.179 A  
HETATM    6  C   UNL     1      -8.794   6.690  70.868  1.00  0.00    -0.146 A  
HETATM    7  C   UNL     1      -9.022   6.034  72.082  1.00  0.00    -0.142 A  
ENDROOT
BRANCH   5   8
HETATM    8  C   UNL     1      -9.691   8.051  68.905  1.00  0.00    -0.159 C  
HETATM    9  O   UNL     1      -8.585   8.106  68.372  1.00  0.00    -0.129 OA 
HETATM   10  N   UNL     1     -10.798   8.664  68.358  1.00  0.00    -0.446 N  
HETATM   11  H   UNL     1     -11.710   8.570  68.806  1.00  0.00     0.000 HD 
BRANCH  10  12
HETATM   12  C   UNL     1     -10.660   9.442  67.142  1.00  0.00    -0.224 C  
BRANCH  12  13
HETATM   13  C   UNL     1     -11.148  10.891  67.301  1.00  0.00    -0.283 C  
BRANCH  13  14
HETATM   14  N   UNL     1     -10.276  11.752  68.131  1.00  0.00    -0.196 NA 
HETATM   15  C   UNL     1      -9.216  12.434  67.346  1.00  0.00    -0.184 C  
HETATM   16  C   UNL     1      -9.743  13.528  66.402  1.00  0.00    -0.289 C  
HETATM   17  O   UNL     1     -10.500  14.515  67.116  1.00  0.00    -0.264 OA 
HETATM   18  C   UNL     1     -11.579  13.912  67.840  1.00  0.00    -0.342 C  
HETATM   19  C   UNL     1     -11.073  12.814  68.797  1.00  0.00    -0.260 C  
ENDBRANCH  13  14
ENDBRANCH  12  13
ENDBRANCH  10  12
ENDBRANCH   5   8
TORSDOF 4
ENDMDL
MODEL      147
REMARK 921   NORMALIZED FREE ENERGY PREDICTED BY IDOCK:   -3.50 KCAL/MOL
REMARK 922        TOTAL FREE ENERGY PREDICTED BY IDOCK:   -4.71 KCAL/MOL
REMARK 923 INTER-LIGAND FREE ENERGY PREDICTED BY IDOCK:   -4.40 KCAL/MOL
REMARK 924 INTRA-LIGAND FREE ENERGY PREDICTED BY IDOCK:   -0.31 KCAL/MOL
REMARK 927      BINDING AFFINITY PREDICTED BY RF-SCORE:    0.00 PKD
ROOT
HETATM    1 CL   UNL     1      -9.001   4.327  71.528  1.00  0.00    -0.150 Cl 
HETATM    2  C   UNL     1      -9.424   5.585  70.436  1.00  0.00    -0.163 A  
HETATM    3  C   UNL     1     -10.684   5.595  69.846  1.00  0.00    -0.399 A  
HETATM    4  C   UNL     1     -11.024   6.621  68.962  1.00  0.00    -0.332 A  
HETATM    5  C   UNL     1     -10.109   7.644  68.657  1.00  0.00    -0.201 A  
HETATM    6  C   UNL     1      -8.843   7.622  69.261  1.00  0.00    -0.136 A  
HETATM    7  C   UNL     1      -8.503   6.594  70.146  1.00  0.00    -0.136 A  
ENDROOT
BRANCH   5   8
HETATM    8  C   UNL     1     -10.560   8.721  67.725  1.00  0.00    -0.191 C  
HETATM    9  O   UNL     1     -10.476   8.548  66.512  1.00  0.00    -0.256 OA 
HETATM   10  N   UNL     1     -11.056   9.888  68.266  1.00  0.00    -0.478 N  
HETATM   11  H   UNL     1     -11.145   9.987  69.278  1.00  0.00     0.000 HD 
BRANCH  10  12
HETATM   12  C   UNL     1     -11.450  10.974  67.390  1.00  0.00    -0.135 C  
BRANCH  12  13
HETATM   13  C   UNL     1     -10.308  11.965  67.115  1.00  0.00    -0.210 C  
BRANCH  13  14
HETATM   14  N   UNL     1     -10.170  13.046  68.118  1.00  0.00    -0.233 NA 
HETATM   15  C   UNL     1      -9.196  14.091  67.715  1.00  0.00    -0.195 C  
HETATM   16  C   UNL     1      -9.665  14.964  66.538  1.00  0.00    -0.276 C  
HETATM   17  O   UNL     1     -10.926  15.587  66.821  1.00  0.00    -0.314 OA 
HETATM   18  C   UNL     1     -11.921  14.611  67.153  1.00  0.00    -0.283 C  
HETATM   19  C   UNL     1     -11.473  13.726  68.333  1.00  0.00    -0.316 C  
ENDBRANCH  13  14
ENDBRANCH  12  13
ENDBRANCH  10  12
ENDBRANCH   5   8
TORSDOF 4
ENDMDL
MODEL      148
REMARK 921   NORMALIZED FREE ENERGY PREDICTED BY IDOCK:   -3.46 KCAL/MOL
REMARK 922        TOTAL FREE ENERGY PREDICTED BY IDOCK:   -4.66 KCAL/MOL
REMARK 923 INTER-LIGAND FREE ENERGY PREDICTED BY IDOCK:   -4.34 KCAL/MOL
REMARK 924 INTRA-LIGAND FREE ENERGY PREDICTED BY IDOCK:   -0.32 KCAL/MOL
REMARK 927      BINDING AFFINITY PREDICTED BY RF-SCORE:    0.00 PKD
ROOT
HETATM    1 CL   UNL     1     -13.387  12.274  72.131  1.00  0.00    -0.587 Cl 
HETATM    2  C   UNL     1     -12.447  11.414  70.978  1.00  0.00    -0.383 A  
HETATM    3  C   UNL     1     -11.987  10.135  71.275  1.00  0.00    -0.473 A  
HETATM    4  C   UNL     1     -11.226   9.438  70.334  1.00  0.00    -0.309 A  
HETATM    5  C   UNL     1     -10.916  10.013  69.089  1.00  0.00    -0.256 A  
HETATM    6  C   UNL     1     -11.389  11.302  68.802  1.00  0.00    -0.335 A  
HETATM    7  C   UNL     1     -12.150  11.999  69.746  1.00  0.00    -0.317 A  
ENDROOT
BRANCH   5   8
HETATM    8  C   UNL     1     -10.124   9.192  68.126  1.00  0.00    -0.189 C  
HETATM    9  O   UNL     1     -10.669   8.739  67.122  1.00  0.00    -0.271 OA 
HETATM   10  N   UNL     1      -8.793   8.962  68.402  1.00  0.00    -0.134 N  
HETATM   11  H   UNL     1      -8.361   9.381  69.227  1.00  0.00     0.000 HD 
BRANCH  10  12
HETATM   12  C   UNL     1      -8.010   8.122  67.516  1.00  0.00    -0.122 C  
BRANCH  12  13
HETATM   13  C   UNL     1      -8.103   6.629  67.870  1.00  0.00    -0.113 C  
BRANCH  13  14
HETATM   14  N   UNL     1      -7.736   5.707  66.772  1.00  0.00    -0.099 NA 
HETATM   15  C   UNL     1      -7.527   4.310  67.231  1.00  0.00    -0.077 C  
HETATM   16  C   UNL     1      -8.816   3.598  67.674  1.00  0.00    -0.121 C  
HETATM   17  O   UNL     1      -9.800   3.602  66.630  1.00  0.00    -0.144 OA 
HETATM   18  C   UNL     1     -10.086   4.937  66.196  1.00  0.00    -0.254 C  
HETATM   19  C   UNL     1      -8.807   5.670  65.743  1.00  0.00    -0.153 C  
ENDBRANCH  13  14
ENDBRANCH  12  13
ENDBRANCH  10  12
ENDBRANCH   5   8
TORSDOF 4
ENDMDL
MODEL      149
REMARK 921   NORMALIZED FREE ENERGY PREDICTED BY IDOCK:   -3.44 KCAL/MOL
REMARK 922        TOTAL FREE ENERGY PREDICTED BY IDOCK:   -4.64 KCAL/MOL
REMARK 923 INTER-LIGAND FREE ENERGY PREDICTED BY IDOCK:   -4.36 KCAL/MOL
REMARK 924 INTRA-LIGAND FREE ENERGY PREDICTED BY IDOCK:   -0.28 KCAL/MOL
REMARK 927      BINDING AFFINITY PREDICTED BY RF-SCORE:    0.00 PKD
ROOT
HETATM    1 CL   UNL     1     -11.091  15.350  65.104  1.00  0.00    -0.397 Cl 
HETATM    2  C   UNL     1     -11.017  13.764  65.762  1.00  0.00    -0.280 A  
HETATM    3  C   UNL     1     -10.342  12.760  65.076  1.00  0.00    -0.323 A  
HETATM    4  C   UNL     1     -10.281  11.474  65.616  1.00  0.00    -0.292 A  
HETATM    5  C   UNL     1     -10.897  11.178  66.845  1.00  0.00    -0.333 A  
HETATM    6  C   UNL     1     -11.572  12.201  67.527  1.00  0.00    -0.413 A  
HETATM    7  C   UNL     1     -11.633  13.489  66.985  1.00  0.00    -0.394 A  
ENDROOT
BRANCH   5   8
HETATM    8  C   UNL     1     -10.761   9.787  67.370  1.00  0.00    -0.249 C  
HETATM    9  O   UNL     1     -10.762   9.592  68.583  1.00  0.00    -0.220 OA 
HETATM   10  N   UNL     1     -10.632   8.755  66.464  1.00  0.00    -0.189 N  
HETATM   11  H   UNL     1     -10.669   8.946  65.462  1.00  0.00     0.000 HD 
BRANCH  10  12
HETATM   12  C   UNL     1     -10.442   7.400  66.942  1.00  0.00    -0.309 C  
BRANCH  12  13
HETATM   13  C   UNL     1      -9.199   6.723  66.343  1.00  0.00    -0.153 C  
BRANCH  13  14
HETATM   14  N   UNL     1      -8.946   5.348  66.831  1.00  0.00    -0.110 NA 
HETATM   15  C   UNL     1      -9.974   4.374  66.382  1.00  0.00    -0.232 C  
HETATM   16  C   UNL     1      -9.931   4.068  64.876  1.00  0.00    -0.205 C  
HETATM   17  O   UNL     1      -8.637   3.595  64.476  1.00  0.00    -0.096 OA 
HETATM   18  C   UNL     1      -7.614   4.533  64.829  1.00  0.00    -0.073 C  
HETATM   19  C   UNL     1      -7.635   4.852  66.337  1.00  0.00    -0.087 C  
ENDBRANCH  13  14
ENDBRANCH  12  13
ENDBRANCH  10  12
ENDBRANCH   5   8
TORSDOF 4
ENDMDL
MODEL      150
REMARK 921   NORMALIZED FREE ENERGY PREDICTED BY IDOCK:   -3.42 KCAL/MOL
REMARK 922        TOTAL FREE ENERGY PREDICTED BY IDOCK:   -4.62 KCAL/MOL
REMARK 923 INTER-LIGAND FREE ENERGY PREDICTED BY IDOCK:   -4.19 KCAL/MOL
REMARK 924 INTRA-LIGAND FREE ENERGY PREDICTED BY IDOCK:   -0.43 KCAL/MOL
REMARK 927      BINDING AFFINITY PREDICTED BY RF-SCORE:    0.00 PKD
ROOT
HETATM    1 CL   UNL     1      -6.746  16.456  69.697  1.00  0.00    -0.199 Cl 
HETATM    2  C   UNL     1      -7.802  15.612  68.635  1.00  0.00    -0.152 A  
HETATM    3  C   UNL     1      -7.326  14.531  67.900  1.00  0.00    -0.166 A  
HETATM    4  C   UNL     1      -8.189  13.847  67.041  1.00  0.00    -0.069 A  
HETATM    5  C   UNL     1      -9.533  14.237  66.908  1.00  0.00    -0.272 A  
HETATM    6  C   UNL     1      -9.999  15.327  67.658  1.00  0.00    -0.222 A  
HETATM    7  C   UNL     1      -9.134  16.012  68.517  1.00  0.00    -0.203 A  
ENDROOT
BRANCH   5   8
HETATM    8  C   UNL     1     -10.399  13.435  65.993  1.00  0.00    -0.297 C  
HETATM    9  O   UNL     1     -11.401  12.879  66.436  1.00  0.00    -0.293 OA 
HETATM   10  N   UNL     1     -10.037  13.340  64.666  1.00  0.00    -0.603 N  
HETATM   11  H   UNL     1      -9.218  13.842  64.321  1.00  0.00     0.000 HD 
BRANCH  10  12
HETATM   12  C   UNL     1     -10.825  12.523  63.764  1.00  0.00    -0.446 C  
BRANCH  12  13
HETATM   13  C   UNL     1     -10.282  11.092  63.623  1.00  0.00    -0.387 C  
BRANCH  13  14
HETATM   14  N   UNL     1      -8.818  10.964  63.803  1.00  0.00    -0.117 NA 
HETATM   15  C   UNL     1      -8.448  10.153  64.991  1.00  0.00    -0.163 C  
HETATM   16  C   UNL     1      -8.768   8.655  64.851  1.00  0.00    -0.090 C  
HETATM   17  O   UNL     1      -8.139   8.094  63.690  1.00  0.00    -0.158 OA 
HETATM   18  C   UNL     1      -8.518   8.803  62.505  1.00  0.00    -0.195 C  
HETATM   19  C   UNL     1      -8.202  10.307  62.621  1.00  0.00    -0.158 C  
ENDBRANCH  13  14
ENDBRANCH  12  13
ENDBRANCH  10  12
ENDBRANCH   5   8
TORSDOF 4
ENDMDL
MODEL      151
REMARK 921   NORMALIZED FREE ENERGY PREDICTED BY IDOCK:   -3.40 KCAL/MOL
REMARK 922        TOTAL FREE ENERGY PREDICTED BY IDOCK:   -4.59 KCAL/MOL
REMARK 923 INTER-LIGAND FREE ENERGY PREDICTED BY IDOCK:   -4.33 KCAL/MOL
REMARK 924 INTRA-LIGAND FREE ENERGY PREDICTED BY IDOCK:   -0.26 KCAL/MOL
REMARK 927      BINDING AFFINITY PREDICTED BY RF-SCORE:    0.00 PKD
ROOT
HETATM    1 CL   UNL     1      -7.907   4.109  68.877  1.00  0.00    -0.061 Cl 
HETATM    2  C   UNL     1      -8.188   5.768  68.529  1.00  0.00    -0.108 A  
HETATM    3  C   UNL     1      -8.176   6.704  69.558  1.00  0.00    -0.130 A  
HETATM    4  C   UNL     1      -8.401   8.051  69.270  1.00  0.00    -0.134 A  
HETATM    5  C   UNL     1      -8.642   8.476  67.951  1.00  0.00    -0.134 A  
HETATM    6  C   UNL     1      -8.649   7.522  66.923  1.00  0.00    -0.124 A  
HETATM    7  C   UNL     1      -8.424   6.172  67.213  1.00  0.00    -0.104 A  
ENDROOT
BRANCH   5   8
HETATM    8  C   UNL     1      -8.843   9.938  67.721  1.00  0.00    -0.129 C  
HETATM    9  O   UNL     1      -7.947  10.728  68.011  1.00  0.00    -0.104 OA 
HETATM   10  N   UNL     1     -10.044  10.358  67.190  1.00  0.00    -0.198 N  
HETATM   11  H   UNL     1     -10.755   9.674  66.927  1.00  0.00     0.000 HD 
BRANCH  10  12
HETATM   12  C   UNL     1     -10.291  11.775  67.007  1.00  0.00    -0.214 C  
BRANCH  12  13
HETATM   13  C   UNL     1     -10.811  12.114  65.600  1.00  0.00    -0.284 C  
BRANCH  13  14
HETATM   14  N   UNL     1     -12.255  12.435  65.534  1.00  0.00    -0.604 NA 
HETATM   15  C   UNL     1     -12.567  13.809  66.003  1.00  0.00    -0.408 C  
HETATM   16  C   UNL     1     -12.067  14.920  65.063  1.00  0.00    -0.216 C  
HETATM   17  O   UNL     1     -12.585  14.753  63.736  1.00  0.00    -0.806 OA 
HETATM   18  C   UNL     1     -12.253  13.461  63.211  1.00  0.00    -0.243 C  
HETATM   19  C   UNL     1     -12.748  12.332  64.136  1.00  0.00    -0.330 C  
ENDBRANCH  13  14
ENDBRANCH  12  13
ENDBRANCH  10  12
ENDBRANCH   5   8
TORSDOF 4
ENDMDL
MODEL      152
REMARK 921   NORMALIZED FREE ENERGY PREDICTED BY IDOCK:   -3.40 KCAL/MOL
REMARK 922        TOTAL FREE ENERGY PREDICTED BY IDOCK:   -4.59 KCAL/MOL
REMARK 923 INTER-LIGAND FREE ENERGY PREDICTED BY IDOCK:   -4.26 KCAL/MOL
REMARK 924 INTRA-LIGAND FREE ENERGY PREDICTED BY IDOCK:   -0.33 KCAL/MOL
REMARK 927      BINDING AFFINITY PREDICTED BY RF-SCORE:    0.00 PKD
ROOT
HETATM    1 CL   UNL     1     -13.667  14.116  72.166  1.00  0.00    -0.535 Cl 
HETATM    2  C   UNL     1     -12.677  13.409  70.951  1.00  0.00    -0.272 A  
HETATM    3  C   UNL     1     -12.510  12.029  70.910  1.00  0.00    -0.384 A  
HETATM    4  C   UNL     1     -11.707  11.460  69.919  1.00  0.00    -0.424 A  
HETATM    5  C   UNL     1     -11.062  12.263  68.963  1.00  0.00    -0.289 A  
HETATM    6  C   UNL     1     -11.241  13.654  69.016  1.00  0.00    -0.316 A  
HETATM    7  C   UNL     1     -12.045  14.223  70.009  1.00  0.00    -0.400 A  
ENDROOT
BRANCH   5   8
HETATM    8  C   UNL     1     -10.246  11.576  67.918  1.00  0.00    -0.184 C  
HETATM    9  O   UNL     1      -9.043  11.812  67.834  1.00  0.00    -0.167 OA 
HETATM   10  N   UNL     1     -10.880  10.693  67.069  1.00  0.00    -0.261 N  
HETATM   11  H   UNL     1     -11.873  10.492  67.187  1.00  0.00     0.000 HD 
BRANCH  10  12
HETATM   12  C   UNL     1     -10.126  10.052  66.009  1.00  0.00    -0.248 C  
BRANCH  12  13
HETATM   13  C   UNL     1      -9.521   8.705  66.436  1.00  0.00    -0.230 C  
BRANCH  13  14
HETATM   14  N   UNL     1      -8.476   8.179  65.528  1.00  0.00    -0.156 NA 
HETATM   15  C   UNL     1      -7.385   9.152  65.273  1.00  0.00    -0.092 C  
HETATM   16  C   UNL     1      -6.483   9.415  66.491  1.00  0.00    -0.067 C  
HETATM   17  O   UNL     1      -5.913   8.197  66.990  1.00  0.00    -0.050 OA 
HETATM   18  C   UNL     1      -6.933   7.245  67.314  1.00  0.00    -0.079 C  
HETATM   19  C   UNL     1      -7.847   6.963  66.105  1.00  0.00    -0.102 C  
ENDBRANCH  13  14
ENDBRANCH  12  13
ENDBRANCH  10  12
ENDBRANCH   5   8
TORSDOF 4
ENDMDL
MODEL      153
REMARK 921   NORMALIZED FREE ENERGY PREDICTED BY IDOCK:   -3.40 KCAL/MOL
REMARK 922        TOTAL FREE ENERGY PREDICTED BY IDOCK:   -4.58 KCAL/MOL
REMARK 923 INTER-LIGAND FREE ENERGY PREDICTED BY IDOCK:   -4.25 KCAL/MOL
REMARK 924 INTRA-LIGAND FREE ENERGY PREDICTED BY IDOCK:   -0.33 KCAL/MOL
REMARK 927      BINDING AFFINITY PREDICTED BY RF-SCORE:    0.00 PKD
ROOT
HETATM    1 CL   UNL     1      -9.816   5.521  69.169  1.00  0.00    -0.206 Cl 
HETATM    2  C   UNL     1     -10.306   7.164  69.048  1.00  0.00    -0.199 A  
HETATM    3  C   UNL     1     -10.340   7.787  67.804  1.00  0.00    -0.284 A  
HETATM    4  C   UNL     1     -10.742   9.121  67.711  1.00  0.00    -0.243 A  
HETATM    5  C   UNL     1     -11.112   9.845  68.858  1.00  0.00    -0.181 A  
HETATM    6  C   UNL     1     -11.075   9.203  70.104  1.00  0.00    -0.248 A  
HETATM    7  C   UNL     1     -10.672   7.867  70.197  1.00  0.00    -0.244 A  
ENDROOT
BRANCH   5   8
HETATM    8  C   UNL     1     -11.559  11.257  68.670  1.00  0.00    -0.318 C  
HETATM    9  O   UNL     1     -12.272  11.546  67.712  1.00  0.00    -0.560 OA 
HETATM   10  N   UNL     1     -11.147  12.201  69.586  1.00  0.00    -0.474 N  
HETATM   11  H   UNL     1     -10.583  11.924  70.390  1.00  0.00     0.000 HD 
BRANCH  10  12
HETATM   12  C   UNL     1     -11.518  13.591  69.400  1.00  0.00    -0.282 C  
BRANCH  12  13
HETATM   13  C   UNL     1     -10.319  14.548  69.493  1.00  0.00    -0.009 C  
BRANCH  13  14
HETATM   14  N   UNL     1      -9.677  14.865  68.197  1.00  0.00    -0.211 NA 
HETATM   15  C   UNL     1      -8.925  16.145  68.219  1.00  0.00    -0.189 C  
HETATM   16  C   UNL     1      -7.648  16.107  69.075  1.00  0.00    -0.213 C  
HETATM   17  O   UNL     1      -6.767  15.057  68.651  1.00  0.00    -0.089 OA 
HETATM   18  C   UNL     1      -7.428  13.787  68.675  1.00  0.00    -0.116 C  
HETATM   19  C   UNL     1      -8.711  13.801  67.819  1.00  0.00    -0.182 C  
ENDBRANCH  13  14
ENDBRANCH  12  13
ENDBRANCH  10  12
ENDBRANCH   5   8
TORSDOF 4
ENDMDL
MODEL      154
REMARK 921   NORMALIZED FREE ENERGY PREDICTED BY IDOCK:   -3.39 KCAL/MOL
REMARK 922        TOTAL FREE ENERGY PREDICTED BY IDOCK:   -4.58 KCAL/MOL
REMARK 923 INTER-LIGAND FREE ENERGY PREDICTED BY IDOCK:   -4.22 KCAL/MOL
REMARK 924 INTRA-LIGAND FREE ENERGY PREDICTED BY IDOCK:   -0.36 KCAL/MOL
REMARK 927      BINDING AFFINITY PREDICTED BY RF-SCORE:    0.00 PKD
ROOT
HETATM    1 CL   UNL     1     -11.718  15.214  64.463  1.00  0.00    -0.380 Cl 
HETATM    2  C   UNL     1     -11.379  13.881  65.493  1.00  0.00    -0.308 A  
HETATM    3  C   UNL     1     -10.461  12.914  65.095  1.00  0.00    -0.326 A  
HETATM    4  C   UNL     1     -10.186  11.835  65.937  1.00  0.00    -0.272 A  
HETATM    5  C   UNL     1     -10.826  11.709  67.182  1.00  0.00    -0.306 A  
HETATM    6  C   UNL     1     -11.748  12.693  67.571  1.00  0.00    -0.429 A  
HETATM    7  C   UNL     1     -12.023  13.774  66.727  1.00  0.00    -0.465 A  
ENDROOT
BRANCH   5   8
HETATM    8  C   UNL     1     -10.455  10.543  68.037  1.00  0.00    -0.197 C  
HETATM    9  O   UNL     1      -9.848  10.729  69.089  1.00  0.00    -0.209 OA 
HETATM   10  N   UNL     1     -10.806   9.280  67.609  1.00  0.00    -0.467 N  
HETATM   11  H   UNL     1     -11.340   9.161  66.748  1.00  0.00     0.000 HD 
BRANCH  10  12
HETATM   12  C   UNL     1     -10.411   8.123  68.389  1.00  0.00    -0.199 C  
BRANCH  12  13
HETATM   13  C   UNL     1      -9.610   7.096  67.572  1.00  0.00    -0.132 C  
BRANCH  13  14
HETATM   14  N   UNL     1      -8.140   7.269  67.628  1.00  0.00    -0.113 NA 
HETATM   15  C   UNL     1      -7.629   7.449  69.011  1.00  0.00    -0.102 C  
HETATM   16  C   UNL     1      -7.720   6.184  69.881  1.00  0.00    -0.100 C  
HETATM   17  O   UNL     1      -7.033   5.082  69.271  1.00  0.00    -0.052 OA 
HETATM   18  C   UNL     1      -7.538   4.825  67.955  1.00  0.00    -0.082 C  
HETATM   19  C   UNL     1      -7.453   6.079  67.063  1.00  0.00    -0.084 C  
ENDBRANCH  13  14
ENDBRANCH  12  13
ENDBRANCH  10  12
ENDBRANCH   5   8
TORSDOF 4
ENDMDL
MODEL      155
REMARK 921   NORMALIZED FREE ENERGY PREDICTED BY IDOCK:   -3.39 KCAL/MOL
REMARK 922        TOTAL FREE ENERGY PREDICTED BY IDOCK:   -4.57 KCAL/MOL
REMARK 923 INTER-LIGAND FREE ENERGY PREDICTED BY IDOCK:   -4.20 KCAL/MOL
REMARK 924 INTRA-LIGAND FREE ENERGY PREDICTED BY IDOCK:   -0.37 KCAL/MOL
REMARK 927      BINDING AFFINITY PREDICTED BY RF-SCORE:    0.00 PKD
ROOT
HETATM    1 CL   UNL     1     -10.100  20.084  66.812  1.00  0.00    -0.576 Cl 
HETATM    2  C   UNL     1      -9.314  18.579  67.074  1.00  0.00    -0.288 A  
HETATM    3  C   UNL     1      -8.500  18.039  66.083  1.00  0.00    -0.141 A  
HETATM    4  C   UNL     1      -7.861  16.818  66.302  1.00  0.00    -0.334 A  
HETATM    5  C   UNL     1      -8.030  16.122  67.513  1.00  0.00    -0.171 A  
HETATM    6  C   UNL     1      -8.851  16.679  68.504  1.00  0.00    -0.235 A  
HETATM    7  C   UNL     1      -9.492  17.902  68.283  1.00  0.00    -0.300 A  
ENDROOT
BRANCH   5   8
HETATM    8  C   UNL     1      -7.288  14.837  67.681  1.00  0.00    -0.186 C  
HETATM    9  O   UNL     1      -6.102  14.775  67.367  1.00  0.00    -0.338 OA 
HETATM   10  N   UNL     1      -7.969  13.750  68.185  1.00  0.00    -0.138 N  
HETATM   11  H   UNL     1      -8.945  13.843  68.470  1.00  0.00     0.000 HD 
BRANCH  10  12
HETATM   12  C   UNL     1      -7.292  12.473  68.309  1.00  0.00    -0.115 C  
BRANCH  12  13
HETATM   13  C   UNL     1      -8.003  11.343  67.547  1.00  0.00    -0.127 C  
BRANCH  13  14
HETATM   14  N   UNL     1      -9.445  11.572  67.302  1.00  0.00    -0.168 NA 
HETATM   15  C   UNL     1      -9.849  11.281  65.903  1.00  0.00    -0.232 C  
HETATM   16  C   UNL     1      -9.814   9.787  65.538  1.00  0.00    -0.308 C  
HETATM   17  O   UNL     1     -10.631   9.014  66.429  1.00  0.00    -0.148 OA 
HETATM   18  C   UNL     1     -10.236   9.209  67.792  1.00  0.00    -0.224 C  
HETATM   19  C   UNL     1     -10.268  10.701  68.180  1.00  0.00    -0.168 C  
ENDBRANCH  13  14
ENDBRANCH  12  13
ENDBRANCH  10  12
ENDBRANCH   5   8
TORSDOF 4
ENDMDL
MODEL      156
REMARK 921   NORMALIZED FREE ENERGY PREDICTED BY IDOCK:   -3.36 KCAL/MOL
REMARK 922        TOTAL FREE ENERGY PREDICTED BY IDOCK:   -4.54 KCAL/MOL
REMARK 923 INTER-LIGAND FREE ENERGY PREDICTED BY IDOCK:   -4.13 KCAL/MOL
REMARK 924 INTRA-LIGAND FREE ENERGY PREDICTED BY IDOCK:   -0.40 KCAL/MOL
REMARK 927      BINDING AFFINITY PREDICTED BY RF-SCORE:    0.00 PKD
ROOT
HETATM    1 CL   UNL     1      -6.572   5.519  66.921  1.00  0.00    -0.054 Cl 
HETATM    2  C   UNL     1      -7.579   6.854  66.525  1.00  0.00    -0.089 A  
HETATM    3  C   UNL     1      -8.274   7.520  67.529  1.00  0.00    -0.113 A  
HETATM    4  C   UNL     1      -9.088   8.606  67.203  1.00  0.00    -0.156 A  
HETATM    5  C   UNL     1      -9.218   9.036  65.871  1.00  0.00    -0.290 A  
HETATM    6  C   UNL     1      -8.510   8.356  64.868  1.00  0.00    -0.141 A  
HETATM    7  C   UNL     1      -7.695   7.267  65.196  1.00  0.00    -0.113 A  
ENDROOT
BRANCH   5   8
HETATM    8  C   UNL     1     -10.084  10.223  65.608  1.00  0.00    -0.271 C  
HETATM    9  O   UNL     1     -10.293  10.578  64.450  1.00  0.00    -0.341 OA 
HETATM   10  N   UNL     1     -10.621  10.893  66.687  1.00  0.00    -0.254 N  
HETATM   11  H   UNL     1     -10.457  10.553  67.635  1.00  0.00     0.000 HD 
BRANCH  10  12
HETATM   12  C   UNL     1     -11.420  12.083  66.467  1.00  0.00    -0.349 C  
BRANCH  12  13
HETATM   13  C   UNL     1     -10.911  13.300  67.257  1.00  0.00    -0.264 C  
BRANCH  13  14
HETATM   14  N   UNL     1      -9.790  14.028  66.619  1.00  0.00    -0.275 NA 
HETATM   15  C   UNL     1     -10.123  14.535  65.264  1.00  0.00    -0.357 C  
HETATM   16  C   UNL     1     -11.144  15.685  65.259  1.00  0.00    -0.303 C  
HETATM   17  O   UNL     1     -10.697  16.782  66.069  1.00  0.00    -0.257 OA 
HETATM   18  C   UNL     1     -10.424  16.356  67.409  1.00  0.00    -0.309 C  
HETATM   19  C   UNL     1      -9.400  15.204  67.438  1.00  0.00    -0.196 C  
ENDBRANCH  13  14
ENDBRANCH  12  13
ENDBRANCH  10  12
ENDBRANCH   5   8
TORSDOF 4
ENDMDL
MODEL      157
REMARK 921   NORMALIZED FREE ENERGY PREDICTED BY IDOCK:   -3.34 KCAL/MOL
REMARK 922        TOTAL FREE ENERGY PREDICTED BY IDOCK:   -4.51 KCAL/MOL
REMARK 923 INTER-LIGAND FREE ENERGY PREDICTED BY IDOCK:   -4.14 KCAL/MOL
REMARK 924 INTRA-LIGAND FREE ENERGY PREDICTED BY IDOCK:   -0.38 KCAL/MOL
REMARK 927      BINDING AFFINITY PREDICTED BY RF-SCORE:    0.00 PKD
ROOT
HETATM    1 CL   UNL     1      -9.899  15.565  65.385  1.00  0.00    -0.338 Cl 
HETATM    2  C   UNL     1      -9.713  13.983  66.030  1.00  0.00    -0.258 A  
HETATM    3  C   UNL     1      -8.718  13.730  66.969  1.00  0.00    -0.212 A  
HETATM    4  C   UNL     1      -8.573  12.444  67.491  1.00  0.00    -0.177 A  
HETATM    5  C   UNL     1      -9.419  11.398  67.081  1.00  0.00    -0.186 A  
HETATM    6  C   UNL     1     -10.419  11.669  66.135  1.00  0.00    -0.289 A  
HETATM    7  C   UNL     1     -10.563  12.957  65.612  1.00  0.00    -0.295 A  
ENDROOT
BRANCH   5   8
HETATM    8  C   UNL     1      -9.219  10.059  67.710  1.00  0.00    -0.134 C  
HETATM    9  O   UNL     1      -8.149   9.797  68.256  1.00  0.00    -0.103 OA 
HETATM   10  N   UNL     1     -10.251   9.147  67.651  1.00  0.00    -0.221 N  
HETATM   11  H   UNL     1     -11.140   9.406  67.220  1.00  0.00     0.000 HD 
BRANCH  10  12
HETATM   12  C   UNL     1     -10.069   7.819  68.203  1.00  0.00    -0.185 C  
BRANCH  12  13
HETATM   13  C   UNL     1     -10.718   7.652  69.586  1.00  0.00    -0.228 C  
BRANCH  13  14
HETATM   14  N   UNL     1     -10.794   8.893  70.390  1.00  0.00    -0.230 NA 
HETATM   15  C   UNL     1     -12.044   8.994  71.186  1.00  0.00    -0.287 C  
HETATM   16  C   UNL     1     -12.127   7.992  72.349  1.00  0.00    -0.321 C  
HETATM   17  O   UNL     1     -11.003   8.121  73.231  1.00  0.00    -0.148 OA 
HETATM   18  C   UNL     1      -9.770   7.964  72.520  1.00  0.00    -0.227 C  
HETATM   19  C   UNL     1      -9.662   8.963  71.350  1.00  0.00    -0.300 C  
ENDBRANCH  13  14
ENDBRANCH  12  13
ENDBRANCH  10  12
ENDBRANCH   5   8
TORSDOF 4
ENDMDL
MODEL      158
REMARK 921   NORMALIZED FREE ENERGY PREDICTED BY IDOCK:   -3.32 KCAL/MOL
REMARK 922        TOTAL FREE ENERGY PREDICTED BY IDOCK:   -4.49 KCAL/MOL
REMARK 923 INTER-LIGAND FREE ENERGY PREDICTED BY IDOCK:   -4.47 KCAL/MOL
REMARK 924 INTRA-LIGAND FREE ENERGY PREDICTED BY IDOCK:   -0.02 KCAL/MOL
REMARK 927      BINDING AFFINITY PREDICTED BY RF-SCORE:    0.00 PKD
ROOT
HETATM    1 CL   UNL     1     -10.104  15.012  66.402  1.00  0.00    -0.274 Cl 
HETATM    2  C   UNL     1     -10.306  13.395  66.947  1.00  0.00    -0.257 A  
HETATM    3  C   UNL     1      -9.201  12.557  67.057  1.00  0.00    -0.214 A  
HETATM    4  C   UNL     1      -9.370  11.245  67.504  1.00  0.00    -0.166 A  
HETATM    5  C   UNL     1     -10.645  10.757  67.843  1.00  0.00    -0.258 A  
HETATM    6  C   UNL     1     -11.750  11.614  67.729  1.00  0.00    -0.315 A  
HETATM    7  C   UNL     1     -11.579  12.928  67.281  1.00  0.00    -0.416 A  
ENDROOT
BRANCH   5   8
HETATM    8  C   UNL     1     -10.738   9.353  68.341  1.00  0.00    -0.168 C  
HETATM    9  O   UNL     1     -10.602   8.419  67.555  1.00  0.00    -0.255 OA 
HETATM   10  N   UNL     1     -10.980   9.149  69.683  1.00  0.00    -0.363 N  
HETATM   11  H   UNL     1     -11.053   9.946  70.317  1.00  0.00     0.000 HD 
BRANCH  10  12
HETATM   12  C   UNL     1     -11.131   7.799  70.188  1.00  0.00    -0.209 C  
BRANCH  12  13
HETATM   13  C   UNL     1     -11.209   7.739  71.723  1.00  0.00    -0.256 C  
BRANCH  13  14
HETATM   14  N   UNL     1     -10.038   7.113  72.379  1.00  0.00    -0.179 NA 
HETATM   15  C   UNL     1     -10.399   6.331  73.588  1.00  0.00    -0.273 C  
HETATM   16  C   UNL     1     -11.180   5.040  73.288  1.00  0.00    -0.338 C  
HETATM   17  O   UNL     1     -10.458   4.191  72.384  1.00  0.00    -0.170 OA 
HETATM   18  C   UNL     1     -10.142   4.883  71.170  1.00  0.00    -0.207 C  
HETATM   19  C   UNL     1      -9.355   6.179  71.446  1.00  0.00    -0.152 C  
ENDBRANCH  13  14
ENDBRANCH  12  13
ENDBRANCH  10  12
ENDBRANCH   5   8
TORSDOF 4
ENDMDL
MODEL      159
REMARK 921   NORMALIZED FREE ENERGY PREDICTED BY IDOCK:   -3.30 KCAL/MOL
REMARK 922        TOTAL FREE ENERGY PREDICTED BY IDOCK:   -4.46 KCAL/MOL
REMARK 923 INTER-LIGAND FREE ENERGY PREDICTED BY IDOCK:   -4.20 KCAL/MOL
REMARK 924 INTRA-LIGAND FREE ENERGY PREDICTED BY IDOCK:   -0.26 KCAL/MOL
REMARK 927      BINDING AFFINITY PREDICTED BY RF-SCORE:    0.00 PKD
ROOT
HETATM    1 CL   UNL     1      -9.835   5.140  71.815  1.00  0.00    -0.218 Cl 
HETATM    2  C   UNL     1     -10.318   6.718  71.335  1.00  0.00    -0.202 A  
HETATM    3  C   UNL     1     -11.485   7.272  71.851  1.00  0.00    -0.302 A  
HETATM    4  C   UNL     1     -11.871   8.555  71.461  1.00  0.00    -0.353 A  
HETATM    5  C   UNL     1     -11.098   9.296  70.550  1.00  0.00    -0.317 A  
HETATM    6  C   UNL     1      -9.922   8.726  70.040  1.00  0.00    -0.196 A  
HETATM    7  C   UNL     1      -9.536   7.440  70.431  1.00  0.00    -0.165 A  
ENDROOT
BRANCH   5   8
HETATM    8  C   UNL     1     -11.563  10.673  70.207  1.00  0.00    -0.336 C  
HETATM    9  O   UNL     1     -12.150  11.344  71.052  1.00  0.00    -0.318 OA 
HETATM   10  N   UNL     1     -11.319  11.148  68.936  1.00  0.00    -0.250 N  
HETATM   11  H   UNL     1     -10.798  10.580  68.267  1.00  0.00     0.000 HD 
BRANCH  10  12
HETATM   12  C   UNL     1     -11.807  12.459  68.554  1.00  0.00    -0.304 C  
BRANCH  12  13
HETATM   13  C   UNL     1     -11.436  12.839  67.111  1.00  0.00    -0.337 C  
BRANCH  13  14
HETATM   14  N   UNL     1     -10.298  13.778  66.989  1.00  0.00    -0.258 NA 
HETATM   15  C   UNL     1      -9.927  14.061  65.580  1.00  0.00    -0.276 C  
HETATM   16  C   UNL     1     -10.965  14.898  64.814  1.00  0.00    -0.375 C  
HETATM   17  O   UNL     1     -11.231  16.139  65.482  1.00  0.00    -0.114 OA 
HETATM   18  C   UNL     1     -11.659  15.916  66.832  1.00  0.00     0.390 C  
HETATM   19  C   UNL     1     -10.630  15.082  67.620  1.00  0.00    -0.267 C  
ENDBRANCH  13  14
ENDBRANCH  12  13
ENDBRANCH  10  12
ENDBRANCH   5   8
TORSDOF 4
ENDMDL
MODEL      160
REMARK 921   NORMALIZED FREE ENERGY PREDICTED BY IDOCK:   -3.30 KCAL/MOL
REMARK 922        TOTAL FREE ENERGY PREDICTED BY IDOCK:   -4.46 KCAL/MOL
REMARK 923 INTER-LIGAND FREE ENERGY PREDICTED BY IDOCK:   -4.18 KCAL/MOL
REMARK 924 INTRA-LIGAND FREE ENERGY PREDICTED BY IDOCK:   -0.28 KCAL/MOL
REMARK 927      BINDING AFFINITY PREDICTED BY RF-SCORE:    0.00 PKD
ROOT
HETATM    1 CL   UNL     1     -12.321  13.829  65.563  1.00  0.00    -0.469 Cl 
HETATM    2  C   UNL     1     -11.307  12.886  66.581  1.00  0.00    -0.317 A  
HETATM    3  C   UNL     1     -11.778  11.688  67.110  1.00  0.00    -0.215 A  
HETATM    4  C   UNL     1     -10.950  10.924  67.934  1.00  0.00    -0.325 A  
HETATM    5  C   UNL     1      -9.644  11.349  68.238  1.00  0.00    -0.192 A  
HETATM    6  C   UNL     1      -9.182  12.557  67.696  1.00  0.00    -0.190 A  
HETATM    7  C   UNL     1     -10.013  13.322  66.871  1.00  0.00    -0.250 A  
ENDROOT
BRANCH   5   8
HETATM    8  C   UNL     1      -8.811  10.460  69.101  1.00  0.00    -0.172 C  
HETATM    9  O   UNL     1      -7.648  10.223  68.785  1.00  0.00    -0.083 OA 
HETATM   10  N   UNL     1      -9.385   9.924  70.235  1.00  0.00    -0.380 N  
HETATM   11  H   UNL     1     -10.343  10.167  70.489  1.00  0.00     0.000 HD 
BRANCH  10  12
HETATM   12  C   UNL     1      -8.620   9.012  71.064  1.00  0.00    -0.210 C  
BRANCH  12  13
HETATM   13  C   UNL     1      -9.337   7.674  71.301  1.00  0.00    -0.149 C  
BRANCH  13  14
HETATM   14  N   UNL     1      -9.673   7.393  72.716  1.00  0.00    -0.160 NA 
HETATM   15  C   UNL     1     -11.130   7.222  72.944  1.00  0.00    -0.325 C  
HETATM   16  C   UNL     1     -11.713   5.935  72.336  1.00  0.00    -0.253 C  
HETATM   17  O   UNL     1     -11.027   4.772  72.821  1.00  0.00    -0.222 OA 
HETATM   18  C   UNL     1      -9.620   4.859  72.564  1.00  0.00    -0.144 C  
HETATM   19  C   UNL     1      -9.014   6.141  73.169  1.00  0.00    -0.130 C  
ENDBRANCH  13  14
ENDBRANCH  12  13
ENDBRANCH  10  12
ENDBRANCH   5   8
TORSDOF 4
ENDMDL
MODEL      161
REMARK 921   NORMALIZED FREE ENERGY PREDICTED BY IDOCK:   -3.27 KCAL/MOL
REMARK 922        TOTAL FREE ENERGY PREDICTED BY IDOCK:   -4.43 KCAL/MOL
REMARK 923 INTER-LIGAND FREE ENERGY PREDICTED BY IDOCK:   -4.06 KCAL/MOL
REMARK 924 INTRA-LIGAND FREE ENERGY PREDICTED BY IDOCK:   -0.37 KCAL/MOL
REMARK 927      BINDING AFFINITY PREDICTED BY RF-SCORE:    0.00 PKD
ROOT
HETATM    1 CL   UNL     1      -8.802   7.132  68.659  1.00  0.00    -0.127 Cl 
HETATM    2  C   UNL     1      -8.735   8.780  68.177  1.00  0.00    -0.134 A  
HETATM    3  C   UNL     1      -7.919   9.671  68.866  1.00  0.00    -0.089 A  
HETATM    4  C   UNL     1      -7.866  11.008  68.468  1.00  0.00    -0.129 A  
HETATM    5  C   UNL     1      -8.628  11.469  67.380  1.00  0.00    -0.145 A  
HETATM    6  C   UNL     1      -9.445  10.558  66.693  1.00  0.00    -0.199 A  
HETATM    7  C   UNL     1      -9.498   9.219  67.093  1.00  0.00    -0.191 A  
ENDROOT
BRANCH   5   8
HETATM    8  C   UNL     1      -8.493  12.906  66.999  1.00  0.00    -0.142 C  
HETATM    9  O   UNL     1      -7.474  13.522  67.303  1.00  0.00    -0.147 OA 
HETATM   10  N   UNL     1      -9.530  13.502  66.314  1.00  0.00    -0.424 N  
HETATM   11  H   UNL     1     -10.349  12.955  66.046  1.00  0.00     0.000 HD 
BRANCH  10  12
HETATM   12  C   UNL     1      -9.453  14.911  65.979  1.00  0.00    -0.281 C  
BRANCH  12  13
HETATM   13  C   UNL     1     -10.329  15.791  66.885  1.00  0.00    -0.295 C  
BRANCH  13  14
HETATM   14  N   UNL     1      -9.583  16.583  67.889  1.00  0.00    -0.231 NA 
HETATM   15  C   UNL     1      -8.377  17.243  67.328  1.00  0.00    -0.201 C  
HETATM   16  C   UNL     1      -8.688  18.391  66.352  1.00  0.00    -0.247 C  
HETATM   17  O   UNL     1      -9.520  19.386  66.965  1.00  0.00    -0.304 OA 
HETATM   18  C   UNL     1     -10.731  18.808  67.465  1.00  0.00    -0.411 C  
HETATM   19  C   UNL     1     -10.444  17.657  68.449  1.00  0.00    -0.359 C  
ENDBRANCH  13  14
ENDBRANCH  12  13
ENDBRANCH  10  12
ENDBRANCH   5   8
TORSDOF 4
ENDMDL
MODEL      162
REMARK 921   NORMALIZED FREE ENERGY PREDICTED BY IDOCK:   -3.27 KCAL/MOL
REMARK 922        TOTAL FREE ENERGY PREDICTED BY IDOCK:   -4.43 KCAL/MOL
REMARK 923 INTER-LIGAND FREE ENERGY PREDICTED BY IDOCK:   -4.09 KCAL/MOL
REMARK 924 INTRA-LIGAND FREE ENERGY PREDICTED BY IDOCK:   -0.34 KCAL/MOL
REMARK 927      BINDING AFFINITY PREDICTED BY RF-SCORE:    0.00 PKD
ROOT
HETATM    1 CL   UNL     1     -11.891  15.535  64.258  1.00  0.00    -0.302 Cl 
HETATM    2  C   UNL     1     -11.122  14.154  64.932  1.00  0.00    -0.385 A  
HETATM    3  C   UNL     1     -11.044  12.976  64.196  1.00  0.00    -0.437 A  
HETATM    4  C   UNL     1     -10.415  11.858  64.746  1.00  0.00    -0.333 A  
HETATM    5  C   UNL     1      -9.859  11.905  66.036  1.00  0.00    -0.258 A  
HETATM    6  C   UNL     1      -9.942  13.100  66.766  1.00  0.00    -0.250 A  
HETATM    7  C   UNL     1     -10.573  14.220  66.214  1.00  0.00    -0.291 A  
ENDROOT
BRANCH   5   8
HETATM    8  C   UNL     1      -9.176  10.677  66.541  1.00  0.00    -0.166 C  
HETATM    9  O   UNL     1      -8.918   9.762  65.762  1.00  0.00    -0.145 OA 
HETATM   10  N   UNL     1      -8.860  10.608  67.881  1.00  0.00    -0.130 N  
HETATM   11  H   UNL     1      -9.056  11.398  68.495  1.00  0.00     0.000 HD 
BRANCH  10  12
HETATM   12  C   UNL     1      -8.247   9.405  68.412  1.00  0.00    -0.117 C  
BRANCH  12  13
HETATM   13  C   UNL     1      -9.161   8.651  69.391  1.00  0.00    -0.149 C  
BRANCH  13  14
HETATM   14  N   UNL     1      -8.779   7.241  69.634  1.00  0.00    -0.141 NA 
HETATM   15  C   UNL     1      -9.817   6.477  70.372  1.00  0.00    -0.175 C  
HETATM   16  C   UNL     1     -11.093   6.206  69.557  1.00  0.00    -0.420 C  
HETATM   17  O   UNL     1     -10.794   5.521  68.332  1.00  0.00    -0.155 OA 
HETATM   18  C   UNL     1      -9.842   6.253  67.551  1.00  0.00    -0.120 C  
HETATM   19  C   UNL     1      -8.553   6.533  68.348  1.00  0.00    -0.119 C  
ENDBRANCH  13  14
ENDBRANCH  12  13
ENDBRANCH  10  12
ENDBRANCH   5   8
TORSDOF 4
ENDMDL
MODEL      163
REMARK 921   NORMALIZED FREE ENERGY PREDICTED BY IDOCK:   -3.27 KCAL/MOL
REMARK 922        TOTAL FREE ENERGY PREDICTED BY IDOCK:   -4.42 KCAL/MOL
REMARK 923 INTER-LIGAND FREE ENERGY PREDICTED BY IDOCK:   -4.18 KCAL/MOL
REMARK 924 INTRA-LIGAND FREE ENERGY PREDICTED BY IDOCK:   -0.24 KCAL/MOL
REMARK 927      BINDING AFFINITY PREDICTED BY RF-SCORE:    0.00 PKD
ROOT
HETATM    1 CL   UNL     1      -6.217   3.610  66.783  1.00  0.00    -0.028 Cl 
HETATM    2  C   UNL     1      -6.929   5.047  66.165  1.00  0.00    -0.070 A  
HETATM    3  C   UNL     1      -7.799   5.787  66.960  1.00  0.00    -0.102 A  
HETATM    4  C   UNL     1      -8.371   6.955  66.455  1.00  0.00    -0.121 A  
HETATM    5  C   UNL     1      -8.082   7.396  65.152  1.00  0.00    -0.129 A  
HETATM    6  C   UNL     1      -7.201   6.641  64.362  1.00  0.00    -0.069 A  
HETATM    7  C   UNL     1      -6.629   5.470  64.869  1.00  0.00    -0.039 A  
ENDROOT
BRANCH   5   8
HETATM    8  C   UNL     1      -8.711   8.671  64.697  1.00  0.00    -0.029 C  
HETATM    9  O   UNL     1      -8.314   9.211  63.667  1.00  0.00    -0.169 OA 
HETATM   10  N   UNL     1      -9.725   9.210  65.460  1.00  0.00    -0.462 N  
HETATM   11  H   UNL     1     -10.056   8.719  66.291  1.00  0.00     0.000 HD 
BRANCH  10  12
HETATM   12  C   UNL     1     -10.318  10.476  65.075  1.00  0.00    -0.240 C  
BRANCH  12  13
HETATM   13  C   UNL     1     -10.512  11.431  66.264  1.00  0.00    -0.255 C  
BRANCH  13  14
HETATM   14  N   UNL     1     -11.850  12.061  66.342  1.00  0.00    -0.593 NA 
HETATM   15  C   UNL     1     -11.890  13.227  67.260  1.00  0.00    -0.372 C  
HETATM   16  C   UNL     1     -11.116  14.454  66.748  1.00  0.00    -0.323 C  
HETATM   17  O   UNL     1     -11.584  14.863  65.454  1.00  0.00    -0.339 OA 
HETATM   18  C   UNL     1     -11.503  13.787  64.512  1.00  0.00    -0.384 C  
HETATM   19  C   UNL     1     -12.275  12.547  65.004  1.00  0.00    -0.456 C  
ENDBRANCH  13  14
ENDBRANCH  12  13
ENDBRANCH  10  12
ENDBRANCH   5   8
TORSDOF 4
ENDMDL
MODEL      164
REMARK 921   NORMALIZED FREE ENERGY PREDICTED BY IDOCK:   -3.24 KCAL/MOL
REMARK 922        TOTAL FREE ENERGY PREDICTED BY IDOCK:   -4.39 KCAL/MOL
REMARK 923 INTER-LIGAND FREE ENERGY PREDICTED BY IDOCK:   -4.13 KCAL/MOL
REMARK 924 INTRA-LIGAND FREE ENERGY PREDICTED BY IDOCK:   -0.27 KCAL/MOL
REMARK 927      BINDING AFFINITY PREDICTED BY RF-SCORE:    0.00 PKD
ROOT
HETATM    1 CL   UNL     1     -11.156  11.962  65.388  1.00  0.00    -0.362 Cl 
HETATM    2  C   UNL     1     -10.946  11.154  66.891  1.00  0.00    -0.273 A  
HETATM    3  C   UNL     1     -11.518  11.679  68.046  1.00  0.00    -0.385 A  
HETATM    4  C   UNL     1     -11.347  11.018  69.263  1.00  0.00    -0.350 A  
HETATM    5  C   UNL     1     -10.602   9.827  69.339  1.00  0.00    -0.248 A  
HETATM    6  C   UNL     1     -10.033   9.309  68.167  1.00  0.00    -0.206 A  
HETATM    7  C   UNL     1     -10.204   9.972  66.948  1.00  0.00    -0.299 A  
ENDROOT
BRANCH   5   8
HETATM    8  C   UNL     1     -10.491   9.164  70.673  1.00  0.00    -0.245 C  
HETATM    9  O   UNL     1      -9.689   9.592  71.499  1.00  0.00    -0.195 OA 
HETATM   10  N   UNL     1     -11.300   8.079  70.933  1.00  0.00    -0.275 N  
HETATM   11  H   UNL     1     -11.981   7.769  70.239  1.00  0.00     0.000 HD 
BRANCH  10  12
HETATM   12  C   UNL     1     -11.178   7.379  72.197  1.00  0.00    -0.262 C  
BRANCH  12  13
HETATM   13  C   UNL     1     -10.365   6.079  72.085  1.00  0.00    -0.197 C  
BRANCH  13  14
HETATM   14  N   UNL     1     -10.884   4.951  72.891  1.00  0.00    -0.232 NA 
HETATM   15  C   UNL     1     -10.511   3.623  72.341  1.00  0.00    -0.042 C  
HETATM   16  C   UNL     1      -9.015   3.292  72.466  1.00  0.00    -0.088 C  
HETATM   17  O   UNL     1      -8.575   3.370  73.829  1.00  0.00    -0.081 OA 
HETATM   18  C   UNL     1      -8.854   4.659  74.388  1.00  0.00    -0.108 C  
HETATM   19  C   UNL     1     -10.351   5.012  74.277  1.00  0.00    -0.279 C  
ENDBRANCH  13  14
ENDBRANCH  12  13
ENDBRANCH  10  12
ENDBRANCH   5   8
TORSDOF 4
ENDMDL
MODEL      165
REMARK 921   NORMALIZED FREE ENERGY PREDICTED BY IDOCK:   -3.24 KCAL/MOL
REMARK 922        TOTAL FREE ENERGY PREDICTED BY IDOCK:   -4.39 KCAL/MOL
REMARK 923 INTER-LIGAND FREE ENERGY PREDICTED BY IDOCK:   -4.03 KCAL/MOL
REMARK 924 INTRA-LIGAND FREE ENERGY PREDICTED BY IDOCK:   -0.35 KCAL/MOL
REMARK 927      BINDING AFFINITY PREDICTED BY RF-SCORE:    0.00 PKD
ROOT
HETATM    1 CL   UNL     1     -13.242  10.465  72.195  1.00  0.00    -0.512 Cl 
HETATM    2  C   UNL     1     -12.233  10.117  70.849  1.00  0.00    -0.356 A  
HETATM    3  C   UNL     1     -12.235  10.962  69.743  1.00  0.00    -0.381 A  
HETATM    4  C   UNL     1     -11.411  10.677  68.654  1.00  0.00    -0.345 A  
HETATM    5  C   UNL     1     -10.577   9.544  68.656  1.00  0.00    -0.239 A  
HETATM    6  C   UNL     1     -10.584   8.702  69.778  1.00  0.00    -0.224 A  
HETATM    7  C   UNL     1     -11.411   8.988  70.869  1.00  0.00    -0.351 A  
ENDROOT
BRANCH   5   8
HETATM    8  C   UNL     1      -9.703   9.325  67.466  1.00  0.00    -0.158 C  
HETATM    9  O   UNL     1      -9.191  10.290  66.903  1.00  0.00    -0.148 OA 
HETATM   10  N   UNL     1      -9.502   8.033  67.030  1.00  0.00    -0.162 N  
HETATM   11  H   UNL     1      -9.913   7.250  67.540  1.00  0.00     0.000 HD 
BRANCH  10  12
HETATM   12  C   UNL     1      -8.703   7.792  65.844  1.00  0.00    -0.149 C  
BRANCH  12  13
HETATM   13  C   UNL     1      -8.630   6.304  65.464  1.00  0.00    -0.119 C  
BRANCH  13  14
HETATM   14  N   UNL     1      -9.415   5.402  66.337  1.00  0.00    -0.148 NA 
HETATM   15  C   UNL     1     -10.411   4.592  65.591  1.00  0.00    -0.247 C  
HETATM   16  C   UNL     1      -9.789   3.513  64.688  1.00  0.00    -0.168 C  
HETATM   17  O   UNL     1      -8.941   2.631  65.436  1.00  0.00    -0.128 OA 
HETATM   18  C   UNL     1      -7.919   3.361  66.125  1.00  0.00    -0.092 C  
HETATM   19  C   UNL     1      -8.519   4.447  67.040  1.00  0.00    -0.104 C  
ENDBRANCH  13  14
ENDBRANCH  12  13
ENDBRANCH  10  12
ENDBRANCH   5   8
TORSDOF 4
ENDMDL
MODEL      166
REMARK 921   NORMALIZED FREE ENERGY PREDICTED BY IDOCK:   -3.22 KCAL/MOL
REMARK 922        TOTAL FREE ENERGY PREDICTED BY IDOCK:   -4.36 KCAL/MOL
REMARK 923 INTER-LIGAND FREE ENERGY PREDICTED BY IDOCK:   -4.22 KCAL/MOL
REMARK 924 INTRA-LIGAND FREE ENERGY PREDICTED BY IDOCK:   -0.14 KCAL/MOL
REMARK 927      BINDING AFFINITY PREDICTED BY RF-SCORE:    0.00 PKD
ROOT
HETATM    1 CL   UNL     1     -10.069   4.147  71.363  1.00  0.00    -0.214 Cl 
HETATM    2  C   UNL     1      -9.936   5.774  70.823  1.00  0.00    -0.193 A  
HETATM    3  C   UNL     1     -11.078   6.476  70.451  1.00  0.00    -0.389 A  
HETATM    4  C   UNL     1     -10.965   7.798  70.017  1.00  0.00    -0.218 A  
HETATM    5  C   UNL     1      -9.711   8.430  69.948  1.00  0.00    -0.179 A  
HETATM    6  C   UNL     1      -8.569   7.711  70.329  1.00  0.00    -0.143 A  
HETATM    7  C   UNL     1      -8.683   6.386  70.764  1.00  0.00    -0.140 A  
ENDROOT
BRANCH   5   8
HETATM    8  C   UNL     1      -9.678   9.855  69.503  1.00  0.00    -0.220 C  
HETATM    9  O   UNL     1     -10.651  10.578  69.707  1.00  0.00    -0.247 OA 
HETATM   10  N   UNL     1      -8.545  10.315  68.866  1.00  0.00    -0.141 N  
HETATM   11  H   UNL     1      -7.741   9.700  68.742  1.00  0.00     0.000 HD 
BRANCH  10  12
HETATM   12  C   UNL     1      -8.504  11.678  68.372  1.00  0.00    -0.157 C  
BRANCH  12  13
HETATM   13  C   UNL     1      -9.201  11.843  67.011  1.00  0.00    -0.191 C  
BRANCH  13  14
HETATM   14  N   UNL     1      -9.354  13.244  66.558  1.00  0.00    -0.242 NA 
HETATM   15  C   UNL     1     -10.509  13.437  65.645  1.00  0.00    -0.290 C  
HETATM   16  C   UNL     1     -11.879  13.293  66.330  1.00  0.00    -0.395 C  
HETATM   17  O   UNL     1     -12.006  14.195  67.437  1.00  0.00    -0.395 OA 
HETATM   18  C   UNL     1     -10.948  14.003  68.383  1.00  0.00    -0.252 C  
HETATM   19  C   UNL     1      -9.564  14.147  67.719  1.00  0.00    -0.219 C  
ENDBRANCH  13  14
ENDBRANCH  12  13
ENDBRANCH  10  12
ENDBRANCH   5   8
TORSDOF 4
ENDMDL
MODEL      167
REMARK 921   NORMALIZED FREE ENERGY PREDICTED BY IDOCK:   -3.21 KCAL/MOL
REMARK 922        TOTAL FREE ENERGY PREDICTED BY IDOCK:   -4.35 KCAL/MOL
REMARK 923 INTER-LIGAND FREE ENERGY PREDICTED BY IDOCK:   -4.07 KCAL/MOL
REMARK 924 INTRA-LIGAND FREE ENERGY PREDICTED BY IDOCK:   -0.29 KCAL/MOL
REMARK 927      BINDING AFFINITY PREDICTED BY RF-SCORE:    0.00 PKD
ROOT
HETATM    1 CL   UNL     1     -10.954  14.068  64.879  1.00  0.00    -0.373 Cl 
HETATM    2  C   UNL     1     -10.667  12.508  65.540  1.00  0.00    -0.271 A  
HETATM    3  C   UNL     1     -11.071  12.221  66.840  1.00  0.00    -0.341 A  
HETATM    4  C   UNL     1     -10.839  10.952  67.372  1.00  0.00    -0.333 A  
HETATM    5  C   UNL     1     -10.200   9.957  66.611  1.00  0.00    -0.293 A  
HETATM    6  C   UNL     1      -9.800  10.259  65.301  1.00  0.00    -0.372 A  
HETATM    7  C   UNL     1     -10.033  11.532  64.770  1.00  0.00    -0.304 A  
ENDROOT
BRANCH   5   8
HETATM    8  C   UNL     1     -10.016   8.615  67.241  1.00  0.00    -0.219 C  
HETATM    9  O   UNL     1      -9.385   7.745  66.645  1.00  0.00    -0.168 OA 
HETATM   10  N   UNL     1     -10.571   8.394  68.484  1.00  0.00    -0.377 N  
HETATM   11  H   UNL     1     -11.059   9.148  68.968  1.00  0.00     0.000 HD 
BRANCH  10  12
HETATM   12  C   UNL     1     -10.458   7.085  69.097  1.00  0.00    -0.207 C  
BRANCH  12  13
HETATM   13  C   UNL     1      -9.889   7.141  70.524  1.00  0.00    -0.179 C  
BRANCH  13  14
HETATM   14  N   UNL     1      -9.809   5.832  71.212  1.00  0.00    -0.174 NA 
HETATM   15  C   UNL     1      -9.154   4.783  70.390  1.00  0.00    -0.119 C  
HETATM   16  C   UNL     1      -7.645   4.999  70.187  1.00  0.00    -0.060 C  
HETATM   17  O   UNL     1      -6.959   5.102  71.443  1.00  0.00    -0.049 OA 
HETATM   18  C   UNL     1      -7.514   6.149  72.249  1.00  0.00    -0.095 C  
HETATM   19  C   UNL     1      -9.027   5.950  72.469  1.00  0.00    -0.132 C  
ENDBRANCH  13  14
ENDBRANCH  12  13
ENDBRANCH  10  12
ENDBRANCH   5   8
TORSDOF 4
ENDMDL
MODEL      168
REMARK 921   NORMALIZED FREE ENERGY PREDICTED BY IDOCK:   -3.21 KCAL/MOL
REMARK 922        TOTAL FREE ENERGY PREDICTED BY IDOCK:   -4.35 KCAL/MOL
REMARK 923 INTER-LIGAND FREE ENERGY PREDICTED BY IDOCK:   -4.09 KCAL/MOL
REMARK 924 INTRA-LIGAND FREE ENERGY PREDICTED BY IDOCK:   -0.26 KCAL/MOL
REMARK 927      BINDING AFFINITY PREDICTED BY RF-SCORE:    0.00 PKD
ROOT
HETATM    1 CL   UNL     1     -10.950  12.177  64.900  1.00  0.00    -0.342 Cl 
HETATM    2  C   UNL     1     -10.834  11.133  66.260  1.00  0.00    -0.205 A  
HETATM    3  C   UNL     1     -11.292  11.559  67.503  1.00  0.00    -0.366 A  
HETATM    4  C   UNL     1     -11.198  10.706  68.603  1.00  0.00    -0.337 A  
HETATM    5  C   UNL     1     -10.644   9.420  68.474  1.00  0.00    -0.234 A  
HETATM    6  C   UNL     1     -10.188   9.002  67.214  1.00  0.00    -0.323 A  
HETATM    7  C   UNL     1     -10.282   9.859  66.112  1.00  0.00    -0.277 A  
ENDROOT
BRANCH   5   8
HETATM    8  C   UNL     1     -10.607   8.556  69.692  1.00  0.00    -0.220 C  
HETATM    9  O   UNL     1      -9.704   8.701  70.512  1.00  0.00    -0.168 OA 
HETATM   10  N   UNL     1     -11.597   7.611  69.854  1.00  0.00    -0.468 N  
HETATM   11  H   UNL     1     -12.353   7.539  69.173  1.00  0.00     0.000 HD 
BRANCH  10  12
HETATM   12  C   UNL     1     -11.558   6.720  70.998  1.00  0.00    -0.339 C  
BRANCH  12  13
HETATM   13  C   UNL     1     -10.904   5.366  70.679  1.00  0.00    -0.123 C  
BRANCH  13  14
HETATM   14  N   UNL     1      -9.494   5.448  70.236  1.00  0.00    -0.156 NA 
HETATM   15  C   UNL     1      -8.536   4.944  71.252  1.00  0.00    -0.116 C  
HETATM   16  C   UNL     1      -8.594   3.422  71.467  1.00  0.00    -0.076 C  
HETATM   17  O   UNL     1      -8.384   2.713  70.238  1.00  0.00    -0.041 OA 
HETATM   18  C   UNL     1      -9.330   3.117  69.241  1.00  0.00    -0.153 C  
HETATM   19  C   UNL     1      -9.286   4.640  69.006  1.00  0.00    -0.142 C  
ENDBRANCH  13  14
ENDBRANCH  12  13
ENDBRANCH  10  12
ENDBRANCH   5   8
TORSDOF 4
ENDMDL
MODEL      169
REMARK 921   NORMALIZED FREE ENERGY PREDICTED BY IDOCK:   -3.18 KCAL/MOL
REMARK 922        TOTAL FREE ENERGY PREDICTED BY IDOCK:   -4.31 KCAL/MOL
REMARK 923 INTER-LIGAND FREE ENERGY PREDICTED BY IDOCK:   -4.04 KCAL/MOL
REMARK 924 INTRA-LIGAND FREE ENERGY PREDICTED BY IDOCK:   -0.27 KCAL/MOL
REMARK 927      BINDING AFFINITY PREDICTED BY RF-SCORE:    0.00 PKD
ROOT
HETATM    1 CL   UNL     1     -10.640  17.877  67.369  1.00  0.00    -0.389 Cl 
HETATM    2  C   UNL     1     -10.515  16.240  66.862  1.00  0.00    -0.302 A  
HETATM    3  C   UNL     1     -10.534  15.218  67.806  1.00  0.00    -0.253 A  
HETATM    4  C   UNL     1     -10.436  13.890  67.389  1.00  0.00    -0.263 A  
HETATM    5  C   UNL     1     -10.315  13.569  66.025  1.00  0.00    -0.303 A  
HETATM    6  C   UNL     1     -10.299  14.609  65.084  1.00  0.00    -0.431 A  
HETATM    7  C   UNL     1     -10.397  15.940  65.503  1.00  0.00    -0.425 A  
ENDROOT
BRANCH   5   8
HETATM    8  C   UNL     1     -10.246  12.123  65.658  1.00  0.00    -0.256 C  
HETATM    9  O   UNL     1      -9.938  11.801  64.513  1.00  0.00    -0.249 OA 
HETATM   10  N   UNL     1     -10.538  11.187  66.627  1.00  0.00    -0.255 N  
HETATM   11  H   UNL     1     -10.756  11.485  67.578  1.00  0.00     0.000 HD 
BRANCH  10  12
HETATM   12  C   UNL     1     -10.534   9.777  66.288  1.00  0.00    -0.090 C  
BRANCH  12  13
HETATM   13  C   UNL     1      -9.715   8.927  67.272  1.00  0.00    -0.181 C  
BRANCH  13  14
HETATM   14  N   UNL     1      -9.372   7.572  66.784  1.00  0.00    -0.157 NA 
HETATM   15  C   UNL     1      -8.013   7.494  66.191  1.00  0.00    -0.111 C  
HETATM   16  C   UNL     1      -6.874   7.638  67.215  1.00  0.00    -0.069 C  
HETATM   17  O   UNL     1      -6.983   6.658  68.257  1.00  0.00    -0.071 OA 
HETATM   18  C   UNL     1      -8.257   6.735  68.907  1.00  0.00    -0.121 C  
HETATM   19  C   UNL     1      -9.415   6.590  67.899  1.00  0.00    -0.120 C  
ENDBRANCH  13  14
ENDBRANCH  12  13
ENDBRANCH  10  12
ENDBRANCH   5   8
TORSDOF 4
ENDMDL
MODEL      170
REMARK 921   NORMALIZED FREE ENERGY PREDICTED BY IDOCK:   -3.14 KCAL/MOL
REMARK 922        TOTAL FREE ENERGY PREDICTED BY IDOCK:   -4.27 KCAL/MOL
REMARK 923 INTER-LIGAND FREE ENERGY PREDICTED BY IDOCK:   -3.95 KCAL/MOL
REMARK 924 INTRA-LIGAND FREE ENERGY PREDICTED BY IDOCK:   -0.32 KCAL/MOL
REMARK 927      BINDING AFFINITY PREDICTED BY RF-SCORE:    0.00 PKD
ROOT
HETATM    1 CL   UNL     1     -12.709  10.417  71.808  1.00  0.00    -0.536 Cl 
HETATM    2  C   UNL     1     -12.020  10.585  70.243  1.00  0.00    -0.325 A  
HETATM    3  C   UNL     1     -12.224  11.755  69.517  1.00  0.00    -0.232 A  
HETATM    4  C   UNL     1     -11.659  11.887  68.248  1.00  0.00    -0.390 A  
HETATM    5  C   UNL     1     -10.888  10.853  67.689  1.00  0.00    -0.317 A  
HETATM    6  C   UNL     1     -10.689   9.680  68.433  1.00  0.00    -0.251 A  
HETATM    7  C   UNL     1     -11.255   9.548  69.705  1.00  0.00    -0.173 A  
ENDROOT
BRANCH   5   8
HETATM    8  C   UNL     1     -10.293  11.084  66.339  1.00  0.00    -0.250 C  
HETATM    9  O   UNL     1     -10.080  12.233  65.958  1.00  0.00    -0.237 OA 
HETATM   10  N   UNL     1     -10.005   9.988  65.555  1.00  0.00    -0.303 N  
HETATM   11  H   UNL     1     -10.162   9.045  65.913  1.00  0.00     0.000 HD 
BRANCH  10  12
HETATM   12  C   UNL     1      -9.479  10.181  64.217  1.00  0.00    -0.305 C  
BRANCH  12  13
HETATM   13  C   UNL     1      -8.106   9.521  64.013  1.00  0.00    -0.152 C  
BRANCH  13  14
HETATM   14  N   UNL     1      -8.157   8.104  63.586  1.00  0.00    -0.145 NA 
HETATM   15  C   UNL     1      -7.234   7.802  62.463  1.00  0.00    -0.092 C  
HETATM   16  C   UNL     1      -5.745   7.847  62.847  1.00  0.00    -0.063 C  
HETATM   17  O   UNL     1      -5.460   6.957  63.936  1.00  0.00    -0.027 OA 
HETATM   18  C   UNL     1      -6.282   7.251  65.071  1.00  0.00    -0.038 C  
HETATM   19  C   UNL     1      -7.780   7.208  64.710  1.00  0.00    -0.115 C  
ENDBRANCH  13  14
ENDBRANCH  12  13
ENDBRANCH  10  12
ENDBRANCH   5   8
TORSDOF 4
ENDMDL
MODEL      171
REMARK 921   NORMALIZED FREE ENERGY PREDICTED BY IDOCK:   -3.13 KCAL/MOL
REMARK 922        TOTAL FREE ENERGY PREDICTED BY IDOCK:   -4.26 KCAL/MOL
REMARK 923 INTER-LIGAND FREE ENERGY PREDICTED BY IDOCK:   -4.42 KCAL/MOL
REMARK 924 INTRA-LIGAND FREE ENERGY PREDICTED BY IDOCK:    0.16 KCAL/MOL
REMARK 927      BINDING AFFINITY PREDICTED BY RF-SCORE:    0.00 PKD
ROOT
HETATM    1 CL   UNL     1     -12.271  11.239  63.807  1.00  0.00     0.193 Cl 
HETATM    2  C   UNL     1     -11.718  12.818  64.201  1.00  0.00    -0.401 A  
HETATM    3  C   UNL     1     -12.601  13.893  64.157  1.00  0.00    -0.142 A  
HETATM    4  C   UNL     1     -12.147  15.172  64.481  1.00  0.00    -0.310 A  
HETATM    5  C   UNL     1     -10.808  15.392  64.849  1.00  0.00    -0.445 A  
HETATM    6  C   UNL     1      -9.930  14.299  64.891  1.00  0.00    -0.134 A  
HETATM    7  C   UNL     1     -10.385  13.017  64.566  1.00  0.00    -0.386 A  
ENDROOT
BRANCH   5   8
HETATM    8  C   UNL     1     -10.409  16.785  65.210  1.00  0.00    -0.052 C  
HETATM    9  O   UNL     1     -11.127  17.727  64.884  1.00  0.00    -0.821 OA 
HETATM   10  N   UNL     1      -9.231  16.969  65.902  1.00  0.00    -0.124 N  
HETATM   11  H   UNL     1      -8.673  16.164  66.189  1.00  0.00     0.000 HD 
BRANCH  10  12
HETATM   12  C   UNL     1      -8.787  18.313  66.218  1.00  0.00    -0.178 C  
BRANCH  12  13
HETATM   13  C   UNL     1      -7.256  18.444  66.263  1.00  0.00    -0.256 C  
BRANCH  13  14
HETATM   14  N   UNL     1      -6.622  17.892  67.482  1.00  0.00    -0.170 NA 
HETATM   15  C   UNL     1      -5.487  18.715  67.969  1.00  0.00    -0.177 C  
HETATM   16  C   UNL     1      -5.906  20.075  68.554  1.00  0.00    -0.243 C  
HETATM   17  O   UNL     1      -6.855  19.915  69.618  1.00  0.00    -0.340 OA 
HETATM   18  C   UNL     1      -8.003  19.181  69.178  1.00  0.00    -0.160 C  
HETATM   19  C   UNL     1      -7.607  17.811  68.591  1.00  0.00    -0.276 C  
ENDBRANCH  13  14
ENDBRANCH  12  13
ENDBRANCH  10  12
ENDBRANCH   5   8
TORSDOF 4
ENDMDL
MODEL      172
REMARK 921   NORMALIZED FREE ENERGY PREDICTED BY IDOCK:   -3.10 KCAL/MOL
REMARK 922        TOTAL FREE ENERGY PREDICTED BY IDOCK:   -4.21 KCAL/MOL
REMARK 923 INTER-LIGAND FREE ENERGY PREDICTED BY IDOCK:   -3.89 KCAL/MOL
REMARK 924 INTRA-LIGAND FREE ENERGY PREDICTED BY IDOCK:   -0.32 KCAL/MOL
REMARK 927      BINDING AFFINITY PREDICTED BY RF-SCORE:    0.00 PKD
ROOT
HETATM    1 CL   UNL     1     -10.675  14.274  67.553  1.00  0.00    -0.268 Cl 
HETATM    2  C   UNL     1     -10.688  12.600  67.942  1.00  0.00    -0.218 A  
HETATM    3  C   UNL     1      -9.906  11.712  67.210  1.00  0.00    -0.203 A  
HETATM    4  C   UNL     1      -9.917  10.354  67.532  1.00  0.00    -0.215 A  
HETATM    5  C   UNL     1     -10.711   9.869  68.587  1.00  0.00    -0.256 A  
HETATM    6  C   UNL     1     -11.492  10.776  69.318  1.00  0.00    -0.369 A  
HETATM    7  C   UNL     1     -11.481  12.137  68.994  1.00  0.00    -0.351 A  
ENDROOT
BRANCH   5   8
HETATM    8  C   UNL     1     -10.644   8.408  68.888  1.00  0.00    -0.140 C  
HETATM    9  O   UNL     1     -10.347   8.034  70.021  1.00  0.00    -0.208 OA 
HETATM   10  N   UNL     1     -10.915   7.517  67.872  1.00  0.00    -0.487 N  
HETATM   11  H   UNL     1     -11.193   7.859  66.951  1.00  0.00     0.000 HD 
BRANCH  10  12
HETATM   12  C   UNL     1     -10.804   6.092  68.118  1.00  0.00    -0.306 C  
BRANCH  12  13
HETATM   13  C   UNL     1     -10.238   5.320  66.916  1.00  0.00    -0.241 C  
BRANCH  13  14
HETATM   14  N   UNL     1      -8.805   5.569  66.638  1.00  0.00    -0.115 NA 
HETATM   15  C   UNL     1      -7.939   4.409  66.970  1.00  0.00    -0.101 C  
HETATM   16  C   UNL     1      -8.122   3.203  66.033  1.00  0.00    -0.089 C  
HETATM   17  O   UNL     1      -7.904   3.569  64.663  1.00  0.00    -0.083 OA 
HETATM   18  C   UNL     1      -8.766   4.645  64.274  1.00  0.00    -0.148 C  
HETATM   19  C   UNL     1      -8.597   5.867  65.198  1.00  0.00    -0.091 C  
ENDBRANCH  13  14
ENDBRANCH  12  13
ENDBRANCH  10  12
ENDBRANCH   5   8
TORSDOF 4
ENDMDL
MODEL      173
REMARK 921   NORMALIZED FREE ENERGY PREDICTED BY IDOCK:   -3.09 KCAL/MOL
REMARK 922        TOTAL FREE ENERGY PREDICTED BY IDOCK:   -4.21 KCAL/MOL
REMARK 923 INTER-LIGAND FREE ENERGY PREDICTED BY IDOCK:   -4.11 KCAL/MOL
REMARK 924 INTRA-LIGAND FREE ENERGY PREDICTED BY IDOCK:   -0.09 KCAL/MOL
REMARK 927      BINDING AFFINITY PREDICTED BY RF-SCORE:    0.00 PKD
ROOT
HETATM    1 CL   UNL     1     -13.422  12.352  72.017  1.00  0.00    -0.551 Cl 
HETATM    2  C   UNL     1     -12.509  11.272  71.041  1.00  0.00    -0.400 A  
HETATM    3  C   UNL     1     -12.050  10.072  71.576  1.00  0.00    -0.475 A  
HETATM    4  C   UNL     1     -11.312   9.197  70.778  1.00  0.00    -0.337 A  
HETATM    5  C   UNL     1     -11.022   9.512  69.439  1.00  0.00    -0.192 A  
HETATM    6  C   UNL     1     -11.493  10.724  68.912  1.00  0.00    -0.362 A  
HETATM    7  C   UNL     1     -12.232  11.600  69.712  1.00  0.00    -0.285 A  
ENDROOT
BRANCH   5   8
HETATM    8  C   UNL     1     -10.253   8.509  68.643  1.00  0.00    -0.197 C  
HETATM    9  O   UNL     1     -10.736   8.056  67.608  1.00  0.00    -0.216 OA 
HETATM   10  N   UNL     1      -9.015   8.117  69.105  1.00  0.00    -0.144 N  
HETATM   11  H   UNL     1      -8.627   8.538  69.950  1.00  0.00     0.000 HD 
BRANCH  10  12
HETATM   12  C   UNL     1      -8.268   7.104  68.385  1.00  0.00    -0.125 C  
BRANCH  12  13
HETATM   13  C   UNL     1      -8.335   5.722  69.055  1.00  0.00    -0.101 C  
BRANCH  13  14
HETATM   14  N   UNL     1      -9.246   5.641  70.219  1.00  0.00    -0.148 NA 
HETATM   15  C   UNL     1      -9.696   4.256  70.510  1.00  0.00    -0.212 C  
HETATM   16  C   UNL     1      -8.587   3.339  71.053  1.00  0.00    -0.071 C  
HETATM   17  O   UNL     1      -7.986   3.890  72.234  1.00  0.00    -0.077 OA 
HETATM   18  C   UNL     1      -7.476   5.205  71.987  1.00  0.00    -0.092 C  
HETATM   19  C   UNL     1      -8.572   6.144  71.444  1.00  0.00    -0.128 C  
ENDBRANCH  13  14
ENDBRANCH  12  13
ENDBRANCH  10  12
ENDBRANCH   5   8
TORSDOF 4
ENDMDL
MODEL      174
REMARK 921   NORMALIZED FREE ENERGY PREDICTED BY IDOCK:   -3.09 KCAL/MOL
REMARK 922        TOTAL FREE ENERGY PREDICTED BY IDOCK:   -4.20 KCAL/MOL
REMARK 923 INTER-LIGAND FREE ENERGY PREDICTED BY IDOCK:   -3.80 KCAL/MOL
REMARK 924 INTRA-LIGAND FREE ENERGY PREDICTED BY IDOCK:   -0.40 KCAL/MOL
REMARK 927      BINDING AFFINITY PREDICTED BY RF-SCORE:    0.00 PKD
ROOT
HETATM    1 CL   UNL     1     -12.126  13.584  63.586  1.00  0.00    -0.513 Cl 
HETATM    2  C   UNL     1     -11.027  12.586  64.452  1.00  0.00    -0.340 A  
HETATM    3  C   UNL     1     -10.518  11.436  63.857  1.00  0.00    -0.444 A  
HETATM    4  C   UNL     1      -9.623  10.631  64.563  1.00  0.00    -0.341 A  
HETATM    5  C   UNL     1      -9.231  10.964  65.872  1.00  0.00    -0.214 A  
HETATM    6  C   UNL     1      -9.751  12.127  66.459  1.00  0.00    -0.234 A  
HETATM    7  C   UNL     1     -10.647  12.933  65.750  1.00  0.00    -0.293 A  
ENDROOT
BRANCH   5   8
HETATM    8  C   UNL     1      -8.247  10.067  66.548  1.00  0.00    -0.119 C  
HETATM    9  O   UNL     1      -7.161  10.517  66.906  1.00  0.00    -0.092 OA 
HETATM   10  N   UNL     1      -8.593   8.747  66.747  1.00  0.00    -0.114 N  
HETATM   11  H   UNL     1      -9.516   8.412  66.470  1.00  0.00     0.000 HD 
BRANCH  10  12
HETATM   12  C   UNL     1      -7.638   7.838  67.351  1.00  0.00    -0.105 C  
BRANCH  12  13
HETATM   13  C   UNL     1      -8.291   6.849  68.330  1.00  0.00    -0.120 C  
BRANCH  13  14
HETATM   14  N   UNL     1      -7.734   6.876  69.702  1.00  0.00    -0.108 NA 
HETATM   15  C   UNL     1      -7.559   8.252  70.231  1.00  0.00    -0.072 C  
HETATM   16  C   UNL     1      -8.880   8.980  70.533  1.00  0.00    -0.208 C  
HETATM   17  O   UNL     1      -9.691   8.230  71.448  1.00  0.00    -0.163 OA 
HETATM   18  C   UNL     1      -9.945   6.911  70.950  1.00  0.00    -0.189 C  
HETATM   19  C   UNL     1      -8.633   6.161  70.644  1.00  0.00    -0.135 C  
ENDBRANCH  13  14
ENDBRANCH  12  13
ENDBRANCH  10  12
ENDBRANCH   5   8
TORSDOF 4
ENDMDL
MODEL      175
REMARK 921   NORMALIZED FREE ENERGY PREDICTED BY IDOCK:   -3.06 KCAL/MOL
REMARK 922        TOTAL FREE ENERGY PREDICTED BY IDOCK:   -4.17 KCAL/MOL
REMARK 923 INTER-LIGAND FREE ENERGY PREDICTED BY IDOCK:   -3.90 KCAL/MOL
REMARK 924 INTRA-LIGAND FREE ENERGY PREDICTED BY IDOCK:   -0.26 KCAL/MOL
REMARK 927      BINDING AFFINITY PREDICTED BY RF-SCORE:    0.00 PKD
ROOT
HETATM    1 CL   UNL     1     -12.227  14.416  64.175  1.00  0.00    -0.473 Cl 
HETATM    2  C   UNL     1     -11.551  13.182  65.162  1.00  0.00    -0.318 A  
HETATM    3  C   UNL     1     -11.867  13.126  66.516  1.00  0.00    -0.456 A  
HETATM    4  C   UNL     1     -11.319  12.119  67.312  1.00  0.00    -0.398 A  
HETATM    5  C   UNL     1     -10.448  11.160  66.765  1.00  0.00    -0.297 A  
HETATM    6  C   UNL     1     -10.140  11.228  65.398  1.00  0.00    -0.314 A  
HETATM    7  C   UNL     1     -10.689  12.237  64.601  1.00  0.00    -0.347 A  
ENDROOT
BRANCH   5   8
HETATM    8  C   UNL     1      -9.927  10.098  67.676  1.00  0.00    -0.181 C  
HETATM    9  O   UNL     1     -10.530   9.840  68.715  1.00  0.00    -0.202 OA 
HETATM   10  N   UNL     1      -8.770   9.438  67.319  1.00  0.00    -0.128 N  
HETATM   11  H   UNL     1      -8.312   9.651  66.432  1.00  0.00     0.000 HD 
BRANCH  10  12
HETATM   12  C   UNL     1      -8.209   8.441  68.209  1.00  0.00    -0.124 C  
BRANCH  12  13
HETATM   13  C   UNL     1      -7.910   7.109  67.503  1.00  0.00    -0.112 C  
BRANCH  13  14
HETATM   14  N   UNL     1      -7.524   6.001  68.406  1.00  0.00    -0.085 NA 
HETATM   15  C   UNL     1      -8.687   5.211  68.885  1.00  0.00    -0.089 C  
HETATM   16  C   UNL     1      -9.359   4.361  67.794  1.00  0.00    -0.153 C  
HETATM   17  O   UNL     1      -8.419   3.474  67.171  1.00  0.00    -0.099 OA 
HETATM   18  C   UNL     1      -7.307   4.197  66.632  1.00  0.00    -0.076 C  
HETATM   19  C   UNL     1      -6.614   5.054  67.710  1.00  0.00    -0.050 C  
ENDBRANCH  13  14
ENDBRANCH  12  13
ENDBRANCH  10  12
ENDBRANCH   5   8
TORSDOF 4
ENDMDL
MODEL      176
REMARK 921   NORMALIZED FREE ENERGY PREDICTED BY IDOCK:   -3.04 KCAL/MOL
REMARK 922        TOTAL FREE ENERGY PREDICTED BY IDOCK:   -4.15 KCAL/MOL
REMARK 923 INTER-LIGAND FREE ENERGY PREDICTED BY IDOCK:   -3.79 KCAL/MOL
REMARK 924 INTRA-LIGAND FREE ENERGY PREDICTED BY IDOCK:   -0.36 KCAL/MOL
REMARK 927      BINDING AFFINITY PREDICTED BY RF-SCORE:    0.00 PKD
ROOT
HETATM    1 CL   UNL     1     -10.118  14.645  66.447  1.00  0.00    -0.275 Cl 
HETATM    2  C   UNL     1     -10.397  13.357  67.550  1.00  0.00    -0.226 A  
HETATM    3  C   UNL     1      -9.355  12.503  67.897  1.00  0.00    -0.200 A  
HETATM    4  C   UNL     1      -9.586  11.461  68.796  1.00  0.00    -0.139 A  
HETATM    5  C   UNL     1     -10.860  11.260  69.356  1.00  0.00    -0.239 A  
HETATM    6  C   UNL     1     -11.901  12.130  68.999  1.00  0.00    -0.361 A  
HETATM    7  C   UNL     1     -11.669  13.174  68.097  1.00  0.00    -0.391 A  
ENDROOT
BRANCH   5   8
HETATM    8  C   UNL     1     -11.018  10.142  70.333  1.00  0.00    -0.319 C  
HETATM    9  O   UNL     1     -12.113   9.599  70.463  1.00  0.00    -0.231 OA 
HETATM   10  N   UNL     1      -9.918   9.755  71.068  1.00  0.00    -0.288 N  
HETATM   11  H   UNL     1      -9.014  10.203  70.913  1.00  0.00     0.000 HD 
BRANCH  10  12
HETATM   12  C   UNL     1     -10.052   8.710  72.065  1.00  0.00    -0.331 C  
BRANCH  12  13
HETATM   13  C   UNL     1      -8.976   7.620  71.937  1.00  0.00    -0.120 C  
BRANCH  13  14
HETATM   14  N   UNL     1      -9.383   6.436  71.148  1.00  0.00    -0.160 NA 
HETATM   15  C   UNL     1      -9.449   6.705  69.689  1.00  0.00    -0.142 C  
HETATM   16  C   UNL     1      -8.077   6.927  69.031  1.00  0.00    -0.117 C  
HETATM   17  O   UNL     1      -7.202   5.813  69.259  1.00  0.00    -0.063 OA 
HETATM   18  C   UNL     1      -7.053   5.553  70.660  1.00  0.00    -0.062 C  
HETATM   19  C   UNL     1      -8.417   5.324  71.340  1.00  0.00    -0.125 C  
ENDBRANCH  13  14
ENDBRANCH  12  13
ENDBRANCH  10  12
ENDBRANCH   5   8
TORSDOF 4
ENDMDL
MODEL      177
REMARK 921   NORMALIZED FREE ENERGY PREDICTED BY IDOCK:   -3.00 KCAL/MOL
REMARK 922        TOTAL FREE ENERGY PREDICTED BY IDOCK:   -4.10 KCAL/MOL
REMARK 923 INTER-LIGAND FREE ENERGY PREDICTED BY IDOCK:   -3.70 KCAL/MOL
REMARK 924 INTRA-LIGAND FREE ENERGY PREDICTED BY IDOCK:   -0.40 KCAL/MOL
REMARK 927      BINDING AFFINITY PREDICTED BY RF-SCORE:    0.00 PKD
ROOT
HETATM    1 CL   UNL     1     -12.313  17.518  73.870  1.00  0.00     0.648 Cl 
HETATM    2  C   UNL     1     -12.348  16.039  72.995  1.00  0.00    -0.520 A  
HETATM    3  C   UNL     1     -11.826  15.983  71.706  1.00  0.00    -0.599 A  
HETATM    4  C   UNL     1     -11.853  14.779  71.002  1.00  0.00    -0.383 A  
HETATM    5  C   UNL     1     -12.404  13.619  71.576  1.00  0.00    -0.242 A  
HETATM    6  C   UNL     1     -12.924  13.689  72.876  1.00  0.00    -0.128 A  
HETATM    7  C   UNL     1     -12.896  14.896  73.582  1.00  0.00    -0.522 A  
ENDROOT
BRANCH   5   8
HETATM    8  C   UNL     1     -12.367  12.363  70.768  1.00  0.00    -0.286 C  
HETATM    9  O   UNL     1     -12.478  12.423  69.546  1.00  0.00    -0.010 OA 
HETATM   10  N   UNL     1     -12.214  11.164  71.431  1.00  0.00    -0.212 N  
HETATM   11  H   UNL     1     -12.090  11.149  72.444  1.00  0.00     0.000 HD 
BRANCH  10  12
HETATM   12  C   UNL     1     -12.231   9.923  70.681  1.00  0.00    -0.238 C  
BRANCH  12  13
HETATM   13  C   UNL     1     -10.827   9.459  70.260  1.00  0.00    -0.258 C  
BRANCH  13  14
HETATM   14  N   UNL     1     -10.725   8.981  68.862  1.00  0.00    -0.172 NA 
HETATM   15  C   UNL     1     -10.538  10.083  67.884  1.00  0.00    -0.250 C  
HETATM   16  C   UNL     1      -9.162  10.766  67.967  1.00  0.00    -0.150 C  
HETATM   17  O   UNL     1      -8.098   9.818  67.808  1.00  0.00    -0.111 OA 
HETATM   18  C   UNL     1      -8.197   8.766  68.776  1.00  0.00    -0.116 C  
HETATM   19  C   UNL     1      -9.567   8.063  68.708  1.00  0.00    -0.149 C  
ENDBRANCH  13  14
ENDBRANCH  12  13
ENDBRANCH  10  12
ENDBRANCH   5   8
TORSDOF 4
ENDMDL
MODEL      178
REMARK 921   NORMALIZED FREE ENERGY PREDICTED BY IDOCK:   -3.00 KCAL/MOL
REMARK 922        TOTAL FREE ENERGY PREDICTED BY IDOCK:   -4.09 KCAL/MOL
REMARK 923 INTER-LIGAND FREE ENERGY PREDICTED BY IDOCK:   -3.75 KCAL/MOL
REMARK 924 INTRA-LIGAND FREE ENERGY PREDICTED BY IDOCK:   -0.35 KCAL/MOL
REMARK 927      BINDING AFFINITY PREDICTED BY RF-SCORE:    0.00 PKD
ROOT
HETATM    1 CL   UNL     1     -12.253  12.545  69.824  1.00  0.00    -0.254 Cl 
HETATM    2  C   UNL     1     -11.789  10.959  70.296  1.00  0.00    -0.361 A  
HETATM    3  C   UNL     1     -10.841  10.264  69.552  1.00  0.00    -0.292 A  
HETATM    4  C   UNL     1     -10.465   8.978  69.941  1.00  0.00    -0.226 A  
HETATM    5  C   UNL     1     -11.033   8.372  71.076  1.00  0.00    -0.288 A  
HETATM    6  C   UNL     1     -11.986   9.085  71.818  1.00  0.00    -0.438 A  
HETATM    7  C   UNL     1     -12.363  10.374  71.426  1.00  0.00    -0.500 A  
ENDROOT
BRANCH   5   8
HETATM    8  C   UNL     1     -10.555   7.006  71.443  1.00  0.00    -0.217 C  
HETATM    9  O   UNL     1      -9.909   6.846  72.476  1.00  0.00    -0.157 OA 
HETATM   10  N   UNL     1     -10.854   5.958  70.598  1.00  0.00    -0.289 N  
HETATM   11  H   UNL     1     -11.422   6.118  69.765  1.00  0.00     0.000 HD 
BRANCH  10  12
HETATM   12  C   UNL     1     -10.357   4.630  70.898  1.00  0.00    -0.067 C  
BRANCH  12  13
HETATM   13  C   UNL     1      -9.526   4.029  69.753  1.00  0.00    -0.195 C  
BRANCH  13  14
HETATM   14  N   UNL     1      -8.508   4.939  69.181  1.00  0.00    -0.081 NA 
HETATM   15  C   UNL     1      -7.144   4.353  69.173  1.00  0.00    -0.051 C  
HETATM   16  C   UNL     1      -6.966   3.196  68.175  1.00  0.00    -0.049 C  
HETATM   17  O   UNL     1      -7.307   3.599  66.841  1.00  0.00    -0.066 OA 
HETATM   18  C   UNL     1      -8.643   4.113  66.784  1.00  0.00    -0.108 C  
HETATM   19  C   UNL     1      -8.843   5.278  67.774  1.00  0.00    -0.105 C  
ENDBRANCH  13  14
ENDBRANCH  12  13
ENDBRANCH  10  12
ENDBRANCH   5   8
TORSDOF 4
ENDMDL
MODEL      179
REMARK 921   NORMALIZED FREE ENERGY PREDICTED BY IDOCK:   -2.94 KCAL/MOL
REMARK 922        TOTAL FREE ENERGY PREDICTED BY IDOCK:   -4.02 KCAL/MOL
REMARK 923 INTER-LIGAND FREE ENERGY PREDICTED BY IDOCK:   -3.74 KCAL/MOL
REMARK 924 INTRA-LIGAND FREE ENERGY PREDICTED BY IDOCK:   -0.28 KCAL/MOL
REMARK 927      BINDING AFFINITY PREDICTED BY RF-SCORE:    0.00 PKD
ROOT
HETATM    1 CL   UNL     1     -10.632  19.947  67.208  1.00  0.00    -0.547 Cl 
HETATM    2  C   UNL     1      -9.664  18.527  67.203  1.00  0.00    -0.304 A  
HETATM    3  C   UNL     1      -8.720  18.328  68.206  1.00  0.00    -0.302 A  
HETATM    4  C   UNL     1      -7.938  17.172  68.200  1.00  0.00    -0.216 A  
HETATM    5  C   UNL     1      -8.090  16.204  67.191  1.00  0.00    -0.223 A  
HETATM    6  C   UNL     1      -9.047  16.416  66.188  1.00  0.00    -0.362 A  
HETATM    7  C   UNL     1      -9.829  17.576  66.194  1.00  0.00    -0.256 A  
ENDROOT
BRANCH   5   8
HETATM    8  C   UNL     1      -7.237  14.981  67.272  1.00  0.00    -0.140 C  
HETATM    9  O   UNL     1      -6.020  15.096  67.397  1.00  0.00    -0.334 OA 
HETATM   10  N   UNL     1      -7.851  13.749  67.197  1.00  0.00    -0.366 N  
HETATM   11  H   UNL     1      -8.867  13.686  67.128  1.00  0.00     0.000 HD 
BRANCH  10  12
HETATM   12  C   UNL     1      -7.046  12.543  67.217  1.00  0.00    -0.112 C  
BRANCH  12  13
HETATM   13  C   UNL     1      -7.456  11.568  68.332  1.00  0.00    -0.109 C  
BRANCH  13  14
HETATM   14  N   UNL     1      -8.154  10.348  67.864  1.00  0.00    -0.102 NA 
HETATM   15  C   UNL     1      -7.328   9.523  66.946  1.00  0.00    -0.087 C  
HETATM   16  C   UNL     1      -6.138   8.828  67.629  1.00  0.00    -0.048 C  
HETATM   17  O   UNL     1      -6.571   8.012  68.726  1.00  0.00    -0.047 OA 
HETATM   18  C   UNL     1      -7.319   8.780  69.677  1.00  0.00    -0.059 C  
HETATM   19  C   UNL     1      -8.520   9.483  69.014  1.00  0.00    -0.128 C  
ENDBRANCH  13  14
ENDBRANCH  12  13
ENDBRANCH  10  12
ENDBRANCH   5   8
TORSDOF 4
ENDMDL
MODEL      180
REMARK 921   NORMALIZED FREE ENERGY PREDICTED BY IDOCK:   -2.93 KCAL/MOL
REMARK 922        TOTAL FREE ENERGY PREDICTED BY IDOCK:   -4.01 KCAL/MOL
REMARK 923 INTER-LIGAND FREE ENERGY PREDICTED BY IDOCK:   -3.76 KCAL/MOL
REMARK 924 INTRA-LIGAND FREE ENERGY PREDICTED BY IDOCK:   -0.25 KCAL/MOL
REMARK 927      BINDING AFFINITY PREDICTED BY RF-SCORE:    0.00 PKD
ROOT
HETATM    1 CL   UNL     1     -10.399  18.303  67.831  1.00  0.00    -0.399 Cl 
HETATM    2  C   UNL     1     -10.124  16.610  67.718  1.00  0.00    -0.275 A  
HETATM    3  C   UNL     1     -10.706  15.750  68.644  1.00  0.00    -0.263 A  
HETATM    4  C   UNL     1     -10.483  14.376  68.546  1.00  0.00    -0.254 A  
HETATM    5  C   UNL     1      -9.675  13.847  67.524  1.00  0.00    -0.232 A  
HETATM    6  C   UNL     1      -9.097  14.726  66.595  1.00  0.00    -0.300 A  
HETATM    7  C   UNL     1      -9.321  16.103  66.695  1.00  0.00    -0.267 A  
ENDROOT
BRANCH   5   8
HETATM    8  C   UNL     1      -9.510  12.364  67.469  1.00  0.00    -0.187 C  
HETATM    9  O   UNL     1      -8.567  11.880  66.848  1.00  0.00    -0.176 OA 
HETATM   10  N   UNL     1     -10.437  11.578  68.121  1.00  0.00    -0.186 N  
HETATM   11  H   UNL     1     -11.189  12.011  68.658  1.00  0.00     0.000 HD 
BRANCH  10  12
HETATM   12  C   UNL     1     -10.336  10.134  68.041  1.00  0.00    -0.190 C  
BRANCH  12  13
HETATM   13  C   UNL     1      -9.478   9.530  69.164  1.00  0.00    -0.163 C  
BRANCH  13  14
HETATM   14  N   UNL     1      -9.714   8.091  69.420  1.00  0.00    -0.168 NA 
HETATM   15  C   UNL     1      -8.467   7.284  69.394  1.00  0.00    -0.133 C  
HETATM   16  C   UNL     1      -7.525   7.551  70.580  1.00  0.00    -0.077 C  
HETATM   17  O   UNL     1      -8.191   7.338  71.833  1.00  0.00    -0.102 OA 
HETATM   18  C   UNL     1      -9.369   8.147  71.935  1.00  0.00    -0.190 C  
HETATM   19  C   UNL     1     -10.331   7.893  70.757  1.00  0.00    -0.203 C  
ENDBRANCH  13  14
ENDBRANCH  12  13
ENDBRANCH  10  12
ENDBRANCH   5   8
TORSDOF 4
ENDMDL
MODEL      181
REMARK 921   NORMALIZED FREE ENERGY PREDICTED BY IDOCK:   -2.89 KCAL/MOL
REMARK 922        TOTAL FREE ENERGY PREDICTED BY IDOCK:   -3.96 KCAL/MOL
REMARK 923 INTER-LIGAND FREE ENERGY PREDICTED BY IDOCK:   -3.67 KCAL/MOL
REMARK 924 INTRA-LIGAND FREE ENERGY PREDICTED BY IDOCK:   -0.29 KCAL/MOL
REMARK 927      BINDING AFFINITY PREDICTED BY RF-SCORE:    0.00 PKD
ROOT
HETATM    1 CL   UNL     1     -10.867  17.571  65.198  1.00  0.00    -0.043 Cl 
HETATM    2  C   UNL     1     -10.037  16.189  65.796  1.00  0.00    -0.363 A  
HETATM    3  C   UNL     1     -10.673  14.952  65.813  1.00  0.00    -0.338 A  
HETATM    4  C   UNL     1      -9.993  13.833  66.296  1.00  0.00    -0.312 A  
HETATM    5  C   UNL     1      -8.673  13.938  66.769  1.00  0.00    -0.119 A  
HETATM    6  C   UNL     1      -8.044  15.192  66.744  1.00  0.00    -0.113 A  
HETATM    7  C   UNL     1      -8.726  16.313  66.260  1.00  0.00    -0.370 A  
ENDROOT
BRANCH   5   8
HETATM    8  C   UNL     1      -8.005  12.689  67.241  1.00  0.00    -0.166 C  
HETATM    9  O   UNL     1      -8.043  12.393  68.433  1.00  0.00    -0.154 OA 
HETATM   10  N   UNL     1      -7.356  11.903  66.312  1.00  0.00    -0.295 N  
HETATM   11  H   UNL     1      -7.372  12.159  65.324  1.00  0.00     0.000 HD 
BRANCH  10  12
HETATM   12  C   UNL     1      -6.650  10.714  66.747  1.00  0.00    -0.091 C  
BRANCH  12  13
HETATM   13  C   UNL     1      -7.584   9.514  66.976  1.00  0.00    -0.091 C  
BRANCH  13  14
HETATM   14  N   UNL     1      -8.551   9.264  65.883  1.00  0.00    -0.141 NA 
HETATM   15  C   UNL     1      -8.539   7.857  65.408  1.00  0.00    -0.095 C  
HETATM   16  C   UNL     1      -9.108   6.849  66.420  1.00  0.00    -0.159 C  
HETATM   17  O   UNL     1     -10.445   7.196  66.807  1.00  0.00    -0.271 OA 
HETATM   18  C   UNL     1     -10.499   8.527  67.336  1.00  0.00    -0.280 C  
HETATM   19  C   UNL     1      -9.936   9.556  66.336  1.00  0.00    -0.269 C  
ENDBRANCH  13  14
ENDBRANCH  12  13
ENDBRANCH  10  12
ENDBRANCH   5   8
TORSDOF 4
ENDMDL
MODEL      182
REMARK 921   NORMALIZED FREE ENERGY PREDICTED BY IDOCK:   -2.87 KCAL/MOL
REMARK 922        TOTAL FREE ENERGY PREDICTED BY IDOCK:   -3.94 KCAL/MOL
REMARK 923 INTER-LIGAND FREE ENERGY PREDICTED BY IDOCK:   -3.49 KCAL/MOL
REMARK 924 INTRA-LIGAND FREE ENERGY PREDICTED BY IDOCK:   -0.45 KCAL/MOL
REMARK 927      BINDING AFFINITY PREDICTED BY RF-SCORE:    0.00 PKD
ROOT
HETATM    1 CL   UNL     1      -7.696  10.674  65.593  1.00  0.00    -0.140 Cl 
HETATM    2  C   UNL     1      -8.613   9.661  66.636  1.00  0.00    -0.130 A  
HETATM    3  C   UNL     1      -8.483   9.787  68.016  1.00  0.00    -0.118 A  
HETATM    4  C   UNL     1      -9.232   8.965  68.858  1.00  0.00    -0.140 A  
HETATM    5  C   UNL     1     -10.118   8.007  68.331  1.00  0.00    -0.221 A  
HETATM    6  C   UNL     1     -10.241   7.893  66.939  1.00  0.00    -0.380 A  
HETATM    7  C   UNL     1      -9.488   8.717  66.095  1.00  0.00    -0.315 A  
ENDROOT
BRANCH   5   8
HETATM    8  C   UNL     1     -10.906   7.188  69.299  1.00  0.00    -0.183 C  
HETATM    9  O   UNL     1     -11.453   6.156  68.917  1.00  0.00    -0.305 OA 
HETATM   10  N   UNL     1     -10.999   7.625  70.603  1.00  0.00    -0.246 N  
HETATM   11  H   UNL     1     -10.504   8.467  70.898  1.00  0.00     0.000 HD 
BRANCH  10  12
HETATM   12  C   UNL     1     -11.803   6.881  71.554  1.00  0.00    -0.324 C  
BRANCH  12  13
HETATM   13  C   UNL     1     -10.962   6.203  72.648  1.00  0.00    -0.256 C  
BRANCH  13  14
HETATM   14  N   UNL     1      -9.834   5.385  72.146  1.00  0.00    -0.166 NA 
HETATM   15  C   UNL     1      -8.703   5.305  73.103  1.00  0.00    -0.120 C  
HETATM   16  C   UNL     1      -9.008   4.480  74.366  1.00  0.00    -0.107 C  
HETATM   17  O   UNL     1      -9.428   3.150  74.031  1.00  0.00    -0.087 OA 
HETATM   18  C   UNL     1     -10.564   3.173  73.157  1.00  0.00    -0.167 C  
HETATM   19  C   UNL     1     -10.279   3.991  71.883  1.00  0.00    -0.089 C  
ENDBRANCH  13  14
ENDBRANCH  12  13
ENDBRANCH  10  12
ENDBRANCH   5   8
TORSDOF 4
ENDMDL
MODEL      183
REMARK 921   NORMALIZED FREE ENERGY PREDICTED BY IDOCK:   -2.85 KCAL/MOL
REMARK 922        TOTAL FREE ENERGY PREDICTED BY IDOCK:   -3.90 KCAL/MOL
REMARK 923 INTER-LIGAND FREE ENERGY PREDICTED BY IDOCK:   -3.80 KCAL/MOL
REMARK 924 INTRA-LIGAND FREE ENERGY PREDICTED BY IDOCK:   -0.10 KCAL/MOL
REMARK 927      BINDING AFFINITY PREDICTED BY RF-SCORE:    0.00 PKD
ROOT
HETATM    1 CL   UNL     1      -7.588  20.045  67.525  1.00  0.00    -0.316 Cl 
HETATM    2  C   UNL     1      -8.336  18.518  67.276  1.00  0.00    -0.253 A  
HETATM    3  C   UNL     1      -7.799  17.625  66.355  1.00  0.00    -0.318 A  
HETATM    4  C   UNL     1      -8.408  16.384  66.159  1.00  0.00    -0.291 A  
HETATM    5  C   UNL     1      -9.561  16.024  66.880  1.00  0.00    -0.239 A  
HETATM    6  C   UNL     1     -10.090  16.934  67.807  1.00  0.00    -0.292 A  
HETATM    7  C   UNL     1      -9.479  18.177  68.002  1.00  0.00    -0.290 A  
ENDROOT
BRANCH   5   8
HETATM    8  C   UNL     1     -10.134  14.668  66.635  1.00  0.00    -0.273 C  
HETATM    9  O   UNL     1     -11.333  14.472  66.821  1.00  0.00    -0.332 OA 
HETATM   10  N   UNL     1      -9.288  13.667  66.208  1.00  0.00    -0.463 N  
HETATM   11  H   UNL     1      -8.304  13.869  66.029  1.00  0.00     0.000 HD 
BRANCH  10  12
HETATM   12  C   UNL     1      -9.803  12.325  66.015  1.00  0.00    -0.248 C  
BRANCH  12  13
HETATM   13  C   UNL     1      -9.300  11.333  67.077  1.00  0.00    -0.172 C  
BRANCH  13  14
HETATM   14  N   UNL     1      -7.832  11.144  67.103  1.00  0.00    -0.132 NA 
HETATM   15  C   UNL     1      -7.124  12.204  67.864  1.00  0.00    -0.101 C  
HETATM   16  C   UNL     1      -7.363  12.151  69.382  1.00  0.00     0.258 C  
HETATM   17  O   UNL     1      -7.004  10.872  69.923  1.00  0.00    -0.147 OA 
HETATM   18  C   UNL     1      -7.714   9.816  69.264  1.00  0.00    -0.101 C  
HETATM   19  C   UNL     1      -7.484   9.847  67.739  1.00  0.00    -0.090 C  
ENDBRANCH  13  14
ENDBRANCH  12  13
ENDBRANCH  10  12
ENDBRANCH   5   8
TORSDOF 4
ENDMDL
MODEL      184
REMARK 921   NORMALIZED FREE ENERGY PREDICTED BY IDOCK:   -2.83 KCAL/MOL
REMARK 922        TOTAL FREE ENERGY PREDICTED BY IDOCK:   -3.88 KCAL/MOL
REMARK 923 INTER-LIGAND FREE ENERGY PREDICTED BY IDOCK:   -3.45 KCAL/MOL
REMARK 924 INTRA-LIGAND FREE ENERGY PREDICTED BY IDOCK:   -0.43 KCAL/MOL
REMARK 927      BINDING AFFINITY PREDICTED BY RF-SCORE:    0.00 PKD
ROOT
HETATM    1 CL   UNL     1     -12.873  11.144  70.273  1.00  0.00    -0.197 Cl 
HETATM    2  C   UNL     1     -11.856   9.891  70.867  1.00  0.00    -0.356 A  
HETATM    3  C   UNL     1     -10.520   9.842  70.482  1.00  0.00    -0.366 A  
HETATM    4  C   UNL     1      -9.698   8.825  70.969  1.00  0.00    -0.292 A  
HETATM    5  C   UNL     1     -10.202   7.846  71.844  1.00  0.00    -0.258 A  
HETATM    6  C   UNL     1     -11.551   7.910  72.225  1.00  0.00    -0.406 A  
HETATM    7  C   UNL     1     -12.374   8.929  71.736  1.00  0.00    -0.424 A  
ENDROOT
BRANCH   5   8
HETATM    8  C   UNL     1      -9.251   6.809  72.345  1.00  0.00    -0.134 C  
HETATM    9  O   UNL     1      -8.514   6.228  71.552  1.00  0.00    -0.128 OA 
HETATM   10  N   UNL     1      -9.236   6.533  73.695  1.00  0.00    -0.130 N  
HETATM   11  H   UNL     1      -9.836   7.058  74.333  1.00  0.00     0.000 HD 
BRANCH  10  12
HETATM   12  C   UNL     1      -8.364   5.493  74.206  1.00  0.00    -0.110 C  
BRANCH  12  13
HETATM   13  C   UNL     1      -9.109   4.184  74.511  1.00  0.00    -0.099 C  
BRANCH  13  14
HETATM   14  N   UNL     1      -8.531   2.978  73.875  1.00  0.00    -0.073 NA 
HETATM   15  C   UNL     1      -9.195   1.721  74.303  1.00  0.00    -0.064 C  
HETATM   16  C   UNL     1     -10.631   1.561  73.775  1.00  0.00    -0.098 C  
HETATM   17  O   UNL     1     -10.673   1.646  72.343  1.00  0.00    -0.157 OA 
HETATM   18  C   UNL     1     -10.101   2.876  71.883  1.00  0.00    -0.084 C  
HETATM   19  C   UNL     1      -8.659   3.056  72.397  1.00  0.00    -0.075 C  
ENDBRANCH  13  14
ENDBRANCH  12  13
ENDBRANCH  10  12
ENDBRANCH   5   8
TORSDOF 4
ENDMDL
MODEL      185
REMARK 921   NORMALIZED FREE ENERGY PREDICTED BY IDOCK:   -2.79 KCAL/MOL
REMARK 922        TOTAL FREE ENERGY PREDICTED BY IDOCK:   -3.83 KCAL/MOL
REMARK 923 INTER-LIGAND FREE ENERGY PREDICTED BY IDOCK:   -3.55 KCAL/MOL
REMARK 924 INTRA-LIGAND FREE ENERGY PREDICTED BY IDOCK:   -0.28 KCAL/MOL
REMARK 927      BINDING AFFINITY PREDICTED BY RF-SCORE:    0.00 PKD
ROOT
HETATM    1 CL   UNL     1      -7.460  12.982  67.416  1.00  0.00    -0.155 Cl 
HETATM    2  C   UNL     1      -8.580  11.961  68.228  1.00  0.00    -0.162 A  
HETATM    3  C   UNL     1      -8.138  10.787  68.828  1.00  0.00    -0.143 A  
HETATM    4  C   UNL     1      -9.050   9.963  69.489  1.00  0.00    -0.237 A  
HETATM    5  C   UNL     1     -10.413  10.303  69.556  1.00  0.00    -0.268 A  
HETATM    6  C   UNL     1     -10.844  11.492  68.948  1.00  0.00    -0.263 A  
HETATM    7  C   UNL     1      -9.929  12.316  68.285  1.00  0.00    -0.216 A  
ENDROOT
BRANCH   5   8
HETATM    8  C   UNL     1     -11.319   9.385  70.308  1.00  0.00    -0.220 C  
HETATM    9  O   UNL     1     -12.397   9.803  70.725  1.00  0.00    -0.286 OA 
HETATM   10  N   UNL     1     -10.908   8.086  70.517  1.00  0.00    -0.238 N  
HETATM   11  H   UNL     1     -10.023   7.760  70.128  1.00  0.00     0.000 HD 
BRANCH  10  12
HETATM   12  C   UNL     1     -11.741   7.186  71.291  1.00  0.00    -0.306 C  
BRANCH  12  13
HETATM   13  C   UNL     1     -10.931   6.296  72.248  1.00  0.00    -0.259 C  
BRANCH  13  14
HETATM   14  N   UNL     1     -10.307   5.112  71.614  1.00  0.00    -0.211 NA 
HETATM   15  C   UNL     1      -8.904   5.352  71.189  1.00  0.00    -0.136 C  
HETATM   16  C   UNL     1      -7.914   5.506  72.356  1.00  0.00    -0.103 C  
HETATM   17  O   UNL     1      -7.948   4.363  73.223  1.00  0.00    -0.092 OA 
HETATM   18  C   UNL     1      -9.273   4.128  73.714  1.00  0.00    -0.092 C  
HETATM   19  C   UNL     1     -10.283   3.967  72.561  1.00  0.00    -0.164 C  
ENDBRANCH  13  14
ENDBRANCH  12  13
ENDBRANCH  10  12
ENDBRANCH   5   8
TORSDOF 4
ENDMDL
MODEL      186
REMARK 921   NORMALIZED FREE ENERGY PREDICTED BY IDOCK:   -2.78 KCAL/MOL
REMARK 922        TOTAL FREE ENERGY PREDICTED BY IDOCK:   -3.82 KCAL/MOL
REMARK 923 INTER-LIGAND FREE ENERGY PREDICTED BY IDOCK:   -3.66 KCAL/MOL
REMARK 924 INTRA-LIGAND FREE ENERGY PREDICTED BY IDOCK:   -0.16 KCAL/MOL
REMARK 927      BINDING AFFINITY PREDICTED BY RF-SCORE:    0.00 PKD
ROOT
HETATM    1 CL   UNL     1     -11.460  12.706  65.218  1.00  0.00    -0.353 Cl 
HETATM    2  C   UNL     1     -10.547  11.459  65.970  1.00  0.00    -0.266 A  
HETATM    3  C   UNL     1     -10.998  10.890  67.157  1.00  0.00    -0.334 A  
HETATM    4  C   UNL     1     -10.254   9.876  67.763  1.00  0.00    -0.241 A  
HETATM    5  C   UNL     1      -9.053   9.422  67.190  1.00  0.00    -0.148 A  
HETATM    6  C   UNL     1      -8.612  10.003  65.992  1.00  0.00    -0.148 A  
HETATM    7  C   UNL     1      -9.357  11.020  65.387  1.00  0.00    -0.244 A  
ENDROOT
BRANCH   5   8
HETATM    8  C   UNL     1      -8.332   8.312  67.883  1.00  0.00    -0.128 C  
HETATM    9  O   UNL     1      -7.226   7.960  67.479  1.00  0.00    -0.083 OA 
HETATM   10  N   UNL     1      -8.942   7.710  68.963  1.00  0.00    -0.138 N  
HETATM   11  H   UNL     1      -9.845   8.048  69.296  1.00  0.00     0.000 HD 
BRANCH  10  12
HETATM   12  C   UNL     1      -8.293   6.593  69.622  1.00  0.00    -0.132 C  
BRANCH  12  13
HETATM   13  C   UNL     1      -8.874   6.301  71.015  1.00  0.00    -0.136 C  
BRANCH  13  14
HETATM   14  N   UNL     1      -8.709   7.396  71.998  1.00  0.00    -0.110 NA 
HETATM   15  C   UNL     1      -9.849   8.347  72.004  1.00  0.00    -0.284 C  
HETATM   16  C   UNL     1     -11.152   7.758  72.571  1.00  0.00    -0.346 C  
HETATM   17  O   UNL     1     -10.962   7.252  73.900  1.00  0.00    -0.200 OA 
HETATM   18  C   UNL     1      -9.912   6.278  73.934  1.00  0.00    -0.240 C  
HETATM   19  C   UNL     1      -8.594   6.848  73.374  1.00  0.00    -0.125 C  
ENDBRANCH  13  14
ENDBRANCH  12  13
ENDBRANCH  10  12
ENDBRANCH   5   8
TORSDOF 4
ENDMDL
MODEL      187
REMARK 921   NORMALIZED FREE ENERGY PREDICTED BY IDOCK:   -2.73 KCAL/MOL
REMARK 922        TOTAL FREE ENERGY PREDICTED BY IDOCK:   -3.76 KCAL/MOL
REMARK 923 INTER-LIGAND FREE ENERGY PREDICTED BY IDOCK:   -3.31 KCAL/MOL
REMARK 924 INTRA-LIGAND FREE ENERGY PREDICTED BY IDOCK:   -0.45 KCAL/MOL
REMARK 927      BINDING AFFINITY PREDICTED BY RF-SCORE:    0.00 PKD
ROOT
HETATM    1 CL   UNL     1      -5.893  17.450  70.167  1.00  0.00    -0.232 Cl 
HETATM    2  C   UNL     1      -6.375  16.040  69.312  1.00  0.00    -0.158 A  
HETATM    3  C   UNL     1      -6.952  16.157  68.051  1.00  0.00    -0.139 A  
HETATM    4  C   UNL     1      -7.339  15.008  67.359  1.00  0.00    -0.231 A  
HETATM    5  C   UNL     1      -7.156  13.732  67.920  1.00  0.00    -0.161 A  
HETATM    6  C   UNL     1      -6.571  13.629  69.191  1.00  0.00    -0.109 A  
HETATM    7  C   UNL     1      -6.184  14.780  69.884  1.00  0.00    -0.150 A  
ENDROOT
BRANCH   5   8
HETATM    8  C   UNL     1      -7.568  12.552  67.103  1.00  0.00    -0.085 C  
HETATM    9  O   UNL     1      -6.758  11.655  66.879  1.00  0.00    -0.134 OA 
HETATM   10  N   UNL     1      -8.858  12.510  66.618  1.00  0.00    -0.353 N  
HETATM   11  H   UNL     1      -9.517  13.254  66.850  1.00  0.00     0.000 HD 
BRANCH  10  12
HETATM   12  C   UNL     1      -9.272  11.405  65.775  1.00  0.00    -0.208 C  
BRANCH  12  13
HETATM   13  C   UNL     1     -10.100  10.354  66.532  1.00  0.00    -0.228 C  
BRANCH  13  14
HETATM   14  N   UNL     1      -9.693   8.951  66.288  1.00  0.00    -0.261 NA 
HETATM   15  C   UNL     1      -8.311   8.660  66.746  1.00  0.00    -0.108 C  
HETATM   16  C   UNL     1      -8.145   8.658  68.275  1.00  0.00    -0.118 C  
HETATM   17  O   UNL     1      -9.046   7.731  68.897  1.00  0.00    -0.141 OA 
HETATM   18  C   UNL     1     -10.404   8.012  68.537  1.00  0.00    -0.199 C  
HETATM   19  C   UNL     1     -10.595   8.015  67.008  1.00  0.00    -0.294 C  
ENDBRANCH  13  14
ENDBRANCH  12  13
ENDBRANCH  10  12
ENDBRANCH   5   8
TORSDOF 4
ENDMDL
MODEL      188
REMARK 921   NORMALIZED FREE ENERGY PREDICTED BY IDOCK:   -2.68 KCAL/MOL
REMARK 922        TOTAL FREE ENERGY PREDICTED BY IDOCK:   -3.70 KCAL/MOL
REMARK 923 INTER-LIGAND FREE ENERGY PREDICTED BY IDOCK:   -3.37 KCAL/MOL
REMARK 924 INTRA-LIGAND FREE ENERGY PREDICTED BY IDOCK:   -0.33 KCAL/MOL
REMARK 927      BINDING AFFINITY PREDICTED BY RF-SCORE:    0.00 PKD
ROOT
HETATM    1 CL   UNL     1      -8.284  18.058  68.868  1.00  0.00    -0.213 Cl 
HETATM    2  C   UNL     1      -9.088  16.662  68.269  1.00  0.00    -0.218 A  
HETATM    3  C   UNL     1      -8.492  15.411  68.397  1.00  0.00    -0.160 A  
HETATM    4  C   UNL     1      -9.151  14.280  67.912  1.00  0.00    -0.190 A  
HETATM    5  C   UNL     1     -10.408  14.387  67.292  1.00  0.00    -0.260 A  
HETATM    6  C   UNL     1     -10.998  15.654  67.172  1.00  0.00    -0.270 A  
HETATM    7  C   UNL     1     -10.337  16.787  67.658  1.00  0.00    -0.309 A  
ENDROOT
BRANCH   5   8
HETATM    8  C   UNL     1     -11.061  13.127  66.828  1.00  0.00    -0.289 C  
HETATM    9  O   UNL     1     -12.229  12.899  67.133  1.00  0.00    -0.368 OA 
HETATM   10  N   UNL     1     -10.319  12.248  66.067  1.00  0.00    -0.240 N  
HETATM   11  H   UNL     1      -9.362  12.482  65.801  1.00  0.00     0.000 HD 
BRANCH  10  12
HETATM   12  C   UNL     1     -10.905  10.990  65.647  1.00  0.00    -0.090 C  
BRANCH  12  13
HETATM   13  C   UNL     1     -10.450   9.801  66.508  1.00  0.00    -0.142 C  
BRANCH  13  14
HETATM   14  N   UNL     1      -9.798   8.704  65.756  1.00  0.00    -0.027 NA 
HETATM   15  C   UNL     1      -8.887   9.193  64.690  1.00  0.00    -0.142 C  
HETATM   16  C   UNL     1      -7.609   9.866  65.219  1.00  0.00    -0.130 C  
HETATM   17  O   UNL     1      -6.879   8.989  66.089  1.00  0.00    -0.078 OA 
HETATM   18  C   UNL     1      -7.699   8.540  67.175  1.00  0.00    -0.097 C  
HETATM   19  C   UNL     1      -8.985   7.859  66.668  1.00  0.00    -0.151 C  
ENDBRANCH  13  14
ENDBRANCH  12  13
ENDBRANCH  10  12
ENDBRANCH   5   8
TORSDOF 4
ENDMDL
MODEL      189
REMARK 921   NORMALIZED FREE ENERGY PREDICTED BY IDOCK:   -2.66 KCAL/MOL
REMARK 922        TOTAL FREE ENERGY PREDICTED BY IDOCK:   -3.67 KCAL/MOL
REMARK 923 INTER-LIGAND FREE ENERGY PREDICTED BY IDOCK:   -3.33 KCAL/MOL
REMARK 924 INTRA-LIGAND FREE ENERGY PREDICTED BY IDOCK:   -0.34 KCAL/MOL
REMARK 927      BINDING AFFINITY PREDICTED BY RF-SCORE:    0.00 PKD
ROOT
HETATM    1 CL   UNL     1     -10.963  12.813  64.327  1.00  0.00    -0.382 Cl 
HETATM    2  C   UNL     1     -10.134  12.187  65.697  1.00  0.00    -0.248 A  
HETATM    3  C   UNL     1     -10.355  12.743  66.953  1.00  0.00    -0.245 A  
HETATM    4  C   UNL     1      -9.682  12.229  68.063  1.00  0.00    -0.205 A  
HETATM    5  C   UNL     1      -8.782  11.157  67.929  1.00  0.00    -0.136 A  
HETATM    6  C   UNL     1      -8.571  10.606  66.656  1.00  0.00    -0.139 A  
HETATM    7  C   UNL     1      -9.245  11.122  65.545  1.00  0.00    -0.236 A  
ENDROOT
BRANCH   5   8
HETATM    8  C   UNL     1      -8.126  10.645  69.169  1.00  0.00    -0.141 C  
HETATM    9  O   UNL     1      -7.083  11.162  69.562  1.00  0.00    -0.126 OA 
HETATM   10  N   UNL     1      -8.717   9.593  69.835  1.00  0.00    -0.203 N  
HETATM   11  H   UNL     1      -9.602   9.208  69.503  1.00  0.00     0.000 HD 
BRANCH  10  12
HETATM   12  C   UNL     1      -8.075   9.037  71.011  1.00  0.00    -0.159 C  
BRANCH  12  13
HETATM   13  C   UNL     1      -8.714   7.717  71.473  1.00  0.00    -0.121 C  
BRANCH  13  14
HETATM   14  N   UNL     1      -9.411   6.960  70.409  1.00  0.00    -0.169 NA 
HETATM   15  C   UNL     1      -8.585   5.866  69.838  1.00  0.00    -0.129 C  
HETATM   16  C   UNL     1      -8.349   4.692  70.804  1.00  0.00    -0.092 C  
HETATM   17  O   UNL     1      -9.589   4.143  71.271  1.00  0.00    -0.149 OA 
HETATM   18  C   UNL     1     -10.397   5.150  71.892  1.00  0.00    -0.212 C  
HETATM   19  C   UNL     1     -10.651   6.336  70.940  1.00  0.00    -0.241 C  
ENDBRANCH  13  14
ENDBRANCH  12  13
ENDBRANCH  10  12
ENDBRANCH   5   8
TORSDOF 4
ENDMDL
MODEL      190
REMARK 921   NORMALIZED FREE ENERGY PREDICTED BY IDOCK:   -2.65 KCAL/MOL
REMARK 922        TOTAL FREE ENERGY PREDICTED BY IDOCK:   -3.66 KCAL/MOL
REMARK 923 INTER-LIGAND FREE ENERGY PREDICTED BY IDOCK:   -3.33 KCAL/MOL
REMARK 924 INTRA-LIGAND FREE ENERGY PREDICTED BY IDOCK:   -0.33 KCAL/MOL
REMARK 927      BINDING AFFINITY PREDICTED BY RF-SCORE:    0.00 PKD
ROOT
HETATM    1 CL   UNL     1      -6.275   6.406  62.728  1.00  0.00    -0.030 Cl 
HETATM    2  C   UNL     1      -7.243   7.239  63.879  1.00  0.00    -0.077 A  
HETATM    3  C   UNL     1      -7.355   8.624  63.818  1.00  0.00    -0.101 A  
HETATM    4  C   UNL     1      -8.144   9.295  64.753  1.00  0.00    -0.133 A  
HETATM    5  C   UNL     1      -8.827   8.590  65.759  1.00  0.00    -0.229 A  
HETATM    6  C   UNL     1      -8.707   7.193  65.808  1.00  0.00    -0.125 A  
HETATM    7  C   UNL     1      -7.916   6.522  64.870  1.00  0.00    -0.124 A  
ENDROOT
BRANCH   5   8
HETATM    8  C   UNL     1      -9.676   9.378  66.703  1.00  0.00    -0.219 C  
HETATM    9  O   UNL     1     -10.741   8.910  67.098  1.00  0.00    -0.265 OA 
HETATM   10  N   UNL     1      -9.232  10.622  67.099  1.00  0.00    -0.147 N  
HETATM   11  H   UNL     1      -8.326  10.968  66.780  1.00  0.00     0.000 HD 
BRANCH  10  12
HETATM   12  C   UNL     1     -10.058  11.435  67.969  1.00  0.00    -0.180 C  
BRANCH  12  13
HETATM   13  C   UNL     1     -10.674  12.646  67.250  1.00  0.00    -0.237 C  
BRANCH  13  14
HETATM   14  N   UNL     1      -9.694  13.650  66.777  1.00  0.00    -0.267 NA 
HETATM   15  C   UNL     1     -10.333  14.883  66.251  1.00  0.00    -0.294 C  
HETATM   16  C   UNL     1     -11.006  15.748  67.331  1.00  0.00    -0.279 C  
HETATM   17  O   UNL     1     -10.078  16.109  68.364  1.00  0.00    -0.226 OA 
HETATM   18  C   UNL     1      -9.480  14.946  68.950  1.00  0.00    -0.209 C  
HETATM   19  C   UNL     1      -8.796  14.065  67.885  1.00  0.00    -0.185 C  
ENDBRANCH  13  14
ENDBRANCH  12  13
ENDBRANCH  10  12
ENDBRANCH   5   8
TORSDOF 4
ENDMDL
MODEL      191
REMARK 921   NORMALIZED FREE ENERGY PREDICTED BY IDOCK:   -2.60 KCAL/MOL
REMARK 922        TOTAL FREE ENERGY PREDICTED BY IDOCK:   -3.60 KCAL/MOL
REMARK 923 INTER-LIGAND FREE ENERGY PREDICTED BY IDOCK:   -3.22 KCAL/MOL
REMARK 924 INTRA-LIGAND FREE ENERGY PREDICTED BY IDOCK:   -0.39 KCAL/MOL
REMARK 927      BINDING AFFINITY PREDICTED BY RF-SCORE:    0.00 PKD
ROOT
HETATM    1 CL   UNL     1      -8.153   1.480  65.945  1.00  0.00    -0.076 Cl 
HETATM    2  C   UNL     1      -8.785   2.786  66.867  1.00  0.00    -0.118 A  
HETATM    3  C   UNL     1      -9.066   4.000  66.247  1.00  0.00    -0.139 A  
HETATM    4  C   UNL     1      -9.582   5.056  67.000  1.00  0.00    -0.163 A  
HETATM    5  C   UNL     1      -9.820   4.911  68.378  1.00  0.00    -0.200 A  
HETATM    6  C   UNL     1      -9.534   3.681  68.989  1.00  0.00    -0.226 A  
HETATM    7  C   UNL     1      -9.016   2.623  68.234  1.00  0.00    -0.195 A  
ENDROOT
BRANCH   5   8
HETATM    8  C   UNL     1     -10.402   6.078  69.106  1.00  0.00    -0.229 C  
HETATM    9  O   UNL     1     -11.617   6.260  69.090  1.00  0.00    -0.324 OA 
HETATM   10  N   UNL     1      -9.544   6.924  69.776  1.00  0.00    -0.155 N  
HETATM   11  H   UNL     1      -8.544   6.727  69.801  1.00  0.00     0.000 HD 
BRANCH  10  12
HETATM   12  C   UNL     1     -10.072   8.097  70.446  1.00  0.00    -0.194 C  
BRANCH  12  13
HETATM   13  C   UNL     1      -9.819   9.397  69.665  1.00  0.00    -0.193 C  
BRANCH  13  14
HETATM   14  N   UNL     1      -8.946   9.247  68.478  1.00  0.00    -0.129 NA 
HETATM   15  C   UNL     1      -9.705   9.186  67.203  1.00  0.00    -0.182 C  
HETATM   16  C   UNL     1     -10.366  10.516  66.804  1.00  0.00    -0.245 C  
HETATM   17  O   UNL     1      -9.402  11.574  66.721  1.00  0.00    -0.173 OA 
HETATM   18  C   UNL     1      -8.686  11.718  67.953  1.00  0.00    -0.164 C  
HETATM   19  C   UNL     1      -8.011  10.397  68.372  1.00  0.00    -0.110 C  
ENDBRANCH  13  14
ENDBRANCH  12  13
ENDBRANCH  10  12
ENDBRANCH   5   8
TORSDOF 4
ENDMDL
MODEL      192
REMARK 921   NORMALIZED FREE ENERGY PREDICTED BY IDOCK:   -2.59 KCAL/MOL
REMARK 922        TOTAL FREE ENERGY PREDICTED BY IDOCK:   -3.59 KCAL/MOL
REMARK 923 INTER-LIGAND FREE ENERGY PREDICTED BY IDOCK:   -3.25 KCAL/MOL
REMARK 924 INTRA-LIGAND FREE ENERGY PREDICTED BY IDOCK:   -0.34 KCAL/MOL
REMARK 927      BINDING AFFINITY PREDICTED BY RF-SCORE:    0.00 PKD
ROOT
HETATM    1 CL   UNL     1      -6.165  16.986  69.011  1.00  0.00    -0.178 Cl 
HETATM    2  C   UNL     1      -7.038  15.515  68.850  1.00  0.00    -0.134 A  
HETATM    3  C   UNL     1      -8.391  15.544  68.526  1.00  0.00    -0.161 A  
HETATM    4  C   UNL     1      -9.095  14.346  68.392  1.00  0.00    -0.193 A  
HETATM    5  C   UNL     1      -8.456  13.108  68.583  1.00  0.00     0.029 A  
HETATM    6  C   UNL     1      -7.091  13.094  68.907  1.00  0.00    -0.075 A  
HETATM    7  C   UNL     1      -6.387  14.295  69.041  1.00  0.00    -0.096 A  
ENDROOT
BRANCH   5   8
HETATM    8  C   UNL     1      -9.271  11.872  68.392  1.00  0.00    -0.173 C  
HETATM    9  O   UNL     1      -8.916  11.031  67.568  1.00  0.00    -0.137 OA 
HETATM   10  N   UNL     1     -10.411  11.715  69.152  1.00  0.00    -0.412 N  
HETATM   11  H   UNL     1     -10.660  12.415  69.852  1.00  0.00     0.000 HD 
BRANCH  10  12
HETATM   12  C   UNL     1     -11.253  10.553  68.950  1.00  0.00    -0.266 C  
BRANCH  12  13
HETATM   13  C   UNL     1     -11.373   9.675  70.207  1.00  0.00    -0.257 C  
BRANCH  13  14
HETATM   14  N   UNL     1     -11.216   8.223  69.967  1.00  0.00    -0.150 NA 
HETATM   15  C   UNL     1      -9.796   7.804  69.848  1.00  0.00    -0.177 C  
HETATM   16  C   UNL     1      -9.009   7.879  71.167  1.00  0.00    -0.138 C  
HETATM   17  O   UNL     1      -9.638   7.101  72.195  1.00  0.00    -0.144 OA 
HETATM   18  C   UNL     1     -10.996   7.513  72.395  1.00  0.00    -0.286 C  
HETATM   19  C   UNL     1     -11.806   7.443  71.085  1.00  0.00    -0.301 C  
ENDBRANCH  13  14
ENDBRANCH  12  13
ENDBRANCH  10  12
ENDBRANCH   5   8
TORSDOF 4
ENDMDL
MODEL      193
REMARK 921   NORMALIZED FREE ENERGY PREDICTED BY IDOCK:   -2.59 KCAL/MOL
REMARK 922        TOTAL FREE ENERGY PREDICTED BY IDOCK:   -3.59 KCAL/MOL
REMARK 923 INTER-LIGAND FREE ENERGY PREDICTED BY IDOCK:   -3.29 KCAL/MOL
REMARK 924 INTRA-LIGAND FREE ENERGY PREDICTED BY IDOCK:   -0.29 KCAL/MOL
REMARK 927      BINDING AFFINITY PREDICTED BY RF-SCORE:    0.00 PKD
ROOT
HETATM    1 CL   UNL     1      -9.101  17.628  68.828  1.00  0.00    -0.247 Cl 
HETATM    2  C   UNL     1      -8.994  15.919  68.685  1.00  0.00    -0.203 A  
HETATM    3  C   UNL     1      -7.791  15.275  68.956  1.00  0.00    -0.184 A  
HETATM    4  C   UNL     1      -7.710  13.886  68.841  1.00  0.00    -0.041 A  
HETATM    5  C   UNL     1      -8.829  13.127  68.453  1.00  0.00    -0.117 A  
HETATM    6  C   UNL     1     -10.036  13.790  68.185  1.00  0.00    -0.242 A  
HETATM    7  C   UNL     1     -10.116  15.182  68.299  1.00  0.00    -0.223 A  
ENDROOT
BRANCH   5   8
HETATM    8  C   UNL     1      -8.669  11.644  68.383  1.00  0.00    -0.158 C  
HETATM    9  O   UNL     1      -8.777  11.072  67.301  1.00  0.00    -0.128 OA 
HETATM   10  N   UNL     1      -8.409  10.959  69.551  1.00  0.00    -0.381 N  
HETATM   11  H   UNL     1      -8.291  11.467  70.428  1.00  0.00     0.000 HD 
BRANCH  10  12
HETATM   12  C   UNL     1      -8.304   9.513  69.526  1.00  0.00    -0.145 C  
BRANCH  12  13
HETATM   13  C   UNL     1      -9.617   8.811  69.907  1.00  0.00    -0.177 C  
BRANCH  13  14
HETATM   14  N   UNL     1      -9.912   7.585  69.132  1.00  0.00    -0.175 NA 
HETATM   15  C   UNL     1      -9.027   6.446  69.486  1.00  0.00    -0.136 C  
HETATM   16  C   UNL     1      -9.281   5.868  70.888  1.00  0.00    -0.153 C  
HETATM   17  O   UNL     1     -10.647   5.460  71.045  1.00  0.00    -0.238 OA 
HETATM   18  C   UNL     1     -11.543   6.545  70.778  1.00  0.00    -0.377 C  
HETATM   19  C   UNL     1     -11.309   7.139  69.374  1.00  0.00     0.031 C  
ENDBRANCH  13  14
ENDBRANCH  12  13
ENDBRANCH  10  12
ENDBRANCH   5   8
TORSDOF 4
ENDMDL
MODEL      194
REMARK 921   NORMALIZED FREE ENERGY PREDICTED BY IDOCK:   -2.59 KCAL/MOL
REMARK 922        TOTAL FREE ENERGY PREDICTED BY IDOCK:   -3.58 KCAL/MOL
REMARK 923 INTER-LIGAND FREE ENERGY PREDICTED BY IDOCK:   -3.33 KCAL/MOL
REMARK 924 INTRA-LIGAND FREE ENERGY PREDICTED BY IDOCK:   -0.26 KCAL/MOL
REMARK 927      BINDING AFFINITY PREDICTED BY RF-SCORE:    0.00 PKD
ROOT
HETATM    1 CL   UNL     1     -12.607  10.489  71.581  1.00  0.00    -0.509 Cl 
HETATM    2  C   UNL     1     -11.718  10.125  70.155  1.00  0.00    -0.256 A  
HETATM    3  C   UNL     1     -11.806  10.967  69.051  1.00  0.00    -0.370 A  
HETATM    4  C   UNL     1     -11.079  10.669  67.897  1.00  0.00    -0.371 A  
HETATM    5  C   UNL     1     -10.260   9.528  67.834  1.00  0.00    -0.251 A  
HETATM    6  C   UNL     1     -10.180   8.690  68.956  1.00  0.00    -0.218 A  
HETATM    7  C   UNL     1     -10.909   8.989  70.112  1.00  0.00    -0.261 A  
ENDROOT
BRANCH   5   8
HETATM    8  C   UNL     1      -9.491   9.296  66.575  1.00  0.00    -0.202 C  
HETATM    9  O   UNL     1      -9.024  10.254  65.963  1.00  0.00    -0.146 OA 
HETATM   10  N   UNL     1      -9.335   8.000  66.133  1.00  0.00    -0.337 N  
HETATM   11  H   UNL     1      -9.705   7.223  66.681  1.00  0.00     0.000 HD 
BRANCH  10  12
HETATM   12  C   UNL     1      -8.641   7.746  64.885  1.00  0.00     0.087 C  
BRANCH  12  13
HETATM   13  C   UNL     1      -7.862   6.421  64.892  1.00  0.00    -0.113 C  
BRANCH  13  14
HETATM   14  N   UNL     1      -7.601   5.848  63.551  1.00  0.00    -0.071 NA 
HETATM   15  C   UNL     1      -6.387   4.994  63.512  1.00  0.00    -0.026 C  
HETATM   16  C   UNL     1      -6.529   3.667  64.277  1.00  0.00    -0.037 C  
HETATM   17  O   UNL     1      -7.648   2.907  63.800  1.00  0.00    -0.065 OA 
HETATM   18  C   UNL     1      -8.860   3.667  63.880  1.00  0.00    -0.096 C  
HETATM   19  C   UNL     1      -8.741   5.001  63.116  1.00  0.00    -0.086 C  
ENDBRANCH  13  14
ENDBRANCH  12  13
ENDBRANCH  10  12
ENDBRANCH   5   8
TORSDOF 4
ENDMDL
MODEL      195
REMARK 921   NORMALIZED FREE ENERGY PREDICTED BY IDOCK:   -2.56 KCAL/MOL
REMARK 922        TOTAL FREE ENERGY PREDICTED BY IDOCK:   -3.55 KCAL/MOL
REMARK 923 INTER-LIGAND FREE ENERGY PREDICTED BY IDOCK:   -3.24 KCAL/MOL
REMARK 924 INTRA-LIGAND FREE ENERGY PREDICTED BY IDOCK:   -0.32 KCAL/MOL
REMARK 927      BINDING AFFINITY PREDICTED BY RF-SCORE:    0.00 PKD
ROOT
HETATM    1 CL   UNL     1      -8.839   9.355  63.153  1.00  0.00    -0.231 Cl 
HETATM    2  C   UNL     1      -8.416   9.072  64.794  1.00  0.00    -0.180 A  
HETATM    3  C   UNL     1      -7.977  10.127  65.589  1.00  0.00    -0.147 A  
HETATM    4  C   UNL     1      -7.638   9.892  66.922  1.00  0.00    -0.095 A  
HETATM    5  C   UNL     1      -7.730   8.602  67.474  1.00  0.00    -0.098 A  
HETATM    6  C   UNL     1      -8.176   7.549  66.662  1.00  0.00    -0.125 A  
HETATM    7  C   UNL     1      -8.515   7.785  65.326  1.00  0.00    -0.099 A  
ENDROOT
BRANCH   5   8
HETATM    8  C   UNL     1      -7.378   8.440  68.916  1.00  0.00    -0.090 C  
HETATM    9  O   UNL     1      -6.490   7.655  69.240  1.00  0.00    -0.038 OA 
HETATM   10  N   UNL     1      -8.074   9.181  69.847  1.00  0.00    -0.109 N  
HETATM   11  H   UNL     1      -8.782   9.851  69.544  1.00  0.00     0.000 HD 
BRANCH  10  12
HETATM   12  C   UNL     1      -7.793   9.005  71.259  1.00  0.00    -0.085 C  
BRANCH  12  13
HETATM   13  C   UNL     1      -8.569   7.833  71.881  1.00  0.00    -0.114 C  
BRANCH  13  14
HETATM   14  N   UNL     1      -9.696   8.229  72.756  1.00  0.00    -0.277 NA 
HETATM   15  C   UNL     1     -10.912   8.615  71.997  1.00  0.00    -0.362 C  
HETATM   16  C   UNL     1     -11.607   7.440  71.288  1.00  0.00    -0.280 C  
HETATM   17  O   UNL     1     -11.948   6.399  72.215  1.00  0.00    -0.304 OA 
HETATM   18  C   UNL     1     -10.792   5.945  72.928  1.00  0.00    -0.258 C  
HETATM   19  C   UNL     1     -10.081   7.107  73.650  1.00  0.00    -0.346 C  
ENDBRANCH  13  14
ENDBRANCH  12  13
ENDBRANCH  10  12
ENDBRANCH   5   8
TORSDOF 4
ENDMDL
MODEL      196
REMARK 921   NORMALIZED FREE ENERGY PREDICTED BY IDOCK:   -2.53 KCAL/MOL
REMARK 922        TOTAL FREE ENERGY PREDICTED BY IDOCK:   -3.51 KCAL/MOL
REMARK 923 INTER-LIGAND FREE ENERGY PREDICTED BY IDOCK:   -3.28 KCAL/MOL
REMARK 924 INTRA-LIGAND FREE ENERGY PREDICTED BY IDOCK:   -0.23 KCAL/MOL
REMARK 927      BINDING AFFINITY PREDICTED BY RF-SCORE:    0.00 PKD
ROOT
HETATM    1 CL   UNL     1     -10.953  13.267  68.188  1.00  0.00    -0.265 Cl 
HETATM    2  C   UNL     1     -10.211  12.083  67.187  1.00  0.00    -0.202 A  
HETATM    3  C   UNL     1     -10.996  11.281  66.364  1.00  0.00    -0.285 A  
HETATM    4  C   UNL     1     -10.388  10.323  65.550  1.00  0.00    -0.239 A  
HETATM    5  C   UNL     1      -8.992  10.154  65.553  1.00  0.00    -0.202 A  
HETATM    6  C   UNL     1      -8.214  10.971  66.387  1.00  0.00    -0.166 A  
HETATM    7  C   UNL     1      -8.823  11.930  67.202  1.00  0.00    -0.180 A  
ENDROOT
BRANCH   5   8
HETATM    8  C   UNL     1      -8.417   9.129  64.633  1.00  0.00    -0.181 C  
HETATM    9  O   UNL     1      -7.768   9.488  63.653  1.00  0.00    -0.115 OA 
HETATM   10  N   UNL     1      -8.642   7.798  64.913  1.00  0.00    -0.373 N  
HETATM   11  H   UNL     1      -9.156   7.531  65.753  1.00  0.00     0.000 HD 
BRANCH  10  12
HETATM   12  C   UNL     1      -8.145   6.780  64.008  1.00  0.00    -0.015 C  
BRANCH  12  13
HETATM   13  C   UNL     1      -8.121   5.378  64.639  1.00  0.00    -0.125 C  
BRANCH  13  14
HETATM   14  N   UNL     1      -9.430   4.687  64.663  1.00  0.00    -0.099 NA 
HETATM   15  C   UNL     1      -9.314   3.217  64.485  1.00  0.00    -0.143 C  
HETATM   16  C   UNL     1      -8.677   2.490  65.682  1.00  0.00    -0.120 C  
HETATM   17  O   UNL     1      -9.394   2.756  66.896  1.00  0.00    -0.144 OA 
HETATM   18  C   UNL     1      -9.477   4.164  67.147  1.00  0.00    -0.189 C  
HETATM   19  C   UNL     1     -10.116   4.913  65.961  1.00  0.00    -0.239 C  
ENDBRANCH  13  14
ENDBRANCH  12  13
ENDBRANCH  10  12
ENDBRANCH   5   8
TORSDOF 4
ENDMDL
MODEL      197
REMARK 921   NORMALIZED FREE ENERGY PREDICTED BY IDOCK:   -2.50 KCAL/MOL
REMARK 922        TOTAL FREE ENERGY PREDICTED BY IDOCK:   -3.48 KCAL/MOL
REMARK 923 INTER-LIGAND FREE ENERGY PREDICTED BY IDOCK:   -3.34 KCAL/MOL
REMARK 924 INTRA-LIGAND FREE ENERGY PREDICTED BY IDOCK:   -0.14 KCAL/MOL
REMARK 927      BINDING AFFINITY PREDICTED BY RF-SCORE:    0.00 PKD
ROOT
HETATM    1 CL   UNL     1     -11.732   4.840  73.110  1.00  0.00    -0.322 Cl 
HETATM    2  C   UNL     1     -10.683   5.655  72.019  1.00  0.00    -0.235 A  
HETATM    3  C   UNL     1      -9.752   6.568  72.504  1.00  0.00    -0.165 A  
HETATM    4  C   UNL     1      -8.901   7.225  71.615  1.00  0.00    -0.123 A  
HETATM    5  C   UNL     1      -8.971   6.978  70.232  1.00  0.00    -0.149 A  
HETATM    6  C   UNL     1      -9.913   6.053  69.758  1.00  0.00    -0.223 A  
HETATM    7  C   UNL     1     -10.767   5.396  70.650  1.00  0.00    -0.257 A  
ENDROOT
BRANCH   5   8
HETATM    8  C   UNL     1      -8.005   7.698  69.350  1.00  0.00    -0.125 C  
HETATM    9  O   UNL     1      -7.256   8.544  69.833  1.00  0.00    -0.050 OA 
HETATM   10  N   UNL     1      -7.990   7.389  68.007  1.00  0.00    -0.118 N  
HETATM   11  H   UNL     1      -8.600   6.657  67.642  1.00  0.00     0.000 HD 
BRANCH  10  12
HETATM   12  C   UNL     1      -7.102   8.109  67.115  1.00  0.00    -0.079 C  
BRANCH  12  13
HETATM   13  C   UNL     1      -7.699   9.438  66.622  1.00  0.00    -0.097 C  
BRANCH  13  14
HETATM   14  N   UNL     1      -8.853   9.297  65.704  1.00  0.00    -0.168 NA 
HETATM   15  C   UNL     1     -10.135   9.061  66.415  1.00  0.00    -0.281 C  
HETATM   16  C   UNL     1     -10.647  10.279  67.202  1.00  0.00    -0.260 C  
HETATM   17  O   UNL     1     -10.791  11.426  66.352  1.00  0.00    -0.269 OA 
HETATM   18  C   UNL     1      -9.558  11.736  65.692  1.00  0.00    -0.220 C  
HETATM   19  C   UNL     1      -9.027  10.529  64.893  1.00  0.00    -0.199 C  
ENDBRANCH  13  14
ENDBRANCH  12  13
ENDBRANCH  10  12
ENDBRANCH   5   8
TORSDOF 4
ENDMDL
MODEL      198
REMARK 921   NORMALIZED FREE ENERGY PREDICTED BY IDOCK:   -2.31 KCAL/MOL
REMARK 922        TOTAL FREE ENERGY PREDICTED BY IDOCK:   -3.25 KCAL/MOL
REMARK 923 INTER-LIGAND FREE ENERGY PREDICTED BY IDOCK:   -2.99 KCAL/MOL
REMARK 924 INTRA-LIGAND FREE ENERGY PREDICTED BY IDOCK:   -0.25 KCAL/MOL
REMARK 927      BINDING AFFINITY PREDICTED BY RF-SCORE:    0.00 PKD
ROOT
HETATM    1 CL   UNL     1      -9.090  17.632  68.915  1.00  0.00    -0.194 Cl 
HETATM    2  C   UNL     1      -9.160  16.065  68.213  1.00  0.00    -0.191 A  
HETATM    3  C   UNL     1      -8.084  15.194  68.354  1.00  0.00    -0.139 A  
HETATM    4  C   UNL     1      -8.147  13.921  67.785  1.00  0.00    -0.174 A  
HETATM    5  C   UNL     1      -9.284  13.506  67.069  1.00  0.00    -0.248 A  
HETATM    6  C   UNL     1     -10.362  14.394  66.938  1.00  0.00    -0.265 A  
HETATM    7  C   UNL     1     -10.297  15.669  67.507  1.00  0.00    -0.277 A  
ENDROOT
BRANCH   5   8
HETATM    8  C   UNL     1      -9.286  12.118  66.518  1.00  0.00    -0.216 C  
HETATM    9  O   UNL     1      -9.426  11.163  67.278  1.00  0.00    -0.163 OA 
HETATM   10  N   UNL     1      -9.123  11.954  65.159  1.00  0.00    -0.407 N  
HETATM   11  H   UNL     1      -9.044  12.769  64.550  1.00  0.00     0.000 HD 
BRANCH  10  12
HETATM   12  C   UNL     1      -9.065  10.617  64.599  1.00  0.00    -0.211 C  
BRANCH  12  13
HETATM   13  C   UNL     1      -7.659  10.000  64.671  1.00  0.00    -0.143 C  
BRANCH  13  14
HETATM   14  N   UNL     1      -7.628   8.571  65.060  1.00  0.00    -0.088 NA 
HETATM   15  C   UNL     1      -7.987   7.658  63.946  1.00  0.00    -0.091 C  
HETATM   16  C   UNL     1      -6.932   7.588  62.829  1.00  0.00    -0.072 C  
HETATM   17  O   UNL     1      -5.649   7.209  63.346  1.00  0.00    -0.035 OA 
HETATM   18  C   UNL     1      -5.226   8.102  64.383  1.00  0.00    -0.036 C  
HETATM   19  C   UNL     1      -6.268   8.185  65.516  1.00  0.00    -0.045 C  
ENDBRANCH  13  14
ENDBRANCH  12  13
ENDBRANCH  10  12
ENDBRANCH   5   8
TORSDOF 4
ENDMDL
MODEL      199
REMARK 921   NORMALIZED FREE ENERGY PREDICTED BY IDOCK:   -2.25 KCAL/MOL
REMARK 922        TOTAL FREE ENERGY PREDICTED BY IDOCK:   -3.17 KCAL/MOL
REMARK 923 INTER-LIGAND FREE ENERGY PREDICTED BY IDOCK:   -2.78 KCAL/MOL
REMARK 924 INTRA-LIGAND FREE ENERGY PREDICTED BY IDOCK:   -0.40 KCAL/MOL
REMARK 927      BINDING AFFINITY PREDICTED BY RF-SCORE:    0.00 PKD
ROOT
HETATM    1 CL   UNL     1     -11.644   5.013  72.917  1.00  0.00    -0.317 Cl 
HETATM    2  C   UNL     1     -11.416   6.413  71.947  1.00  0.00    -0.304 A  
HETATM    3  C   UNL     1     -11.211   7.649  72.551  1.00  0.00    -0.399 A  
HETATM    4  C   UNL     1     -11.022   8.783  71.759  1.00  0.00    -0.415 A  
HETATM    5  C   UNL     1     -11.039   8.694  70.355  1.00  0.00    -0.250 A  
HETATM    6  C   UNL     1     -11.245   7.440  69.760  1.00  0.00    -0.110 A  
HETATM    7  C   UNL     1     -11.434   6.305  70.555  1.00  0.00    -0.407 A  
ENDROOT
BRANCH   5   8
HETATM    8  C   UNL     1     -10.800   9.946  69.579  1.00  0.00    -0.246 C  
HETATM    9  O   UNL     1     -10.993  11.037  70.111  1.00  0.00    -0.190 OA 
HETATM   10  N   UNL     1     -10.369   9.836  68.274  1.00  0.00    -0.188 N  
HETATM   11  H   UNL     1     -10.184   8.916  67.872  1.00  0.00     0.000 HD 
BRANCH  10  12
HETATM   12  C   UNL     1     -10.181  11.032  67.477  1.00  0.00    -0.188 C  
BRANCH  12  13
HETATM   13  C   UNL     1      -8.703  11.433  67.339  1.00  0.00    -0.145 C  
BRANCH  13  14
HETATM   14  N   UNL     1      -8.474  12.865  67.040  1.00  0.00    -0.176 NA 
HETATM   15  C   UNL     1      -9.153  13.774  67.998  1.00  0.00    -0.191 C  
HETATM   16  C   UNL     1      -8.545  13.761  69.411  1.00  0.00     0.769 C  
HETATM   17  O   UNL     1      -7.146  14.078  69.380  1.00  0.00    -0.094 OA 
HETATM   18  C   UNL     1      -6.434  13.183  68.517  1.00  0.00    -0.085 C  
HETATM   19  C   UNL     1      -7.024  13.183  67.093  1.00  0.00     0.158 C  
ENDBRANCH  13  14
ENDBRANCH  12  13
ENDBRANCH  10  12
ENDBRANCH   5   8
TORSDOF 4
ENDMDL
MODEL      200
REMARK 921   NORMALIZED FREE ENERGY PREDICTED BY IDOCK:   -2.25 KCAL/MOL
REMARK 922        TOTAL FREE ENERGY PREDICTED BY IDOCK:   -3.16 KCAL/MOL
REMARK 923 INTER-LIGAND FREE ENERGY PREDICTED BY IDOCK:   -4.22 KCAL/MOL
REMARK 924 INTRA-LIGAND FREE ENERGY PREDICTED BY IDOCK:    1.05 KCAL/MOL
REMARK 927      BINDING AFFINITY PREDICTED BY RF-SCORE:    0.00 PKD
ROOT
HETATM    1 CL   UNL     1     -11.722  15.211  64.472  1.00  0.00    -0.380 Cl 
HETATM    2  C   UNL     1     -11.436  13.899  65.545  1.00  0.00    -0.316 A  
HETATM    3  C   UNL     1     -10.513  12.915  65.205  1.00  0.00    -0.312 A  
HETATM    4  C   UNL     1     -10.282  11.853  66.082  1.00  0.00    -0.258 A  
HETATM    5  C   UNL     1     -10.971  11.763  67.304  1.00  0.00    -0.318 A  
HETATM    6  C   UNL     1     -11.896  12.764  67.634  1.00  0.00    -0.396 A  
HETATM    7  C   UNL     1     -12.128  13.827  66.755  1.00  0.00    -0.460 A  
ENDROOT
BRANCH   5   8
HETATM    8  C   UNL     1     -10.644  10.613  68.200  1.00  0.00    -0.202 C  
HETATM    9  O   UNL     1     -10.071  10.819  69.267  1.00  0.00    -0.218 OA 
HETATM   10  N   UNL     1     -10.996   9.345  67.791  1.00  0.00    -0.499 N  
HETATM   11  H   UNL     1     -11.503   9.211  66.915  1.00  0.00     0.000 HD 
BRANCH  10  12
HETATM   12  C   UNL     1     -10.644   8.203  68.611  1.00  0.00    -0.109 C  
BRANCH  12  13
HETATM   13  C   UNL     1      -9.711   7.215  67.892  1.00  0.00    -0.138 C  
BRANCH  13  14
HETATM   14  N   UNL     1      -8.271   7.553  67.969  1.00  0.00    -0.123 NA 
HETATM   15  C   UNL     1      -7.437   6.756  67.035  1.00  0.00    -0.087 C  
HETATM   16  C   UNL     1      -7.650   7.105  65.552  1.00  0.00    -0.098 C  
HETATM   17  O   UNL     1      -7.420   8.499  65.306  1.00  0.00    -0.082 OA 
HETATM   18  C   UNL     1      -8.253   9.314  66.140  1.00  0.00    -0.111 C  
HETATM   19  C   UNL     1      -8.053   8.983  67.632  1.00  0.00    -0.109 C  
ENDBRANCH  13  14
ENDBRANCH  12  13
ENDBRANCH  10  12
ENDBRANCH   5   8
TORSDOF 4
ENDMDL
MODEL      201
REMARK 921   NORMALIZED FREE ENERGY PREDICTED BY IDOCK:   -2.15 KCAL/MOL
REMARK 922        TOTAL FREE ENERGY PREDICTED BY IDOCK:   -3.04 KCAL/MOL
REMARK 923 INTER-LIGAND FREE ENERGY PREDICTED BY IDOCK:   -2.73 KCAL/MOL
REMARK 924 INTRA-LIGAND FREE ENERGY PREDICTED BY IDOCK:   -0.31 KCAL/MOL
REMARK 927      BINDING AFFINITY PREDICTED BY RF-SCORE:    0.00 PKD
ROOT
HETATM    1 CL   UNL     1     -11.377   9.945  71.553  1.00  0.00    -0.359 Cl 
HETATM    2  C   UNL     1     -10.257   9.224  70.466  1.00  0.00    -0.251 A  
HETATM    3  C   UNL     1      -9.164   8.521  70.963  1.00  0.00    -0.227 A  
HETATM    4  C   UNL     1      -8.259   7.935  70.076  1.00  0.00    -0.119 A  
HETATM    5  C   UNL     1      -8.436   8.046  68.686  1.00  0.00    -0.128 A  
HETATM    6  C   UNL     1      -9.544   8.756  68.199  1.00  0.00    -0.162 A  
HETATM    7  C   UNL     1     -10.449   9.344  69.088  1.00  0.00    -0.230 A  
ENDROOT
BRANCH   5   8
HETATM    8  C   UNL     1      -7.441   7.365  67.805  1.00  0.00    -0.101 C  
HETATM    9  O   UNL     1      -6.347   7.887  67.607  1.00  0.00    -0.049 OA 
HETATM   10  N   UNL     1      -7.791   6.160  67.233  1.00  0.00    -0.101 N  
HETATM   11  H   UNL     1      -8.694   5.735  67.445  1.00  0.00     0.000 HD 
BRANCH  10  12
HETATM   12  C   UNL     1      -6.869   5.501  66.329  1.00  0.00    -0.059 C  
BRANCH  12  13
HETATM   13  C   UNL     1      -7.491   4.287  65.619  1.00  0.00    -0.081 C  
BRANCH  13  14
HETATM   14  N   UNL     1      -8.849   3.925  66.086  1.00  0.00    -0.119 NA 
HETATM   15  C   UNL     1      -9.914   4.301  65.122  1.00  0.00    -0.204 C  
HETATM   16  C   UNL     1      -9.912   3.465  63.830  1.00  0.00    -0.178 C  
HETATM   17  O   UNL     1     -10.017   2.063  64.116  1.00  0.00    -0.124 OA 
HETATM   18  C   UNL     1      -8.969   1.636  64.994  1.00  0.00    -0.123 C  
HETATM   19  C   UNL     1      -8.954   2.459  66.298  1.00  0.00    -0.114 C  
ENDBRANCH  13  14
ENDBRANCH  12  13
ENDBRANCH  10  12
ENDBRANCH   5   8
TORSDOF 4
ENDMDL
MODEL      202
REMARK 921   NORMALIZED FREE ENERGY PREDICTED BY IDOCK:   -2.14 KCAL/MOL
REMARK 922        TOTAL FREE ENERGY PREDICTED BY IDOCK:   -3.03 KCAL/MOL
REMARK 923 INTER-LIGAND FREE ENERGY PREDICTED BY IDOCK:   -2.76 KCAL/MOL
REMARK 924 INTRA-LIGAND FREE ENERGY PREDICTED BY IDOCK:   -0.27 KCAL/MOL
REMARK 927      BINDING AFFINITY PREDICTED BY RF-SCORE:    0.00 PKD
ROOT
HETATM    1 CL   UNL     1     -10.234  14.747  67.717  1.00  0.00    -0.231 Cl 
HETATM    2  C   UNL     1      -9.939  13.134  67.201  1.00  0.00    -0.236 A  
HETATM    3  C   UNL     1      -8.652  12.610  67.265  1.00  0.00    -0.196 A  
HETATM    4  C   UNL     1      -8.419  11.298  66.848  1.00  0.00    -0.152 A  
HETATM    5  C   UNL     1      -9.468  10.499  66.361  1.00  0.00    -0.208 A  
HETATM    6  C   UNL     1     -10.761  11.040  66.304  1.00  0.00    -0.273 A  
HETATM    7  C   UNL     1     -10.993  12.354  66.721  1.00  0.00    -0.305 A  
ENDROOT
BRANCH   5   8
HETATM    8  C   UNL     1      -9.142   9.097  65.963  1.00  0.00    -0.197 C  
HETATM    9  O   UNL     1      -9.137   8.788  64.774  1.00  0.00    -0.062 OA 
HETATM   10  N   UNL     1      -8.860   8.184  66.957  1.00  0.00    -0.129 N  
HETATM   11  H   UNL     1      -8.839   8.479  67.934  1.00  0.00     0.000 HD 
BRANCH  10  12
HETATM   12  C   UNL     1      -8.594   6.802  66.607  1.00  0.00    -0.123 C  
BRANCH  12  13
HETATM   13  C   UNL     1      -7.424   6.198  67.401  1.00  0.00    -0.082 C  
BRANCH  13  14
HETATM   14  N   UNL     1      -7.741   4.937  68.110  1.00  0.00    -0.082 NA 
HETATM   15  C   UNL     1      -6.814   4.655  69.235  1.00  0.00    -0.050 C  
HETATM   16  C   UNL     1      -6.973   5.609  70.432  1.00  0.00    -0.058 C  
HETATM   17  O   UNL     1      -8.320   5.604  70.927  1.00  0.00    -0.119 OA 
HETATM   18  C   UNL     1      -9.251   5.937  69.890  1.00  0.00    -0.146 C  
HETATM   19  C   UNL     1      -9.112   4.990  68.681  1.00  0.00    -0.110 C  
ENDBRANCH  13  14
ENDBRANCH  12  13
ENDBRANCH  10  12
ENDBRANCH   5   8
TORSDOF 4
ENDMDL
MODEL      203
REMARK 921   NORMALIZED FREE ENERGY PREDICTED BY IDOCK:   -2.08 KCAL/MOL
REMARK 922        TOTAL FREE ENERGY PREDICTED BY IDOCK:   -2.96 KCAL/MOL
REMARK 923 INTER-LIGAND FREE ENERGY PREDICTED BY IDOCK:   -3.15 KCAL/MOL
REMARK 924 INTRA-LIGAND FREE ENERGY PREDICTED BY IDOCK:    0.20 KCAL/MOL
REMARK 927      BINDING AFFINITY PREDICTED BY RF-SCORE:    0.00 PKD
ROOT
HETATM    1 CL   UNL     1     -11.953  14.859  67.716  1.00  0.00    -0.284 Cl 
HETATM    2  C   UNL     1     -11.167  13.346  67.927  1.00  0.00    -0.275 A  
HETATM    3  C   UNL     1     -11.796  12.331  68.642  1.00  0.00    -0.354 A  
HETATM    4  C   UNL     1     -11.154  11.103  68.807  1.00  0.00    -0.291 A  
HETATM    5  C   UNL     1      -9.879  10.875  68.261  1.00  0.00    -0.179 A  
HETATM    6  C   UNL     1      -9.257  11.906  67.541  1.00  0.00    -0.177 A  
HETATM    7  C   UNL     1      -9.900  13.137  67.376  1.00  0.00    -0.226 A  
ENDROOT
BRANCH   5   8
HETATM    8  C   UNL     1      -9.273   9.524  68.456  1.00  0.00    -0.131 C  
HETATM    9  O   UNL     1      -8.058   9.418  68.604  1.00  0.00    -0.101 OA 
HETATM   10  N   UNL     1     -10.109   8.427  68.458  1.00  0.00    -0.192 N  
HETATM   11  H   UNL     1     -11.118   8.551  68.367  1.00  0.00     0.000 HD 
BRANCH  10  12
HETATM   12  C   UNL     1      -9.546   7.097  68.589  1.00  0.00    -0.140 C  
BRANCH  12  13
HETATM   13  C   UNL     1     -10.229   6.066  67.676  1.00  0.00    -0.181 C  
BRANCH  13  14
HETATM   14  N   UNL     1      -9.394   5.581  66.554  1.00  0.00    -0.142 NA 
HETATM   15  C   UNL     1      -8.035   6.181  66.540  1.00  0.00    -0.105 C  
HETATM   16  C   UNL     1      -7.130   5.707  67.689  1.00  0.00    -0.071 C  
HETATM   17  O   UNL     1      -7.006   4.278  67.700  1.00  0.00    -0.057 OA 
HETATM   18  C   UNL     1      -8.292   3.650  67.780  1.00  0.00    -0.093 C  
HETATM   19  C   UNL     1      -9.216   4.108  66.634  1.00  0.00    -0.155 C  
ENDBRANCH  13  14
ENDBRANCH  12  13
ENDBRANCH  10  12
ENDBRANCH   5   8
TORSDOF 4
ENDMDL
MODEL      204
REMARK 921   NORMALIZED FREE ENERGY PREDICTED BY IDOCK:   -1.91 KCAL/MOL
REMARK 922        TOTAL FREE ENERGY PREDICTED BY IDOCK:   -2.75 KCAL/MOL
REMARK 923 INTER-LIGAND FREE ENERGY PREDICTED BY IDOCK:   -2.44 KCAL/MOL
REMARK 924 INTRA-LIGAND FREE ENERGY PREDICTED BY IDOCK:   -0.31 KCAL/MOL
REMARK 927      BINDING AFFINITY PREDICTED BY RF-SCORE:    0.00 PKD
ROOT
HETATM    1 CL   UNL     1     -10.192  15.122  67.208  1.00  0.00    -0.241 Cl 
HETATM    2  C   UNL     1      -9.367  13.617  67.298  1.00  0.00    -0.233 A  
HETATM    3  C   UNL     1      -8.255  13.484  68.123  1.00  0.00    -0.162 A  
HETATM    4  C   UNL     1      -7.591  12.258  68.195  1.00  0.00    -0.127 A  
HETATM    5  C   UNL     1      -8.029  11.154  67.442  1.00  0.00    -0.125 A  
HETATM    6  C   UNL     1      -9.154  11.302  66.616  1.00  0.00    -0.187 A  
HETATM    7  C   UNL     1      -9.818  12.531  66.545  1.00  0.00    -0.251 A  
ENDROOT
BRANCH   5   8
HETATM    8  C   UNL     1      -7.283   9.870  67.598  1.00  0.00    -0.089 C  
HETATM    9  O   UNL     1      -6.244   9.692  66.968  1.00  0.00    -0.062 OA 
HETATM   10  N   UNL     1      -7.796   8.915  68.450  1.00  0.00    -0.102 N  
HETATM   11  H   UNL     1      -8.643   9.107  68.985  1.00  0.00     0.000 HD 
BRANCH  10  12
HETATM   12  C   UNL     1      -7.125   7.636  68.580  1.00  0.00    -0.080 C  
BRANCH  12  13
HETATM   13  C   UNL     1      -8.063   6.442  68.343  1.00  0.00    -0.113 C  
BRANCH  13  14
HETATM   14  N   UNL     1      -7.544   5.423  67.402  1.00  0.00    -0.088 NA 
HETATM   15  C   UNL     1      -8.132   4.077  67.621  1.00  0.00    -0.090 C  
HETATM   16  C   UNL     1      -9.618   3.973  67.236  1.00  0.00    -0.189 C  
HETATM   17  O   UNL     1      -9.831   4.357  65.870  1.00  0.00    -0.189 OA 
HETATM   18  C   UNL     1      -9.338   5.680  65.624  1.00  0.00    -0.008 C  
HETATM   19  C   UNL     1      -7.849   5.806  65.999  1.00  0.00    -0.101 C  
ENDBRANCH  13  14
ENDBRANCH  12  13
ENDBRANCH  10  12
ENDBRANCH   5   8
TORSDOF 4
ENDMDL
MODEL      205
REMARK 921   NORMALIZED FREE ENERGY PREDICTED BY IDOCK:   -1.83 KCAL/MOL
REMARK 922        TOTAL FREE ENERGY PREDICTED BY IDOCK:   -2.65 KCAL/MOL
REMARK 923 INTER-LIGAND FREE ENERGY PREDICTED BY IDOCK:   -3.15 KCAL/MOL
REMARK 924 INTRA-LIGAND FREE ENERGY PREDICTED BY IDOCK:    0.50 KCAL/MOL
REMARK 927      BINDING AFFINITY PREDICTED BY RF-SCORE:    0.00 PKD
ROOT
HETATM    1 CL   UNL     1     -12.335  11.245  63.801  1.00  0.00     0.238 Cl 
HETATM    2  C   UNL     1     -11.653  12.738  64.313  1.00  0.00    -0.376 A  
HETATM    3  C   UNL     1     -12.466  13.859  64.453  1.00  0.00    -0.321 A  
HETATM    4  C   UNL     1     -11.908  15.068  64.872  1.00  0.00    -0.298 A  
HETATM    5  C   UNL     1     -10.534  15.169  65.155  1.00  0.00    -0.437 A  
HETATM    6  C   UNL     1      -9.728  14.030  65.012  1.00  0.00     0.109 A  
HETATM    7  C   UNL     1     -10.288  12.820  64.591  1.00  0.00    -0.362 A  
ENDROOT
BRANCH   5   8
HETATM    8  C   UNL     1     -10.021  16.490  65.628  1.00  0.00    -0.204 C  
HETATM    9  O   UNL     1     -10.746  17.480  65.566  1.00  0.00    -0.551 OA 
HETATM   10  N   UNL     1      -8.734  16.554  66.118  1.00  0.00    -0.322 N  
HETATM   11  H   UNL     1      -8.170  15.707  66.188  1.00  0.00     0.000 HD 
BRANCH  10  12
HETATM   12  C   UNL     1      -8.188  17.831  66.533  1.00  0.00    -0.269 C  
BRANCH  12  13
HETATM   13  C   UNL     1      -6.709  17.743  66.946  1.00  0.00    -0.179 C  
BRANCH  13  14
HETATM   14  N   UNL     1      -5.767  18.421  66.027  1.00  0.00    -0.166 NA 
HETATM   15  C   UNL     1      -6.397  18.828  64.746  1.00  0.00    -0.008 C  
HETATM   16  C   UNL     1      -7.410  19.977  64.884  1.00  0.00     0.377 C  
HETATM   17  O   UNL     1      -6.813  21.130  65.495  1.00  0.00     0.027 OA 
HETATM   18  C   UNL     1      -6.246  20.802  66.769  1.00  0.00    -0.242 C  
HETATM   19  C   UNL     1      -5.223  19.654  66.654  1.00  0.00    -0.163 C  
ENDBRANCH  13  14
ENDBRANCH  12  13
ENDBRANCH  10  12
ENDBRANCH   5   8
TORSDOF 4
ENDMDL
MODEL      206
REMARK 921   NORMALIZED FREE ENERGY PREDICTED BY IDOCK:   -1.62 KCAL/MOL
REMARK 922        TOTAL FREE ENERGY PREDICTED BY IDOCK:   -2.40 KCAL/MOL
REMARK 923 INTER-LIGAND FREE ENERGY PREDICTED BY IDOCK:   -2.21 KCAL/MOL
REMARK 924 INTRA-LIGAND FREE ENERGY PREDICTED BY IDOCK:   -0.18 KCAL/MOL
REMARK 927      BINDING AFFINITY PREDICTED BY RF-SCORE:    0.00 PKD
ROOT
HETATM    1 CL   UNL     1      -8.464   9.285  63.270  1.00  0.00    -0.195 Cl 
HETATM    2  C   UNL     1      -8.236   8.822  64.909  1.00  0.00    -0.159 A  
HETATM    3  C   UNL     1      -7.982   9.792  65.874  1.00  0.00    -0.111 A  
HETATM    4  C   UNL     1      -7.801   9.411  67.205  1.00  0.00    -0.098 A  
HETATM    5  C   UNL     1      -7.870   8.059  67.584  1.00  0.00    -0.122 A  
HETATM    6  C   UNL     1      -8.129   7.093  66.601  1.00  0.00    -0.109 A  
HETATM    7  C   UNL     1      -8.310   7.475  65.268  1.00  0.00    -0.112 A  
ENDROOT
BRANCH   5   8
HETATM    8  C   UNL     1      -7.696   7.737  69.032  1.00  0.00    -0.109 C  
HETATM    9  O   UNL     1      -7.023   6.763  69.361  1.00  0.00    -0.062 OA 
HETATM   10  N   UNL     1      -8.307   8.550  69.962  1.00  0.00    -0.119 N  
HETATM   11  H   UNL     1      -8.831   9.372  69.658  1.00  0.00     0.000 HD 
BRANCH  10  12
HETATM   12  C   UNL     1      -8.203   8.232  71.373  1.00  0.00    -0.131 C  
BRANCH  12  13
HETATM   13  C   UNL     1      -9.237   7.190  71.829  1.00  0.00    -0.139 C  
BRANCH  13  14
HETATM   14  N   UNL     1      -8.776   5.785  71.752  1.00  0.00    -0.135 NA 
HETATM   15  C   UNL     1      -7.502   5.551  72.478  1.00  0.00    -0.097 C  
HETATM   16  C   UNL     1      -7.627   5.642  74.008  1.00  0.00    -0.093 C  
HETATM   17  O   UNL     1      -8.619   4.733  74.506  1.00  0.00    -0.105 OA 
HETATM   18  C   UNL     1      -9.888   4.962  73.882  1.00  0.00    -0.153 C  
HETATM   19  C   UNL     1      -9.787   4.871  72.346  1.00  0.00    -0.161 C  
ENDBRANCH  13  14
ENDBRANCH  12  13
ENDBRANCH  10  12
ENDBRANCH   5   8
TORSDOF 4
ENDMDL
MODEL      207
REMARK 921   NORMALIZED FREE ENERGY PREDICTED BY IDOCK:   -1.51 KCAL/MOL
REMARK 922        TOTAL FREE ENERGY PREDICTED BY IDOCK:   -2.26 KCAL/MOL
REMARK 923 INTER-LIGAND FREE ENERGY PREDICTED BY IDOCK:   -1.91 KCAL/MOL
REMARK 924 INTRA-LIGAND FREE ENERGY PREDICTED BY IDOCK:   -0.35 KCAL/MOL
REMARK 927      BINDING AFFINITY PREDICTED BY RF-SCORE:    0.00 PKD
ROOT
HETATM    1 CL   UNL     1      -8.237  12.091  66.301  1.00  0.00     0.100 Cl 
HETATM    2  C   UNL     1      -8.605  10.548  66.962  1.00  0.00    -0.127 A  
HETATM    3  C   UNL     1      -7.769   9.989  67.924  1.00  0.00    -0.090 A  
HETATM    4  C   UNL     1      -8.074   8.737  68.461  1.00  0.00    -0.116 A  
HETATM    5  C   UNL     1      -9.215   8.030  68.040  1.00  0.00    -0.139 A  
HETATM    6  C   UNL     1     -10.049   8.607  67.071  1.00  0.00    -0.342 A  
HETATM    7  C   UNL     1      -9.743   9.861  66.534  1.00  0.00    -0.260 A  
ENDROOT
BRANCH   5   8
HETATM    8  C   UNL     1      -9.487   6.711  68.685  1.00  0.00    -0.128 C  
HETATM    9  O   UNL     1      -9.786   5.744  67.987  1.00  0.00    -0.119 OA 
HETATM   10  N   UNL     1      -9.399   6.622  70.058  1.00  0.00    -0.157 N  
HETATM   11  H   UNL     1      -9.115   7.434  70.606  1.00  0.00     0.000 HD 
BRANCH  10  12
HETATM   12  C   UNL     1      -9.712   5.370  70.718  1.00  0.00    -0.180 C  
BRANCH  12  13
HETATM   13  C   UNL     1      -8.463   4.530  71.030  1.00  0.00    -0.094 C  
BRANCH  13  14
HETATM   14  N   UNL     1      -8.664   3.065  70.945  1.00  0.00    -0.071 NA 
HETATM   15  C   UNL     1      -8.526   2.540  69.563  1.00  0.00    -0.058 C  
HETATM   16  C   UNL     1      -7.088   2.581  69.018  1.00  0.00    -0.044 C  
HETATM   17  O   UNL     1      -6.183   1.873  69.878  1.00  0.00    -0.023 OA 
HETATM   18  C   UNL     1      -6.231   2.388  71.213  1.00  0.00    -0.018 C  
HETATM   19  C   UNL     1      -7.664   2.353  71.782  1.00  0.00    -0.044 C  
ENDBRANCH  13  14
ENDBRANCH  12  13
ENDBRANCH  10  12
ENDBRANCH   5   8
TORSDOF 4
ENDMDL
MODEL      208
REMARK 921   NORMALIZED FREE ENERGY PREDICTED BY IDOCK:   -1.44 KCAL/MOL
REMARK 922        TOTAL FREE ENERGY PREDICTED BY IDOCK:   -2.17 KCAL/MOL
REMARK 923 INTER-LIGAND FREE ENERGY PREDICTED BY IDOCK:   -2.68 KCAL/MOL
REMARK 924 INTRA-LIGAND FREE ENERGY PREDICTED BY IDOCK:    0.51 KCAL/MOL
REMARK 927      BINDING AFFINITY PREDICTED BY RF-SCORE:    0.00 PKD
ROOT
HETATM    1 CL   UNL     1     -12.595  15.302  65.075  1.00  0.00     0.254 Cl 
HETATM    2  C   UNL     1     -11.298  14.768  66.068  1.00  0.00    -0.332 A  
HETATM    3  C   UNL     1     -11.558  14.271  67.341  1.00  0.00    -0.394 A  
HETATM    4  C   UNL     1     -10.501  13.836  68.142  1.00  0.00    -0.252 A  
HETATM    5  C   UNL     1      -9.174  13.894  67.680  1.00  0.00    -0.199 A  
HETATM    6  C   UNL     1      -8.927  14.396  66.394  1.00  0.00    -0.122 A  
HETATM    7  C   UNL     1      -9.987  14.832  65.592  1.00  0.00    -0.390 A  
ENDROOT
BRANCH   5   8
HETATM    8  C   UNL     1      -8.104  13.381  68.586  1.00  0.00    -0.040 C  
HETATM    9  O   UNL     1      -7.484  14.166  69.300  1.00  0.00    -0.087 OA 
HETATM   10  N   UNL     1      -7.840  12.028  68.586  1.00  0.00    -0.233 N  
HETATM   11  H   UNL     1      -8.396  11.397  68.007  1.00  0.00     0.000 HD 
BRANCH  10  12
HETATM   12  C   UNL     1      -6.769  11.506  69.412  1.00  0.00    -0.116 C  
BRANCH  12  13
HETATM   13  C   UNL     1      -6.075  10.283  68.790  1.00  0.00    -0.047 C  
BRANCH  13  14
HETATM   14  N   UNL     1      -6.356   8.998  69.470  1.00  0.00    -0.043 NA 
HETATM   15  C   UNL     1      -7.171   9.158  70.701  1.00  0.00    -0.105 C  
HETATM   16  C   UNL     1      -8.629   9.573  70.437  1.00  0.00    -0.206 C  
HETATM   17  O   UNL     1      -9.285   8.644  69.563  1.00  0.00    -0.148 OA 
HETATM   18  C   UNL     1      -8.570   8.504  68.329  1.00  0.00    -0.139 C  
HETATM   19  C   UNL     1      -7.106   8.085  68.570  1.00  0.00    -0.080 C  
ENDBRANCH  13  14
ENDBRANCH  12  13
ENDBRANCH  10  12
ENDBRANCH   5   8
TORSDOF 4
ENDMDL
MODEL      209
REMARK 921   NORMALIZED FREE ENERGY PREDICTED BY IDOCK:   -1.08 KCAL/MOL
REMARK 922        TOTAL FREE ENERGY PREDICTED BY IDOCK:   -1.73 KCAL/MOL
REMARK 923 INTER-LIGAND FREE ENERGY PREDICTED BY IDOCK:   -1.58 KCAL/MOL
REMARK 924 INTRA-LIGAND FREE ENERGY PREDICTED BY IDOCK:   -0.14 KCAL/MOL
REMARK 927      BINDING AFFINITY PREDICTED BY RF-SCORE:    0.00 PKD
ROOT
HETATM    1 CL   UNL     1      -9.812  16.346  70.133  1.00  0.00     0.423 Cl 
HETATM    2  C   UNL     1      -8.869  15.266  69.185  1.00  0.00    -0.238 A  
HETATM    3  C   UNL     1      -7.505  15.491  69.027  1.00  0.00    -0.171 A  
HETATM    4  C   UNL     1      -6.744  14.609  68.259  1.00  0.00    -0.115 A  
HETATM    5  C   UNL     1      -7.337  13.495  67.639  1.00  0.00    -0.180 A  
HETATM    6  C   UNL     1      -8.713  13.279  67.808  1.00  0.00    -0.194 A  
HETATM    7  C   UNL     1      -9.475  14.164  68.578  1.00  0.00    -0.202 A  
ENDROOT
BRANCH   5   8
HETATM    8  C   UNL     1      -6.449  12.582  66.859  1.00  0.00     0.275 C  
HETATM    9  O   UNL     1      -5.230  12.735  66.905  1.00  0.00    -0.324 OA 
HETATM   10  N   UNL     1      -7.033  11.590  66.101  1.00  0.00    -0.365 N  
HETATM   11  H   UNL     1      -8.046  11.467  66.111  1.00  0.00     0.000 HD 
BRANCH  10  12
HETATM   12  C   UNL     1      -6.201  10.723  65.289  1.00  0.00     0.026 C  
BRANCH  12  13
HETATM   13  C   UNL     1      -7.005   9.634  64.561  1.00  0.00    -0.117 C  
BRANCH  13  14
HETATM   14  N   UNL     1      -6.321   8.324  64.456  1.00  0.00    -0.064 NA 
HETATM   15  C   UNL     1      -5.362   8.080  65.564  1.00  0.00    -0.029 C  
HETATM   16  C   UNL     1      -6.030   7.854  66.931  1.00  0.00    -0.052 C  
HETATM   17  O   UNL     1      -6.968   6.770  66.881  1.00  0.00    -0.066 OA 
HETATM   18  C   UNL     1      -7.957   6.991  65.868  1.00  0.00    -0.113 C  
HETATM   19  C   UNL     1      -7.310   7.216  64.487  1.00  0.00    -0.081 C  
ENDBRANCH  13  14
ENDBRANCH  12  13
ENDBRANCH  10  12
ENDBRANCH   5   8
TORSDOF 4
ENDMDL
MODEL      210
REMARK 921   NORMALIZED FREE ENERGY PREDICTED BY IDOCK:   -0.53 KCAL/MOL
REMARK 922        TOTAL FREE ENERGY PREDICTED BY IDOCK:   -1.04 KCAL/MOL
REMARK 923 INTER-LIGAND FREE ENERGY PREDICTED BY IDOCK:   -0.81 KCAL/MOL
REMARK 924 INTRA-LIGAND FREE ENERGY PREDICTED BY IDOCK:   -0.24 KCAL/MOL
REMARK 927      BINDING AFFINITY PREDICTED BY RF-SCORE:    0.00 PKD
ROOT
HETATM    1 CL   UNL     1      -7.850  12.384  65.938  1.00  0.00     1.174 Cl 
HETATM    2  C   UNL     1      -8.107  10.726  66.312  1.00  0.00    -0.159 A  
HETATM    3  C   UNL     1      -7.381  10.126  67.335  1.00  0.00    -0.089 A  
HETATM    4  C   UNL     1      -7.595   8.780  67.637  1.00  0.00    -0.097 A  
HETATM    5  C   UNL     1      -8.535   8.020  66.918  1.00  0.00    -0.124 A  
HETATM    6  C   UNL     1      -9.262   8.640  65.890  1.00  0.00    -0.264 A  
HETATM    7  C   UNL     1      -9.046   9.988  65.588  1.00  0.00    -0.222 A  
ENDROOT
BRANCH   5   8
HETATM    8  C   UNL     1      -8.728   6.596  67.322  1.00  0.00    -0.118 C  
HETATM    9  O   UNL     1      -8.614   5.706  66.483  1.00  0.00    -0.116 OA 
HETATM   10  N   UNL     1      -9.037   6.325  68.638  1.00  0.00    -0.127 N  
HETATM   11  H   UNL     1      -9.090   7.084  69.319  1.00  0.00     0.000 HD 
BRANCH  10  12
HETATM   12  C   UNL     1      -9.285   4.957  69.050  1.00  0.00    -0.119 C  
BRANCH  12  13
HETATM   13  C   UNL     1      -9.084   4.741  70.559  1.00  0.00    -0.120 C  
BRANCH  13  14
HETATM   14  N   UNL     1      -8.000   3.795  70.911  1.00  0.00    -0.064 NA 
HETATM   15  C   UNL     1      -7.041   4.353  71.898  1.00  0.00    -0.055 C  
HETATM   16  C   UNL     1      -7.626   4.528  73.310  1.00  0.00    -0.086 C  
HETATM   17  O   UNL     1      -8.147   3.291  73.816  1.00  0.00    -0.072 OA 
HETATM   18  C   UNL     1      -9.129   2.743  72.927  1.00  0.00    -0.086 C  
HETATM   19  C   UNL     1      -8.563   2.556  71.506  1.00  0.00    -0.064 C  
ENDBRANCH  13  14
ENDBRANCH  12  13
ENDBRANCH  10  12
ENDBRANCH   5   8
TORSDOF 4
ENDMDL
MODEL      211
REMARK 921   NORMALIZED FREE ENERGY PREDICTED BY IDOCK:    1.00 KCAL/MOL
REMARK 922        TOTAL FREE ENERGY PREDICTED BY IDOCK:    0.84 KCAL/MOL
REMARK 923 INTER-LIGAND FREE ENERGY PREDICTED BY IDOCK:    0.04 KCAL/MOL
REMARK 924 INTRA-LIGAND FREE ENERGY PREDICTED BY IDOCK:    0.80 KCAL/MOL
REMARK 927      BINDING AFFINITY PREDICTED BY RF-SCORE:    0.00 PKD
ROOT
HETATM    1 CL   UNL     1     -13.646  14.588  69.320  1.00  0.00     2.607 Cl 
HETATM    2  C   UNL     1     -12.212  13.803  68.789  1.00  0.00    -0.186 A  
HETATM    3  C   UNL     1     -11.447  14.371  67.775  1.00  0.00    -0.360 A  
HETATM    4  C   UNL     1     -10.281  13.732  67.350  1.00  0.00    -0.252 A  
HETATM    5  C   UNL     1      -9.870  12.519  67.930  1.00  0.00    -0.207 A  
HETATM    6  C   UNL     1     -10.651  11.959  68.953  1.00  0.00    -0.205 A  
HETATM    7  C   UNL     1     -11.819  12.600  69.378  1.00  0.00    -0.356 A  
ENDROOT
BRANCH   5   8
HETATM    8  C   UNL     1      -8.596  11.914  67.440  1.00  0.00    -0.164 C  
HETATM    9  O   UNL     1      -8.624  11.095  66.525  1.00  0.00    -0.159 OA 
HETATM   10  N   UNL     1      -7.416  12.297  68.043  1.00  0.00    -0.104 N  
HETATM   11  H   UNL     1      -7.422  13.006  68.777  1.00  0.00     0.000 HD 
BRANCH  10  12
HETATM   12  C   UNL     1      -6.168  11.687  67.628  1.00  0.00    -0.068 C  
BRANCH  12  13
HETATM   13  C   UNL     1      -6.329  10.214  67.217  1.00  0.00    -0.066 C  
BRANCH  13  14
HETATM   14  N   UNL     1      -5.425   9.770  66.132  1.00  0.00    -0.046 NA 
HETATM   15  C   UNL     1      -5.345   8.292  66.011  1.00  0.00    -0.028 C  
HETATM   16  C   UNL     1      -6.633   7.637  65.485  1.00  0.00    -0.045 C  
HETATM   17  O   UNL     1      -7.019   8.187  64.218  1.00  0.00    -0.067 OA 
HETATM   18  C   UNL     1      -7.174   9.609  64.299  1.00  0.00    -0.122 C  
HETATM   19  C   UNL     1      -5.892  10.288  64.820  1.00  0.00    -0.133 C  
ENDBRANCH  13  14
ENDBRANCH  12  13
ENDBRANCH  10  12
ENDBRANCH   5   8
TORSDOF 4
ENDMDL
MODEL      212
REMARK 921   NORMALIZED FREE ENERGY PREDICTED BY IDOCK:    4.96 KCAL/MOL
REMARK 922        TOTAL FREE ENERGY PREDICTED BY IDOCK:    5.73 KCAL/MOL
REMARK 923 INTER-LIGAND FREE ENERGY PREDICTED BY IDOCK:    2.79 KCAL/MOL
REMARK 924 INTRA-LIGAND FREE ENERGY PREDICTED BY IDOCK:    2.94 KCAL/MOL
REMARK 927      BINDING AFFINITY PREDICTED BY RF-SCORE:    0.00 PKD
ROOT
HETATM    1 CL   UNL     1     -12.870  10.642  63.197  1.00  0.00     3.301 Cl 
HETATM    2  C   UNL     1     -12.273  12.177  63.688  1.00  0.00    -0.562 A  
HETATM    3  C   UNL     1     -13.151  13.244  63.844  1.00  0.00     0.696 A  
HETATM    4  C   UNL     1     -12.662  14.488  64.247  1.00  0.00     0.069 A  
HETATM    5  C   UNL     1     -11.291  14.678  64.496  1.00  0.00    -0.316 A  
HETATM    6  C   UNL     1     -10.418  13.592  64.337  1.00  0.00    -0.366 A  
HETATM    7  C   UNL     1     -10.909  12.346  63.933  1.00  0.00    -0.465 A  
ENDROOT
BRANCH   5   8
HETATM    8  C   UNL     1     -10.851  16.030  64.953  1.00  0.00    -0.372 C  
HETATM    9  O   UNL     1     -11.609  16.989  64.828  1.00  0.00    -0.309 OA 
HETATM   10  N   UNL     1      -9.593  16.158  65.501  1.00  0.00    -0.140 N  
HETATM   11  H   UNL     1      -9.001  15.336  65.623  1.00  0.00     0.000 HD 
BRANCH  10  12
HETATM   12  C   UNL     1      -9.116  17.467  65.903  1.00  0.00     0.099 C  
BRANCH  12  13
HETATM   13  C   UNL     1      -7.583  17.545  65.986  1.00  0.00    -0.221 C  
BRANCH  13  14
HETATM   14  N   UNL     1      -6.896  16.234  66.017  1.00  0.00     0.612 NA 
HETATM   15  C   UNL     1      -5.851  16.151  67.069  1.00  0.00     0.093 C  
HETATM   16  C   UNL     1      -6.406  16.124  68.503  1.00  0.00    -0.116 C  
HETATM   17  O   UNL     1      -7.334  15.045  68.683  1.00  0.00    -0.108 OA 
HETATM   18  C   UNL     1      -8.402  15.119  67.731  1.00  0.00    -0.151 C  
HETATM   19  C   UNL     1      -7.868  15.143  66.285  1.00  0.00     1.049 C  
ENDBRANCH  13  14
ENDBRANCH  12  13
ENDBRANCH  10  12
ENDBRANCH   5   8
TORSDOF 4
ENDMDL
MODEL      213
REMARK 921   NORMALIZED FREE ENERGY PREDICTED BY IDOCK:   23.89 KCAL/MOL
REMARK 922        TOTAL FREE ENERGY PREDICTED BY IDOCK:   29.09 KCAL/MOL
REMARK 923 INTER-LIGAND FREE ENERGY PREDICTED BY IDOCK:   17.34 KCAL/MOL
REMARK 924 INTRA-LIGAND FREE ENERGY PREDICTED BY IDOCK:   11.75 KCAL/MOL
REMARK 927      BINDING AFFINITY PREDICTED BY RF-SCORE:    0.00 PKD
ROOT
HETATM    1 CL   UNL     1     -13.190   9.644  63.746  1.00  0.00    11.946 Cl 
HETATM    2  C   UNL     1     -12.265  11.041  64.127  1.00  0.00     1.588 A  
HETATM    3  C   UNL     1     -11.967  11.967  63.133  1.00  0.00    -0.323 A  
HETATM    4  C   UNL     1     -11.218  13.102  63.449  1.00  0.00     0.012 A  
HETATM    5  C   UNL     1     -10.759  13.322  64.760  1.00  0.00    -0.393 A  
HETATM    6  C   UNL     1     -11.069  12.381  65.752  1.00  0.00    -0.351 A  
HETATM    7  C   UNL     1     -11.819  11.244  65.435  1.00  0.00     0.702 A  
ENDROOT
BRANCH   5   8
HETATM    8  C   UNL     1      -9.991  14.575  65.022  1.00  0.00    -0.171 C  
HETATM    9  O   UNL     1      -9.675  15.303  64.083  1.00  0.00     1.358 OA 
HETATM   10  N   UNL     1      -9.653  14.875  66.325  1.00  0.00    -0.290 N  
HETATM   11  H   UNL     1      -9.960  14.269  67.086  1.00  0.00     0.000 HD 
BRANCH  10  12
HETATM   12  C   UNL     1      -8.860  16.056  66.607  1.00  0.00    -0.272 C  
BRANCH  12  13
HETATM   13  C   UNL     1      -9.161  16.663  67.987  1.00  0.00    -0.223 C  
BRANCH  13  14
HETATM   14  N   UNL     1     -10.400  16.165  68.627  1.00  0.00    -0.240 NA 
HETATM   15  C   UNL     1     -11.558  17.074  68.435  1.00  0.00     0.497 C  
HETATM   16  C   UNL     1     -12.081  17.125  66.989  1.00  0.00     2.776 C  
HETATM   17  O   UNL     1     -12.433  15.818  66.515  1.00  0.00     1.307 OA 
HETATM   18  C   UNL     1     -11.323  14.917  66.617  1.00  0.00    -0.326 C  
HETATM   19  C   UNL     1     -10.785  14.847  68.060  1.00  0.00    -0.253 C  
ENDBRANCH  13  14
ENDBRANCH  12  13
ENDBRANCH  10  12
ENDBRANCH   5   8
TORSDOF 4
ENDMDL
