MODEL        1
REMARK 921   NORMALIZED FREE ENERGY PREDICTED BY IDOCK:   -6.02 KCAL/MOL
REMARK 922        TOTAL FREE ENERGY PREDICTED BY IDOCK:   -8.80 KCAL/MOL
REMARK 923 INTER-LIGAND FREE ENERGY PREDICTED BY IDOCK:   -7.78 KCAL/MOL
REMARK 924 INTRA-LIGAND FREE ENERGY PREDICTED BY IDOCK:   -1.02 KCAL/MOL
REMARK 927      BINDING AFFINITY PREDICTED BY RF-SCORE:    0.00 PKD
ROOT
HETATM    1  N   UNL     1     -12.261  15.538  63.831  1.00  0.00    -0.952 N  
HETATM    2  C   UNL     1     -12.350  14.232  64.230  1.00  0.00    -0.377 C  
HETATM    3  H1  UNL     1     -12.249  16.295  64.514  1.00  0.00     0.000 HD 
HETATM    4  H2  UNL     1     -12.205  15.759  62.836  1.00  0.00     0.000 HD 
HETATM    5  O   UNL     1     -12.363  13.321  63.407  1.00  0.00    -0.726 OA 
ENDROOT
BRANCH   2   6
HETATM    6  C   UNL     1     -12.461  14.006  65.723  1.00  0.00    -0.494 C  
BRANCH   6   7
HETATM    7  S   UNL     1     -10.859  14.361  66.487  1.00  0.00    -0.316 S  
HETATM    8  O   UNL     1     -10.038  15.097  65.462  1.00  0.00    -0.332 OA 
BRANCH   7   9
HETATM    9  C   UNL     1     -11.402  15.588  67.769  1.00  0.00    -0.286 C  
BRANCH   9  10
HETATM   10  C   UNL     1     -11.841  14.922  69.067  1.00  0.00    -0.333 A  
HETATM   11  C   UNL     1     -12.384  15.695  70.110  1.00  0.00    -0.366 A  
HETATM   12  C   UNL     1     -11.721  13.535  69.259  1.00  0.00    -0.382 A  
HETATM   13  C   UNL     1     -12.813  15.095  71.298  1.00  0.00    -0.461 A  
HETATM   14  C   UNL     1     -12.694  13.719  71.468  1.00  0.00    -0.432 A  
HETATM   15  C   UNL     1     -12.145  12.941  70.451  1.00  0.00    -0.385 A  
ENDBRANCH   9  10
BRANCH   9  16
HETATM   16  C   UNL     1     -10.346  16.681  67.985  1.00  0.00    -0.303 A  
HETATM   17  C   UNL     1      -9.685  19.020  67.798  1.00  0.00    -0.383 A  
HETATM   18  C   UNL     1      -8.108  17.408  68.642  1.00  0.00    -0.264 A  
HETATM   19  C   UNL     1     -10.645  18.013  67.653  1.00  0.00    -0.413 A  
HETATM   20  C   UNL     1      -9.069  16.405  68.511  1.00  0.00    -0.223 A  
HETATM   21  C   UNL     1      -8.413  18.715  68.280  1.00  0.00    -0.350 A  
ENDBRANCH   9  16
ENDBRANCH   7   9
ENDBRANCH   6   7
ENDBRANCH   2   6
TORSDOF 5
ENDMDL
MODEL        2
REMARK 921   NORMALIZED FREE ENERGY PREDICTED BY IDOCK:   -5.98 KCAL/MOL
REMARK 922        TOTAL FREE ENERGY PREDICTED BY IDOCK:   -8.75 KCAL/MOL
REMARK 923 INTER-LIGAND FREE ENERGY PREDICTED BY IDOCK:   -8.17 KCAL/MOL
REMARK 924 INTRA-LIGAND FREE ENERGY PREDICTED BY IDOCK:   -0.58 KCAL/MOL
REMARK 927      BINDING AFFINITY PREDICTED BY RF-SCORE:    0.00 PKD
ROOT
HETATM    1  N   UNL     1     -12.607  14.578  63.625  1.00  0.00    -0.992 N  
HETATM    2  C   UNL     1     -11.664  15.298  64.307  1.00  0.00    -0.215 C  
HETATM    3  H1  UNL     1     -12.753  13.588  63.822  1.00  0.00     0.000 HD 
HETATM    4  H2  UNL     1     -13.172  15.037  62.911  1.00  0.00     0.000 HD 
HETATM    5  O   UNL     1     -11.488  16.490  64.071  1.00  0.00    -1.137 OA 
ENDROOT
BRANCH   2   6
HETATM    6  C   UNL     1     -10.853  14.523  65.326  1.00  0.00    -0.367 C  
BRANCH   6   7
HETATM    7  S   UNL     1     -11.977  13.852  66.576  1.00  0.00    -0.450 S  
HETATM    8  O   UNL     1     -12.206  12.406  66.228  1.00  0.00    -0.620 OA 
BRANCH   7   9
HETATM    9  C   UNL     1     -10.854  13.912  68.053  1.00  0.00    -0.246 C  
BRANCH   9  10
HETATM   10  C   UNL     1     -10.208  15.278  68.242  1.00  0.00    -0.226 A  
HETATM   11  C   UNL     1      -8.864  15.374  68.647  1.00  0.00    -0.186 A  
HETATM   12  C   UNL     1     -10.923  16.467  68.017  1.00  0.00    -0.320 A  
HETATM   13  C   UNL     1      -8.250  16.621  68.803  1.00  0.00    -0.249 A  
HETATM   14  C   UNL     1      -8.971  17.788  68.569  1.00  0.00    -0.288 A  
HETATM   15  C   UNL     1     -10.307  17.711  68.180  1.00  0.00    -0.386 A  
ENDBRANCH   9  10
BRANCH   9  16
HETATM   16  C   UNL     1     -11.562  13.404  69.318  1.00  0.00    -0.365 A  
HETATM   17  C   UNL     1     -12.346  11.534  70.671  1.00  0.00    -0.457 A  
HETATM   18  C   UNL     1     -12.807  13.787  71.385  1.00  0.00    -0.449 A  
HETATM   19  C   UNL     1     -11.667  12.023  69.550  1.00  0.00    -0.408 A  
HETATM   20  C   UNL     1     -12.119  14.276  70.274  1.00  0.00    -0.403 A  
HETATM   21  C   UNL     1     -12.927  12.417  71.581  1.00  0.00    -0.409 A  
ENDBRANCH   9  16
ENDBRANCH   7   9
ENDBRANCH   6   7
ENDBRANCH   2   6
TORSDOF 5
ENDMDL
MODEL        3
REMARK 921   NORMALIZED FREE ENERGY PREDICTED BY IDOCK:   -5.96 KCAL/MOL
REMARK 922        TOTAL FREE ENERGY PREDICTED BY IDOCK:   -8.73 KCAL/MOL
REMARK 923 INTER-LIGAND FREE ENERGY PREDICTED BY IDOCK:   -7.77 KCAL/MOL
REMARK 924 INTRA-LIGAND FREE ENERGY PREDICTED BY IDOCK:   -0.96 KCAL/MOL
REMARK 927      BINDING AFFINITY PREDICTED BY RF-SCORE:    0.00 PKD
ROOT
HETATM    1  N   UNL     1     -12.011  15.551  63.902  1.00  0.00    -0.986 N  
HETATM    2  C   UNL     1     -12.268  14.260  64.276  1.00  0.00    -0.423 C  
HETATM    3  H1  UNL     1     -11.972  16.299  64.595  1.00  0.00     0.000 HD 
HETATM    4  H2  UNL     1     -11.856  15.769  62.918  1.00  0.00     0.000 HD 
HETATM    5  O   UNL     1     -12.314  13.359  63.443  1.00  0.00    -0.728 OA 
ENDROOT
BRANCH   2   6
HETATM    6  C   UNL     1     -12.517  14.039  65.754  1.00  0.00    -0.494 C  
BRANCH   6   7
HETATM    7  S   UNL     1     -10.954  14.241  66.644  1.00  0.00    -0.316 S  
HETATM    8  O   UNL     1      -9.973  14.848  65.677  1.00  0.00    -0.319 OA 
BRANCH   7   9
HETATM    9  C   UNL     1     -11.460  15.562  67.845  1.00  0.00    -0.272 C  
BRANCH   9  10
HETATM   10  C   UNL     1     -11.865  14.997  69.201  1.00  0.00    -0.338 A  
HETATM   11  C   UNL     1     -11.948  13.606  69.390  1.00  0.00    -0.394 A  
HETATM   12  C   UNL     1     -12.158  15.836  70.290  1.00  0.00    -0.371 A  
HETATM   13  C   UNL     1     -12.295  13.071  70.635  1.00  0.00    -0.391 A  
HETATM   14  C   UNL     1     -12.575  13.917  71.704  1.00  0.00    -0.387 A  
HETATM   15  C   UNL     1     -12.510  15.297  71.530  1.00  0.00    -0.430 A  
ENDBRANCH   9  10
BRANCH   9  16
HETATM   16  C   UNL     1     -10.397  16.665  67.950  1.00  0.00    -0.310 A  
HETATM   17  C   UNL     1      -8.167  17.365  68.644  1.00  0.00    -0.264 A  
HETATM   18  C   UNL     1      -9.665  18.980  67.672  1.00  0.00    -0.373 A  
HETATM   19  C   UNL     1      -9.138  16.368  68.497  1.00  0.00    -0.223 A  
HETATM   20  C   UNL     1     -10.629  17.984  67.513  1.00  0.00    -0.402 A  
HETATM   21  C   UNL     1      -8.436  18.673  68.244  1.00  0.00    -0.350 A  
ENDBRANCH   9  16
ENDBRANCH   7   9
ENDBRANCH   6   7
ENDBRANCH   2   6
TORSDOF 5
ENDMDL
MODEL        4
REMARK 921   NORMALIZED FREE ENERGY PREDICTED BY IDOCK:   -5.95 KCAL/MOL
REMARK 922        TOTAL FREE ENERGY PREDICTED BY IDOCK:   -8.71 KCAL/MOL
REMARK 923 INTER-LIGAND FREE ENERGY PREDICTED BY IDOCK:   -7.89 KCAL/MOL
REMARK 924 INTRA-LIGAND FREE ENERGY PREDICTED BY IDOCK:   -0.82 KCAL/MOL
REMARK 927      BINDING AFFINITY PREDICTED BY RF-SCORE:    0.00 PKD
ROOT
HETATM    1  N   UNL     1     -11.358  14.778  65.219  1.00  0.00    -0.352 N  
HETATM    2  C   UNL     1     -12.303  13.990  65.821  1.00  0.00    -0.480 C  
HETATM    3  H1  UNL     1     -10.373  14.702  65.474  1.00  0.00     0.000 HD 
HETATM    4  H2  UNL     1     -11.643  15.449  64.505  1.00  0.00     0.000 HD 
HETATM    5  O   UNL     1     -13.488  14.081  65.514  1.00  0.00    -0.677 OA 
ENDROOT
BRANCH   2   6
HETATM    6  C   UNL     1     -11.789  13.048  66.891  1.00  0.00    -0.380 C  
BRANCH   6   7
HETATM    7  S   UNL     1     -11.287  14.020  68.332  1.00  0.00    -0.312 S  
HETATM    8  O   UNL     1     -11.743  15.433  68.089  1.00  0.00    -0.351 OA 
BRANCH   7   9
HETATM    9  C   UNL     1     -12.409  13.270  69.606  1.00  0.00    -0.097 C  
BRANCH   9  10
HETATM   10  C   UNL     1     -11.944  11.891  70.056  1.00  0.00    -0.409 A  
HETATM   11  C   UNL     1     -12.650  11.200  71.058  1.00  0.00    -0.503 A  
HETATM   12  C   UNL     1     -10.816  11.274  69.490  1.00  0.00    -0.207 A  
HETATM   13  C   UNL     1     -12.249   9.923  71.465  1.00  0.00    -0.505 A  
HETATM   14  C   UNL     1     -11.134   9.324  70.888  1.00  0.00    -0.374 A  
HETATM   15  C   UNL     1     -10.416  10.001  69.905  1.00  0.00    -0.317 A  
ENDBRANCH   9  10
BRANCH   9  16
HETATM   16  C   UNL     1     -12.649  14.232  70.779  1.00  0.00    -0.427 A  
HETATM   17  C   UNL     1     -11.745  15.659  72.537  1.00  0.00    -0.567 A  
HETATM   18  C   UNL     1     -14.130  15.397  72.335  1.00  0.00    -0.645 A  
HETATM   19  C   UNL     1     -11.554  14.815  71.438  1.00  0.00    -0.305 A  
HETATM   20  C   UNL     1     -13.941  14.566  71.231  1.00  0.00    -0.356 A  
HETATM   21  C   UNL     1     -13.032  15.939  72.993  1.00  0.00    -0.630 A  
ENDBRANCH   9  16
ENDBRANCH   7   9
ENDBRANCH   6   7
ENDBRANCH   2   6
TORSDOF 5
ENDMDL
MODEL        5
REMARK 921   NORMALIZED FREE ENERGY PREDICTED BY IDOCK:   -5.91 KCAL/MOL
REMARK 922        TOTAL FREE ENERGY PREDICTED BY IDOCK:   -8.66 KCAL/MOL
REMARK 923 INTER-LIGAND FREE ENERGY PREDICTED BY IDOCK:   -8.24 KCAL/MOL
REMARK 924 INTRA-LIGAND FREE ENERGY PREDICTED BY IDOCK:   -0.42 KCAL/MOL
REMARK 927      BINDING AFFINITY PREDICTED BY RF-SCORE:    0.00 PKD
ROOT
HETATM    1  N   UNL     1     -12.428  14.428  63.688  1.00  0.00    -1.086 N  
HETATM    2  C   UNL     1     -11.656  15.345  64.348  1.00  0.00    -0.264 C  
HETATM    3  H1  UNL     1     -12.475  13.459  64.002  1.00  0.00     0.000 HD 
HETATM    4  H2  UNL     1     -12.965  14.718  62.870  1.00  0.00     0.000 HD 
HETATM    5  O   UNL     1     -11.600  16.512  63.970  1.00  0.00    -1.154 OA 
ENDROOT
BRANCH   2   6
HETATM    6  C   UNL     1     -10.871  14.815  65.531  1.00  0.00    -0.351 C  
BRANCH   6   7
HETATM    7  S   UNL     1     -12.031  14.131  66.740  1.00  0.00    -0.441 S  
HETATM    8  O   UNL     1     -12.117  12.652  66.478  1.00  0.00    -0.525 OA 
BRANCH   7   9
HETATM    9  C   UNL     1     -11.034  14.379  68.286  1.00  0.00    -0.247 C  
BRANCH   9  10
HETATM   10  C   UNL     1     -10.319  15.723  68.313  1.00  0.00    -0.239 A  
HETATM   11  C   UNL     1     -11.015  16.901  67.984  1.00  0.00    -0.271 A  
HETATM   12  C   UNL     1      -8.962  15.828  68.665  1.00  0.00    -0.204 A  
HETATM   13  C   UNL     1     -10.378  18.145  68.026  1.00  0.00    -0.405 A  
HETATM   14  C   UNL     1      -9.037  18.231  68.384  1.00  0.00    -0.331 A  
HETATM   15  C   UNL     1      -8.329  17.073  68.699  1.00  0.00    -0.264 A  
ENDBRANCH   9  10
BRANCH   9  16
HETATM   16  C   UNL     1     -11.876  14.124  69.545  1.00  0.00    -0.373 A  
HETATM   17  C   UNL     1     -13.258  15.000  71.352  1.00  0.00    -0.497 A  
HETATM   18  C   UNL     1     -12.759  12.645  71.278  1.00  0.00    -0.354 A  
HETATM   19  C   UNL     1     -12.521  15.198  70.180  1.00  0.00    -0.361 A  
HETATM   20  C   UNL     1     -12.036  12.840  70.101  1.00  0.00    -0.371 A  
HETATM   21  C   UNL     1     -13.365  13.726  71.908  1.00  0.00    -0.499 A  
ENDBRANCH   9  16
ENDBRANCH   7   9
ENDBRANCH   6   7
ENDBRANCH   2   6
TORSDOF 5
ENDMDL
MODEL        6
REMARK 921   NORMALIZED FREE ENERGY PREDICTED BY IDOCK:   -5.84 KCAL/MOL
REMARK 922        TOTAL FREE ENERGY PREDICTED BY IDOCK:   -8.57 KCAL/MOL
REMARK 923 INTER-LIGAND FREE ENERGY PREDICTED BY IDOCK:   -8.08 KCAL/MOL
REMARK 924 INTRA-LIGAND FREE ENERGY PREDICTED BY IDOCK:   -0.49 KCAL/MOL
REMARK 927      BINDING AFFINITY PREDICTED BY RF-SCORE:    0.00 PKD
ROOT
HETATM    1  N   UNL     1     -12.294  14.403  64.063  1.00  0.00    -0.931 N  
HETATM    2  C   UNL     1     -12.231  13.844  65.311  1.00  0.00    -0.433 C  
HETATM    3  H1  UNL     1     -11.854  15.303  63.869  1.00  0.00     0.000 HD 
HETATM    4  H2  UNL     1     -12.787  13.913  63.316  1.00  0.00     0.000 HD 
HETATM    5  O   UNL     1     -12.760  12.761  65.544  1.00  0.00    -0.595 OA 
ENDROOT
BRANCH   2   6
HETATM    6  C   UNL     1     -11.506  14.659  66.362  1.00  0.00    -0.347 C  
BRANCH   6   7
HETATM    7  S   UNL     1     -11.840  13.941  67.989  1.00  0.00    -0.363 S  
HETATM    8  O   UNL     1     -10.643  13.106  68.354  1.00  0.00    -0.239 OA 
BRANCH   7   9
HETATM    9  C   UNL     1     -11.792  15.486  69.016  1.00  0.00    -0.354 C  
BRANCH   9  10
HETATM   10  C   UNL     1     -12.163  15.233  70.472  1.00  0.00    -0.415 A  
HETATM   11  C   UNL     1     -11.858  16.192  71.456  1.00  0.00    -0.528 A  
HETATM   12  C   UNL     1     -12.816  14.054  70.870  1.00  0.00    -0.389 A  
HETATM   13  C   UNL     1     -12.213  15.984  72.793  1.00  0.00    -0.617 A  
HETATM   14  C   UNL     1     -12.866  14.814  73.168  1.00  0.00    -0.614 A  
HETATM   15  C   UNL     1     -13.163  13.849  72.208  1.00  0.00    -0.568 A  
ENDBRANCH   9  10
BRANCH   9  16
HETATM   16  C   UNL     1     -10.454  16.223  68.859  1.00  0.00    -0.273 A  
HETATM   17  C   UNL     1      -9.210  18.152  68.038  1.00  0.00    -0.285 A  
HETATM   18  C   UNL     1      -8.028  16.353  69.118  1.00  0.00    -0.204 A  
HETATM   19  C   UNL     1     -10.421  17.480  68.233  1.00  0.00    -0.383 A  
HETATM   20  C   UNL     1      -9.237  15.689  69.325  1.00  0.00    -0.269 A  
HETATM   21  C   UNL     1      -8.012  17.582  68.468  1.00  0.00    -0.271 A  
ENDBRANCH   9  16
ENDBRANCH   7   9
ENDBRANCH   6   7
ENDBRANCH   2   6
TORSDOF 5
ENDMDL
MODEL        7
REMARK 921   NORMALIZED FREE ENERGY PREDICTED BY IDOCK:   -5.82 KCAL/MOL
REMARK 922        TOTAL FREE ENERGY PREDICTED BY IDOCK:   -8.54 KCAL/MOL
REMARK 923 INTER-LIGAND FREE ENERGY PREDICTED BY IDOCK:   -7.75 KCAL/MOL
REMARK 924 INTRA-LIGAND FREE ENERGY PREDICTED BY IDOCK:   -0.80 KCAL/MOL
REMARK 927      BINDING AFFINITY PREDICTED BY RF-SCORE:    0.00 PKD
ROOT
HETATM    1  N   UNL     1      -8.866  18.093  66.415  1.00  0.00    -0.265 N  
HETATM    2  C   UNL     1      -9.707  17.016  66.335  1.00  0.00    -0.293 C  
HETATM    3  H1  UNL     1      -8.157  18.150  67.146  1.00  0.00     0.000 HD 
HETATM    4  H2  UNL     1      -8.949  18.848  65.734  1.00  0.00     0.000 HD 
HETATM    5  O   UNL     1     -10.560  16.946  65.454  1.00  0.00    -0.579 OA 
ENDROOT
BRANCH   2   6
HETATM    6  C   UNL     1      -9.530  15.960  67.407  1.00  0.00    -0.219 C  
BRANCH   6   7
HETATM    7  S   UNL     1     -10.178  16.603  68.970  1.00  0.00    -0.315 S  
HETATM    8  O   UNL     1     -10.495  18.058  68.748  1.00  0.00    -0.326 OA 
BRANCH   7   9
HETATM    9  C   UNL     1     -11.783  15.674  69.035  1.00  0.00    -0.395 C  
BRANCH   9  10
HETATM   10  C   UNL     1     -11.683  14.288  68.411  1.00  0.00    -0.373 A  
HETATM   11  C   UNL     1     -12.054  14.090  67.068  1.00  0.00    -0.455 A  
HETATM   12  C   UNL     1     -11.220  13.182  69.144  1.00  0.00    -0.303 A  
HETATM   13  C   UNL     1     -11.946  12.828  66.474  1.00  0.00    -0.428 A  
HETATM   14  C   UNL     1     -11.478  11.746  67.213  1.00  0.00    -0.373 A  
HETATM   15  C   UNL     1     -11.119  11.923  68.548  1.00  0.00    -0.290 A  
ENDBRANCH   9  10
BRANCH   9  16
HETATM   16  C   UNL     1     -12.360  15.648  70.458  1.00  0.00    -0.443 A  
HETATM   17  C   UNL     1     -12.058  16.024  72.848  1.00  0.00    -0.626 A  
HETATM   18  C   UNL     1     -14.148  15.139  72.044  1.00  0.00    -0.659 A  
HETATM   19  C   UNL     1     -11.571  16.080  71.537  1.00  0.00    -0.529 A  
HETATM   20  C   UNL     1     -13.669  15.206  70.736  1.00  0.00    -0.244 A  
HETATM   21  C   UNL     1     -13.341  15.542  73.102  1.00  0.00    -0.632 A  
ENDBRANCH   9  16
ENDBRANCH   7   9
ENDBRANCH   6   7
ENDBRANCH   2   6
TORSDOF 5
ENDMDL
MODEL        8
REMARK 921   NORMALIZED FREE ENERGY PREDICTED BY IDOCK:   -5.81 KCAL/MOL
REMARK 922        TOTAL FREE ENERGY PREDICTED BY IDOCK:   -8.53 KCAL/MOL
REMARK 923 INTER-LIGAND FREE ENERGY PREDICTED BY IDOCK:   -7.54 KCAL/MOL
REMARK 924 INTRA-LIGAND FREE ENERGY PREDICTED BY IDOCK:   -0.99 KCAL/MOL
REMARK 927      BINDING AFFINITY PREDICTED BY RF-SCORE:    0.00 PKD
ROOT
HETATM    1  N   UNL     1     -12.390  13.926  63.214  1.00  0.00    -1.148 N  
HETATM    2  C   UNL     1     -12.224  12.803  63.979  1.00  0.00    -0.441 C  
HETATM    3  H1  UNL     1     -12.624  14.822  63.642  1.00  0.00     0.000 HD 
HETATM    4  H2  UNL     1     -12.277  13.867  62.202  1.00  0.00     0.000 HD 
HETATM    5  O   UNL     1     -11.941  11.725  63.464  1.00  0.00    -0.482 OA 
ENDROOT
BRANCH   2   6
HETATM    6  C   UNL     1     -12.443  12.982  65.468  1.00  0.00    -0.438 C  
BRANCH   6   7
HETATM    7  S   UNL     1     -10.865  13.417  66.240  1.00  0.00    -0.290 S  
HETATM    8  O   UNL     1     -10.153  14.343  65.291  1.00  0.00    -0.369 OA 
BRANCH   7   9
HETATM    9  C   UNL     1     -11.496  14.432  67.660  1.00  0.00    -0.346 C  
BRANCH   9  10
HETATM   10  C   UNL     1     -11.848  13.584  68.875  1.00  0.00    -0.384 A  
HETATM   11  C   UNL     1     -12.264  14.199  70.070  1.00  0.00    -0.418 A  
HETATM   12  C   UNL     1     -11.774  12.181  68.839  1.00  0.00    -0.381 A  
HETATM   13  C   UNL     1     -12.614  13.432  71.187  1.00  0.00    -0.430 A  
HETATM   14  C   UNL     1     -12.541  12.043  71.130  1.00  0.00    -0.372 A  
HETATM   15  C   UNL     1     -12.119  11.419  69.959  1.00  0.00    -0.417 A  
ENDBRANCH   9  10
BRANCH   9  16
HETATM   16  C   UNL     1     -10.540  15.587  67.994  1.00  0.00    -0.270 A  
HETATM   17  C   UNL     1     -10.102  17.983  68.086  1.00  0.00    -0.378 A  
HETATM   18  C   UNL     1      -8.363  16.438  68.707  1.00  0.00    -0.242 A  
HETATM   19  C   UNL     1     -10.968  16.915  67.832  1.00  0.00    -0.251 A  
HETATM   20  C   UNL     1      -9.230  15.372  68.467  1.00  0.00    -0.198 A  
HETATM   21  C   UNL     1      -8.796  17.744  68.511  1.00  0.00    -0.284 A  
ENDBRANCH   9  16
ENDBRANCH   7   9
ENDBRANCH   6   7
ENDBRANCH   2   6
TORSDOF 5
ENDMDL
MODEL        9
REMARK 921   NORMALIZED FREE ENERGY PREDICTED BY IDOCK:   -5.80 KCAL/MOL
REMARK 922        TOTAL FREE ENERGY PREDICTED BY IDOCK:   -8.52 KCAL/MOL
REMARK 923 INTER-LIGAND FREE ENERGY PREDICTED BY IDOCK:   -7.82 KCAL/MOL
REMARK 924 INTRA-LIGAND FREE ENERGY PREDICTED BY IDOCK:   -0.70 KCAL/MOL
REMARK 927      BINDING AFFINITY PREDICTED BY RF-SCORE:    0.00 PKD
ROOT
HETATM    1  N   UNL     1      -9.870  13.977  65.219  1.00  0.00    -0.579 N  
HETATM    2  C   UNL     1     -10.705  14.974  65.647  1.00  0.00    -0.354 C  
HETATM    3  H1  UNL     1      -9.959  13.027  65.581  1.00  0.00     0.000 HD 
HETATM    4  H2  UNL     1      -9.148  14.186  64.529  1.00  0.00     0.000 HD 
HETATM    5  O   UNL     1     -10.598  16.116  65.211  1.00  0.00    -0.459 OA 
ENDROOT
BRANCH   2   6
HETATM    6  C   UNL     1     -11.723  14.575  66.696  1.00  0.00    -0.371 C  
BRANCH   6   7
HETATM    7  S   UNL     1     -11.079  15.012  68.329  1.00  0.00    -0.300 S  
HETATM    8  O   UNL     1     -11.473  16.441  68.588  1.00  0.00    -0.349 OA 
BRANCH   7   9
HETATM    9  C   UNL     1     -12.156  13.925  69.379  1.00  0.00    -0.337 C  
BRANCH   9  10
HETATM   10  C   UNL     1     -11.591  12.519  69.538  1.00  0.00    -0.348 A  
HETATM   11  C   UNL     1     -12.154  11.632  70.474  1.00  0.00    -0.458 A  
HETATM   12  C   UNL     1     -10.508  12.069  68.762  1.00  0.00    -0.207 A  
HETATM   13  C   UNL     1     -11.661  10.331  70.615  1.00  0.00    -0.435 A  
HETATM   14  C   UNL     1     -10.593   9.901  69.833  1.00  0.00    -0.312 A  
HETATM   15  C   UNL     1     -10.015  10.770  68.911  1.00  0.00    -0.213 A  
ENDBRANCH   9  10
BRANCH   9  16
HETATM   16  C   UNL     1     -12.489  14.591  70.722  1.00  0.00    -0.420 A  
HETATM   17  C   UNL     1     -14.158  15.447  72.278  1.00  0.00    -0.660 A  
HETATM   18  C   UNL     1     -11.821  15.661  72.814  1.00  0.00    -0.580 A  
HETATM   19  C   UNL     1     -13.830  14.802  71.081  1.00  0.00    -0.388 A  
HETATM   20  C   UNL     1     -11.492  15.006  71.627  1.00  0.00    -0.377 A  
HETATM   21  C   UNL     1     -13.153  15.888  73.137  1.00  0.00    -0.673 A  
ENDBRANCH   9  16
ENDBRANCH   7   9
ENDBRANCH   6   7
ENDBRANCH   2   6
TORSDOF 5
ENDMDL
MODEL       10
REMARK 921   NORMALIZED FREE ENERGY PREDICTED BY IDOCK:   -5.73 KCAL/MOL
REMARK 922        TOTAL FREE ENERGY PREDICTED BY IDOCK:   -8.43 KCAL/MOL
REMARK 923 INTER-LIGAND FREE ENERGY PREDICTED BY IDOCK:   -7.45 KCAL/MOL
REMARK 924 INTRA-LIGAND FREE ENERGY PREDICTED BY IDOCK:   -0.98 KCAL/MOL
REMARK 927      BINDING AFFINITY PREDICTED BY RF-SCORE:    0.00 PKD
ROOT
HETATM    1  N   UNL     1     -12.385  13.938  63.353  1.00  0.00    -1.139 N  
HETATM    2  C   UNL     1     -12.594  13.470  64.623  1.00  0.00    -0.251 C  
HETATM    3  H1  UNL     1     -12.004  14.870  63.194  1.00  0.00     0.000 HD 
HETATM    4  H2  UNL     1     -12.613  13.345  62.555  1.00  0.00     0.000 HD 
HETATM    5  O   UNL     1     -13.052  12.348  64.814  1.00  0.00    -0.806 OA 
ENDROOT
BRANCH   2   6
HETATM    6  C   UNL     1     -12.255  14.433  65.743  1.00  0.00    -0.343 C  
BRANCH   6   7
HETATM    7  S   UNL     1     -10.829  15.429  65.244  1.00  0.00    -0.423 S  
HETATM    8  O   UNL     1     -11.359  16.570  64.418  1.00  0.00    -0.921 OA 
BRANCH   7   9
HETATM    9  C   UNL     1     -10.339  16.105  66.901  1.00  0.00    -0.297 C  
BRANCH   9  10
HETATM   10  C   UNL     1      -9.237  15.288  67.563  1.00  0.00    -0.202 A  
HETATM   11  C   UNL     1      -8.763  14.113  66.952  1.00  0.00    -0.187 A  
HETATM   12  C   UNL     1      -8.664  15.680  68.785  1.00  0.00    -0.197 A  
HETATM   13  C   UNL     1      -7.736  13.365  67.536  1.00  0.00    -0.182 A  
HETATM   14  C   UNL     1      -7.175  13.773  68.742  1.00  0.00    -0.106 A  
HETATM   15  C   UNL     1      -7.641  14.927  69.368  1.00  0.00    -0.162 A  
ENDBRANCH   9  10
BRANCH   9  16
HETATM   16  C   UNL     1     -10.009  17.602  66.822  1.00  0.00    -0.320 A  
HETATM   17  C   UNL     1      -8.455  19.375  66.200  1.00  0.00    -0.303 A  
HETATM   18  C   UNL     1     -10.531  19.945  67.279  1.00  0.00    -0.557 A  
HETATM   19  C   UNL     1      -8.799  18.019  66.243  1.00  0.00    -0.194 A  
HETATM   20  C   UNL     1     -10.881  18.595  67.311  1.00  0.00    -0.369 A  
HETATM   21  C   UNL     1      -9.315  20.336  66.730  1.00  0.00    -0.489 A  
ENDBRANCH   9  16
ENDBRANCH   7   9
ENDBRANCH   6   7
ENDBRANCH   2   6
TORSDOF 5
ENDMDL
MODEL       11
REMARK 921   NORMALIZED FREE ENERGY PREDICTED BY IDOCK:   -5.70 KCAL/MOL
REMARK 922        TOTAL FREE ENERGY PREDICTED BY IDOCK:   -8.39 KCAL/MOL
REMARK 923 INTER-LIGAND FREE ENERGY PREDICTED BY IDOCK:   -7.50 KCAL/MOL
REMARK 924 INTRA-LIGAND FREE ENERGY PREDICTED BY IDOCK:   -0.89 KCAL/MOL
REMARK 927      BINDING AFFINITY PREDICTED BY RF-SCORE:    0.00 PKD
ROOT
HETATM    1  N   UNL     1     -12.762  12.158  63.121  1.00  0.00    -0.821 N  
HETATM    2  C   UNL     1     -11.803  12.939  63.708  1.00  0.00    -0.504 C  
HETATM    3  H1  UNL     1     -13.752  12.388  63.210  1.00  0.00     0.000 HD 
HETATM    4  H2  UNL     1     -12.483  11.335  62.586  1.00  0.00     0.000 HD 
HETATM    5  O   UNL     1     -10.612  12.662  63.601  1.00  0.00    -0.418 OA 
ENDROOT
BRANCH   2   6
HETATM    6  C   UNL     1     -12.315  14.120  64.507  1.00  0.00    -0.392 C  
BRANCH   6   7
HETATM    7  S   UNL     1     -10.952  15.283  64.764  1.00  0.00    -0.327 S  
HETATM    8  O   UNL     1     -11.382  16.599  64.175  1.00  0.00    -1.141 OA 
BRANCH   7   9
HETATM    9  C   UNL     1     -11.029  15.433  66.613  1.00  0.00    -0.275 C  
BRANCH   9  10
HETATM   10  C   UNL     1     -10.823  14.099  67.317  1.00  0.00    -0.288 A  
HETATM   11  C   UNL     1     -11.727  13.676  68.309  1.00  0.00    -0.398 A  
HETATM   12  C   UNL     1      -9.741  13.260  67.001  1.00  0.00    -0.238 A  
HETATM   13  C   UNL     1     -11.564  12.442  68.948  1.00  0.00    -0.364 A  
HETATM   14  C   UNL     1     -10.490  11.621  68.617  1.00  0.00    -0.234 A  
HETATM   15  C   UNL     1      -9.578  12.031  67.647  1.00  0.00    -0.188 A  
ENDBRANCH   9  10
BRANCH   9  16
HETATM   16  C   UNL     1     -10.089  16.533  67.127  1.00  0.00    -0.274 A  
HETATM   17  C   UNL     1      -9.679  18.397  68.644  1.00  0.00    -0.387 A  
HETATM   18  C   UNL     1      -8.002  17.799  67.023  1.00  0.00    -0.238 A  
HETATM   19  C   UNL     1     -10.498  17.359  68.187  1.00  0.00    -0.389 A  
HETATM   20  C   UNL     1      -8.812  16.755  66.576  1.00  0.00    -0.311 A  
HETATM   21  C   UNL     1      -8.437  18.625  68.053  1.00  0.00    -0.314 A  
ENDBRANCH   9  16
ENDBRANCH   7   9
ENDBRANCH   6   7
ENDBRANCH   2   6
TORSDOF 5
ENDMDL
MODEL       12
REMARK 921   NORMALIZED FREE ENERGY PREDICTED BY IDOCK:   -5.69 KCAL/MOL
REMARK 922        TOTAL FREE ENERGY PREDICTED BY IDOCK:   -8.37 KCAL/MOL
REMARK 923 INTER-LIGAND FREE ENERGY PREDICTED BY IDOCK:   -7.70 KCAL/MOL
REMARK 924 INTRA-LIGAND FREE ENERGY PREDICTED BY IDOCK:   -0.67 KCAL/MOL
REMARK 927      BINDING AFFINITY PREDICTED BY RF-SCORE:    0.00 PKD
ROOT
HETATM    1  N   UNL     1     -12.352  13.960  62.956  1.00  0.00    -1.023 N  
HETATM    2  C   UNL     1     -12.083  12.730  63.493  1.00  0.00    -0.559 C  
HETATM    3  H1  UNL     1     -11.613  14.651  62.831  1.00  0.00     0.000 HD 
HETATM    4  H2  UNL     1     -13.307  14.189  62.676  1.00  0.00     0.000 HD 
HETATM    5  O   UNL     1     -12.973  11.898  63.643  1.00  0.00    -0.692 OA 
ENDROOT
BRANCH   2   6
HETATM    6  C   UNL     1     -10.645  12.494  63.907  1.00  0.00    -0.440 C  
BRANCH   6   7
HETATM    7  S   UNL     1     -10.631  11.665  65.516  1.00  0.00    -0.285 S  
HETATM    8  O   UNL     1      -9.188  11.449  65.887  1.00  0.00    -0.212 OA 
BRANCH   7   9
HETATM    9  C   UNL     1     -11.290  13.043  66.570  1.00  0.00    -0.320 C  
BRANCH   9  10
HETATM   10  C   UNL     1     -11.603  12.594  67.992  1.00  0.00    -0.394 A  
HETATM   11  C   UNL     1     -11.990  13.537  68.962  1.00  0.00    -0.376 A  
HETATM   12  C   UNL     1     -11.520  11.243  68.372  1.00  0.00    -0.377 A  
HETATM   13  C   UNL     1     -12.303  13.137  70.265  1.00  0.00    -0.319 A  
HETATM   14  C   UNL     1     -12.222  11.794  70.622  1.00  0.00    -0.443 A  
HETATM   15  C   UNL     1     -11.827  10.850  69.677  1.00  0.00    -0.416 A  
ENDBRANCH   9  10
BRANCH   9  16
HETATM   16  C   UNL     1     -10.377  14.276  66.520  1.00  0.00    -0.278 A  
HETATM   17  C   UNL     1     -10.013  16.586  65.830  1.00  0.00    -0.342 A  
HETATM   18  C   UNL     1      -8.242  15.388  66.938  1.00  0.00    -0.281 A  
HETATM   19  C   UNL     1     -10.841  15.462  65.929  1.00  0.00    -0.328 A  
HETATM   20  C   UNL     1      -9.072  14.272  67.049  1.00  0.00    -0.246 A  
HETATM   21  C   UNL     1      -8.710  16.544  66.323  1.00  0.00    -0.369 A  
ENDBRANCH   9  16
ENDBRANCH   7   9
ENDBRANCH   6   7
ENDBRANCH   2   6
TORSDOF 5
ENDMDL
MODEL       13
REMARK 921   NORMALIZED FREE ENERGY PREDICTED BY IDOCK:   -5.67 KCAL/MOL
REMARK 922        TOTAL FREE ENERGY PREDICTED BY IDOCK:   -8.35 KCAL/MOL
REMARK 923 INTER-LIGAND FREE ENERGY PREDICTED BY IDOCK:   -7.56 KCAL/MOL
REMARK 924 INTRA-LIGAND FREE ENERGY PREDICTED BY IDOCK:   -0.79 KCAL/MOL
REMARK 927      BINDING AFFINITY PREDICTED BY RF-SCORE:    0.00 PKD
ROOT
HETATM    1  N   UNL     1      -8.637  15.156  66.410  1.00  0.00    -0.446 N  
HETATM    2  C   UNL     1      -8.384  15.757  67.614  1.00  0.00    -0.157 C  
HETATM    3  H1  UNL     1      -9.438  14.537  66.292  1.00  0.00     0.000 HD 
HETATM    4  H2  UNL     1      -8.015  15.330  65.620  1.00  0.00     0.000 HD 
HETATM    5  O   UNL     1      -7.419  16.502  67.757  1.00  0.00    -0.138 OA 
ENDROOT
BRANCH   2   6
HETATM    6  C   UNL     1      -9.342  15.413  68.736  1.00  0.00    -0.209 C  
BRANCH   6   7
HETATM    7  S   UNL     1     -10.635  16.678  68.805  1.00  0.00    -0.358 S  
HETATM    8  O   UNL     1     -10.765  17.248  67.418  1.00  0.00    -0.329 OA 
BRANCH   7   9
HETATM    9  C   UNL     1     -12.106  15.588  69.112  1.00  0.00    -0.240 C  
BRANCH   9  10
HETATM   10  C   UNL     1     -11.930  14.191  68.532  1.00  0.00    -0.367 A  
HETATM   11  C   UNL     1     -12.020  13.986  67.143  1.00  0.00    -0.465 A  
HETATM   12  C   UNL     1     -11.673  13.080  69.353  1.00  0.00    -0.386 A  
HETATM   13  C   UNL     1     -11.838  12.713  66.593  1.00  0.00    -0.449 A  
HETATM   14  C   UNL     1     -11.576  11.626  67.421  1.00  0.00    -0.330 A  
HETATM   15  C   UNL     1     -11.498  11.809  68.800  1.00  0.00    -0.350 A  
ENDBRANCH   9  10
BRANCH   9  16
HETATM   16  C   UNL     1     -12.494  15.574  70.598  1.00  0.00    -0.483 A  
HETATM   17  C   UNL     1     -14.198  15.266  72.314  1.00  0.00    -0.642 A  
HETATM   18  C   UNL     1     -11.972  15.920  72.960  1.00  0.00    -0.596 A  
HETATM   19  C   UNL     1     -13.807  15.242  70.971  1.00  0.00    -0.414 A  
HETATM   20  C   UNL     1     -11.578  15.883  71.622  1.00  0.00    -0.541 A  
HETATM   21  C   UNL     1     -13.284  15.618  73.306  1.00  0.00    -0.666 A  
ENDBRANCH   9  16
ENDBRANCH   7   9
ENDBRANCH   6   7
ENDBRANCH   2   6
TORSDOF 5
ENDMDL
MODEL       14
REMARK 921   NORMALIZED FREE ENERGY PREDICTED BY IDOCK:   -5.63 KCAL/MOL
REMARK 922        TOTAL FREE ENERGY PREDICTED BY IDOCK:   -8.30 KCAL/MOL
REMARK 923 INTER-LIGAND FREE ENERGY PREDICTED BY IDOCK:   -7.30 KCAL/MOL
REMARK 924 INTRA-LIGAND FREE ENERGY PREDICTED BY IDOCK:   -1.01 KCAL/MOL
REMARK 927      BINDING AFFINITY PREDICTED BY RF-SCORE:    0.00 PKD
ROOT
HETATM    1  N   UNL     1     -12.390  14.131  63.246  1.00  0.00    -1.133 N  
HETATM    2  C   UNL     1     -12.659  12.980  63.936  1.00  0.00    -0.206 C  
HETATM    3  H1  UNL     1     -12.130  14.987  63.736  1.00  0.00     0.000 HD 
HETATM    4  H2  UNL     1     -12.450  14.133  62.227  1.00  0.00     0.000 HD 
HETATM    5  O   UNL     1     -12.972  11.949  63.346  1.00  0.00    -0.730 OA 
ENDROOT
BRANCH   2   6
HETATM    6  C   UNL     1     -12.576  13.082  65.445  1.00  0.00    -0.422 C  
BRANCH   6   7
HETATM    7  S   UNL     1     -10.834  13.153  65.929  1.00  0.00    -0.275 S  
HETATM    8  O   UNL     1     -10.038  13.377  64.671  1.00  0.00    -0.335 OA 
BRANCH   7   9
HETATM    9  C   UNL     1     -10.851  14.745  66.882  1.00  0.00    -0.316 C  
BRANCH   9  10
HETATM   10  C   UNL     1     -11.462  14.590  68.269  1.00  0.00    -0.336 A  
HETATM   11  C   UNL     1     -11.684  13.308  68.804  1.00  0.00    -0.366 A  
HETATM   12  C   UNL     1     -11.813  15.706  69.047  1.00  0.00    -0.379 A  
HETATM   13  C   UNL     1     -12.222  13.149  70.085  1.00  0.00    -0.360 A  
HETATM   14  C   UNL     1     -12.558  14.266  70.844  1.00  0.00    -0.426 A  
HETATM   15  C   UNL     1     -12.357  15.543  70.324  1.00  0.00    -0.431 A  
ENDBRANCH   9  10
BRANCH   9  16
HETATM   16  C   UNL     1      -9.462  15.399  66.910  1.00  0.00    -0.246 A  
HETATM   17  C   UNL     1      -8.016  17.270  66.318  1.00  0.00    -0.330 A  
HETATM   18  C   UNL     1      -7.079  15.361  67.449  1.00  0.00    -0.229 A  
HETATM   19  C   UNL     1      -9.280  16.672  66.345  1.00  0.00    -0.318 A  
HETATM   20  C   UNL     1      -8.342  14.770  67.489  1.00  0.00    -0.197 A  
HETATM   21  C   UNL     1      -6.913  16.609  66.858  1.00  0.00    -0.262 A  
ENDBRANCH   9  16
ENDBRANCH   7   9
ENDBRANCH   6   7
ENDBRANCH   2   6
TORSDOF 5
ENDMDL
MODEL       15
REMARK 921   NORMALIZED FREE ENERGY PREDICTED BY IDOCK:   -5.61 KCAL/MOL
REMARK 922        TOTAL FREE ENERGY PREDICTED BY IDOCK:   -8.27 KCAL/MOL
REMARK 923 INTER-LIGAND FREE ENERGY PREDICTED BY IDOCK:   -7.28 KCAL/MOL
REMARK 924 INTRA-LIGAND FREE ENERGY PREDICTED BY IDOCK:   -0.99 KCAL/MOL
REMARK 927      BINDING AFFINITY PREDICTED BY RF-SCORE:    0.00 PKD
ROOT
HETATM    1  N   UNL     1     -11.373  12.068  63.204  1.00  0.00    -0.702 N  
HETATM    2  C   UNL     1     -12.214  12.967  63.802  1.00  0.00    -0.476 C  
HETATM    3  H1  UNL     1     -10.923  11.330  63.746  1.00  0.00     0.000 HD 
HETATM    4  H2  UNL     1     -11.192  12.137  62.202  1.00  0.00     0.000 HD 
HETATM    5  O   UNL     1     -12.755  13.855  63.150  1.00  0.00    -0.718 OA 
ENDROOT
BRANCH   2   6
HETATM    6  C   UNL     1     -12.396  12.804  65.297  1.00  0.00    -0.488 C  
BRANCH   6   7
HETATM    7  S   UNL     1     -10.833  13.198  66.120  1.00  0.00    -0.282 S  
HETATM    8  O   UNL     1     -10.058  14.089  65.187  1.00  0.00    -0.357 OA 
BRANCH   7   9
HETATM    9  C   UNL     1     -11.478  14.250  67.506  1.00  0.00    -0.345 C  
BRANCH   9  10
HETATM   10  C   UNL     1     -11.849  13.432  68.737  1.00  0.00    -0.386 A  
HETATM   11  C   UNL     1     -11.775  12.028  68.701  1.00  0.00    -0.380 A  
HETATM   12  C   UNL     1     -12.267  14.047  69.930  1.00  0.00    -0.399 A  
HETATM   13  C   UNL     1     -12.089  11.264  69.830  1.00  0.00    -0.414 A  
HETATM   14  C   UNL     1     -12.494  11.891  71.005  1.00  0.00    -0.390 A  
HETATM   15  C   UNL     1     -12.587  13.280  71.053  1.00  0.00    -0.408 A  
ENDBRANCH   9  10
BRANCH   9  16
HETATM   16  C   UNL     1     -10.524  15.409  67.824  1.00  0.00    -0.266 A  
HETATM   17  C   UNL     1      -8.366  16.177  68.659  1.00  0.00    -0.211 A  
HETATM   18  C   UNL     1     -10.018  17.795  67.987  1.00  0.00    -0.333 A  
HETATM   19  C   UNL     1      -9.238  15.137  68.320  1.00  0.00    -0.188 A  
HETATM   20  C   UNL     1     -10.884  16.758  67.635  1.00  0.00    -0.252 A  
HETATM   21  C   UNL     1      -8.761  17.505  68.505  1.00  0.00    -0.282 A  
ENDBRANCH   9  16
ENDBRANCH   7   9
ENDBRANCH   6   7
ENDBRANCH   2   6
TORSDOF 5
ENDMDL
MODEL       16
REMARK 921   NORMALIZED FREE ENERGY PREDICTED BY IDOCK:   -5.57 KCAL/MOL
REMARK 922        TOTAL FREE ENERGY PREDICTED BY IDOCK:   -8.23 KCAL/MOL
REMARK 923 INTER-LIGAND FREE ENERGY PREDICTED BY IDOCK:   -7.35 KCAL/MOL
REMARK 924 INTRA-LIGAND FREE ENERGY PREDICTED BY IDOCK:   -0.88 KCAL/MOL
REMARK 927      BINDING AFFINITY PREDICTED BY RF-SCORE:    0.00 PKD
ROOT
HETATM    1  N   UNL     1     -12.374  13.499  63.107  1.00  0.00    -1.024 N  
HETATM    2  C   UNL     1     -11.400  12.749  63.710  1.00  0.00    -0.461 C  
HETATM    3  H1  UNL     1     -12.473  14.493  63.314  1.00  0.00     0.000 HD 
HETATM    4  H2  UNL     1     -13.008  13.059  62.440  1.00  0.00     0.000 HD 
HETATM    5  O   UNL     1     -11.279  11.553  63.460  1.00  0.00    -0.413 OA 
ENDROOT
BRANCH   2   6
HETATM    6  C   UNL     1     -10.527  13.483  64.707  1.00  0.00    -0.413 C  
BRANCH   6   7
HETATM    7  S   UNL     1     -11.491  14.822  65.451  1.00  0.00    -0.320 S  
HETATM    8  O   UNL     1     -12.780  14.217  65.937  1.00  0.00    -0.487 OA 
BRANCH   7   9
HETATM    9  C   UNL     1     -10.430  15.169  66.934  1.00  0.00    -0.282 C  
BRANCH   9  10
HETATM   10  C   UNL     1      -9.936  16.609  66.976  1.00  0.00    -0.271 A  
HETATM   11  C   UNL     1      -8.849  16.959  67.797  1.00  0.00    -0.217 A  
HETATM   12  C   UNL     1     -10.539  17.616  66.204  1.00  0.00    -0.220 A  
HETATM   13  C   UNL     1      -8.369  18.273  67.829  1.00  0.00    -0.261 A  
HETATM   14  C   UNL     1      -8.974  19.256  67.052  1.00  0.00    -0.331 A  
HETATM   15  C   UNL     1     -10.060  18.929  66.244  1.00  0.00    -0.460 A  
ENDBRANCH   9  10
BRANCH   9  16
HETATM   16  C   UNL     1     -11.123  14.736  68.234  1.00  0.00    -0.284 A  
HETATM   17  C   UNL     1     -11.790  12.954  69.758  1.00  0.00    -0.380 A  
HETATM   18  C   UNL     1     -12.435  15.224  70.237  1.00  0.00    -0.405 A  
HETATM   19  C   UNL     1     -11.128  13.380  68.602  1.00  0.00    -0.295 A  
HETATM   20  C   UNL     1     -11.763  15.652  69.091  1.00  0.00    -0.402 A  
HETATM   21  C   UNL     1     -12.454  13.874  70.568  1.00  0.00    -0.422 A  
ENDBRANCH   9  16
ENDBRANCH   7   9
ENDBRANCH   6   7
ENDBRANCH   2   6
TORSDOF 5
ENDMDL
MODEL       17
REMARK 921   NORMALIZED FREE ENERGY PREDICTED BY IDOCK:   -5.55 KCAL/MOL
REMARK 922        TOTAL FREE ENERGY PREDICTED BY IDOCK:   -8.20 KCAL/MOL
REMARK 923 INTER-LIGAND FREE ENERGY PREDICTED BY IDOCK:   -7.70 KCAL/MOL
REMARK 924 INTRA-LIGAND FREE ENERGY PREDICTED BY IDOCK:   -0.50 KCAL/MOL
REMARK 927      BINDING AFFINITY PREDICTED BY RF-SCORE:    0.00 PKD
ROOT
HETATM    1  N   UNL     1     -11.322  14.680  64.257  1.00  0.00    -0.630 N  
HETATM    2  C   UNL     1     -11.913  14.245  65.412  1.00  0.00    -0.383 C  
HETATM    3  H1  UNL     1     -10.340  14.954  64.241  1.00  0.00     0.000 HD 
HETATM    4  H2  UNL     1     -11.872  14.730  63.398  1.00  0.00     0.000 HD 
HETATM    5  O   UNL     1     -13.096  13.914  65.431  1.00  0.00    -0.752 OA 
ENDROOT
BRANCH   2   6
HETATM    6  C   UNL     1     -11.028  14.235  66.642  1.00  0.00    -0.310 C  
BRANCH   6   7
HETATM    7  S   UNL     1     -12.030  13.782  68.079  1.00  0.00    -0.302 S  
HETATM    8  O   UNL     1     -11.878  12.297  68.270  1.00  0.00    -0.331 OA 
BRANCH   7   9
HETATM    9  C   UNL     1     -11.052  14.631  69.408  1.00  0.00    -0.268 C  
BRANCH   9  10
HETATM   10  C   UNL     1     -10.303  15.854  68.893  1.00  0.00    -0.228 A  
HETATM   11  C   UNL     1     -11.004  16.898  68.263  1.00  0.00    -0.298 A  
HETATM   12  C   UNL     1      -8.911  15.977  69.034  1.00  0.00    -0.244 A  
HETATM   13  C   UNL     1     -10.334  18.038  67.806  1.00  0.00    -0.403 A  
HETATM   14  C   UNL     1      -8.955  18.145  67.960  1.00  0.00    -0.289 A  
HETATM   15  C   UNL     1      -8.245  17.114  68.570  1.00  0.00    -0.261 A  
ENDBRANCH   9  10
BRANCH   9  16
HETATM   16  C   UNL     1     -11.920  14.935  70.637  1.00  0.00    -0.363 A  
HETATM   17  C   UNL     1     -14.054  14.727  71.797  1.00  0.00    -0.598 A  
HETATM   18  C   UNL     1     -12.285  16.020  72.796  1.00  0.00    -0.617 A  
HETATM   19  C   UNL     1     -13.228  14.428  70.709  1.00  0.00    -0.288 A  
HETATM   20  C   UNL     1     -11.456  15.711  71.718  1.00  0.00    -0.505 A  
HETATM   21  C   UNL     1     -13.587  15.534  72.834  1.00  0.00    -0.633 A  
ENDBRANCH   9  16
ENDBRANCH   7   9
ENDBRANCH   6   7
ENDBRANCH   2   6
TORSDOF 5
ENDMDL
MODEL       18
REMARK 921   NORMALIZED FREE ENERGY PREDICTED BY IDOCK:   -5.54 KCAL/MOL
REMARK 922        TOTAL FREE ENERGY PREDICTED BY IDOCK:   -8.19 KCAL/MOL
REMARK 923 INTER-LIGAND FREE ENERGY PREDICTED BY IDOCK:   -7.55 KCAL/MOL
REMARK 924 INTRA-LIGAND FREE ENERGY PREDICTED BY IDOCK:   -0.64 KCAL/MOL
REMARK 927      BINDING AFFINITY PREDICTED BY RF-SCORE:    0.00 PKD
ROOT
HETATM    1  N   UNL     1     -13.659   9.573  70.759  1.00  0.00    -0.568 N  
HETATM    2  C   UNL     1     -12.570  10.203  71.299  1.00  0.00    -0.404 C  
HETATM    3  H1  UNL     1     -14.384  10.102  70.275  1.00  0.00     0.000 HD 
HETATM    4  H2  UNL     1     -13.747   8.559  70.842  1.00  0.00     0.000 HD 
HETATM    5  O   UNL     1     -11.697   9.566  71.882  1.00  0.00    -0.374 OA 
ENDROOT
BRANCH   2   6
HETATM    6  C   UNL     1     -12.543  11.711  71.154  1.00  0.00    -0.335 C  
BRANCH   6   7
HETATM    7  S   UNL     1     -11.653  12.134  69.637  1.00  0.00    -0.261 S  
HETATM    8  O   UNL     1     -12.239  11.293  68.535  1.00  0.00    -0.588 OA 
BRANCH   7   9
HETATM    9  C   UNL     1     -12.257  13.874  69.409  1.00  0.00    -0.292 C  
BRANCH   9  10
HETATM   10  C   UNL     1     -12.586  14.557  70.730  1.00  0.00    -0.418 A  
HETATM   11  C   UNL     1     -11.552  14.952  71.598  1.00  0.00    -0.347 A  
HETATM   12  C   UNL     1     -13.913  14.815  71.114  1.00  0.00    -0.355 A  
HETATM   13  C   UNL     1     -11.838  15.601  72.804  1.00  0.00    -0.580 A  
HETATM   14  C   UNL     1     -13.158  15.854  73.165  1.00  0.00    -0.673 A  
HETATM   15  C   UNL     1     -14.194  15.458  72.323  1.00  0.00    -0.639 A  
ENDBRANCH   9  10
BRANCH   9  16
HETATM   16  C   UNL     1     -11.296  14.693  68.535  1.00  0.00    -0.305 A  
HETATM   17  C   UNL     1     -10.602  16.853  67.642  1.00  0.00    -0.325 A  
HETATM   18  C   UNL     1      -9.437  14.860  66.958  1.00  0.00    -0.239 A  
HETATM   19  C   UNL     1     -11.436  16.089  68.465  1.00  0.00    -0.357 A  
HETATM   20  C   UNL     1     -10.260  14.098  67.789  1.00  0.00    -0.242 A  
HETATM   21  C   UNL     1      -9.612  16.236  66.879  1.00  0.00    -0.244 A  
ENDBRANCH   9  16
ENDBRANCH   7   9
ENDBRANCH   6   7
ENDBRANCH   2   6
TORSDOF 5
ENDMDL
MODEL       19
REMARK 921   NORMALIZED FREE ENERGY PREDICTED BY IDOCK:   -5.51 KCAL/MOL
REMARK 922        TOTAL FREE ENERGY PREDICTED BY IDOCK:   -8.14 KCAL/MOL
REMARK 923 INTER-LIGAND FREE ENERGY PREDICTED BY IDOCK:   -7.41 KCAL/MOL
REMARK 924 INTRA-LIGAND FREE ENERGY PREDICTED BY IDOCK:   -0.74 KCAL/MOL
REMARK 927      BINDING AFFINITY PREDICTED BY RF-SCORE:    0.00 PKD
ROOT
HETATM    1  N   UNL     1     -10.611  19.355  66.663  1.00  0.00    -0.457 N  
HETATM    2  C   UNL     1     -10.447  17.998  66.588  1.00  0.00    -0.325 C  
HETATM    3  H1  UNL     1     -10.659  19.828  67.565  1.00  0.00     0.000 HD 
HETATM    4  H2  UNL     1     -10.685  19.902  65.804  1.00  0.00     0.000 HD 
HETATM    5  O   UNL     1     -10.388  17.429  65.501  1.00  0.00    -0.621 OA 
ENDROOT
BRANCH   2   6
HETATM    6  C   UNL     1     -10.380  17.269  67.914  1.00  0.00    -0.360 C  
BRANCH   6   7
HETATM    7  S   UNL     1      -9.762  15.592  67.626  1.00  0.00    -0.226 S  
HETATM    8  O   UNL     1      -9.162  15.117  68.921  1.00  0.00    -0.190 OA 
BRANCH   7   9
HETATM    9  C   UNL     1     -11.379  14.713  67.389  1.00  0.00    -0.356 C  
BRANCH   9  10
HETATM   10  C   UNL     1     -11.440  13.943  66.076  1.00  0.00    -0.345 A  
HETATM   11  C   UNL     1     -12.680  13.524  65.560  1.00  0.00    -0.493 A  
HETATM   12  C   UNL     1     -10.278  13.637  65.348  1.00  0.00    -0.330 A  
HETATM   13  C   UNL     1     -12.755  12.837  64.343  1.00  0.00    -0.370 A  
HETATM   14  C   UNL     1     -11.594  12.549  63.632  1.00  0.00    -0.580 A  
HETATM   15  C   UNL     1     -10.357  12.945  64.136  1.00  0.00    -0.385 A  
ENDBRANCH   9  10
BRANCH   9  16
HETATM   16  C   UNL     1     -11.731  13.846  68.607  1.00  0.00    -0.396 A  
HETATM   17  C   UNL     1     -12.529  13.689  70.905  1.00  0.00    -0.448 A  
HETATM   18  C   UNL     1     -11.835  11.691  69.754  1.00  0.00    -0.428 A  
HETATM   19  C   UNL     1     -12.242  14.450  69.767  1.00  0.00    -0.370 A  
HETATM   20  C   UNL     1     -11.563  12.447  68.614  1.00  0.00    -0.365 A  
HETATM   21  C   UNL     1     -12.312  12.312  70.902  1.00  0.00    -0.363 A  
ENDBRANCH   9  16
ENDBRANCH   7   9
ENDBRANCH   6   7
ENDBRANCH   2   6
TORSDOF 5
ENDMDL
MODEL       20
REMARK 921   NORMALIZED FREE ENERGY PREDICTED BY IDOCK:   -5.51 KCAL/MOL
REMARK 922        TOTAL FREE ENERGY PREDICTED BY IDOCK:   -8.14 KCAL/MOL
REMARK 923 INTER-LIGAND FREE ENERGY PREDICTED BY IDOCK:   -7.55 KCAL/MOL
REMARK 924 INTRA-LIGAND FREE ENERGY PREDICTED BY IDOCK:   -0.59 KCAL/MOL
REMARK 927      BINDING AFFINITY PREDICTED BY RF-SCORE:    0.00 PKD
ROOT
HETATM    1  N   UNL     1     -13.494   9.540  70.711  1.00  0.00    -0.588 N  
HETATM    2  C   UNL     1     -12.335  10.165  71.085  1.00  0.00    -0.385 C  
HETATM    3  H1  UNL     1     -14.297  10.077  70.384  1.00  0.00     0.000 HD 
HETATM    4  H2  UNL     1     -13.556   8.523  70.760  1.00  0.00     0.000 HD 
HETATM    5  O   UNL     1     -11.368   9.519  71.479  1.00  0.00    -0.372 OA 
ENDROOT
BRANCH   2   6
HETATM    6  C   UNL     1     -12.350  11.679  71.009  1.00  0.00    -0.301 C  
BRANCH   6   7
HETATM    7  S   UNL     1     -11.576  12.191  69.455  1.00  0.00    -0.315 S  
HETATM    8  O   UNL     1     -12.190  11.356  68.363  1.00  0.00    -0.571 OA 
BRANCH   7   9
HETATM    9  C   UNL     1     -12.274  13.905  69.322  1.00  0.00    -0.277 C  
BRANCH   9  10
HETATM   10  C   UNL     1     -12.515  14.546  70.682  1.00  0.00    -0.409 A  
HETATM   11  C   UNL     1     -13.826  14.828  71.109  1.00  0.00    -0.388 A  
HETATM   12  C   UNL     1     -11.452  14.867  71.543  1.00  0.00    -0.307 A  
HETATM   13  C   UNL     1     -14.065  15.395  72.365  1.00  0.00    -0.645 A  
HETATM   14  C   UNL     1     -12.999  15.699  73.207  1.00  0.00    -0.664 A  
HETATM   15  C   UNL     1     -11.695  15.438  72.795  1.00  0.00    -0.535 A  
ENDBRANCH   9  10
BRANCH   9  16
HETATM   16  C   UNL     1     -11.431  14.784  68.387  1.00  0.00    -0.336 A  
HETATM   17  C   UNL     1     -10.775  17.006  67.629  1.00  0.00    -0.295 A  
HETATM   18  C   UNL     1      -9.864  15.065  66.534  1.00  0.00    -0.276 A  
HETATM   19  C   UNL     1     -11.499  16.183  68.497  1.00  0.00    -0.324 A  
HETATM   20  C   UNL     1     -10.575  14.243  67.408  1.00  0.00    -0.276 A  
HETATM   21  C   UNL     1      -9.969  16.447  66.639  1.00  0.00    -0.281 A  
ENDBRANCH   9  16
ENDBRANCH   7   9
ENDBRANCH   6   7
ENDBRANCH   2   6
TORSDOF 5
ENDMDL
MODEL       21
REMARK 921   NORMALIZED FREE ENERGY PREDICTED BY IDOCK:   -5.49 KCAL/MOL
REMARK 922        TOTAL FREE ENERGY PREDICTED BY IDOCK:   -8.12 KCAL/MOL
REMARK 923 INTER-LIGAND FREE ENERGY PREDICTED BY IDOCK:   -7.22 KCAL/MOL
REMARK 924 INTRA-LIGAND FREE ENERGY PREDICTED BY IDOCK:   -0.89 KCAL/MOL
REMARK 927      BINDING AFFINITY PREDICTED BY RF-SCORE:    0.00 PKD
ROOT
HETATM    1  N   UNL     1     -12.431  14.067  63.063  1.00  0.00    -0.988 N  
HETATM    2  C   UNL     1     -12.122  12.842  63.590  1.00  0.00    -0.535 C  
HETATM    3  H1  UNL     1     -11.829  14.875  63.224  1.00  0.00     0.000 HD 
HETATM    4  H2  UNL     1     -13.276  14.174  62.500  1.00  0.00     0.000 HD 
HETATM    5  O   UNL     1     -12.846  11.871  63.396  1.00  0.00    -0.715 OA 
ENDROOT
BRANCH   2   6
HETATM    6  C   UNL     1     -10.866  12.789  64.437  1.00  0.00    -0.368 C  
BRANCH   6   7
HETATM    7  S   UNL     1     -11.224  13.514  66.056  1.00  0.00    -0.299 S  
HETATM    8  O   UNL     1     -12.592  14.134  65.966  1.00  0.00    -0.478 OA 
BRANCH   7   9
HETATM    9  C   UNL     1     -11.367  11.959  67.058  1.00  0.00    -0.329 C  
BRANCH   9  10
HETATM   10  C   UNL     1     -10.128  11.080  66.955  1.00  0.00    -0.248 A  
HETATM   11  C   UNL     1      -8.850  11.634  67.155  1.00  0.00    -0.172 A  
HETATM   12  C   UNL     1     -10.220   9.708  66.666  1.00  0.00    -0.302 A  
HETATM   13  C   UNL     1      -7.703  10.835  67.087  1.00  0.00    -0.120 A  
HETATM   14  C   UNL     1      -7.815   9.477  66.807  1.00  0.00    -0.101 A  
HETATM   15  C   UNL     1      -9.072   8.915  66.593  1.00  0.00    -0.192 A  
ENDBRANCH   9  10
BRANCH   9  16
HETATM   16  C   UNL     1     -11.768  12.260  68.509  1.00  0.00    -0.381 A  
HETATM   17  C   UNL     1     -12.502  11.454  70.689  1.00  0.00    -0.419 A  
HETATM   18  C   UNL     1     -12.250  13.821  70.326  1.00  0.00    -0.429 A  
HETATM   19  C   UNL     1     -12.090  11.203  69.376  1.00  0.00    -0.396 A  
HETATM   20  C   UNL     1     -11.827  13.571  69.021  1.00  0.00    -0.385 A  
HETATM   21  C   UNL     1     -12.594  12.763  71.160  1.00  0.00    -0.365 A  
ENDBRANCH   9  16
ENDBRANCH   7   9
ENDBRANCH   6   7
ENDBRANCH   2   6
TORSDOF 5
ENDMDL
MODEL       22
REMARK 921   NORMALIZED FREE ENERGY PREDICTED BY IDOCK:   -5.47 KCAL/MOL
REMARK 922        TOTAL FREE ENERGY PREDICTED BY IDOCK:   -8.09 KCAL/MOL
REMARK 923 INTER-LIGAND FREE ENERGY PREDICTED BY IDOCK:   -7.59 KCAL/MOL
REMARK 924 INTRA-LIGAND FREE ENERGY PREDICTED BY IDOCK:   -0.50 KCAL/MOL
REMARK 927      BINDING AFFINITY PREDICTED BY RF-SCORE:    0.00 PKD
ROOT
HETATM    1  N   UNL     1     -12.397  14.326  63.828  1.00  0.00    -1.063 N  
HETATM    2  C   UNL     1     -11.697  15.340  64.425  1.00  0.00    -0.285 C  
HETATM    3  H1  UNL     1     -12.432  13.396  64.246  1.00  0.00     0.000 HD 
HETATM    4  H2  UNL     1     -12.892  14.503  62.953  1.00  0.00     0.000 HD 
HETATM    5  O   UNL     1     -11.656  16.459  63.922  1.00  0.00    -1.100 OA 
ENDROOT
BRANCH   2   6
HETATM    6  C   UNL     1     -10.969  14.974  65.702  1.00  0.00    -0.354 C  
BRANCH   6   7
HETATM    7  S   UNL     1     -12.103  14.061  66.777  1.00  0.00    -0.414 S  
HETATM    8  O   UNL     1     -12.270  12.691  66.176  1.00  0.00    -0.568 OA 
BRANCH   7   9
HETATM    9  C   UNL     1     -11.026  13.895  68.280  1.00  0.00    -0.255 C  
BRANCH   9  10
HETATM   10  C   UNL     1     -11.642  14.540  69.515  1.00  0.00    -0.350 A  
HETATM   11  C   UNL     1     -10.947  15.551  70.205  1.00  0.00    -0.336 A  
HETATM   12  C   UNL     1     -12.906  14.156  69.993  1.00  0.00    -0.020 A  
HETATM   13  C   UNL     1     -11.509  16.169  71.327  1.00  0.00    -0.433 A  
HETATM   14  C   UNL     1     -12.765  15.780  71.782  1.00  0.00    -0.519 A  
HETATM   15  C   UNL     1     -13.461  14.772  71.118  1.00  0.00    -0.450 A  
ENDBRANCH   9  10
BRANCH   9  16
HETATM   16  C   UNL     1     -10.607  12.437  68.513  1.00  0.00    -0.251 A  
HETATM   17  C   UNL     1     -11.099  10.240  69.447  1.00  0.00    -0.299 A  
HETATM   18  C   UNL     1      -8.988  10.614  68.351  1.00  0.00    -0.149 A  
HETATM   19  C   UNL     1     -11.476  11.561  69.183  1.00  0.00    -0.362 A  
HETATM   20  C   UNL     1      -9.368  11.927  68.076  1.00  0.00    -0.193 A  
HETATM   21  C   UNL     1      -9.850   9.771  69.043  1.00  0.00    -0.183 A  
ENDBRANCH   9  16
ENDBRANCH   7   9
ENDBRANCH   6   7
ENDBRANCH   2   6
TORSDOF 5
ENDMDL
MODEL       23
REMARK 921   NORMALIZED FREE ENERGY PREDICTED BY IDOCK:   -5.47 KCAL/MOL
REMARK 922        TOTAL FREE ENERGY PREDICTED BY IDOCK:   -8.09 KCAL/MOL
REMARK 923 INTER-LIGAND FREE ENERGY PREDICTED BY IDOCK:   -7.29 KCAL/MOL
REMARK 924 INTRA-LIGAND FREE ENERGY PREDICTED BY IDOCK:   -0.80 KCAL/MOL
REMARK 927      BINDING AFFINITY PREDICTED BY RF-SCORE:    0.00 PKD
ROOT
HETATM    1  N   UNL     1     -12.520  14.405  63.430  1.00  0.00    -1.068 N  
HETATM    2  C   UNL     1     -11.730  15.263  64.148  1.00  0.00    -0.103 C  
HETATM    3  H1  UNL     1     -12.488  13.400  63.597  1.00  0.00     0.000 HD 
HETATM    4  H2  UNL     1     -13.149  14.778  62.718  1.00  0.00     0.000 HD 
HETATM    5  O   UNL     1     -11.768  16.473  63.948  1.00  0.00    -1.148 OA 
ENDROOT
BRANCH   2   6
HETATM    6  C   UNL     1     -10.806  14.615  65.159  1.00  0.00    -0.401 C  
BRANCH   6   7
HETATM    7  S   UNL     1     -11.809  13.792  66.421  1.00  0.00    -0.429 S  
HETATM    8  O   UNL     1     -12.399  12.565  65.781  1.00  0.00    -0.627 OA 
BRANCH   7   9
HETATM    9  C   UNL     1     -10.457  13.243  67.569  1.00  0.00    -0.235 C  
BRANCH   9  10
HETATM   10  C   UNL     1      -9.647  14.409  68.119  1.00  0.00    -0.218 A  
HETATM   11  C   UNL     1     -10.220  15.691  68.202  1.00  0.00    -0.228 A  
HETATM   12  C   UNL     1      -8.322  14.242  68.558  1.00  0.00    -0.156 A  
HETATM   13  C   UNL     1      -9.496  16.767  68.727  1.00  0.00    -0.259 A  
HETATM   14  C   UNL     1      -8.188  16.582  69.163  1.00  0.00    -0.159 A  
HETATM   15  C   UNL     1      -7.601  15.322  69.075  1.00  0.00    -0.172 A  
ENDBRANCH   9  10
BRANCH   9  16
HETATM   16  C   UNL     1     -10.996  12.317  68.669  1.00  0.00    -0.276 A  
HETATM   17  C   UNL     1     -12.378  12.005  70.652  1.00  0.00    -0.394 A  
HETATM   18  C   UNL     1     -11.072  10.162  69.818  1.00  0.00    -0.328 A  
HETATM   19  C   UNL     1     -11.907  12.816  69.614  1.00  0.00    -0.384 A  
HETATM   20  C   UNL     1     -10.612  10.966  68.775  1.00  0.00    -0.231 A  
HETATM   21  C   UNL     1     -11.950  10.683  70.762  1.00  0.00    -0.477 A  
ENDBRANCH   9  16
ENDBRANCH   7   9
ENDBRANCH   6   7
ENDBRANCH   2   6
TORSDOF 5
ENDMDL
MODEL       24
REMARK 921   NORMALIZED FREE ENERGY PREDICTED BY IDOCK:   -5.45 KCAL/MOL
REMARK 922        TOTAL FREE ENERGY PREDICTED BY IDOCK:   -8.07 KCAL/MOL
REMARK 923 INTER-LIGAND FREE ENERGY PREDICTED BY IDOCK:   -7.12 KCAL/MOL
REMARK 924 INTRA-LIGAND FREE ENERGY PREDICTED BY IDOCK:   -0.95 KCAL/MOL
REMARK 927      BINDING AFFINITY PREDICTED BY RF-SCORE:    0.00 PKD
ROOT
HETATM    1  N   UNL     1     -12.244  16.220  72.973  1.00  0.00    -0.524 N  
HETATM    2  C   UNL     1     -13.009  15.249  72.386  1.00  0.00    -0.380 C  
HETATM    3  H1  UNL     1     -11.940  17.038  72.445  1.00  0.00     0.000 HD 
HETATM    4  H2  UNL     1     -11.973  16.124  73.952  1.00  0.00     0.000 HD 
HETATM    5  O   UNL     1     -13.375  14.264  73.021  1.00  0.00    -0.618 OA 
ENDROOT
BRANCH   2   6
HETATM    6  C   UNL     1     -13.334  15.462  70.921  1.00  0.00    -0.418 C  
BRANCH   6   7
HETATM    7  S   UNL     1     -11.788  15.509  69.982  1.00  0.00    -0.377 S  
HETATM    8  O   UNL     1     -10.707  14.989  70.891  1.00  0.00    -0.143 OA 
BRANCH   7   9
HETATM    9  C   UNL     1     -12.159  14.193  68.727  1.00  0.00    -0.291 C  
BRANCH   9  10
HETATM   10  C   UNL     1     -11.726  14.587  67.321  1.00  0.00    -0.429 A  
HETATM   11  C   UNL     1     -12.344  14.002  66.201  1.00  0.00    -0.491 A  
HETATM   12  C   UNL     1     -10.714  15.537  67.102  1.00  0.00    -0.315 A  
HETATM   13  C   UNL     1     -11.974  14.371  64.903  1.00  0.00    -0.430 A  
HETATM   14  C   UNL     1     -10.975  15.318  64.706  1.00  0.00    -0.403 A  
HETATM   15  C   UNL     1     -10.343  15.898  65.804  1.00  0.00    -0.396 A  
ENDBRANCH   9  10
BRANCH   9  16
HETATM   16  C   UNL     1     -11.605  12.828  69.163  1.00  0.00    -0.373 A  
HETATM   17  C   UNL     1      -9.963  11.048  68.883  1.00  0.00    -0.201 A  
HETATM   18  C   UNL     1     -11.712  10.799  70.520  1.00  0.00    -0.449 A  
HETATM   19  C   UNL     1     -10.461  12.308  68.535  1.00  0.00    -0.248 A  
HETATM   20  C   UNL     1     -12.201  12.061  70.183  1.00  0.00    -0.309 A  
HETATM   21  C   UNL     1     -10.596  10.289  69.865  1.00  0.00    -0.324 A  
ENDBRANCH   9  16
ENDBRANCH   7   9
ENDBRANCH   6   7
ENDBRANCH   2   6
TORSDOF 5
ENDMDL
MODEL       25
REMARK 921   NORMALIZED FREE ENERGY PREDICTED BY IDOCK:   -5.44 KCAL/MOL
REMARK 922        TOTAL FREE ENERGY PREDICTED BY IDOCK:   -8.05 KCAL/MOL
REMARK 923 INTER-LIGAND FREE ENERGY PREDICTED BY IDOCK:   -7.05 KCAL/MOL
REMARK 924 INTRA-LIGAND FREE ENERGY PREDICTED BY IDOCK:   -1.00 KCAL/MOL
REMARK 927      BINDING AFFINITY PREDICTED BY RF-SCORE:    0.00 PKD
ROOT
HETATM    1  N   UNL     1     -12.423  14.301  63.413  1.00  0.00    -1.101 N  
HETATM    2  C   UNL     1     -12.158  13.234  64.229  1.00  0.00    -0.416 C  
HETATM    3  H1  UNL     1     -11.674  14.914  63.092  1.00  0.00     0.000 HD 
HETATM    4  H2  UNL     1     -13.383  14.485  63.120  1.00  0.00     0.000 HD 
HETATM    5  O   UNL     1     -13.060  12.495  64.614  1.00  0.00    -0.845 OA 
ENDROOT
BRANCH   2   6
HETATM    6  C   UNL     1     -10.709  13.060  64.636  1.00  0.00    -0.367 C  
BRANCH   6   7
HETATM    7  S   UNL     1     -10.359  14.162  66.028  1.00  0.00    -0.320 S  
HETATM    8  O   UNL     1     -11.213  15.387  65.844  1.00  0.00    -0.290 OA 
BRANCH   7   9
HETATM    9  C   UNL     1     -11.097  13.154  67.402  1.00  0.00    -0.275 C  
BRANCH   9  10
HETATM   10  C   UNL     1     -10.413  11.804  67.569  1.00  0.00    -0.228 A  
HETATM   11  C   UNL     1      -9.015  11.733  67.719  1.00  0.00    -0.173 A  
HETATM   12  C   UNL     1     -11.145  10.605  67.584  1.00  0.00    -0.385 A  
HETATM   13  C   UNL     1      -8.375  10.502  67.897  1.00  0.00    -0.115 A  
HETATM   14  C   UNL     1      -9.118   9.326  67.917  1.00  0.00    -0.133 A  
HETATM   15  C   UNL     1     -10.500   9.377  67.756  1.00  0.00    -0.310 A  
ENDBRANCH   9  10
BRANCH   9  16
HETATM   16  C   UNL     1     -11.169  13.955  68.710  1.00  0.00    -0.302 A  
HETATM   17  C   UNL     1     -12.107  14.241  70.942  1.00  0.00    -0.417 A  
HETATM   18  C   UNL     1     -10.563  15.879  70.089  1.00  0.00    -0.302 A  
HETATM   19  C   UNL     1     -11.990  13.506  69.757  1.00  0.00    -0.405 A  
HETATM   20  C   UNL     1     -10.434  15.140  68.912  1.00  0.00    -0.241 A  
HETATM   21  C   UNL     1     -11.404  15.434  71.102  1.00  0.00    -0.427 A  
ENDBRANCH   9  16
ENDBRANCH   7   9
ENDBRANCH   6   7
ENDBRANCH   2   6
TORSDOF 5
ENDMDL
MODEL       26
REMARK 921   NORMALIZED FREE ENERGY PREDICTED BY IDOCK:   -5.43 KCAL/MOL
REMARK 922        TOTAL FREE ENERGY PREDICTED BY IDOCK:   -8.04 KCAL/MOL
REMARK 923 INTER-LIGAND FREE ENERGY PREDICTED BY IDOCK:   -7.15 KCAL/MOL
REMARK 924 INTRA-LIGAND FREE ENERGY PREDICTED BY IDOCK:   -0.89 KCAL/MOL
REMARK 927      BINDING AFFINITY PREDICTED BY RF-SCORE:    0.00 PKD
ROOT
HETATM    1  N   UNL     1     -14.185  15.316  72.185  1.00  0.00    -0.545 N  
HETATM    2  C   UNL     1     -13.668  14.055  72.055  1.00  0.00    -0.479 C  
HETATM    3  H1  UNL     1     -13.769  16.106  71.691  1.00  0.00     0.000 HD 
HETATM    4  H2  UNL     1     -14.997  15.469  72.784  1.00  0.00     0.000 HD 
HETATM    5  O   UNL     1     -14.168  13.104  72.650  1.00  0.00    -0.677 OA 
ENDROOT
BRANCH   2   6
HETATM    6  C   UNL     1     -12.444  13.932  71.171  1.00  0.00    -0.372 C  
BRANCH   6   7
HETATM    7  S   UNL     1     -12.086  15.551  70.445  1.00  0.00    -0.404 S  
HETATM    8  O   UNL     1     -11.595  16.433  71.561  1.00  0.00    -0.437 OA 
BRANCH   7   9
HETATM    9  C   UNL     1     -10.624  15.094  69.396  1.00  0.00    -0.255 C  
BRANCH   9  10
HETATM   10  C   UNL     1     -10.993  14.151  68.258  1.00  0.00    -0.266 A  
HETATM   11  C   UNL     1     -11.862  14.581  67.238  1.00  0.00    -0.419 A  
HETATM   12  C   UNL     1     -10.481  12.844  68.190  1.00  0.00    -0.245 A  
HETATM   13  C   UNL     1     -12.191  13.735  66.174  1.00  0.00    -0.499 A  
HETATM   14  C   UNL     1     -11.669  12.447  66.119  1.00  0.00    -0.460 A  
HETATM   15  C   UNL     1     -10.818  12.001  67.128  1.00  0.00    -0.297 A  
ENDBRANCH   9  10
BRANCH   9  16
HETATM   16  C   UNL     1      -9.863  16.339  68.919  1.00  0.00    -0.246 A  
HETATM   17  C   UNL     1      -7.753  17.400  68.314  1.00  0.00    -0.241 A  
HETATM   18  C   UNL     1      -9.779  18.702  68.302  1.00  0.00    -0.394 A  
HETATM   19  C   UNL     1      -8.477  16.269  68.705  1.00  0.00    -0.240 A  
HETATM   20  C   UNL     1     -10.503  17.571  68.680  1.00  0.00    -0.338 A  
HETATM   21  C   UNL     1      -8.403  18.619  68.126  1.00  0.00    -0.332 A  
ENDBRANCH   9  16
ENDBRANCH   7   9
ENDBRANCH   6   7
ENDBRANCH   2   6
TORSDOF 5
ENDMDL
MODEL       27
REMARK 921   NORMALIZED FREE ENERGY PREDICTED BY IDOCK:   -5.43 KCAL/MOL
REMARK 922        TOTAL FREE ENERGY PREDICTED BY IDOCK:   -8.04 KCAL/MOL
REMARK 923 INTER-LIGAND FREE ENERGY PREDICTED BY IDOCK:   -7.24 KCAL/MOL
REMARK 924 INTRA-LIGAND FREE ENERGY PREDICTED BY IDOCK:   -0.80 KCAL/MOL
REMARK 927      BINDING AFFINITY PREDICTED BY RF-SCORE:    0.00 PKD
ROOT
HETATM    1  N   UNL     1      -8.975  19.433  66.386  1.00  0.00    -0.353 N  
HETATM    2  C   UNL     1      -8.416  18.185  66.335  1.00  0.00    -0.238 C  
HETATM    3  H1  UNL     1      -9.719  19.648  67.049  1.00  0.00     0.000 HD 
HETATM    4  H2  UNL     1      -8.642  20.160  65.751  1.00  0.00     0.000 HD 
HETATM    5  O   UNL     1      -7.520  17.926  65.536  1.00  0.00    -0.524 OA 
ENDROOT
BRANCH   2   6
HETATM    6  C   UNL     1      -8.997  17.164  67.292  1.00  0.00    -0.221 C  
BRANCH   6   7
HETATM    7  S   UNL     1     -10.639  16.682  66.704  1.00  0.00    -0.139 S  
HETATM    8  O   UNL     1     -10.618  16.792  65.203  1.00  0.00    -0.663 OA 
BRANCH   7   9
HETATM    9  C   UNL     1     -10.599  14.879  67.144  1.00  0.00    -0.285 C  
BRANCH   9  10
HETATM   10  C   UNL     1     -11.308  14.581  68.458  1.00  0.00    -0.309 A  
HETATM   11  C   UNL     1     -11.413  13.257  68.921  1.00  0.00    -0.342 A  
HETATM   12  C   UNL     1     -11.868  15.606  69.241  1.00  0.00    -0.378 A  
HETATM   13  C   UNL     1     -12.041  12.970  70.137  1.00  0.00    -0.377 A  
HETATM   14  C   UNL     1     -12.583  13.998  70.902  1.00  0.00    -0.431 A  
HETATM   15  C   UNL     1     -12.500  15.314  70.452  1.00  0.00    -0.426 A  
ENDBRANCH   9  10
BRANCH   9  16
HETATM   16  C   UNL     1     -11.098  14.006  65.984  1.00  0.00    -0.303 A  
HETATM   17  C   UNL     1     -10.609  12.706  63.980  1.00  0.00    -0.457 A  
HETATM   18  C   UNL     1     -12.894  12.966  64.694  1.00  0.00    -0.323 A  
HETATM   19  C   UNL     1     -10.176  13.468  65.071  1.00  0.00    -0.345 A  
HETATM   20  C   UNL     1     -12.462  13.714  65.790  1.00  0.00    -0.524 A  
HETATM   21  C   UNL     1     -11.969  12.467  63.785  1.00  0.00    -0.598 A  
ENDBRANCH   9  16
ENDBRANCH   7   9
ENDBRANCH   6   7
ENDBRANCH   2   6
TORSDOF 5
ENDMDL
MODEL       28
REMARK 921   NORMALIZED FREE ENERGY PREDICTED BY IDOCK:   -5.43 KCAL/MOL
REMARK 922        TOTAL FREE ENERGY PREDICTED BY IDOCK:   -8.04 KCAL/MOL
REMARK 923 INTER-LIGAND FREE ENERGY PREDICTED BY IDOCK:   -7.08 KCAL/MOL
REMARK 924 INTRA-LIGAND FREE ENERGY PREDICTED BY IDOCK:   -0.95 KCAL/MOL
REMARK 927      BINDING AFFINITY PREDICTED BY RF-SCORE:    0.00 PKD
ROOT
HETATM    1  N   UNL     1     -13.413  15.472  70.483  1.00  0.00    -0.820 N  
HETATM    2  C   UNL     1     -12.076  15.318  70.737  1.00  0.00    -0.351 C  
HETATM    3  H1  UNL     1     -13.740  15.796  69.573  1.00  0.00     0.000 HD 
HETATM    4  H2  UNL     1     -14.092  15.260  71.215  1.00  0.00     0.000 HD 
HETATM    5  O   UNL     1     -11.683  14.928  71.833  1.00  0.00    -0.371 OA 
ENDROOT
BRANCH   2   6
HETATM    6  C   UNL     1     -11.144  15.687  69.601  1.00  0.00    -0.299 C  
BRANCH   6   7
HETATM    7  S   UNL     1     -10.917  14.238  68.540  1.00  0.00    -0.263 S  
HETATM    8  O   UNL     1     -12.104  13.341  68.763  1.00  0.00    -0.326 OA 
BRANCH   7   9
HETATM    9  C   UNL     1     -11.117  15.047  66.881  1.00  0.00    -0.331 C  
BRANCH   9  10
HETATM   10  C   UNL     1     -10.095  16.150  66.641  1.00  0.00    -0.283 A  
HETATM   11  C   UNL     1     -10.503  17.496  66.607  1.00  0.00    -0.270 A  
HETATM   12  C   UNL     1      -8.732  15.863  66.453  1.00  0.00    -0.362 A  
HETATM   13  C   UNL     1      -9.573  18.523  66.411  1.00  0.00    -0.322 A  
HETATM   14  C   UNL     1      -8.227  18.220  66.234  1.00  0.00    -0.241 A  
HETATM   15  C   UNL     1      -7.808  16.891  66.251  1.00  0.00    -0.346 A  
ENDBRANCH   9  10
BRANCH   9  16
HETATM   16  C   UNL     1     -11.153  14.008  65.751  1.00  0.00    -0.305 A  
HETATM   17  C   UNL     1     -12.048  13.280  63.603  1.00  0.00    -0.551 A  
HETATM   18  C   UNL     1     -10.490  11.868  64.776  1.00  0.00    -0.333 A  
HETATM   19  C   UNL     1     -11.963  14.232  64.626  1.00  0.00    -0.468 A  
HETATM   20  C   UNL     1     -10.395  12.821  65.790  1.00  0.00    -0.297 A  
HETATM   21  C   UNL     1     -11.322  12.093  63.685  1.00  0.00    -0.545 A  
ENDBRANCH   9  16
ENDBRANCH   7   9
ENDBRANCH   6   7
ENDBRANCH   2   6
TORSDOF 5
ENDMDL
MODEL       29
REMARK 921   NORMALIZED FREE ENERGY PREDICTED BY IDOCK:   -5.41 KCAL/MOL
REMARK 922        TOTAL FREE ENERGY PREDICTED BY IDOCK:   -8.02 KCAL/MOL
REMARK 923 INTER-LIGAND FREE ENERGY PREDICTED BY IDOCK:   -7.03 KCAL/MOL
REMARK 924 INTRA-LIGAND FREE ENERGY PREDICTED BY IDOCK:   -0.99 KCAL/MOL
REMARK 927      BINDING AFFINITY PREDICTED BY RF-SCORE:    0.00 PKD
ROOT
HETATM    1  N   UNL     1     -12.395  13.877  63.208  1.00  0.00    -1.148 N  
HETATM    2  C   UNL     1     -12.083  13.032  64.239  1.00  0.00    -0.414 C  
HETATM    3  H1  UNL     1     -11.674  14.435  62.751  1.00  0.00     0.000 HD 
HETATM    4  H2  UNL     1     -13.363  13.950  62.892  1.00  0.00     0.000 HD 
HETATM    5  O   UNL     1     -12.951  12.361  64.789  1.00  0.00    -0.786 OA 
ENDROOT
BRANCH   2   6
HETATM    6  C   UNL     1     -10.628  13.016  64.659  1.00  0.00    -0.378 C  
BRANCH   6   7
HETATM    7  S   UNL     1     -10.405  14.171  66.035  1.00  0.00    -0.320 S  
HETATM    8  O   UNL     1     -11.319  15.339  65.779  1.00  0.00    -0.293 OA 
BRANCH   7   9
HETATM    9  C   UNL     1     -11.146  13.157  67.402  1.00  0.00    -0.275 C  
BRANCH   9  10
HETATM   10  C   UNL     1     -10.445  11.817  67.583  1.00  0.00    -0.223 A  
HETATM   11  C   UNL     1     -11.192  10.625  67.600  1.00  0.00    -0.361 A  
HETATM   12  C   UNL     1      -9.050  11.731  67.732  1.00  0.00    -0.178 A  
HETATM   13  C   UNL     1     -10.561   9.385  67.742  1.00  0.00    -0.317 A  
HETATM   14  C   UNL     1      -9.178   9.319  67.881  1.00  0.00    -0.140 A  
HETATM   15  C   UNL     1      -8.424  10.490  67.880  1.00  0.00    -0.119 A  
ENDBRANCH   9  10
BRANCH   9  16
HETATM   16  C   UNL     1     -11.247  13.961  68.706  1.00  0.00    -0.302 A  
HETATM   17  C   UNL     1     -10.470  15.809  70.092  1.00  0.00    -0.288 A  
HETATM   18  C   UNL     1     -12.170  14.329  70.939  1.00  0.00    -0.425 A  
HETATM   19  C   UNL     1     -10.429  15.087  68.895  1.00  0.00    -0.241 A  
HETATM   20  C   UNL     1     -12.140  13.615  69.740  1.00  0.00    -0.396 A  
HETATM   21  C   UNL     1     -11.330  15.422  71.118  1.00  0.00    -0.427 A  
ENDBRANCH   9  16
ENDBRANCH   7   9
ENDBRANCH   6   7
ENDBRANCH   2   6
TORSDOF 5
ENDMDL
MODEL       30
REMARK 921   NORMALIZED FREE ENERGY PREDICTED BY IDOCK:   -5.39 KCAL/MOL
REMARK 922        TOTAL FREE ENERGY PREDICTED BY IDOCK:   -7.98 KCAL/MOL
REMARK 923 INTER-LIGAND FREE ENERGY PREDICTED BY IDOCK:   -7.62 KCAL/MOL
REMARK 924 INTRA-LIGAND FREE ENERGY PREDICTED BY IDOCK:   -0.36 KCAL/MOL
REMARK 927      BINDING AFFINITY PREDICTED BY RF-SCORE:    0.00 PKD
ROOT
HETATM    1  N   UNL     1     -12.376  14.264  63.786  1.00  0.00    -1.063 N  
HETATM    2  C   UNL     1     -11.662  15.241  64.427  1.00  0.00    -0.285 C  
HETATM    3  H1  UNL     1     -12.393  13.309  64.142  1.00  0.00     0.000 HD 
HETATM    4  H2  UNL     1     -12.899  14.495  62.940  1.00  0.00     0.000 HD 
HETATM    5  O   UNL     1     -11.642  16.391  63.998  1.00  0.00    -1.071 OA 
ENDROOT
BRANCH   2   6
HETATM    6  C   UNL     1     -10.893  14.796  65.654  1.00  0.00    -0.339 C  
BRANCH   6   7
HETATM    7  S   UNL     1     -12.025  13.925  66.766  1.00  0.00    -0.438 S  
HETATM    8  O   UNL     1     -12.237  12.552  66.189  1.00  0.00    -0.609 OA 
BRANCH   7   9
HETATM    9  C   UNL     1     -10.920  13.756  68.248  1.00  0.00    -0.250 C  
BRANCH   9  10
HETATM   10  C   UNL     1     -11.521  14.382  69.500  1.00  0.00    -0.333 A  
HETATM   11  C   UNL     1     -12.643  13.797  70.114  1.00  0.00    -0.253 A  
HETATM   12  C   UNL     1     -10.977  15.543  70.075  1.00  0.00    -0.331 A  
HETATM   13  C   UNL     1     -13.192  14.346  71.278  1.00  0.00    -0.416 A  
HETATM   14  C   UNL     1     -12.636  15.493  71.837  1.00  0.00    -0.478 A  
HETATM   15  C   UNL     1     -11.532  16.092  71.234  1.00  0.00    -0.433 A  
ENDBRANCH   9  10
BRANCH   9  16
HETATM   16  C   UNL     1     -10.481  12.300  68.458  1.00  0.00    -0.248 A  
HETATM   17  C   UNL     1      -8.755  10.587  68.286  1.00  0.00    -0.135 A  
HETATM   18  C   UNL     1     -10.944   9.985  69.088  1.00  0.00    -0.256 A  
HETATM   19  C   UNL     1      -9.167  11.917  68.146  1.00  0.00    -0.187 A  
HETATM   20  C   UNL     1     -11.352  11.313  68.962  1.00  0.00    -0.344 A  
HETATM   21  C   UNL     1      -9.648   9.620  68.745  1.00  0.00    -0.153 A  
ENDBRANCH   9  16
ENDBRANCH   7   9
ENDBRANCH   6   7
ENDBRANCH   2   6
TORSDOF 5
ENDMDL
MODEL       31
REMARK 921   NORMALIZED FREE ENERGY PREDICTED BY IDOCK:   -5.38 KCAL/MOL
REMARK 922        TOTAL FREE ENERGY PREDICTED BY IDOCK:   -7.98 KCAL/MOL
REMARK 923 INTER-LIGAND FREE ENERGY PREDICTED BY IDOCK:   -7.26 KCAL/MOL
REMARK 924 INTRA-LIGAND FREE ENERGY PREDICTED BY IDOCK:   -0.72 KCAL/MOL
REMARK 927      BINDING AFFINITY PREDICTED BY RF-SCORE:    0.00 PKD
ROOT
HETATM    1  N   UNL     1     -10.274  19.126  68.909  1.00  0.00    -0.534 N  
HETATM    2  C   UNL     1      -9.033  18.680  68.543  1.00  0.00    -0.334 C  
HETATM    3  H1  UNL     1     -11.081  18.502  68.895  1.00  0.00     0.000 HD 
HETATM    4  H2  UNL     1     -10.394  20.097  69.202  1.00  0.00     0.000 HD 
HETATM    5  O   UNL     1      -8.062  19.431  68.562  1.00  0.00    -0.340 OA 
ENDROOT
BRANCH   2   6
HETATM    6  C   UNL     1      -8.959  17.235  68.094  1.00  0.00    -0.254 C  
BRANCH   6   7
HETATM    7  S   UNL     1     -10.454  16.840  67.154  1.00  0.00    -0.265 S  
HETATM    8  O   UNL     1     -10.115  17.010  65.698  1.00  0.00    -0.554 OA 
BRANCH   7   9
HETATM    9  C   UNL     1     -10.559  15.020  67.506  1.00  0.00    -0.265 C  
BRANCH   9  10
HETATM   10  C   UNL     1     -11.357  14.713  68.766  1.00  0.00    -0.302 A  
HETATM   11  C   UNL     1     -11.446  13.391  69.241  1.00  0.00    -0.345 A  
HETATM   12  C   UNL     1     -12.017  15.724  69.484  1.00  0.00    -0.326 A  
HETATM   13  C   UNL     1     -12.156  13.096  70.410  1.00  0.00    -0.392 A  
HETATM   14  C   UNL     1     -12.797  14.112  71.112  1.00  0.00    -0.431 A  
HETATM   15  C   UNL     1     -12.731  15.424  70.647  1.00  0.00    -0.490 A  
ENDBRANCH   9  10
BRANCH   9  16
HETATM   16  C   UNL     1     -11.051  14.238  66.279  1.00  0.00    -0.323 A  
HETATM   17  C   UNL     1     -12.902  13.315  64.989  1.00  0.00    -0.356 A  
HETATM   18  C   UNL     1     -10.641  12.927  64.259  1.00  0.00    -0.430 A  
HETATM   19  C   UNL     1     -12.430  14.061  66.074  1.00  0.00    -0.489 A  
HETATM   20  C   UNL     1     -10.169  13.682  65.333  1.00  0.00    -0.330 A  
HETATM   21  C   UNL     1     -12.008  12.737  64.090  1.00  0.00    -0.499 A  
ENDBRANCH   9  16
ENDBRANCH   7   9
ENDBRANCH   6   7
ENDBRANCH   2   6
TORSDOF 5
ENDMDL
MODEL       32
REMARK 921   NORMALIZED FREE ENERGY PREDICTED BY IDOCK:   -5.37 KCAL/MOL
REMARK 922        TOTAL FREE ENERGY PREDICTED BY IDOCK:   -7.96 KCAL/MOL
REMARK 923 INTER-LIGAND FREE ENERGY PREDICTED BY IDOCK:   -7.08 KCAL/MOL
REMARK 924 INTRA-LIGAND FREE ENERGY PREDICTED BY IDOCK:   -0.88 KCAL/MOL
REMARK 927      BINDING AFFINITY PREDICTED BY RF-SCORE:    0.00 PKD
ROOT
HETATM    1  N   UNL     1     -14.156  15.406  70.840  1.00  0.00    -0.864 N  
HETATM    2  C   UNL     1     -12.981  15.274  71.532  1.00  0.00    -0.412 C  
HETATM    3  H1  UNL     1     -14.173  15.830  69.913  1.00  0.00     0.000 HD 
HETATM    4  H2  UNL     1     -15.026  15.076  71.259  1.00  0.00     0.000 HD 
HETATM    5  O   UNL     1     -12.961  14.764  72.648  1.00  0.00    -0.365 OA 
ENDROOT
BRANCH   2   6
HETATM    6  C   UNL     1     -11.747  15.821  70.844  1.00  0.00    -0.406 C  
BRANCH   6   7
HETATM    7  S   UNL     1     -11.173  14.611  69.627  1.00  0.00    -0.263 S  
HETATM    8  O   UNL     1     -12.197  13.509  69.588  1.00  0.00    -0.304 OA 
BRANCH   7   9
HETATM    9  C   UNL     1     -11.364  15.622  68.083  1.00  0.00    -0.340 C  
BRANCH   9  10
HETATM   10  C   UNL     1     -10.385  16.787  68.022  1.00  0.00    -0.317 A  
HETATM   11  C   UNL     1      -9.106  16.667  68.597  1.00  0.00    -0.245 A  
HETATM   12  C   UNL     1     -10.721  17.998  67.394  1.00  0.00    -0.334 A  
HETATM   13  C   UNL     1      -8.188  17.720  68.529  1.00  0.00    -0.296 A  
HETATM   14  C   UNL     1      -8.536  18.909  67.897  1.00  0.00    -0.318 A  
HETATM   15  C   UNL     1      -9.802  19.049  67.333  1.00  0.00    -0.386 A  
ENDBRANCH   9  10
BRANCH   9  16
HETATM   16  C   UNL     1     -11.325  14.741  66.826  1.00  0.00    -0.347 A  
HETATM   17  C   UNL     1     -12.486  13.288  65.251  1.00  0.00    -0.543 A  
HETATM   18  C   UNL     1     -10.122  13.664  64.992  1.00  0.00    -0.293 A  
HETATM   19  C   UNL     1     -12.504  14.130  66.367  1.00  0.00    -0.353 A  
HETATM   20  C   UNL     1     -10.141  14.515  66.097  1.00  0.00    -0.319 A  
HETATM   21  C   UNL     1     -11.294  13.044  64.572  1.00  0.00    -0.377 A  
ENDBRANCH   9  16
ENDBRANCH   7   9
ENDBRANCH   6   7
ENDBRANCH   2   6
TORSDOF 5
ENDMDL
MODEL       33
REMARK 921   NORMALIZED FREE ENERGY PREDICTED BY IDOCK:   -5.33 KCAL/MOL
REMARK 922        TOTAL FREE ENERGY PREDICTED BY IDOCK:   -7.92 KCAL/MOL
REMARK 923 INTER-LIGAND FREE ENERGY PREDICTED BY IDOCK:   -7.00 KCAL/MOL
REMARK 924 INTRA-LIGAND FREE ENERGY PREDICTED BY IDOCK:   -0.91 KCAL/MOL
REMARK 927      BINDING AFFINITY PREDICTED BY RF-SCORE:    0.00 PKD
ROOT
HETATM    1  N   UNL     1     -14.370  15.457  72.304  1.00  0.00    -0.551 N  
HETATM    2  C   UNL     1     -13.911  14.193  72.047  1.00  0.00    -0.513 C  
HETATM    3  H1  UNL     1     -14.151  16.232  71.677  1.00  0.00     0.000 HD 
HETATM    4  H2  UNL     1     -14.939  15.627  73.134  1.00  0.00     0.000 HD 
HETATM    5  O   UNL     1     -14.174  13.261  72.801  1.00  0.00    -0.661 OA 
ENDROOT
BRANCH   2   6
HETATM    6  C   UNL     1     -13.049  14.045  70.810  1.00  0.00    -0.180 C  
BRANCH   6   7
HETATM    7  S   UNL     1     -12.146  15.590  70.540  1.00  0.00    -0.405 S  
HETATM    8  O   UNL     1     -11.647  16.046  71.884  1.00  0.00    -0.445 OA 
BRANCH   7   9
HETATM    9  C   UNL     1     -10.696  14.929  69.588  1.00  0.00    -0.229 C  
BRANCH   9  10
HETATM   10  C   UNL     1     -11.117  14.090  68.389  1.00  0.00    -0.275 A  
HETATM   11  C   UNL     1     -10.787  12.723  68.331  1.00  0.00    -0.272 A  
HETATM   12  C   UNL     1     -11.841  14.645  67.320  1.00  0.00    -0.375 A  
HETATM   13  C   UNL     1     -11.186  11.935  67.247  1.00  0.00    -0.376 A  
HETATM   14  C   UNL     1     -11.909  12.500  66.202  1.00  0.00    -0.459 A  
HETATM   15  C   UNL     1     -12.233  13.855  66.237  1.00  0.00    -0.498 A  
ENDBRANCH   9  10
BRANCH   9  16
HETATM   16  C   UNL     1      -9.709  16.046  69.220  1.00  0.00    -0.257 A  
HETATM   17  C   UNL     1      -9.317  18.345  68.511  1.00  0.00    -0.354 A  
HETATM   18  C   UNL     1      -7.443  16.861  68.804  1.00  0.00    -0.237 A  
HETATM   19  C   UNL     1     -10.193  17.323  68.893  1.00  0.00    -0.349 A  
HETATM   20  C   UNL     1      -8.314  15.845  69.198  1.00  0.00    -0.253 A  
HETATM   21  C   UNL     1      -7.944  18.110  68.454  1.00  0.00    -0.312 A  
ENDBRANCH   9  16
ENDBRANCH   7   9
ENDBRANCH   6   7
ENDBRANCH   2   6
TORSDOF 5
ENDMDL
MODEL       34
REMARK 921   NORMALIZED FREE ENERGY PREDICTED BY IDOCK:   -5.33 KCAL/MOL
REMARK 922        TOTAL FREE ENERGY PREDICTED BY IDOCK:   -7.91 KCAL/MOL
REMARK 923 INTER-LIGAND FREE ENERGY PREDICTED BY IDOCK:   -7.56 KCAL/MOL
REMARK 924 INTRA-LIGAND FREE ENERGY PREDICTED BY IDOCK:   -0.34 KCAL/MOL
REMARK 927      BINDING AFFINITY PREDICTED BY RF-SCORE:    0.00 PKD
ROOT
HETATM    1  N   UNL     1      -9.657  17.927  66.245  1.00  0.00    -0.274 N  
HETATM    2  C   UNL     1     -10.376  17.049  65.478  1.00  0.00    -0.143 C  
HETATM    3  H1  UNL     1      -8.991  17.591  66.940  1.00  0.00     0.000 HD 
HETATM    4  H2  UNL     1      -9.788  18.930  66.118  1.00  0.00     0.000 HD 
HETATM    5  O   UNL     1     -11.177  17.454  64.640  1.00  0.00    -0.992 OA 
ENDROOT
BRANCH   2   6
HETATM    6  C   UNL     1     -10.137  15.580  65.759  1.00  0.00    -0.360 C  
BRANCH   6   7
HETATM    7  S   UNL     1     -10.560  15.241  67.486  1.00  0.00    -0.278 S  
HETATM    8  O   UNL     1     -11.279  16.456  68.008  1.00  0.00    -0.325 OA 
BRANCH   7   9
HETATM    9  C   UNL     1     -11.819  13.901  67.229  1.00  0.00    -0.407 C  
BRANCH   9  10
HETATM   10  C   UNL     1     -11.549  13.077  65.977  1.00  0.00    -0.409 A  
HETATM   11  C   UNL     1     -10.293  12.471  65.787  1.00  0.00    -0.288 A  
HETATM   12  C   UNL     1     -12.533  12.894  64.991  1.00  0.00    -0.553 A  
HETATM   13  C   UNL     1     -10.038  11.692  64.653  1.00  0.00    -0.305 A  
HETATM   14  C   UNL     1     -11.027  11.516  63.690  1.00  0.00    -0.482 A  
HETATM   15  C   UNL     1     -12.271  12.120  63.857  1.00  0.00    -0.587 A  
ENDBRANCH   9  10
BRANCH   9  16
HETATM   16  C   UNL     1     -11.986  13.039  68.489  1.00  0.00    -0.296 A  
HETATM   17  C   UNL     1     -12.456  12.888  70.876  1.00  0.00    -0.383 A  
HETATM   18  C   UNL     1     -11.902  10.891  69.650  1.00  0.00    -0.416 A  
HETATM   19  C   UNL     1     -12.341  13.645  69.705  1.00  0.00    -0.285 A  
HETATM   20  C   UNL     1     -11.800  11.643  68.480  1.00  0.00    -0.357 A  
HETATM   21  C   UNL     1     -12.223  11.514  70.851  1.00  0.00    -0.425 A  
ENDBRANCH   9  16
ENDBRANCH   7   9
ENDBRANCH   6   7
ENDBRANCH   2   6
TORSDOF 5
ENDMDL
MODEL       35
REMARK 921   NORMALIZED FREE ENERGY PREDICTED BY IDOCK:   -5.28 KCAL/MOL
REMARK 922        TOTAL FREE ENERGY PREDICTED BY IDOCK:   -7.85 KCAL/MOL
REMARK 923 INTER-LIGAND FREE ENERGY PREDICTED BY IDOCK:   -7.23 KCAL/MOL
REMARK 924 INTRA-LIGAND FREE ENERGY PREDICTED BY IDOCK:   -0.62 KCAL/MOL
REMARK 927      BINDING AFFINITY PREDICTED BY RF-SCORE:    0.00 PKD
ROOT
HETATM    1  N   UNL     1     -12.393  13.967  63.152  1.00  0.00    -1.106 N  
HETATM    2  C   UNL     1     -12.355  14.830  64.214  1.00  0.00    -0.320 C  
HETATM    3  H1  UNL     1     -12.621  12.982  63.285  1.00  0.00     0.000 HD 
HETATM    4  H2  UNL     1     -12.191  14.314  62.214  1.00  0.00     0.000 HD 
HETATM    5  O   UNL     1     -12.082  16.016  64.054  1.00  0.00    -0.810 OA 
ENDROOT
BRANCH   2   6
HETATM    6  C   UNL     1     -12.638  14.216  65.571  1.00  0.00    -0.479 C  
BRANCH   6   7
HETATM    7  S   UNL     1     -11.677  12.691  65.732  1.00  0.00    -0.436 S  
HETATM    8  O   UNL     1     -10.242  13.045  65.449  1.00  0.00    -0.292 OA 
BRANCH   7   9
HETATM    9  C   UNL     1     -11.847  12.420  67.560  1.00  0.00    -0.284 C  
BRANCH   9  10
HETATM   10  C   UNL     1     -11.267  11.086  68.010  1.00  0.00    -0.372 A  
HETATM   11  C   UNL     1     -11.396  10.675  69.350  1.00  0.00    -0.348 A  
HETATM   12  C   UNL     1     -10.600  10.234  67.114  1.00  0.00    -0.320 A  
HETATM   13  C   UNL     1     -10.890   9.442  69.773  1.00  0.00    -0.250 A  
HETATM   14  C   UNL     1     -10.238   8.608  68.870  1.00  0.00    -0.221 A  
HETATM   15  C   UNL     1     -10.090   9.005  67.543  1.00  0.00    -0.285 A  
ENDBRANCH   9  10
BRANCH   9  16
HETATM   16  C   UNL     1     -11.296  13.611  68.358  1.00  0.00    -0.329 A  
HETATM   17  C   UNL     1      -9.398  14.986  69.027  1.00  0.00    -0.206 A  
HETATM   18  C   UNL     1     -11.576  15.450  69.943  1.00  0.00    -0.342 A  
HETATM   19  C   UNL     1      -9.932  13.934  68.275  1.00  0.00    -0.238 A  
HETATM   20  C   UNL     1     -12.112  14.410  69.184  1.00  0.00    -0.316 A  
HETATM   21  C   UNL     1     -10.217  15.735  69.870  1.00  0.00    -0.277 A  
ENDBRANCH   9  16
ENDBRANCH   7   9
ENDBRANCH   6   7
ENDBRANCH   2   6
TORSDOF 5
ENDMDL
MODEL       36
REMARK 921   NORMALIZED FREE ENERGY PREDICTED BY IDOCK:   -5.26 KCAL/MOL
REMARK 922        TOTAL FREE ENERGY PREDICTED BY IDOCK:   -7.82 KCAL/MOL
REMARK 923 INTER-LIGAND FREE ENERGY PREDICTED BY IDOCK:   -6.79 KCAL/MOL
REMARK 924 INTRA-LIGAND FREE ENERGY PREDICTED BY IDOCK:   -1.02 KCAL/MOL
REMARK 927      BINDING AFFINITY PREDICTED BY RF-SCORE:    0.00 PKD
ROOT
HETATM    1  N   UNL     1     -12.424  13.942  63.117  1.00  0.00    -1.079 N  
HETATM    2  C   UNL     1     -11.781  12.907  63.742  1.00  0.00    -0.492 C  
HETATM    3  H1  UNL     1     -12.120  14.906  63.254  1.00  0.00     0.000 HD 
HETATM    4  H2  UNL     1     -13.217  13.747  62.506  1.00  0.00     0.000 HD 
HETATM    5  O   UNL     1     -12.147  11.746  63.577  1.00  0.00    -0.491 OA 
ENDROOT
BRANCH   2   6
HETATM    6  C   UNL     1     -10.637  13.297  64.655  1.00  0.00    -0.404 C  
BRANCH   6   7
HETATM    7  S   UNL     1     -11.299  14.246  66.047  1.00  0.00    -0.341 S  
HETATM    8  O   UNL     1     -12.784  14.007  66.073  1.00  0.00    -0.475 OA 
BRANCH   7   9
HETATM    9  C   UNL     1     -10.543  13.291  67.448  1.00  0.00    -0.246 C  
BRANCH   9  10
HETATM   10  C   UNL     1      -9.033  13.470  67.530  1.00  0.00    -0.210 A  
HETATM   11  C   UNL     1      -8.199  12.354  67.732  1.00  0.00    -0.163 A  
HETATM   12  C   UNL     1      -8.434  14.735  67.404  1.00  0.00    -0.218 A  
HETATM   13  C   UNL     1      -6.809  12.499  67.787  1.00  0.00    -0.120 A  
HETATM   14  C   UNL     1      -6.233  13.759  67.653  1.00  0.00    -0.119 A  
HETATM   15  C   UNL     1      -7.045  14.875  67.466  1.00  0.00    -0.215 A  
ENDBRANCH   9  10
BRANCH   9  16
HETATM   16  C   UNL     1     -11.254  13.586  68.777  1.00  0.00    -0.311 A  
HETATM   17  C   UNL     1     -12.397  12.766  70.767  1.00  0.00    -0.375 A  
HETATM   18  C   UNL     1     -12.173  15.139  70.424  1.00  0.00    -0.391 A  
HETATM   19  C   UNL     1     -11.708  12.523  69.575  1.00  0.00    -0.375 A  
HETATM   20  C   UNL     1     -11.474  14.898  69.242  1.00  0.00    -0.324 A  
HETATM   21  C   UNL     1     -12.641  14.074  71.185  1.00  0.00    -0.445 A  
ENDBRANCH   9  16
ENDBRANCH   7   9
ENDBRANCH   6   7
ENDBRANCH   2   6
TORSDOF 5
ENDMDL
MODEL       37
REMARK 921   NORMALIZED FREE ENERGY PREDICTED BY IDOCK:   -5.25 KCAL/MOL
REMARK 922        TOTAL FREE ENERGY PREDICTED BY IDOCK:   -7.81 KCAL/MOL
REMARK 923 INTER-LIGAND FREE ENERGY PREDICTED BY IDOCK:   -7.22 KCAL/MOL
REMARK 924 INTRA-LIGAND FREE ENERGY PREDICTED BY IDOCK:   -0.58 KCAL/MOL
REMARK 927      BINDING AFFINITY PREDICTED BY RF-SCORE:    0.00 PKD
ROOT
HETATM    1  N   UNL     1     -13.415  15.500  70.666  1.00  0.00    -0.829 N  
HETATM    2  C   UNL     1     -12.132  15.658  71.117  1.00  0.00    -0.404 C  
HETATM    3  H1  UNL     1     -13.605  15.030  69.781  1.00  0.00     0.000 HD 
HETATM    4  H2  UNL     1     -14.192  15.856  71.224  1.00  0.00     0.000 HD 
HETATM    5  O   UNL     1     -11.903  16.223  72.183  1.00  0.00    -0.507 OA 
ENDROOT
BRANCH   2   6
HETATM    6  C   UNL     1     -11.044  15.125  70.207  1.00  0.00    -0.262 C  
BRANCH   6   7
HETATM    7  S   UNL     1     -11.762  14.775  68.584  1.00  0.00    -0.313 S  
HETATM    8  O   UNL     1     -11.284  15.853  67.650  1.00  0.00    -0.308 OA 
BRANCH   7   9
HETATM    9  C   UNL     1     -10.839  13.217  68.176  1.00  0.00    -0.251 C  
BRANCH   9  10
HETATM   10  C   UNL     1     -11.144  12.085  69.148  1.00  0.00    -0.272 A  
HETATM   11  C   UNL     1     -10.281  10.977  69.236  1.00  0.00    -0.153 A  
HETATM   12  C   UNL     1     -12.278  12.112  69.977  1.00  0.00    -0.270 A  
HETATM   13  C   UNL     1     -10.535   9.941  70.140  1.00  0.00    -0.339 A  
HETATM   14  C   UNL     1     -11.659   9.989  70.959  1.00  0.00    -0.476 A  
HETATM   15  C   UNL     1     -12.531  11.071  70.874  1.00  0.00    -0.509 A  
ENDBRANCH   9  10
BRANCH   9  16
HETATM   16  C   UNL     1     -11.037  12.815  66.707  1.00  0.00    -0.314 A  
HETATM   17  C   UNL     1     -10.092  11.991  64.616  1.00  0.00    -0.291 A  
HETATM   18  C   UNL     1     -12.420  12.599  64.705  1.00  0.00    -0.555 A  
HETATM   19  C   UNL     1      -9.949  12.323  65.968  1.00  0.00    -0.270 A  
HETATM   20  C   UNL     1     -12.282  12.916  66.056  1.00  0.00    -0.431 A  
HETATM   21  C   UNL     1     -11.324  12.142  63.982  1.00  0.00    -0.468 A  
ENDBRANCH   9  16
ENDBRANCH   7   9
ENDBRANCH   6   7
ENDBRANCH   2   6
TORSDOF 5
ENDMDL
MODEL       38
REMARK 921   NORMALIZED FREE ENERGY PREDICTED BY IDOCK:   -5.24 KCAL/MOL
REMARK 922        TOTAL FREE ENERGY PREDICTED BY IDOCK:   -7.79 KCAL/MOL
REMARK 923 INTER-LIGAND FREE ENERGY PREDICTED BY IDOCK:   -6.74 KCAL/MOL
REMARK 924 INTRA-LIGAND FREE ENERGY PREDICTED BY IDOCK:   -1.05 KCAL/MOL
REMARK 927      BINDING AFFINITY PREDICTED BY RF-SCORE:    0.00 PKD
ROOT
HETATM    1  N   UNL     1     -12.371  13.852  63.315  1.00  0.00    -1.148 N  
HETATM    2  C   UNL     1     -12.681  13.434  64.581  1.00  0.00    -0.186 C  
HETATM    3  H1  UNL     1     -11.788  13.282  62.703  1.00  0.00     0.000 HD 
HETATM    4  H2  UNL     1     -12.729  14.747  62.978  1.00  0.00     0.000 HD 
HETATM    5  O   UNL     1     -13.384  14.121  65.318  1.00  0.00    -0.715 OA 
ENDROOT
BRANCH   2   6
HETATM    6  C   UNL     1     -12.079  12.109  65.003  1.00  0.00    -0.243 C  
BRANCH   6   7
HETATM    7  S   UNL     1     -10.583  12.431  65.970  1.00  0.00    -0.264 S  
HETATM    8  O   UNL     1      -9.955  13.676  65.405  1.00  0.00    -0.283 OA 
BRANCH   7   9
HETATM    9  C   UNL     1     -11.364  12.874  67.594  1.00  0.00    -0.303 C  
BRANCH   9  10
HETATM   10  C   UNL     1     -11.364  11.713  68.580  1.00  0.00    -0.332 A  
HETATM   11  C   UNL     1     -10.766  10.488  68.229  1.00  0.00    -0.270 A  
HETATM   12  C   UNL     1     -11.949  11.827  69.852  1.00  0.00    -0.405 A  
HETATM   13  C   UNL     1     -10.738   9.420  69.132  1.00  0.00    -0.216 A  
HETATM   14  C   UNL     1     -11.315   9.554  70.390  1.00  0.00    -0.318 A  
HETATM   15  C   UNL     1     -11.923  10.755  70.748  1.00  0.00    -0.464 A  
ENDBRANCH   9  10
BRANCH   9  16
HETATM   16  C   UNL     1     -10.754  14.156  68.180  1.00  0.00    -0.251 A  
HETATM   17  C   UNL     1     -10.965  16.528  68.698  1.00  0.00    -0.344 A  
HETATM   18  C   UNL     1      -8.896  15.393  69.173  1.00  0.00    -0.249 A  
HETATM   19  C   UNL     1     -11.513  15.337  68.211  1.00  0.00    -0.359 A  
HETATM   20  C   UNL     1      -9.446  14.201  68.700  1.00  0.00    -0.163 A  
HETATM   21  C   UNL     1      -9.653  16.559  69.166  1.00  0.00    -0.228 A  
ENDBRANCH   9  16
ENDBRANCH   7   9
ENDBRANCH   6   7
ENDBRANCH   2   6
TORSDOF 5
ENDMDL
MODEL       39
REMARK 921   NORMALIZED FREE ENERGY PREDICTED BY IDOCK:   -5.18 KCAL/MOL
REMARK 922        TOTAL FREE ENERGY PREDICTED BY IDOCK:   -7.72 KCAL/MOL
REMARK 923 INTER-LIGAND FREE ENERGY PREDICTED BY IDOCK:   -7.47 KCAL/MOL
REMARK 924 INTRA-LIGAND FREE ENERGY PREDICTED BY IDOCK:   -0.25 KCAL/MOL
REMARK 927      BINDING AFFINITY PREDICTED BY RF-SCORE:    0.00 PKD
ROOT
HETATM    1  N   UNL     1     -12.498  13.980  63.487  1.00  0.00    -1.099 N  
HETATM    2  C   UNL     1     -11.921  14.977  64.226  1.00  0.00    -0.295 C  
HETATM    3  H1  UNL     1     -12.402  13.002  63.761  1.00  0.00     0.000 HD 
HETATM    4  H2  UNL     1     -13.033  14.218  62.652  1.00  0.00     0.000 HD 
HETATM    5  O   UNL     1     -12.037  16.154  63.897  1.00  0.00    -0.956 OA 
ENDROOT
BRANCH   2   6
HETATM    6  C   UNL     1     -11.121  14.526  65.431  1.00  0.00    -0.345 C  
BRANCH   6   7
HETATM    7  S   UNL     1     -12.226  13.659  66.572  1.00  0.00    -0.370 S  
HETATM    8  O   UNL     1     -12.273  12.221  66.130  1.00  0.00    -0.647 OA 
BRANCH   7   9
HETATM    9  C   UNL     1     -11.196  13.748  68.114  1.00  0.00    -0.271 C  
BRANCH   9  10
HETATM   10  C   UNL     1     -11.799  12.956  69.267  1.00  0.00    -0.363 A  
HETATM   11  C   UNL     1     -11.856  11.551  69.205  1.00  0.00    -0.414 A  
HETATM   12  C   UNL     1     -12.304  13.593  70.412  1.00  0.00    -0.415 A  
HETATM   13  C   UNL     1     -12.386  10.809  70.266  1.00  0.00    -0.423 A  
HETATM   14  C   UNL     1     -12.875  11.457  71.396  1.00  0.00    -0.502 A  
HETATM   15  C   UNL     1     -12.838  12.848  71.467  1.00  0.00    -0.380 A  
ENDBRANCH   9  10
BRANCH   9  16
HETATM   16  C   UNL     1      -9.732  13.377  67.834  1.00  0.00    -0.226 A  
HETATM   17  C   UNL     1      -7.373  13.991  67.865  1.00  0.00    -0.162 A  
HETATM   18  C   UNL     1      -8.028  11.855  66.968  1.00  0.00    -0.158 A  
HETATM   19  C   UNL     1      -8.710  14.287  68.151  1.00  0.00    -0.174 A  
HETATM   20  C   UNL     1      -9.360  12.143  67.265  1.00  0.00    -0.183 A  
HETATM   21  C   UNL     1      -7.034  12.781  67.262  1.00  0.00    -0.087 A  
ENDBRANCH   9  16
ENDBRANCH   7   9
ENDBRANCH   6   7
ENDBRANCH   2   6
TORSDOF 5
ENDMDL
MODEL       40
REMARK 921   NORMALIZED FREE ENERGY PREDICTED BY IDOCK:   -5.16 KCAL/MOL
REMARK 922        TOTAL FREE ENERGY PREDICTED BY IDOCK:   -7.69 KCAL/MOL
REMARK 923 INTER-LIGAND FREE ENERGY PREDICTED BY IDOCK:   -7.34 KCAL/MOL
REMARK 924 INTRA-LIGAND FREE ENERGY PREDICTED BY IDOCK:   -0.35 KCAL/MOL
REMARK 927      BINDING AFFINITY PREDICTED BY RF-SCORE:    0.00 PKD
ROOT
HETATM    1  N   UNL     1      -6.962  15.576  69.655  1.00  0.00    -0.185 N  
HETATM    2  C   UNL     1      -7.858  16.093  68.758  1.00  0.00    -0.203 C  
HETATM    3  H1  UNL     1      -7.213  14.789  70.253  1.00  0.00     0.000 HD 
HETATM    4  H2  UNL     1      -6.029  15.985  69.726  1.00  0.00     0.000 HD 
HETATM    5  O   UNL     1      -7.556  17.040  68.039  1.00  0.00    -0.173 OA 
ENDROOT
BRANCH   2   6
HETATM    6  C   UNL     1      -9.227  15.442  68.747  1.00  0.00    -0.206 C  
BRANCH   6   7
HETATM    7  S   UNL     1     -10.480  16.718  69.022  1.00  0.00    -0.346 S  
HETATM    8  O   UNL     1     -10.614  17.487  67.735  1.00  0.00    -0.370 OA 
BRANCH   7   9
HETATM    9  C   UNL     1     -11.978  15.636  69.198  1.00  0.00    -0.310 C  
BRANCH   9  10
HETATM   10  C   UNL     1     -11.805  14.284  68.519  1.00  0.00    -0.382 A  
HETATM   11  C   UNL     1     -11.496  13.143  69.283  1.00  0.00    -0.348 A  
HETATM   12  C   UNL     1     -11.952  14.134  67.129  1.00  0.00    -0.460 A  
HETATM   13  C   UNL     1     -11.358  11.890  68.677  1.00  0.00    -0.331 A  
HETATM   14  C   UNL     1     -11.514  11.760  67.300  1.00  0.00    -0.373 A  
HETATM   15  C   UNL     1     -11.807  12.881  66.527  1.00  0.00    -0.473 A  
ENDBRANCH   9  10
BRANCH   9  16
HETATM   16  C   UNL     1     -12.417  15.517  70.664  1.00  0.00    -0.483 A  
HETATM   17  C   UNL     1     -11.826  15.454  73.029  1.00  0.00    -0.532 A  
HETATM   18  C   UNL     1     -14.125  15.162  72.375  1.00  0.00    -0.593 A  
HETATM   19  C   UNL     1     -11.458  15.604  71.687  1.00  0.00    -0.506 A  
HETATM   20  C   UNL     1     -13.761  15.324  71.038  1.00  0.00    -0.452 A  
HETATM   21  C   UNL     1     -13.157  15.220  73.371  1.00  0.00    -0.612 A  
ENDBRANCH   9  16
ENDBRANCH   7   9
ENDBRANCH   6   7
ENDBRANCH   2   6
TORSDOF 5
ENDMDL
MODEL       41
REMARK 921   NORMALIZED FREE ENERGY PREDICTED BY IDOCK:   -5.13 KCAL/MOL
REMARK 922        TOTAL FREE ENERGY PREDICTED BY IDOCK:   -7.65 KCAL/MOL
REMARK 923 INTER-LIGAND FREE ENERGY PREDICTED BY IDOCK:   -6.62 KCAL/MOL
REMARK 924 INTRA-LIGAND FREE ENERGY PREDICTED BY IDOCK:   -1.03 KCAL/MOL
REMARK 927      BINDING AFFINITY PREDICTED BY RF-SCORE:    0.00 PKD
ROOT
HETATM    1  N   UNL     1     -11.655  11.728  63.080  1.00  0.00    -0.815 N  
HETATM    2  C   UNL     1     -10.670  12.135  63.940  1.00  0.00    -0.407 C  
HETATM    3  H1  UNL     1     -12.380  12.374  62.771  1.00  0.00     0.000 HD 
HETATM    4  H2  UNL     1     -11.663  10.765  62.745  1.00  0.00     0.000 HD 
HETATM    5  O   UNL     1      -9.796  11.358  64.313  1.00  0.00    -0.239 OA 
ENDROOT
BRANCH   2   6
HETATM    6  C   UNL     1     -10.759  13.573  64.409  1.00  0.00    -0.388 C  
BRANCH   6   7
HETATM    7  S   UNL     1     -11.858  13.651  65.845  1.00  0.00    -0.402 S  
HETATM    8  O   UNL     1     -12.646  12.369  65.864  1.00  0.00    -0.475 OA 
BRANCH   7   9
HETATM    9  C   UNL     1     -10.591  13.560  67.198  1.00  0.00    -0.264 C  
BRANCH   9  10
HETATM   10  C   UNL     1     -10.171  14.935  67.700  1.00  0.00    -0.236 A  
HETATM   11  C   UNL     1      -8.914  15.113  68.307  1.00  0.00    -0.175 A  
HETATM   12  C   UNL     1     -11.011  16.054  67.569  1.00  0.00    -0.261 A  
HETATM   13  C   UNL     1      -8.504  16.374  68.751  1.00  0.00    -0.249 A  
HETATM   14  C   UNL     1      -9.347  17.472  68.607  1.00  0.00    -0.277 A  
HETATM   15  C   UNL     1     -10.600  17.311  68.020  1.00  0.00    -0.394 A  
ENDBRANCH   9  10
BRANCH   9  16
HETATM   16  C   UNL     1     -11.042  12.623  68.329  1.00  0.00    -0.295 A  
HETATM   17  C   UNL     1     -11.142  10.378  69.274  1.00  0.00    -0.303 A  
HETATM   18  C   UNL     1     -12.236  12.194  70.417  1.00  0.00    -0.378 A  
HETATM   19  C   UNL     1     -10.706  11.261  68.279  1.00  0.00    -0.231 A  
HETATM   20  C   UNL     1     -11.789  13.077  69.433  1.00  0.00    -0.380 A  
HETATM   21  C   UNL     1     -11.918  10.843  70.334  1.00  0.00    -0.453 A  
ENDBRANCH   9  16
ENDBRANCH   7   9
ENDBRANCH   6   7
ENDBRANCH   2   6
TORSDOF 5
ENDMDL
MODEL       42
REMARK 921   NORMALIZED FREE ENERGY PREDICTED BY IDOCK:   -5.12 KCAL/MOL
REMARK 922        TOTAL FREE ENERGY PREDICTED BY IDOCK:   -7.64 KCAL/MOL
REMARK 923 INTER-LIGAND FREE ENERGY PREDICTED BY IDOCK:   -6.69 KCAL/MOL
REMARK 924 INTRA-LIGAND FREE ENERGY PREDICTED BY IDOCK:   -0.94 KCAL/MOL
REMARK 927      BINDING AFFINITY PREDICTED BY RF-SCORE:    0.00 PKD
ROOT
HETATM    1  N   UNL     1     -11.826  11.466  63.033  1.00  0.00    -0.867 N  
HETATM    2  C   UNL     1     -10.572  11.474  63.581  1.00  0.00    -0.429 C  
HETATM    3  H1  UNL     1     -12.619  11.077  63.545  1.00  0.00     0.000 HD 
HETATM    4  H2  UNL     1     -11.972  11.855  62.102  1.00  0.00     0.000 HD 
HETATM    5  O   UNL     1      -9.618  11.943  62.966  1.00  0.00    -0.376 OA 
ENDROOT
BRANCH   2   6
HETATM    6  C   UNL     1     -10.448  10.846  64.954  1.00  0.00    -0.282 C  
BRANCH   6   7
HETATM    7  S   UNL     1     -11.077  12.012  66.187  1.00  0.00    -0.332 S  
HETATM    8  O   UNL     1     -12.414  12.495  65.692  1.00  0.00    -0.648 OA 
BRANCH   7   9
HETATM    9  C   UNL     1     -11.380  10.835  67.589  1.00  0.00    -0.252 C  
BRANCH   9  10
HETATM   10  C   UNL     1     -10.217   9.876  67.809  1.00  0.00    -0.241 A  
HETATM   11  C   UNL     1     -10.392   8.495  67.603  1.00  0.00    -0.317 A  
HETATM   12  C   UNL     1      -8.952  10.334  68.214  1.00  0.00    -0.132 A  
HETATM   13  C   UNL     1      -9.327   7.604  67.779  1.00  0.00    -0.153 A  
HETATM   14  C   UNL     1      -8.080   8.077  68.173  1.00  0.00    -0.129 A  
HETATM   15  C   UNL     1      -7.894   9.440  68.394  1.00  0.00    -0.090 A  
ENDBRANCH   9  10
BRANCH   9  16
HETATM   16  C   UNL     1     -11.793  11.578  68.867  1.00  0.00    -0.406 A  
HETATM   17  C   UNL     1     -12.701  11.509  71.129  1.00  0.00    -0.458 A  
HETATM   18  C   UNL     1     -12.142  13.633  70.142  1.00  0.00    -0.431 A  
HETATM   19  C   UNL     1     -12.277  10.852  69.969  1.00  0.00    -0.422 A  
HETATM   20  C   UNL     1     -11.705  12.978  68.990  1.00  0.00    -0.376 A  
HETATM   21  C   UNL     1     -12.646  12.900  71.210  1.00  0.00    -0.352 A  
ENDBRANCH   9  16
ENDBRANCH   7   9
ENDBRANCH   6   7
ENDBRANCH   2   6
TORSDOF 5
ENDMDL
MODEL       43
REMARK 921   NORMALIZED FREE ENERGY PREDICTED BY IDOCK:   -5.09 KCAL/MOL
REMARK 922        TOTAL FREE ENERGY PREDICTED BY IDOCK:   -7.60 KCAL/MOL
REMARK 923 INTER-LIGAND FREE ENERGY PREDICTED BY IDOCK:   -6.72 KCAL/MOL
REMARK 924 INTRA-LIGAND FREE ENERGY PREDICTED BY IDOCK:   -0.88 KCAL/MOL
REMARK 927      BINDING AFFINITY PREDICTED BY RF-SCORE:    0.00 PKD
ROOT
HETATM    1  N   UNL     1     -14.033  16.210  73.238  1.00  0.00    -0.684 N  
HETATM    2  C   UNL     1     -12.705  15.895  73.139  1.00  0.00    -0.524 C  
HETATM    3  H1  UNL     1     -14.599  16.364  72.403  1.00  0.00     0.000 HD 
HETATM    4  H2  UNL     1     -14.464  16.292  74.159  1.00  0.00     0.000 HD 
HETATM    5  O   UNL     1     -12.024  15.709  74.144  1.00  0.00    -0.437 OA 
ENDROOT
BRANCH   2   6
HETATM    6  C   UNL     1     -12.146  15.828  71.732  1.00  0.00    -0.464 C  
BRANCH   6   7
HETATM    7  S   UNL     1     -12.208  14.112  71.163  1.00  0.00    -0.326 S  
HETATM    8  O   UNL     1     -13.606  13.615  71.415  1.00  0.00    -0.262 OA 
BRANCH   7   9
HETATM    9  C   UNL     1     -12.024  14.394  69.337  1.00  0.00    -0.328 C  
BRANCH   9  10
HETATM   10  C   UNL     1     -10.989  15.462  69.012  1.00  0.00    -0.252 A  
HETATM   11  C   UNL     1      -9.632  15.247  69.316  1.00  0.00    -0.249 A  
HETATM   12  C   UNL     1     -11.350  16.675  68.402  1.00  0.00    -0.142 A  
HETATM   13  C   UNL     1      -8.666  16.209  69.001  1.00  0.00    -0.254 A  
HETATM   14  C   UNL     1      -9.042  17.402  68.391  1.00  0.00    -0.274 A  
HETATM   15  C   UNL     1     -10.383  17.636  68.096  1.00  0.00    -0.386 A  
ENDBRANCH   9  10
BRANCH   9  16
HETATM   16  C   UNL     1     -11.781  13.076  68.587  1.00  0.00    -0.359 A  
HETATM   17  C   UNL     1     -11.402  10.669  68.651  1.00  0.00    -0.345 A  
HETATM   18  C   UNL     1     -11.388  11.814  66.532  1.00  0.00    -0.370 A  
HETATM   19  C   UNL     1     -11.667  11.875  69.307  1.00  0.00    -0.389 A  
HETATM   20  C   UNL     1     -11.666  13.015  67.184  1.00  0.00    -0.439 A  
HETATM   21  C   UNL     1     -11.249  10.641  67.265  1.00  0.00    -0.237 A  
ENDBRANCH   9  16
ENDBRANCH   7   9
ENDBRANCH   6   7
ENDBRANCH   2   6
TORSDOF 5
ENDMDL
MODEL       44
REMARK 921   NORMALIZED FREE ENERGY PREDICTED BY IDOCK:   -5.08 KCAL/MOL
REMARK 922        TOTAL FREE ENERGY PREDICTED BY IDOCK:   -7.59 KCAL/MOL
REMARK 923 INTER-LIGAND FREE ENERGY PREDICTED BY IDOCK:   -6.76 KCAL/MOL
REMARK 924 INTRA-LIGAND FREE ENERGY PREDICTED BY IDOCK:   -0.83 KCAL/MOL
REMARK 927      BINDING AFFINITY PREDICTED BY RF-SCORE:    0.00 PKD
ROOT
HETATM    1  N   UNL     1      -8.670  18.581  68.074  1.00  0.00    -0.287 N  
HETATM    2  C   UNL     1      -7.973  17.582  68.700  1.00  0.00    -0.268 C  
HETATM    3  H1  UNL     1      -9.579  18.399  67.650  1.00  0.00     0.000 HD 
HETATM    4  H2  UNL     1      -8.273  19.520  68.031  1.00  0.00     0.000 HD 
HETATM    5  O   UNL     1      -6.878  17.801  69.210  1.00  0.00    -0.249 OA 
ENDROOT
BRANCH   2   6
HETATM    6  C   UNL     1      -8.626  16.215  68.685  1.00  0.00    -0.210 C  
BRANCH   6   7
HETATM    7  S   UNL     1     -10.377  16.401  69.106  1.00  0.00    -0.308 S  
HETATM    8  O   UNL     1     -11.065  16.954  67.887  1.00  0.00    -0.301 OA 
BRANCH   7   9
HETATM    9  C   UNL     1     -10.841  14.611  69.260  1.00  0.00    -0.258 C  
BRANCH   9  10
HETATM   10  C   UNL     1     -11.966  14.382  70.261  1.00  0.00    -0.388 A  
HETATM   11  C   UNL     1     -12.799  15.449  70.644  1.00  0.00    -0.484 A  
HETATM   12  C   UNL     1     -12.206  13.116  70.821  1.00  0.00    -0.375 A  
HETATM   13  C   UNL     1     -13.851  15.250  71.544  1.00  0.00    -0.617 A  
HETATM   14  C   UNL     1     -14.078  13.987  72.083  1.00  0.00    -0.641 A  
HETATM   15  C   UNL     1     -13.254  12.923  71.725  1.00  0.00    -0.479 A  
ENDBRANCH   9  10
BRANCH   9  16
HETATM   16  C   UNL     1     -11.125  13.984  67.887  1.00  0.00    -0.274 A  
HETATM   17  C   UNL     1     -10.383  12.598  66.024  1.00  0.00    -0.287 A  
HETATM   18  C   UNL     1     -12.532  13.678  65.913  1.00  0.00    -0.502 A  
HETATM   19  C   UNL     1     -10.167  13.146  67.293  1.00  0.00    -0.243 A  
HETATM   20  C   UNL     1     -12.324  14.213  67.184  1.00  0.00    -0.213 A  
HETATM   21  C   UNL     1     -11.559  12.875  65.329  1.00  0.00    -0.376 A  
ENDBRANCH   9  16
ENDBRANCH   7   9
ENDBRANCH   6   7
ENDBRANCH   2   6
TORSDOF 5
ENDMDL
MODEL       45
REMARK 921   NORMALIZED FREE ENERGY PREDICTED BY IDOCK:   -5.08 KCAL/MOL
REMARK 922        TOTAL FREE ENERGY PREDICTED BY IDOCK:   -7.59 KCAL/MOL
REMARK 923 INTER-LIGAND FREE ENERGY PREDICTED BY IDOCK:   -7.07 KCAL/MOL
REMARK 924 INTRA-LIGAND FREE ENERGY PREDICTED BY IDOCK:   -0.52 KCAL/MOL
REMARK 927      BINDING AFFINITY PREDICTED BY RF-SCORE:    0.00 PKD
ROOT
HETATM    1  N   UNL     1     -11.647  11.217  63.073  1.00  0.00    -0.808 N  
HETATM    2  C   UNL     1     -10.476  11.742  63.551  1.00  0.00    -0.449 C  
HETATM    3  H1  UNL     1     -12.493  11.218  63.643  1.00  0.00     0.000 HD 
HETATM    4  H2  UNL     1     -11.673  10.820  62.134  1.00  0.00     0.000 HD 
HETATM    5  O   UNL     1      -9.458  11.742  62.865  1.00  0.00    -0.364 OA 
ENDROOT
BRANCH   2   6
HETATM    6  C   UNL     1     -10.525  12.280  64.967  1.00  0.00    -0.290 C  
BRANCH   6   7
HETATM    7  S   UNL     1     -11.855  13.502  65.080  1.00  0.00    -0.374 S  
HETATM    8  O   UNL     1     -13.148  12.766  64.850  1.00  0.00    -0.833 OA 
BRANCH   7   9
HETATM    9  C   UNL     1     -11.743  13.903  66.888  1.00  0.00    -0.399 C  
BRANCH   9  10
HETATM   10  C   UNL     1     -11.107  12.781  67.698  1.00  0.00    -0.294 A  
HETATM   11  C   UNL     1     -11.910  11.772  68.259  1.00  0.00    -0.340 A  
HETATM   12  C   UNL     1      -9.718  12.718  67.904  1.00  0.00    -0.217 A  
HETATM   13  C   UNL     1     -11.339  10.722  68.986  1.00  0.00    -0.349 A  
HETATM   14  C   UNL     1      -9.961  10.671  69.173  1.00  0.00    -0.228 A  
HETATM   15  C   UNL     1      -9.152  11.670  68.635  1.00  0.00    -0.103 A  
ENDBRANCH   9  10
BRANCH   9  16
HETATM   16  C   UNL     1     -11.070  15.264  67.121  1.00  0.00    -0.323 A  
HETATM   17  C   UNL     1     -10.606  17.145  68.601  1.00  0.00    -0.352 A  
HETATM   18  C   UNL     1      -9.791  17.192  66.336  1.00  0.00    -0.312 A  
HETATM   19  C   UNL     1     -11.171  15.885  68.377  1.00  0.00    -0.368 A  
HETATM   20  C   UNL     1     -10.342  15.930  66.115  1.00  0.00    -0.341 A  
HETATM   21  C   UNL     1      -9.927  17.803  67.577  1.00  0.00    -0.324 A  
ENDBRANCH   9  16
ENDBRANCH   7   9
ENDBRANCH   6   7
ENDBRANCH   2   6
TORSDOF 5
ENDMDL
MODEL       46
REMARK 921   NORMALIZED FREE ENERGY PREDICTED BY IDOCK:   -5.05 KCAL/MOL
REMARK 922        TOTAL FREE ENERGY PREDICTED BY IDOCK:   -7.55 KCAL/MOL
REMARK 923 INTER-LIGAND FREE ENERGY PREDICTED BY IDOCK:   -6.71 KCAL/MOL
REMARK 924 INTRA-LIGAND FREE ENERGY PREDICTED BY IDOCK:   -0.84 KCAL/MOL
REMARK 927      BINDING AFFINITY PREDICTED BY RF-SCORE:    0.00 PKD
ROOT
HETATM    1  N   UNL     1     -11.545  10.229  71.034  1.00  0.00    -0.359 N  
HETATM    2  C   UNL     1     -12.424  11.273  71.134  1.00  0.00    -0.373 C  
HETATM    3  H1  UNL     1     -10.738  10.281  70.413  1.00  0.00     0.000 HD 
HETATM    4  H2  UNL     1     -11.699   9.387  71.589  1.00  0.00     0.000 HD 
HETATM    5  O   UNL     1     -13.396  11.210  71.882  1.00  0.00    -0.417 OA 
ENDROOT
BRANCH   2   6
HETATM    6  C   UNL     1     -12.132  12.468  70.249  1.00  0.00    -0.294 C  
BRANCH   6   7
HETATM    7  S   UNL     1     -11.308  11.890  68.744  1.00  0.00    -0.301 S  
HETATM    8  O   UNL     1     -12.106  10.723  68.228  1.00  0.00    -0.496 OA 
BRANCH   7   9
HETATM    9  C   UNL     1     -11.644  13.343  67.640  1.00  0.00    -0.340 C  
BRANCH   9  10
HETATM   10  C   UNL     1     -10.823  14.569  68.020  1.00  0.00    -0.249 A  
HETATM   11  C   UNL     1     -11.455  15.701  68.566  1.00  0.00    -0.380 A  
HETATM   12  C   UNL     1      -9.429  14.604  67.844  1.00  0.00    -0.210 A  
HETATM   13  C   UNL     1     -10.712  16.825  68.942  1.00  0.00    -0.333 A  
HETATM   14  C   UNL     1      -9.331  16.840  68.766  1.00  0.00    -0.254 A  
HETATM   15  C   UNL     1      -8.692  15.732  68.214  1.00  0.00    -0.172 A  
ENDBRANCH   9  10
BRANCH   9  16
HETATM   16  C   UNL     1     -11.505  12.967  66.158  1.00  0.00    -0.393 A  
HETATM   17  C   UNL     1     -12.366  13.078  63.880  1.00  0.00    -0.453 A  
HETATM   18  C   UNL     1     -10.391  11.778  64.337  1.00  0.00    -0.353 A  
HETATM   19  C   UNL     1     -12.444  13.443  65.228  1.00  0.00    -0.532 A  
HETATM   20  C   UNL     1     -10.460  12.152  65.679  1.00  0.00    -0.290 A  
HETATM   21  C   UNL     1     -11.348  12.235  63.437  1.00  0.00    -0.508 A  
ENDBRANCH   9  16
ENDBRANCH   7   9
ENDBRANCH   6   7
ENDBRANCH   2   6
TORSDOF 5
ENDMDL
MODEL       47
REMARK 921   NORMALIZED FREE ENERGY PREDICTED BY IDOCK:   -5.04 KCAL/MOL
REMARK 922        TOTAL FREE ENERGY PREDICTED BY IDOCK:   -7.54 KCAL/MOL
REMARK 923 INTER-LIGAND FREE ENERGY PREDICTED BY IDOCK:   -6.47 KCAL/MOL
REMARK 924 INTRA-LIGAND FREE ENERGY PREDICTED BY IDOCK:   -1.07 KCAL/MOL
REMARK 927      BINDING AFFINITY PREDICTED BY RF-SCORE:    0.00 PKD
ROOT
HETATM    1  N   UNL     1     -12.080  11.497  62.964  1.00  0.00    -0.920 N  
HETATM    2  C   UNL     1     -11.040  11.569  63.852  1.00  0.00    -0.380 C  
HETATM    3  H1  UNL     1     -12.419  12.332  62.486  1.00  0.00     0.000 HD 
HETATM    4  H2  UNL     1     -12.522  10.597  62.778  1.00  0.00     0.000 HD 
HETATM    5  O   UNL     1     -10.632  10.564  64.428  1.00  0.00    -0.235 OA 
ENDROOT
BRANCH   2   6
HETATM    6  C   UNL     1     -10.469  12.952  64.087  1.00  0.00    -0.406 C  
BRANCH   6   7
HETATM    7  S   UNL     1     -11.475  13.793  65.335  1.00  0.00    -0.320 S  
HETATM    8  O   UNL     1     -12.617  12.873  65.671  1.00  0.00    -0.555 OA 
BRANCH   7   9
HETATM    9  C   UNL     1     -10.281  13.763  66.755  1.00  0.00    -0.268 C  
BRANCH   9  10
HETATM   10  C   UNL     1      -9.556  15.089  66.939  1.00  0.00    -0.251 A  
HETATM   11  C   UNL     1      -9.991  16.234  66.246  1.00  0.00    -0.335 A  
HETATM   12  C   UNL     1      -8.450  15.211  67.797  1.00  0.00    -0.156 A  
HETATM   13  C   UNL     1      -9.350  17.465  66.422  1.00  0.00    -0.272 A  
HETATM   14  C   UNL     1      -8.260  17.568  67.282  1.00  0.00    -0.222 A  
HETATM   15  C   UNL     1      -7.809  16.441  67.965  1.00  0.00    -0.159 A  
ENDBRANCH   9  10
BRANCH   9  16
HETATM   16  C   UNL     1     -10.952  13.264  68.043  1.00  0.00    -0.266 A  
HETATM   17  C   UNL     1     -11.467  11.426  69.560  1.00  0.00    -0.381 A  
HETATM   18  C   UNL     1     -12.346  13.621  70.018  1.00  0.00    -0.342 A  
HETATM   19  C   UNL     1     -10.828  11.915  68.415  1.00  0.00    -0.263 A  
HETATM   20  C   UNL     1     -11.698  14.113  68.884  1.00  0.00    -0.369 A  
HETATM   21  C   UNL     1     -12.236  12.276  70.353  1.00  0.00    -0.371 A  
ENDBRANCH   9  16
ENDBRANCH   7   9
ENDBRANCH   6   7
ENDBRANCH   2   6
TORSDOF 5
ENDMDL
MODEL       48
REMARK 921   NORMALIZED FREE ENERGY PREDICTED BY IDOCK:   -5.02 KCAL/MOL
REMARK 922        TOTAL FREE ENERGY PREDICTED BY IDOCK:   -7.51 KCAL/MOL
REMARK 923 INTER-LIGAND FREE ENERGY PREDICTED BY IDOCK:   -7.08 KCAL/MOL
REMARK 924 INTRA-LIGAND FREE ENERGY PREDICTED BY IDOCK:   -0.43 KCAL/MOL
REMARK 927      BINDING AFFINITY PREDICTED BY RF-SCORE:    0.00 PKD
ROOT
HETATM    1  N   UNL     1      -7.220  14.521  69.840  1.00  0.00    -0.385 N  
HETATM    2  C   UNL     1      -7.458  15.725  69.232  1.00  0.00    -0.220 C  
HETATM    3  H1  UNL     1      -7.775  13.698  69.607  1.00  0.00     0.000 HD 
HETATM    4  H2  UNL     1      -6.477  14.447  70.535  1.00  0.00     0.000 HD 
HETATM    5  O   UNL     1      -6.790  16.716  69.512  1.00  0.00    -0.231 OA 
ENDROOT
BRANCH   2   6
HETATM    6  C   UNL     1      -8.601  15.745  68.238  1.00  0.00    -0.170 C  
BRANCH   6   7
HETATM    7  S   UNL     1     -10.131  16.145  69.117  1.00  0.00    -0.268 S  
HETATM    8  O   UNL     1     -11.008  16.897  68.153  1.00  0.00    -0.365 OA 
BRANCH   7   9
HETATM    9  C   UNL     1     -10.827  14.434  69.304  1.00  0.00    -0.239 C  
BRANCH   9  10
HETATM   10  C   UNL     1     -11.974  14.375  70.304  1.00  0.00    -0.388 A  
HETATM   11  C   UNL     1     -12.409  13.135  70.808  1.00  0.00    -0.404 A  
HETATM   12  C   UNL     1     -12.622  15.539  70.750  1.00  0.00    -0.505 A  
HETATM   13  C   UNL     1     -13.446  13.066  71.744  1.00  0.00    -0.401 A  
HETATM   14  C   UNL     1     -14.071  14.231  72.180  1.00  0.00    -0.634 A  
HETATM   15  C   UNL     1     -13.661  15.465  71.681  1.00  0.00    -0.606 A  
ENDBRANCH   9  10
BRANCH   9  16
HETATM   16  C   UNL     1     -11.187  13.822  67.943  1.00  0.00    -0.299 A  
HETATM   17  C   UNL     1     -12.528  13.884  65.908  1.00  0.00    -0.519 A  
HETATM   18  C   UNL     1     -10.971  12.079  66.245  1.00  0.00    -0.340 A  
HETATM   19  C   UNL     1     -12.150  14.445  67.132  1.00  0.00    -0.367 A  
HETATM   20  C   UNL     1     -10.583  12.645  67.459  1.00  0.00    -0.236 A  
HETATM   21  C   UNL     1     -11.948  12.694  65.471  1.00  0.00    -0.509 A  
ENDBRANCH   9  16
ENDBRANCH   7   9
ENDBRANCH   6   7
ENDBRANCH   2   6
TORSDOF 5
ENDMDL
MODEL       49
REMARK 921   NORMALIZED FREE ENERGY PREDICTED BY IDOCK:   -5.01 KCAL/MOL
REMARK 922        TOTAL FREE ENERGY PREDICTED BY IDOCK:   -7.50 KCAL/MOL
REMARK 923 INTER-LIGAND FREE ENERGY PREDICTED BY IDOCK:   -6.85 KCAL/MOL
REMARK 924 INTRA-LIGAND FREE ENERGY PREDICTED BY IDOCK:   -0.65 KCAL/MOL
REMARK 927      BINDING AFFINITY PREDICTED BY RF-SCORE:    0.00 PKD
ROOT
HETATM    1  N   UNL     1     -10.873   8.219  67.768  1.00  0.00    -0.493 N  
HETATM    2  C   UNL     1     -10.038   9.298  67.651  1.00  0.00    -0.214 C  
HETATM    3  H1  UNL     1     -11.885   8.332  67.717  1.00  0.00     0.000 HD 
HETATM    4  H2  UNL     1     -10.476   7.289  67.909  1.00  0.00     0.000 HD 
HETATM    5  O   UNL     1      -8.820   9.163  67.712  1.00  0.00    -0.124 OA 
ENDROOT
BRANCH   2   6
HETATM    6  C   UNL     1     -10.718  10.641  67.476  1.00  0.00    -0.272 C  
BRANCH   6   7
HETATM    7  S   UNL     1     -11.685  11.001  68.963  1.00  0.00    -0.328 S  
HETATM    8  O   UNL     1     -11.030  10.266  70.101  1.00  0.00    -0.278 OA 
BRANCH   7   9
HETATM    9  C   UNL     1     -11.291  12.805  69.149  1.00  0.00    -0.281 C  
BRANCH   9  10
HETATM   10  C   UNL     1     -11.289  13.544  67.817  1.00  0.00    -0.327 A  
HETATM   11  C   UNL     1     -12.368  13.396  66.925  1.00  0.00    -0.262 A  
HETATM   12  C   UNL     1     -10.228  14.386  67.444  1.00  0.00    -0.247 A  
HETATM   13  C   UNL     1     -12.392  14.086  65.708  1.00  0.00    -0.506 A  
HETATM   14  C   UNL     1     -11.336  14.922  65.359  1.00  0.00    -0.346 A  
HETATM   15  C   UNL     1     -10.254  15.068  66.224  1.00  0.00    -0.306 A  
ENDBRANCH   9  10
BRANCH   9  16
HETATM   16  C   UNL     1     -12.189  13.472  70.201  1.00  0.00    -0.400 A  
HETATM   17  C   UNL     1     -13.126  15.502  71.171  1.00  0.00    -0.573 A  
HETATM   18  C   UNL     1     -13.636  13.370  72.167  1.00  0.00    -0.660 A  
HETATM   19  C   UNL     1     -12.349  14.867  70.196  1.00  0.00    -0.376 A  
HETATM   20  C   UNL     1     -12.873  12.734  71.187  1.00  0.00    -0.315 A  
HETATM   21  C   UNL     1     -13.758  14.755  72.164  1.00  0.00    -0.543 A  
ENDBRANCH   9  16
ENDBRANCH   7   9
ENDBRANCH   6   7
ENDBRANCH   2   6
TORSDOF 5
ENDMDL
MODEL       50
REMARK 921   NORMALIZED FREE ENERGY PREDICTED BY IDOCK:   -5.00 KCAL/MOL
REMARK 922        TOTAL FREE ENERGY PREDICTED BY IDOCK:   -7.49 KCAL/MOL
REMARK 923 INTER-LIGAND FREE ENERGY PREDICTED BY IDOCK:   -6.63 KCAL/MOL
REMARK 924 INTRA-LIGAND FREE ENERGY PREDICTED BY IDOCK:   -0.86 KCAL/MOL
REMARK 927      BINDING AFFINITY PREDICTED BY RF-SCORE:    0.00 PKD
ROOT
HETATM    1  N   UNL     1     -11.456   6.836  67.450  1.00  0.00    -0.716 N  
HETATM    2  C   UNL     1     -10.172   7.306  67.399  1.00  0.00    -0.236 C  
HETATM    3  H1  UNL     1     -12.042   6.998  68.269  1.00  0.00     0.000 HD 
HETATM    4  H2  UNL     1     -11.834   6.316  66.657  1.00  0.00     0.000 HD 
HETATM    5  O   UNL     1      -9.467   7.110  66.413  1.00  0.00    -0.173 OA 
ENDROOT
BRANCH   2   6
HETATM    6  C   UNL     1      -9.689   8.037  68.635  1.00  0.00    -0.159 C  
BRANCH   6   7
HETATM    7  S   UNL     1     -10.301   9.739  68.581  1.00  0.00    -0.209 S  
HETATM    8  O   UNL     1     -10.942   9.932  67.233  1.00  0.00    -0.251 OA 
BRANCH   7   9
HETATM    9  C   UNL     1     -11.656   9.612  69.843  1.00  0.00    -0.030 C  
BRANCH   9  10
HETATM   10  C   UNL     1     -11.313   8.651  70.974  1.00  0.00    -0.322 A  
HETATM   11  C   UNL     1     -12.049   7.463  71.140  1.00  0.00    -0.357 A  
HETATM   12  C   UNL     1     -10.264   8.915  71.871  1.00  0.00    -0.403 A  
HETATM   13  C   UNL     1     -11.731   6.560  72.159  1.00  0.00    -0.353 A  
HETATM   14  C   UNL     1     -10.685   6.834  73.034  1.00  0.00    -0.315 A  
HETATM   15  C   UNL     1      -9.955   8.012  72.892  1.00  0.00    -0.360 A  
ENDBRANCH   9  10
BRANCH   9  16
HETATM   16  C   UNL     1     -12.088  10.997  70.345  1.00  0.00    -0.463 A  
HETATM   17  C   UNL     1     -12.027  13.423  70.111  1.00  0.00    -0.396 A  
HETATM   18  C   UNL     1     -13.219  12.442  71.959  1.00  0.00    -0.514 A  
HETATM   19  C   UNL     1     -11.684  12.148  69.649  1.00  0.00    -0.396 A  
HETATM   20  C   UNL     1     -12.888  11.170  71.492  1.00  0.00    -0.542 A  
HETATM   21  C   UNL     1     -12.783  13.570  71.273  1.00  0.00    -0.432 A  
ENDBRANCH   9  16
ENDBRANCH   7   9
ENDBRANCH   6   7
ENDBRANCH   2   6
TORSDOF 5
ENDMDL
MODEL       51
REMARK 921   NORMALIZED FREE ENERGY PREDICTED BY IDOCK:   -5.00 KCAL/MOL
REMARK 922        TOTAL FREE ENERGY PREDICTED BY IDOCK:   -7.49 KCAL/MOL
REMARK 923 INTER-LIGAND FREE ENERGY PREDICTED BY IDOCK:   -6.99 KCAL/MOL
REMARK 924 INTRA-LIGAND FREE ENERGY PREDICTED BY IDOCK:   -0.50 KCAL/MOL
REMARK 927      BINDING AFFINITY PREDICTED BY RF-SCORE:    0.00 PKD
ROOT
HETATM    1  N   UNL     1     -11.813  16.328  71.077  1.00  0.00    -0.590 N  
HETATM    2  C   UNL     1     -12.810  15.392  71.004  1.00  0.00    -0.463 C  
HETATM    3  H1  UNL     1     -10.894  16.147  70.673  1.00  0.00     0.000 HD 
HETATM    4  H2  UNL     1     -11.992  17.219  71.541  1.00  0.00     0.000 HD 
HETATM    5  O   UNL     1     -13.916  15.610  71.490  1.00  0.00    -0.503 OA 
ENDROOT
BRANCH   2   6
HETATM    6  C   UNL     1     -12.442  14.089  70.325  1.00  0.00    -0.338 C  
BRANCH   6   7
HETATM    7  S   UNL     1     -11.762  14.456  68.689  1.00  0.00    -0.335 S  
HETATM    8  O   UNL     1     -10.300  14.757  68.878  1.00  0.00    -0.231 OA 
BRANCH   7   9
HETATM    9  C   UNL     1     -11.903  12.773  67.920  1.00  0.00    -0.339 C  
BRANCH   9  10
HETATM   10  C   UNL     1     -11.866  12.820  66.398  1.00  0.00    -0.472 A  
HETATM   11  C   UNL     1     -12.307  13.969  65.715  1.00  0.00    -0.506 A  
HETATM   12  C   UNL     1     -11.394  11.736  65.639  1.00  0.00    -0.293 A  
HETATM   13  C   UNL     1     -12.258  14.036  64.319  1.00  0.00    -0.453 A  
HETATM   14  C   UNL     1     -11.780  12.955  63.585  1.00  0.00    -0.572 A  
HETATM   15  C   UNL     1     -11.352  11.805  64.244  1.00  0.00    -0.400 A  
ENDBRANCH   9  10
BRANCH   9  16
HETATM   16  C   UNL     1     -10.877  11.797  68.513  1.00  0.00    -0.261 A  
HETATM   17  C   UNL     1     -10.381   9.918  69.985  1.00  0.00    -0.320 A  
HETATM   18  C   UNL     1      -8.585  11.000  68.802  1.00  0.00    -0.144 A  
HETATM   19  C   UNL     1     -11.302  10.791  69.396  1.00  0.00    -0.351 A  
HETATM   20  C   UNL     1      -9.504  11.863  68.204  1.00  0.00    -0.195 A  
HETATM   21  C   UNL     1      -9.022  10.031  69.698  1.00  0.00    -0.221 A  
ENDBRANCH   9  16
ENDBRANCH   7   9
ENDBRANCH   6   7
ENDBRANCH   2   6
TORSDOF 5
ENDMDL
MODEL       52
REMARK 921   NORMALIZED FREE ENERGY PREDICTED BY IDOCK:   -5.00 KCAL/MOL
REMARK 922        TOTAL FREE ENERGY PREDICTED BY IDOCK:   -7.48 KCAL/MOL
REMARK 923 INTER-LIGAND FREE ENERGY PREDICTED BY IDOCK:   -6.74 KCAL/MOL
REMARK 924 INTRA-LIGAND FREE ENERGY PREDICTED BY IDOCK:   -0.75 KCAL/MOL
REMARK 927      BINDING AFFINITY PREDICTED BY RF-SCORE:    0.00 PKD
ROOT
HETATM    1  N   UNL     1     -11.719   8.155  70.330  1.00  0.00    -0.474 N  
HETATM    2  C   UNL     1     -11.100   9.263  70.843  1.00  0.00    -0.306 C  
HETATM    3  H1  UNL     1     -12.381   8.235  69.559  1.00  0.00     0.000 HD 
HETATM    4  H2  UNL     1     -11.514   7.236  70.725  1.00  0.00     0.000 HD 
HETATM    5  O   UNL     1     -10.302   9.167  71.771  1.00  0.00    -0.344 OA 
ENDROOT
BRANCH   2   6
HETATM    6  C   UNL     1     -11.490  10.586  70.215  1.00  0.00    -0.333 C  
BRANCH   6   7
HETATM    7  S   UNL     1     -10.693  10.718  68.595  1.00  0.00    -0.227 S  
HETATM    8  O   UNL     1     -11.107   9.507  67.802  1.00  0.00    -0.186 OA 
BRANCH   7   9
HETATM    9  C   UNL     1     -11.618  12.181  67.924  1.00  0.00    -0.347 C  
BRANCH   9  10
HETATM   10  C   UNL     1     -11.293  13.470  68.668  1.00  0.00    -0.323 A  
HETATM   11  C   UNL     1     -10.073  14.131  68.436  1.00  0.00    -0.238 A  
HETATM   12  C   UNL     1     -12.191  14.032  69.591  1.00  0.00    -0.383 A  
HETATM   13  C   UNL     1      -9.770  15.328  69.094  1.00  0.00    -0.243 A  
HETATM   14  C   UNL     1     -10.674  15.874  70.000  1.00  0.00    -0.343 A  
HETATM   15  C   UNL     1     -11.881  15.225  70.250  1.00  0.00    -0.353 A  
ENDBRANCH   9  10
BRANCH   9  16
HETATM   16  C   UNL     1     -11.443  12.307  66.404  1.00  0.00    -0.434 A  
HETATM   17  C   UNL     1     -12.212  13.213  64.275  1.00  0.00    -0.463 A  
HETATM   18  C   UNL     1     -10.320  11.724  64.313  1.00  0.00    -0.359 A  
HETATM   19  C   UNL     1     -12.323  13.116  65.666  1.00  0.00    -0.519 A  
HETATM   20  C   UNL     1     -10.420  11.638  65.702  1.00  0.00    -0.314 A  
HETATM   21  C   UNL     1     -11.219  12.506  63.598  1.00  0.00    -0.545 A  
ENDBRANCH   9  16
ENDBRANCH   7   9
ENDBRANCH   6   7
ENDBRANCH   2   6
TORSDOF 5
ENDMDL
MODEL       53
REMARK 921   NORMALIZED FREE ENERGY PREDICTED BY IDOCK:   -4.97 KCAL/MOL
REMARK 922        TOTAL FREE ENERGY PREDICTED BY IDOCK:   -7.45 KCAL/MOL
REMARK 923 INTER-LIGAND FREE ENERGY PREDICTED BY IDOCK:   -6.56 KCAL/MOL
REMARK 924 INTRA-LIGAND FREE ENERGY PREDICTED BY IDOCK:   -0.89 KCAL/MOL
REMARK 927      BINDING AFFINITY PREDICTED BY RF-SCORE:    0.00 PKD
ROOT
HETATM    1  N   UNL     1     -10.985  11.119  70.038  1.00  0.00    -0.471 N  
HETATM    2  C   UNL     1     -11.724  11.756  69.077  1.00  0.00    -0.328 C  
HETATM    3  H1  UNL     1     -10.603  11.633  70.832  1.00  0.00     0.000 HD 
HETATM    4  H2  UNL     1     -10.815  10.116  69.960  1.00  0.00     0.000 HD 
HETATM    5  O   UNL     1     -12.184  11.136  68.122  1.00  0.00    -0.612 OA 
ENDROOT
BRANCH   2   6
HETATM    6  C   UNL     1     -11.897  13.249  69.262  1.00  0.00    -0.331 C  
BRANCH   6   7
HETATM    7  S   UNL     1     -10.347  14.074  68.824  1.00  0.00    -0.186 S  
HETATM    8  O   UNL     1      -9.427  13.017  68.274  1.00  0.00    -0.217 OA 
BRANCH   7   9
HETATM    9  C   UNL     1     -10.945  15.104  67.401  1.00  0.00    -0.314 C  
BRANCH   9  10
HETATM   10  C   UNL     1     -10.041  16.297  67.121  1.00  0.00    -0.268 A  
HETATM   11  C   UNL     1     -10.590  17.508  66.661  1.00  0.00    -0.198 A  
HETATM   12  C   UNL     1      -8.651  16.228  67.315  1.00  0.00    -0.199 A  
HETATM   13  C   UNL     1      -9.776  18.620  66.421  1.00  0.00    -0.363 A  
HETATM   14  C   UNL     1      -8.402  18.535  66.626  1.00  0.00    -0.285 A  
HETATM   15  C   UNL     1      -7.840  17.339  67.068  1.00  0.00    -0.243 A  
ENDBRANCH   9  10
BRANCH   9  16
HETATM   16  C   UNL     1     -11.205  14.245  66.155  1.00  0.00    -0.331 A  
HETATM   17  C   UNL     1     -12.770  13.010  64.752  1.00  0.00    -0.409 A  
HETATM   18  C   UNL     1     -10.429  13.020  64.188  1.00  0.00    -0.395 A  
HETATM   19  C   UNL     1     -12.513  13.830  65.856  1.00  0.00    -0.512 A  
HETATM   20  C   UNL     1     -10.174  13.849  65.281  1.00  0.00    -0.366 A  
HETATM   21  C   UNL     1     -11.726  12.594  63.927  1.00  0.00    -0.532 A  
ENDBRANCH   9  16
ENDBRANCH   7   9
ENDBRANCH   6   7
ENDBRANCH   2   6
TORSDOF 5
ENDMDL
MODEL       54
REMARK 921   NORMALIZED FREE ENERGY PREDICTED BY IDOCK:   -4.96 KCAL/MOL
REMARK 922        TOTAL FREE ENERGY PREDICTED BY IDOCK:   -7.43 KCAL/MOL
REMARK 923 INTER-LIGAND FREE ENERGY PREDICTED BY IDOCK:   -6.52 KCAL/MOL
REMARK 924 INTRA-LIGAND FREE ENERGY PREDICTED BY IDOCK:   -0.91 KCAL/MOL
REMARK 927      BINDING AFFINITY PREDICTED BY RF-SCORE:    0.00 PKD
ROOT
HETATM    1  N   UNL     1     -12.007  12.171  70.697  1.00  0.00    -0.493 N  
HETATM    2  C   UNL     1     -12.206  13.492  70.397  1.00  0.00    -0.356 C  
HETATM    3  H1  UNL     1     -11.665  11.519  69.991  1.00  0.00     0.000 HD 
HETATM    4  H2  UNL     1     -12.202  11.834  71.640  1.00  0.00     0.000 HD 
HETATM    5  O   UNL     1     -12.617  14.277  71.246  1.00  0.00    -0.322 OA 
ENDROOT
BRANCH   2   6
HETATM    6  C   UNL     1     -11.919  13.892  68.964  1.00  0.00    -0.364 C  
BRANCH   6   7
HETATM    7  S   UNL     1     -11.176  12.483  68.104  1.00  0.00    -0.291 S  
HETATM    8  O   UNL     1     -12.243  11.429  67.985  1.00  0.00    -0.607 OA 
BRANCH   7   9
HETATM    9  C   UNL     1     -10.939  13.245  66.428  1.00  0.00    -0.289 C  
BRANCH   9  10
HETATM   10  C   UNL     1     -10.077  14.499  66.472  1.00  0.00    -0.280 A  
HETATM   11  C   UNL     1     -10.587  15.725  66.007  1.00  0.00    -0.334 A  
HETATM   12  C   UNL     1      -8.765  14.473  66.975  1.00  0.00    -0.256 A  
HETATM   13  C   UNL     1      -9.816  16.891  66.062  1.00  0.00    -0.281 A  
HETATM   14  C   UNL     1      -8.521  16.847  66.571  1.00  0.00    -0.307 A  
HETATM   15  C   UNL     1      -7.995  15.639  67.023  1.00  0.00    -0.268 A  
ENDBRANCH   9  10
BRANCH   9  16
HETATM   16  C   UNL     1     -10.441  12.212  65.406  1.00  0.00    -0.305 A  
HETATM   17  C   UNL     1      -9.299  10.109  64.941  1.00  0.00    -0.310 A  
HETATM   18  C   UNL     1     -10.088  11.458  63.109  1.00  0.00    -0.390 A  
HETATM   19  C   UNL     1      -9.801  11.044  65.853  1.00  0.00    -0.278 A  
HETATM   20  C   UNL     1     -10.601  12.384  64.017  1.00  0.00    -0.444 A  
HETATM   21  C   UNL     1      -9.431  10.323  63.570  1.00  0.00    -0.345 A  
ENDBRANCH   9  16
ENDBRANCH   7   9
ENDBRANCH   6   7
ENDBRANCH   2   6
TORSDOF 5
ENDMDL
MODEL       55
REMARK 921   NORMALIZED FREE ENERGY PREDICTED BY IDOCK:   -4.95 KCAL/MOL
REMARK 922        TOTAL FREE ENERGY PREDICTED BY IDOCK:   -7.43 KCAL/MOL
REMARK 923 INTER-LIGAND FREE ENERGY PREDICTED BY IDOCK:   -7.16 KCAL/MOL
REMARK 924 INTRA-LIGAND FREE ENERGY PREDICTED BY IDOCK:   -0.27 KCAL/MOL
REMARK 927      BINDING AFFINITY PREDICTED BY RF-SCORE:    0.00 PKD
ROOT
HETATM    1  N   UNL     1     -13.866  15.389  70.819  1.00  0.00    -0.860 N  
HETATM    2  C   UNL     1     -12.528  15.220  70.585  1.00  0.00    -0.406 C  
HETATM    3  H1  UNL     1     -14.550  15.243  70.077  1.00  0.00     0.000 HD 
HETATM    4  H2  UNL     1     -14.184  15.664  71.748  1.00  0.00     0.000 HD 
HETATM    5  O   UNL     1     -11.704  15.395  71.478  1.00  0.00    -0.330 OA 
ENDROOT
BRANCH   2   6
HETATM    6  C   UNL     1     -12.150  14.842  69.167  1.00  0.00    -0.243 C  
BRANCH   6   7
HETATM    7  S   UNL     1     -11.345  13.221  69.192  1.00  0.00    -0.271 S  
HETATM    8  O   UNL     1     -12.095  12.373  70.183  1.00  0.00    -0.335 OA 
BRANCH   7   9
HETATM    9  C   UNL     1     -11.792  12.637  67.488  1.00  0.00    -0.334 C  
BRANCH   9  10
HETATM   10  C   UNL     1     -11.592  13.713  66.429  1.00  0.00    -0.375 A  
HETATM   11  C   UNL     1     -12.550  13.893  65.414  1.00  0.00    -0.538 A  
HETATM   12  C   UNL     1     -10.462  14.549  66.434  1.00  0.00    -0.295 A  
HETATM   13  C   UNL     1     -12.391  14.892  64.448  1.00  0.00    -0.342 A  
HETATM   14  C   UNL     1     -11.269  15.716  64.474  1.00  0.00    -0.337 A  
HETATM   15  C   UNL     1     -10.305  15.542  65.463  1.00  0.00    -0.419 A  
ENDBRANCH   9  10
BRANCH   9  16
HETATM   16  C   UNL     1     -11.086  11.318  67.142  1.00  0.00    -0.364 A  
HETATM   17  C   UNL     1      -9.909   9.936  65.515  1.00  0.00    -0.381 A  
HETATM   18  C   UNL     1     -10.381   9.046  67.702  1.00  0.00    -0.317 A  
HETATM   19  C   UNL     1     -10.519  11.145  65.869  1.00  0.00    -0.310 A  
HETATM   20  C   UNL     1     -10.977  10.255  68.061  1.00  0.00    -0.345 A  
HETATM   21  C   UNL     1      -9.852   8.883  66.426  1.00  0.00    -0.353 A  
ENDBRANCH   9  16
ENDBRANCH   7   9
ENDBRANCH   6   7
ENDBRANCH   2   6
TORSDOF 5
ENDMDL
MODEL       56
REMARK 921   NORMALIZED FREE ENERGY PREDICTED BY IDOCK:   -4.94 KCAL/MOL
REMARK 922        TOTAL FREE ENERGY PREDICTED BY IDOCK:   -7.41 KCAL/MOL
REMARK 923 INTER-LIGAND FREE ENERGY PREDICTED BY IDOCK:   -6.74 KCAL/MOL
REMARK 924 INTRA-LIGAND FREE ENERGY PREDICTED BY IDOCK:   -0.66 KCAL/MOL
REMARK 927      BINDING AFFINITY PREDICTED BY RF-SCORE:    0.00 PKD
ROOT
HETATM    1  N   UNL     1     -12.501  14.706  63.719  1.00  0.00    -1.068 N  
HETATM    2  C   UNL     1     -11.535  15.574  64.154  1.00  0.00    -0.053 C  
HETATM    3  H1  UNL     1     -12.418  13.703  63.887  1.00  0.00     0.000 HD 
HETATM    4  H2  UNL     1     -13.314  15.068  63.220  1.00  0.00     0.000 HD 
HETATM    5  O   UNL     1     -11.634  16.781  63.953  1.00  0.00    -1.122 OA 
ENDROOT
BRANCH   2   6
HETATM    6  C   UNL     1     -10.350  14.942  64.856  1.00  0.00    -0.313 C  
BRANCH   6   7
HETATM    7  S   UNL     1     -10.736  14.779  66.617  1.00  0.00    -0.315 S  
HETATM    8  O   UNL     1     -11.902  15.687  66.897  1.00  0.00     0.179 OA 
BRANCH   7   9
HETATM    9  C   UNL     1     -11.360  13.031  66.628  1.00  0.00    -0.325 C  
BRANCH   9  10
HETATM   10  C   UNL     1     -10.423  12.070  65.907  1.00  0.00    -0.290 A  
HETATM   11  C   UNL     1     -10.865  11.376  64.765  1.00  0.00    -0.339 A  
HETATM   12  C   UNL     1      -9.107  11.855  66.349  1.00  0.00    -0.208 A  
HETATM   13  C   UNL     1     -10.009  10.508  64.079  1.00  0.00    -0.363 A  
HETATM   14  C   UNL     1      -8.707  10.313  64.528  1.00  0.00    -0.205 A  
HETATM   15  C   UNL     1      -8.258  10.982  65.664  1.00  0.00    -0.026 A  
ENDBRANCH   9  10
BRANCH   9  16
HETATM   16  C   UNL     1     -11.712  12.569  68.049  1.00  0.00    -0.410 A  
HETATM   17  C   UNL     1     -12.144  13.120  70.384  1.00  0.00    -0.392 A  
HETATM   18  C   UNL     1     -12.155  10.814  69.691  1.00  0.00    -0.361 A  
HETATM   19  C   UNL     1     -11.867  13.519  69.072  1.00  0.00    -0.385 A  
HETATM   20  C   UNL     1     -11.893  11.211  68.380  1.00  0.00    -0.302 A  
HETATM   21  C   UNL     1     -12.274  11.768  70.696  1.00  0.00    -0.443 A  
ENDBRANCH   9  16
ENDBRANCH   7   9
ENDBRANCH   6   7
ENDBRANCH   2   6
TORSDOF 5
ENDMDL
MODEL       57
REMARK 921   NORMALIZED FREE ENERGY PREDICTED BY IDOCK:   -4.92 KCAL/MOL
REMARK 922        TOTAL FREE ENERGY PREDICTED BY IDOCK:   -7.38 KCAL/MOL
REMARK 923 INTER-LIGAND FREE ENERGY PREDICTED BY IDOCK:   -6.79 KCAL/MOL
REMARK 924 INTRA-LIGAND FREE ENERGY PREDICTED BY IDOCK:   -0.59 KCAL/MOL
REMARK 927      BINDING AFFINITY PREDICTED BY RF-SCORE:    0.00 PKD
ROOT
HETATM    1  N   UNL     1     -11.864  12.873  63.236  1.00  0.00    -0.802 N  
HETATM    2  C   UNL     1     -11.964  13.909  64.125  1.00  0.00    -0.428 C  
HETATM    3  H1  UNL     1     -11.248  12.082  63.420  1.00  0.00     0.000 HD 
HETATM    4  H2  UNL     1     -12.413  12.893  62.376  1.00  0.00     0.000 HD 
HETATM    5  O   UNL     1     -12.706  14.862  63.903  1.00  0.00    -0.789 OA 
ENDROOT
BRANCH   2   6
HETATM    6  C   UNL     1     -11.087  13.807  65.356  1.00  0.00    -0.302 C  
BRANCH   6   7
HETATM    7  S   UNL     1     -11.614  12.376  66.330  1.00  0.00    -0.374 S  
HETATM    8  O   UNL     1     -11.075  11.152  65.640  1.00  0.00    -0.150 OA 
BRANCH   7   9
HETATM    9  C   UNL     1     -10.601  12.662  67.858  1.00  0.00    -0.220 C  
BRANCH   9  10
HETATM   10  C   UNL     1     -10.655  14.107  68.335  1.00  0.00    -0.263 A  
HETATM   11  C   UNL     1      -9.467  14.848  68.483  1.00  0.00    -0.210 A  
HETATM   12  C   UNL     1     -11.874  14.739  68.632  1.00  0.00    -0.334 A  
HETATM   13  C   UNL     1      -9.502  16.183  68.897  1.00  0.00    -0.244 A  
HETATM   14  C   UNL     1     -10.720  16.794  69.180  1.00  0.00    -0.329 A  
HETATM   15  C   UNL     1     -11.904  16.072  69.051  1.00  0.00    -0.258 A  
ENDBRANCH   9  10
BRANCH   9  16
HETATM   16  C   UNL     1     -10.953  11.654  68.963  1.00  0.00    -0.283 A  
HETATM   17  C   UNL     1     -10.463   9.572  70.131  1.00  0.00    -0.299 A  
HETATM   18  C   UNL     1     -12.402  10.853  70.759  1.00  0.00    -0.487 A  
HETATM   19  C   UNL     1     -10.139  10.527  69.162  1.00  0.00    -0.240 A  
HETATM   20  C   UNL     1     -12.073  11.813  69.802  1.00  0.00    -0.338 A  
HETATM   21  C   UNL     1     -11.601   9.728  70.920  1.00  0.00    -0.441 A  
ENDBRANCH   9  16
ENDBRANCH   7   9
ENDBRANCH   6   7
ENDBRANCH   2   6
TORSDOF 5
ENDMDL
MODEL       58
REMARK 921   NORMALIZED FREE ENERGY PREDICTED BY IDOCK:   -4.88 KCAL/MOL
REMARK 922        TOTAL FREE ENERGY PREDICTED BY IDOCK:   -7.33 KCAL/MOL
REMARK 923 INTER-LIGAND FREE ENERGY PREDICTED BY IDOCK:   -6.49 KCAL/MOL
REMARK 924 INTRA-LIGAND FREE ENERGY PREDICTED BY IDOCK:   -0.84 KCAL/MOL
REMARK 927      BINDING AFFINITY PREDICTED BY RF-SCORE:    0.00 PKD
ROOT
HETATM    1  N   UNL     1     -10.075   8.631  66.110  1.00  0.00    -0.441 N  
HETATM    2  C   UNL     1      -9.577   9.739  65.479  1.00  0.00    -0.282 C  
HETATM    3  H1  UNL     1     -10.341   8.663  67.094  1.00  0.00     0.000 HD 
HETATM    4  H2  UNL     1     -10.183   7.760  65.588  1.00  0.00     0.000 HD 
HETATM    5  O   UNL     1      -9.257   9.699  64.294  1.00  0.00    -0.246 OA 
ENDROOT
BRANCH   2   6
HETATM    6  C   UNL     1      -9.423  10.974  66.342  1.00  0.00    -0.193 C  
BRANCH   6   7
HETATM    7  S   UNL     1     -10.446  10.783  67.822  1.00  0.00    -0.225 S  
HETATM    8  O   UNL     1      -9.574  10.167  68.882  1.00  0.00    -0.166 OA 
BRANCH   7   9
HETATM    9  C   UNL     1     -10.691  12.571  68.252  1.00  0.00    -0.228 C  
BRANCH   9  10
HETATM   10  C   UNL     1     -11.117  13.409  67.054  1.00  0.00    -0.310 A  
HETATM   11  C   UNL     1     -10.335  14.505  66.644  1.00  0.00    -0.274 A  
HETATM   12  C   UNL     1     -12.283  13.115  66.327  1.00  0.00    -0.423 A  
HETATM   13  C   UNL     1     -10.700  15.269  65.531  1.00  0.00    -0.385 A  
HETATM   14  C   UNL     1     -11.855  14.959  64.819  1.00  0.00    -0.385 A  
HETATM   15  C   UNL     1     -12.647  13.885  65.220  1.00  0.00    -0.508 A  
ENDBRANCH   9  10
BRANCH   9  16
HETATM   16  C   UNL     1     -11.626  12.736  69.459  1.00  0.00    -0.342 A  
HETATM   17  C   UNL     1     -12.816  14.201  71.002  1.00  0.00    -0.421 A  
HETATM   18  C   UNL     1     -12.936  11.816  71.305  1.00  0.00    -0.353 A  
HETATM   19  C   UNL     1     -12.001  14.023  69.879  1.00  0.00    -0.399 A  
HETATM   20  C   UNL     1     -12.135  11.636  70.177  1.00  0.00    -0.414 A  
HETATM   21  C   UNL     1     -13.271  13.098  71.723  1.00  0.00    -0.494 A  
ENDBRANCH   9  16
ENDBRANCH   7   9
ENDBRANCH   6   7
ENDBRANCH   2   6
TORSDOF 5
ENDMDL
MODEL       59
REMARK 921   NORMALIZED FREE ENERGY PREDICTED BY IDOCK:   -4.86 KCAL/MOL
REMARK 922        TOTAL FREE ENERGY PREDICTED BY IDOCK:   -7.30 KCAL/MOL
REMARK 923 INTER-LIGAND FREE ENERGY PREDICTED BY IDOCK:   -6.35 KCAL/MOL
REMARK 924 INTRA-LIGAND FREE ENERGY PREDICTED BY IDOCK:   -0.95 KCAL/MOL
REMARK 927      BINDING AFFINITY PREDICTED BY RF-SCORE:    0.00 PKD
ROOT
HETATM    1  N   UNL     1      -9.653  10.894  69.426  1.00  0.00    -0.426 N  
HETATM    2  C   UNL     1     -10.996  10.886  69.694  1.00  0.00    -0.252 C  
HETATM    3  H1  UNL     1      -9.298  11.258  68.541  1.00  0.00     0.000 HD 
HETATM    4  H2  UNL     1      -8.999  10.532  70.120  1.00  0.00     0.000 HD 
HETATM    5  O   UNL     1     -11.423  10.449  70.759  1.00  0.00    -0.328 OA 
ENDROOT
BRANCH   2   6
HETATM    6  C   UNL     1     -11.891  11.414  68.592  1.00  0.00    -0.310 C  
BRANCH   6   7
HETATM    7  S   UNL     1     -11.786  13.221  68.571  1.00  0.00    -0.367 S  
HETATM    8  O   UNL     1     -11.170  13.639  69.879  1.00  0.00    -0.117 OA 
BRANCH   7   9
HETATM    9  C   UNL     1     -10.505  13.432  67.245  1.00  0.00    -0.248 C  
BRANCH   9  10
HETATM   10  C   UNL     1     -10.911  12.780  65.930  1.00  0.00    -0.295 A  
HETATM   11  C   UNL     1     -12.155  13.080  65.346  1.00  0.00    -0.490 A  
HETATM   12  C   UNL     1     -10.066  11.874  65.266  1.00  0.00    -0.290 A  
HETATM   13  C   UNL     1     -12.533  12.506  64.127  1.00  0.00    -0.518 A  
HETATM   14  C   UNL     1     -11.679  11.617  63.481  1.00  0.00    -0.384 A  
HETATM   15  C   UNL     1     -10.449  11.299  64.052  1.00  0.00    -0.440 A  
ENDBRANCH   9  10
BRANCH   9  16
HETATM   16  C   UNL     1     -10.102  14.905  67.082  1.00  0.00    -0.240 A  
HETATM   17  C   UNL     1      -8.524  16.565  66.247  1.00  0.00    -0.363 A  
HETATM   18  C   UNL     1     -10.444  17.287  67.508  1.00  0.00    -0.356 A  
HETATM   19  C   UNL     1      -8.937  15.234  66.371  1.00  0.00    -0.339 A  
HETATM   20  C   UNL     1     -10.863  15.961  67.621  1.00  0.00    -0.312 A  
HETATM   21  C   UNL     1      -9.271  17.589  66.827  1.00  0.00    -0.277 A  
ENDBRANCH   9  16
ENDBRANCH   7   9
ENDBRANCH   6   7
ENDBRANCH   2   6
TORSDOF 5
ENDMDL
MODEL       60
REMARK 921   NORMALIZED FREE ENERGY PREDICTED BY IDOCK:   -4.85 KCAL/MOL
REMARK 922        TOTAL FREE ENERGY PREDICTED BY IDOCK:   -7.30 KCAL/MOL
REMARK 923 INTER-LIGAND FREE ENERGY PREDICTED BY IDOCK:   -6.47 KCAL/MOL
REMARK 924 INTRA-LIGAND FREE ENERGY PREDICTED BY IDOCK:   -0.82 KCAL/MOL
REMARK 927      BINDING AFFINITY PREDICTED BY RF-SCORE:    0.00 PKD
ROOT
HETATM    1  N   UNL     1      -7.026  14.153  70.245  1.00  0.00    -0.385 N  
HETATM    2  C   UNL     1      -7.496  15.220  69.527  1.00  0.00    -0.214 C  
HETATM    3  H1  UNL     1      -7.593  13.315  70.369  1.00  0.00     0.000 HD 
HETATM    4  H2  UNL     1      -6.095  14.197  70.661  1.00  0.00     0.000 HD 
HETATM    5  O   UNL     1      -6.813  16.229  69.376  1.00  0.00    -0.202 OA 
ENDROOT
BRANCH   2   6
HETATM    6  C   UNL     1      -8.899  15.075  68.975  1.00  0.00    -0.205 C  
BRANCH   6   7
HETATM    7  S   UNL     1      -8.901  13.769  67.722  1.00  0.00    -0.201 S  
HETATM    8  O   UNL     1      -8.396  12.519  68.391  1.00  0.00    -0.167 OA 
BRANCH   7   9
HETATM    9  C   UNL     1     -10.732  13.586  67.481  1.00  0.00    -0.259 C  
BRANCH   9  10
HETATM   10  C   UNL     1     -11.087  13.012  66.115  1.00  0.00    -0.311 A  
HETATM   11  C   UNL     1     -12.396  13.139  65.614  1.00  0.00    -0.519 A  
HETATM   12  C   UNL     1     -10.132  12.353  65.323  1.00  0.00    -0.285 A  
HETATM   13  C   UNL     1     -12.732  12.638  64.352  1.00  0.00    -0.417 A  
HETATM   14  C   UNL     1     -11.771  11.994  63.578  1.00  0.00    -0.566 A  
HETATM   15  C   UNL     1     -10.474  11.849  64.065  1.00  0.00    -0.417 A  
ENDBRANCH   9  10
BRANCH   9  16
HETATM   16  C   UNL     1     -11.377  12.813  68.640  1.00  0.00    -0.333 A  
HETATM   17  C   UNL     1     -12.489  12.836  70.810  1.00  0.00    -0.357 A  
HETATM   18  C   UNL     1     -11.979  10.728  69.763  1.00  0.00    -0.397 A  
HETATM   19  C   UNL     1     -11.935  13.517  69.720  1.00  0.00    -0.405 A  
HETATM   20  C   UNL     1     -11.439  11.406  68.670  1.00  0.00    -0.359 A  
HETATM   21  C   UNL     1     -12.499  11.442  70.837  1.00  0.00    -0.478 A  
ENDBRANCH   9  16
ENDBRANCH   7   9
ENDBRANCH   6   7
ENDBRANCH   2   6
TORSDOF 5
ENDMDL
MODEL       61
REMARK 921   NORMALIZED FREE ENERGY PREDICTED BY IDOCK:   -4.85 KCAL/MOL
REMARK 922        TOTAL FREE ENERGY PREDICTED BY IDOCK:   -7.29 KCAL/MOL
REMARK 923 INTER-LIGAND FREE ENERGY PREDICTED BY IDOCK:   -6.54 KCAL/MOL
REMARK 924 INTRA-LIGAND FREE ENERGY PREDICTED BY IDOCK:   -0.75 KCAL/MOL
REMARK 927      BINDING AFFINITY PREDICTED BY RF-SCORE:    0.00 PKD
ROOT
HETATM    1  N   UNL     1     -13.745  15.982  73.222  1.00  0.00    -0.737 N  
HETATM    2  C   UNL     1     -13.684  14.911  72.371  1.00  0.00    -0.470 C  
HETATM    3  H1  UNL     1     -13.644  16.935  72.874  1.00  0.00     0.000 HD 
HETATM    4  H2  UNL     1     -13.895  15.825  74.219  1.00  0.00     0.000 HD 
HETATM    5  O   UNL     1     -13.806  13.764  72.791  1.00  0.00    -0.716 OA 
ENDROOT
BRANCH   2   6
HETATM    6  C   UNL     1     -13.426  15.242  70.915  1.00  0.00    -0.384 C  
BRANCH   6   7
HETATM    7  S   UNL     1     -11.764  15.942  70.761  1.00  0.00    -0.390 S  
HETATM    8  O   UNL     1     -10.804  14.914  71.297  1.00  0.00    -0.070 OA 
BRANCH   7   9
HETATM    9  C   UNL     1     -11.613  15.953  68.912  1.00  0.00    -0.388 C  
BRANCH   9  10
HETATM   10  C   UNL     1     -10.813  17.143  68.398  1.00  0.00    -0.309 A  
HETATM   11  C   UNL     1     -10.868  17.498  67.037  1.00  0.00    -0.054 A  
HETATM   12  C   UNL     1     -10.010  17.915  69.254  1.00  0.00    -0.107 A  
HETATM   13  C   UNL     1     -10.158  18.601  66.554  1.00  0.00    -0.426 A  
HETATM   14  C   UNL     1      -9.373  19.359  67.419  1.00  0.00    -0.388 A  
HETATM   15  C   UNL     1      -9.297  19.013  68.766  1.00  0.00    -0.405 A  
ENDBRANCH   9  10
BRANCH   9  16
HETATM   16  C   UNL     1     -11.093  14.609  68.382  1.00  0.00    -0.270 A  
HETATM   17  C   UNL     1      -9.210  13.175  67.797  1.00  0.00    -0.203 A  
HETATM   18  C   UNL     1     -11.455  12.392  67.421  1.00  0.00    -0.418 A  
HETATM   19  C   UNL     1      -9.710  14.374  68.317  1.00  0.00    -0.222 A  
HETATM   20  C   UNL     1     -11.955  13.581  67.952  1.00  0.00    -0.372 A  
HETATM   21  C   UNL     1     -10.082  12.191  67.337  1.00  0.00    -0.208 A  
ENDBRANCH   9  16
ENDBRANCH   7   9
ENDBRANCH   6   7
ENDBRANCH   2   6
TORSDOF 5
ENDMDL
MODEL       62
REMARK 921   NORMALIZED FREE ENERGY PREDICTED BY IDOCK:   -4.85 KCAL/MOL
REMARK 922        TOTAL FREE ENERGY PREDICTED BY IDOCK:   -7.29 KCAL/MOL
REMARK 923 INTER-LIGAND FREE ENERGY PREDICTED BY IDOCK:   -6.53 KCAL/MOL
REMARK 924 INTRA-LIGAND FREE ENERGY PREDICTED BY IDOCK:   -0.76 KCAL/MOL
REMARK 927      BINDING AFFINITY PREDICTED BY RF-SCORE:    0.00 PKD
ROOT
HETATM    1  N   UNL     1      -9.740  17.778  67.616  1.00  0.00    -0.276 N  
HETATM    2  C   UNL     1      -9.632  16.908  66.565  1.00  0.00    -0.278 C  
HETATM    3  H1  UNL     1     -10.414  17.614  68.365  1.00  0.00     0.000 HD 
HETATM    4  H2  UNL     1      -9.139  18.602  67.653  1.00  0.00     0.000 HD 
HETATM    5  O   UNL     1      -8.820  17.105  65.665  1.00  0.00    -0.482 OA 
ENDROOT
BRANCH   2   6
HETATM    6  C   UNL     1     -10.587  15.732  66.582  1.00  0.00    -0.307 C  
BRANCH   6   7
HETATM    7  S   UNL     1     -10.020  14.538  67.818  1.00  0.00    -0.227 S  
HETATM    8  O   UNL     1     -10.328  15.125  69.169  1.00  0.00    -0.230 OA 
BRANCH   7   9
HETATM    9  C   UNL     1     -11.236  13.173  67.498  1.00  0.00    -0.282 C  
BRANCH   9  10
HETATM   10  C   UNL     1     -11.245  12.727  66.042  1.00  0.00    -0.335 A  
HETATM   11  C   UNL     1     -12.446  12.735  65.308  1.00  0.00    -0.528 A  
HETATM   12  C   UNL     1     -10.072  12.305  65.394  1.00  0.00    -0.292 A  
HETATM   13  C   UNL     1     -12.467  12.351  63.963  1.00  0.00    -0.554 A  
HETATM   14  C   UNL     1     -11.294  11.942  63.336  1.00  0.00    -0.465 A  
HETATM   15  C   UNL     1     -10.099  11.916  64.052  1.00  0.00    -0.361 A  
ENDBRANCH   9  10
BRANCH   9  16
HETATM   16  C   UNL     1     -11.043  12.008  68.479  1.00  0.00    -0.289 A  
HETATM   17  C   UNL     1     -11.862  10.705  70.370  1.00  0.00    -0.441 A  
HETATM   18  C   UNL     1      -9.723  10.170  69.402  1.00  0.00    -0.247 A  
HETATM   19  C   UNL     1     -12.033  11.733  69.437  1.00  0.00    -0.361 A  
HETATM   20  C   UNL     1      -9.899  11.186  68.462  1.00  0.00    -0.199 A  
HETATM   21  C   UNL     1     -10.701   9.933  70.361  1.00  0.00    -0.379 A  
ENDBRANCH   9  16
ENDBRANCH   7   9
ENDBRANCH   6   7
ENDBRANCH   2   6
TORSDOF 5
ENDMDL
MODEL       63
REMARK 921   NORMALIZED FREE ENERGY PREDICTED BY IDOCK:   -4.83 KCAL/MOL
REMARK 922        TOTAL FREE ENERGY PREDICTED BY IDOCK:   -7.27 KCAL/MOL
REMARK 923 INTER-LIGAND FREE ENERGY PREDICTED BY IDOCK:   -6.38 KCAL/MOL
REMARK 924 INTRA-LIGAND FREE ENERGY PREDICTED BY IDOCK:   -0.88 KCAL/MOL
REMARK 927      BINDING AFFINITY PREDICTED BY RF-SCORE:    0.00 PKD
ROOT
HETATM    1  N   UNL     1     -14.199  15.366  70.943  1.00  0.00    -0.857 N  
HETATM    2  C   UNL     1     -12.903  14.973  71.142  1.00  0.00    -0.373 C  
HETATM    3  H1  UNL     1     -14.673  15.181  70.059  1.00  0.00     0.000 HD 
HETATM    4  H2  UNL     1     -14.698  15.851  71.689  1.00  0.00     0.000 HD 
HETATM    5  O   UNL     1     -12.333  15.196  72.206  1.00  0.00    -0.325 OA 
ENDROOT
BRANCH   2   6
HETATM    6  C   UNL     1     -12.235  14.289  69.967  1.00  0.00    -0.359 C  
BRANCH   6   7
HETATM    7  S   UNL     1     -11.610  15.554  68.834  1.00  0.00    -0.378 S  
HETATM    8  O   UNL     1     -10.970  16.623  69.680  1.00  0.00    -0.318 OA 
BRANCH   7   9
HETATM    9  C   UNL     1     -10.254  14.585  68.018  1.00  0.00    -0.233 C  
BRANCH   9  10
HETATM   10  C   UNL     1     -10.753  13.760  66.839  1.00  0.00    -0.280 A  
HETATM   11  C   UNL     1      -9.959  12.723  66.316  1.00  0.00    -0.269 A  
HETATM   12  C   UNL     1     -12.004  14.003  66.248  1.00  0.00    -0.454 A  
HETATM   13  C   UNL     1     -10.413  11.941  65.248  1.00  0.00    -0.317 A  
HETATM   14  C   UNL     1     -11.658  12.192  64.681  1.00  0.00    -0.392 A  
HETATM   15  C   UNL     1     -12.451  13.224  65.178  1.00  0.00    -0.525 A  
ENDBRANCH   9  10
BRANCH   9  16
HETATM   16  C   UNL     1      -9.060  15.482  67.659  1.00  0.00    -0.183 A  
HETATM   17  C   UNL     1      -8.084  17.195  66.225  1.00  0.00    -0.325 A  
HETATM   18  C   UNL     1      -6.750  16.212  67.972  1.00  0.00    -0.143 A  
HETATM   19  C   UNL     1      -9.171  16.398  66.601  1.00  0.00    -0.279 A  
HETATM   20  C   UNL     1      -7.837  15.427  68.356  1.00  0.00    -0.129 A  
HETATM   21  C   UNL     1      -6.870  17.091  66.902  1.00  0.00    -0.247 A  
ENDBRANCH   9  16
ENDBRANCH   7   9
ENDBRANCH   6   7
ENDBRANCH   2   6
TORSDOF 5
ENDMDL
MODEL       64
REMARK 921   NORMALIZED FREE ENERGY PREDICTED BY IDOCK:   -4.83 KCAL/MOL
REMARK 922        TOTAL FREE ENERGY PREDICTED BY IDOCK:   -7.26 KCAL/MOL
REMARK 923 INTER-LIGAND FREE ENERGY PREDICTED BY IDOCK:   -7.19 KCAL/MOL
REMARK 924 INTRA-LIGAND FREE ENERGY PREDICTED BY IDOCK:   -0.07 KCAL/MOL
REMARK 927      BINDING AFFINITY PREDICTED BY RF-SCORE:    0.00 PKD
ROOT
HETATM    1  N   UNL     1     -10.942  13.675  64.093  1.00  0.00    -0.572 N  
HETATM    2  C   UNL     1     -11.687  14.642  64.714  1.00  0.00    -0.428 C  
HETATM    3  H1  UNL     1     -10.283  13.102  64.620  1.00  0.00     0.000 HD 
HETATM    4  H2  UNL     1     -11.048  13.525  63.089  1.00  0.00     0.000 HD 
HETATM    5  O   UNL     1     -12.480  15.331  64.079  1.00  0.00    -0.725 OA 
ENDROOT
BRANCH   2   6
HETATM    6  C   UNL     1     -11.439  14.812  66.199  1.00  0.00    -0.311 C  
BRANCH   6   7
HETATM    7  S   UNL     1      -9.653  14.808  66.495  1.00  0.00    -0.299 S  
HETATM    8  O   UNL     1      -9.038  15.736  65.482  1.00  0.00    -0.235 OA 
BRANCH   7   9
HETATM    9  C   UNL     1      -9.619  15.660  68.143  1.00  0.00    -0.196 C  
BRANCH   9  10
HETATM   10  C   UNL     1      -9.688  17.176  68.019  1.00  0.00    -0.274 A  
HETATM   11  C   UNL     1     -10.657  17.775  67.194  1.00  0.00    -0.292 A  
HETATM   12  C   UNL     1      -8.801  18.012  68.719  1.00  0.00    -0.210 A  
HETATM   13  C   UNL     1     -10.748  19.167  67.088  1.00  0.00    -0.567 A  
HETATM   14  C   UNL     1      -9.866  19.979  67.794  1.00  0.00    -0.545 A  
HETATM   15  C   UNL     1      -8.892  19.402  68.605  1.00  0.00    -0.417 A  
ENDBRANCH   9  10
BRANCH   9  16
HETATM   16  C   UNL     1     -10.682  15.088  69.093  1.00  0.00    -0.249 A  
HETATM   17  C   UNL     1     -12.015  13.191  69.846  1.00  0.00    -0.387 A  
HETATM   18  C   UNL     1     -12.347  15.349  70.862  1.00  0.00    -0.452 A  
HETATM   19  C   UNL     1     -11.019  13.727  69.023  1.00  0.00    -0.277 A  
HETATM   20  C   UNL     1     -11.345  15.881  70.051  1.00  0.00    -0.358 A  
HETATM   21  C   UNL     1     -12.688  14.006  70.756  1.00  0.00    -0.396 A  
ENDBRANCH   9  16
ENDBRANCH   7   9
ENDBRANCH   6   7
ENDBRANCH   2   6
TORSDOF 5
ENDMDL
MODEL       65
REMARK 921   NORMALIZED FREE ENERGY PREDICTED BY IDOCK:   -4.82 KCAL/MOL
REMARK 922        TOTAL FREE ENERGY PREDICTED BY IDOCK:   -7.26 KCAL/MOL
REMARK 923 INTER-LIGAND FREE ENERGY PREDICTED BY IDOCK:   -7.14 KCAL/MOL
REMARK 924 INTRA-LIGAND FREE ENERGY PREDICTED BY IDOCK:   -0.12 KCAL/MOL
REMARK 927      BINDING AFFINITY PREDICTED BY RF-SCORE:    0.00 PKD
ROOT
HETATM    1  N   UNL     1      -8.313  14.906  69.810  1.00  0.00    -0.430 N  
HETATM    2  C   UNL     1      -8.671  15.602  68.686  1.00  0.00    -0.193 C  
HETATM    3  H1  UNL     1      -8.433  13.895  69.860  1.00  0.00     0.000 HD 
HETATM    4  H2  UNL     1      -7.919  15.406  70.607  1.00  0.00     0.000 HD 
HETATM    5  O   UNL     1      -8.526  16.820  68.626  1.00  0.00    -0.239 OA 
ENDROOT
BRANCH   2   6
HETATM    6  C   UNL     1      -9.276  14.779  67.567  1.00  0.00    -0.198 C  
BRANCH   6   7
HETATM    7  S   UNL     1     -10.767  15.613  66.971  1.00  0.00    -0.294 S  
HETATM    8  O   UNL     1     -10.482  16.071  65.566  1.00  0.00    -0.371 OA 
BRANCH   7   9
HETATM    9  C   UNL     1     -11.910  14.154  66.874  1.00  0.00    -0.431 C  
BRANCH   9  10
HETATM   10  C   UNL     1     -11.629  13.270  65.666  1.00  0.00    -0.363 A  
HETATM   11  C   UNL     1     -10.326  12.800  65.421  1.00  0.00    -0.310 A  
HETATM   12  C   UNL     1     -12.649  12.899  64.773  1.00  0.00    -0.493 A  
HETATM   13  C   UNL     1     -10.056  11.969  64.329  1.00  0.00    -0.319 A  
HETATM   14  C   UNL     1     -11.080  11.606  63.460  1.00  0.00    -0.476 A  
HETATM   15  C   UNL     1     -12.374  12.073  63.679  1.00  0.00    -0.648 A  
ENDBRANCH   9  10
BRANCH   9  16
HETATM   16  C   UNL     1     -11.935  13.371  68.195  1.00  0.00    -0.356 A  
HETATM   17  C   UNL     1     -11.805  11.238  69.368  1.00  0.00    -0.424 A  
HETATM   18  C   UNL     1     -12.220  13.253  70.619  1.00  0.00    -0.417 A  
HETATM   19  C   UNL     1     -11.742  11.980  68.183  1.00  0.00    -0.398 A  
HETATM   20  C   UNL     1     -12.144  13.995  69.440  1.00  0.00    -0.386 A  
HETATM   21  C   UNL     1     -12.057  11.873  70.583  1.00  0.00    -0.389 A  
ENDBRANCH   9  16
ENDBRANCH   7   9
ENDBRANCH   6   7
ENDBRANCH   2   6
TORSDOF 5
ENDMDL
MODEL       66
REMARK 921   NORMALIZED FREE ENERGY PREDICTED BY IDOCK:   -4.81 KCAL/MOL
REMARK 922        TOTAL FREE ENERGY PREDICTED BY IDOCK:   -7.24 KCAL/MOL
REMARK 923 INTER-LIGAND FREE ENERGY PREDICTED BY IDOCK:   -6.47 KCAL/MOL
REMARK 924 INTRA-LIGAND FREE ENERGY PREDICTED BY IDOCK:   -0.76 KCAL/MOL
REMARK 927      BINDING AFFINITY PREDICTED BY RF-SCORE:    0.00 PKD
ROOT
HETATM    1  N   UNL     1     -10.185  13.462  64.249  1.00  0.00    -0.669 N  
HETATM    2  C   UNL     1     -10.831  14.259  65.156  1.00  0.00    -0.378 C  
HETATM    3  H1  UNL     1      -9.520  12.751  64.556  1.00  0.00     0.000 HD 
HETATM    4  H2  UNL     1     -10.372  13.579  63.253  1.00  0.00     0.000 HD 
HETATM    5  O   UNL     1     -11.631  15.113  64.787  1.00  0.00    -0.398 OA 
ENDROOT
BRANCH   2   6
HETATM    6  C   UNL     1     -10.465  14.033  66.609  1.00  0.00    -0.272 C  
BRANCH   6   7
HETATM    7  S   UNL     1     -11.562  12.767  67.295  1.00  0.00    -0.373 S  
HETATM    8  O   UNL     1     -12.156  12.023  66.130  1.00  0.00    -0.582 OA 
BRANCH   7   9
HETATM    9  C   UNL     1     -10.294  11.668  68.087  1.00  0.00    -0.194 C  
BRANCH   9  10
HETATM   10  C   UNL     1     -10.837  10.929  69.303  1.00  0.00    -0.286 A  
HETATM   11  C   UNL     1     -10.035   9.990  69.977  1.00  0.00    -0.273 A  
HETATM   12  C   UNL     1     -12.137  11.162  69.785  1.00  0.00    -0.414 A  
HETATM   13  C   UNL     1     -10.512   9.321  71.109  1.00  0.00    -0.401 A  
HETATM   14  C   UNL     1     -11.798   9.570  71.576  1.00  0.00    -0.478 A  
HETATM   15  C   UNL     1     -12.611  10.486  70.912  1.00  0.00    -0.493 A  
ENDBRANCH   9  10
BRANCH   9  16
HETATM   16  C   UNL     1      -9.642  10.731  67.060  1.00  0.00    -0.195 A  
HETATM   17  C   UNL     1      -7.958  10.360  65.336  1.00  0.00    -0.147 A  
HETATM   18  C   UNL     1      -9.530   8.610  65.852  1.00  0.00    -0.243 A  
HETATM   19  C   UNL     1      -8.542  11.178  66.310  1.00  0.00    -0.180 A  
HETATM   20  C   UNL     1     -10.104   9.420  66.832  1.00  0.00    -0.314 A  
HETATM   21  C   UNL     1      -8.461   9.082  65.099  1.00  0.00    -0.183 A  
ENDBRANCH   9  16
ENDBRANCH   7   9
ENDBRANCH   6   7
ENDBRANCH   2   6
TORSDOF 5
ENDMDL
MODEL       67
REMARK 921   NORMALIZED FREE ENERGY PREDICTED BY IDOCK:   -4.80 KCAL/MOL
REMARK 922        TOTAL FREE ENERGY PREDICTED BY IDOCK:   -7.23 KCAL/MOL
REMARK 923 INTER-LIGAND FREE ENERGY PREDICTED BY IDOCK:   -6.48 KCAL/MOL
REMARK 924 INTRA-LIGAND FREE ENERGY PREDICTED BY IDOCK:   -0.75 KCAL/MOL
REMARK 927      BINDING AFFINITY PREDICTED BY RF-SCORE:    0.00 PKD
ROOT
HETATM    1  N   UNL     1     -12.412  11.545  63.013  1.00  0.00    -0.914 N  
HETATM    2  C   UNL     1     -11.955  12.752  63.470  1.00  0.00    -0.555 C  
HETATM    3  H1  UNL     1     -11.885  10.688  63.180  1.00  0.00     0.000 HD 
HETATM    4  H2  UNL     1     -13.292  11.501  62.499  1.00  0.00     0.000 HD 
HETATM    5  O   UNL     1     -12.590  13.783  63.269  1.00  0.00    -0.830 OA 
ENDROOT
BRANCH   2   6
HETATM    6  C   UNL     1     -10.625  12.721  64.194  1.00  0.00    -0.415 C  
BRANCH   6   7
HETATM    7  S   UNL     1     -10.603  11.299  65.313  1.00  0.00    -0.233 S  
HETATM    8  O   UNL     1      -9.829  10.208  64.622  1.00  0.00    -0.324 OA 
BRANCH   7   9
HETATM    9  C   UNL     1      -9.532  11.992  66.660  1.00  0.00    -0.217 C  
BRANCH   9  10
HETATM   10  C   UNL     1      -9.849  13.450  66.969  1.00  0.00    -0.250 A  
HETATM   11  C   UNL     1      -8.839  14.425  66.889  1.00  0.00    -0.246 A  
HETATM   12  C   UNL     1     -11.143  13.860  67.332  1.00  0.00    -0.313 A  
HETATM   13  C   UNL     1      -9.120  15.771  67.147  1.00  0.00    -0.228 A  
HETATM   14  C   UNL     1     -10.409  16.160  67.498  1.00  0.00    -0.286 A  
HETATM   15  C   UNL     1     -11.418  15.205  67.594  1.00  0.00    -0.319 A  
ENDBRANCH   9  10
BRANCH   9  16
HETATM   16  C   UNL     1      -9.551  11.099  67.909  1.00  0.00    -0.181 A  
HETATM   17  C   UNL     1     -10.807   9.719  69.478  1.00  0.00    -0.264 A  
HETATM   18  C   UNL     1      -8.453  10.076  69.838  1.00  0.00    -0.171 A  
HETATM   19  C   UNL     1     -10.754  10.501  68.319  1.00  0.00    -0.270 A  
HETATM   20  C   UNL     1      -8.396  10.845  68.675  1.00  0.00    -0.148 A  
HETATM   21  C   UNL     1      -9.659   9.518  70.244  1.00  0.00    -0.314 A  
ENDBRANCH   9  16
ENDBRANCH   7   9
ENDBRANCH   6   7
ENDBRANCH   2   6
TORSDOF 5
ENDMDL
MODEL       68
REMARK 921   NORMALIZED FREE ENERGY PREDICTED BY IDOCK:   -4.77 KCAL/MOL
REMARK 922        TOTAL FREE ENERGY PREDICTED BY IDOCK:   -7.19 KCAL/MOL
REMARK 923 INTER-LIGAND FREE ENERGY PREDICTED BY IDOCK:   -6.17 KCAL/MOL
REMARK 924 INTRA-LIGAND FREE ENERGY PREDICTED BY IDOCK:   -1.03 KCAL/MOL
REMARK 927      BINDING AFFINITY PREDICTED BY RF-SCORE:    0.00 PKD
ROOT
HETATM    1  N   UNL     1      -7.244  11.615  66.118  1.00  0.00    -0.348 N  
HETATM    2  C   UNL     1      -6.764  12.291  67.208  1.00  0.00    -0.143 C  
HETATM    3  H1  UNL     1      -8.184  11.218  66.120  1.00  0.00     0.000 HD 
HETATM    4  H2  UNL     1      -6.655  11.508  65.292  1.00  0.00     0.000 HD 
HETATM    5  O   UNL     1      -5.634  12.770  67.205  1.00  0.00    -0.299 OA 
ENDROOT
BRANCH   2   6
HETATM    6  C   UNL     1      -7.699  12.371  68.397  1.00  0.00    -0.144 C  
BRANCH   6   7
HETATM    7  S   UNL     1      -8.672  13.892  68.272  1.00  0.00    -0.179 S  
HETATM    8  O   UNL     1      -8.551  14.374  66.852  1.00  0.00    -0.215 OA 
BRANCH   7   9
HETATM    9  C   UNL     1     -10.372  13.181  68.490  1.00  0.00    -0.238 C  
BRANCH   9  10
HETATM   10  C   UNL     1     -11.199  13.945  69.515  1.00  0.00    -0.237 A  
HETATM   11  C   UNL     1     -10.918  15.298  69.784  1.00  0.00    -0.295 A  
HETATM   12  C   UNL     1     -12.256  13.334  70.211  1.00  0.00    -0.391 A  
HETATM   13  C   UNL     1     -11.683  16.020  70.705  1.00  0.00    -0.410 A  
HETATM   14  C   UNL     1     -12.731  15.400  71.380  1.00  0.00    -0.488 A  
HETATM   15  C   UNL     1     -13.014  14.058  71.136  1.00  0.00    -0.402 A  
ENDBRANCH   9  10
BRANCH   9  16
HETATM   16  C   UNL     1     -11.091  13.018  67.143  1.00  0.00    -0.304 A  
HETATM   17  C   UNL     1     -12.725  13.835  65.529  1.00  0.00    -0.530 A  
HETATM   18  C   UNL     1     -11.559  11.774  65.093  1.00  0.00    -0.211 A  
HETATM   19  C   UNL     1     -12.025  13.983  66.731  1.00  0.00    -0.473 A  
HETATM   20  C   UNL     1     -10.850  11.928  66.284  1.00  0.00    -0.323 A  
HETATM   21  C   UNL     1     -12.502  12.724  64.717  1.00  0.00    -0.539 A  
ENDBRANCH   9  16
ENDBRANCH   7   9
ENDBRANCH   6   7
ENDBRANCH   2   6
TORSDOF 5
ENDMDL
MODEL       69
REMARK 921   NORMALIZED FREE ENERGY PREDICTED BY IDOCK:   -4.77 KCAL/MOL
REMARK 922        TOTAL FREE ENERGY PREDICTED BY IDOCK:   -7.18 KCAL/MOL
REMARK 923 INTER-LIGAND FREE ENERGY PREDICTED BY IDOCK:   -6.14 KCAL/MOL
REMARK 924 INTRA-LIGAND FREE ENERGY PREDICTED BY IDOCK:   -1.05 KCAL/MOL
REMARK 927      BINDING AFFINITY PREDICTED BY RF-SCORE:    0.00 PKD
ROOT
HETATM    1  N   UNL     1     -13.170  13.943  65.254  1.00  0.00    -0.721 N  
HETATM    2  C   UNL     1     -12.252  14.341  64.319  1.00  0.00    -0.423 C  
HETATM    3  H1  UNL     1     -13.232  14.410  66.158  1.00  0.00     0.000 HD 
HETATM    4  H2  UNL     1     -13.801  13.170  65.042  1.00  0.00     0.000 HD 
HETATM    5  O   UNL     1     -12.178  13.780  63.229  1.00  0.00    -0.642 OA 
ENDROOT
BRANCH   2   6
HETATM    6  C   UNL     1     -11.338  15.476  64.734  1.00  0.00    -0.357 C  
BRANCH   6   7
HETATM    7  S   UNL     1     -10.906  15.266  66.479  1.00  0.00    -0.294 S  
HETATM    8  O   UNL     1     -10.635  13.801  66.691  1.00  0.00    -0.272 OA 
BRANCH   7   9
HETATM    9  C   UNL     1      -9.277  16.155  66.495  1.00  0.00    -0.272 C  
BRANCH   9  10
HETATM   10  C   UNL     1      -9.433  17.659  66.674  1.00  0.00    -0.288 A  
HETATM   11  C   UNL     1      -8.342  18.516  66.440  1.00  0.00    -0.278 A  
HETATM   12  C   UNL     1     -10.655  18.230  67.070  1.00  0.00    -0.375 A  
HETATM   13  C   UNL     1      -8.476  19.902  66.578  1.00  0.00    -0.379 A  
HETATM   14  C   UNL     1      -9.696  20.450  66.963  1.00  0.00    -0.588 A  
HETATM   15  C   UNL     1     -10.782  19.614  67.212  1.00  0.00    -0.583 A  
ENDBRANCH   9  10
BRANCH   9  16
HETATM   16  C   UNL     1      -8.305  15.529  67.506  1.00  0.00    -0.190 A  
HETATM   17  C   UNL     1      -7.742  14.998  69.818  1.00  0.00    -0.038 A  
HETATM   18  C   UNL     1      -6.189  14.442  68.064  1.00  0.00    -0.162 A  
HETATM   19  C   UNL     1      -8.631  15.522  68.872  1.00  0.00    -0.209 A  
HETATM   20  C   UNL     1      -7.080  14.951  67.119  1.00  0.00     0.065 A  
HETATM   21  C   UNL     1      -6.517  14.471  69.415  1.00  0.00    -0.132 A  
ENDBRANCH   9  16
ENDBRANCH   7   9
ENDBRANCH   6   7
ENDBRANCH   2   6
TORSDOF 5
ENDMDL
MODEL       70
REMARK 921   NORMALIZED FREE ENERGY PREDICTED BY IDOCK:   -4.76 KCAL/MOL
REMARK 922        TOTAL FREE ENERGY PREDICTED BY IDOCK:   -7.17 KCAL/MOL
REMARK 923 INTER-LIGAND FREE ENERGY PREDICTED BY IDOCK:   -6.41 KCAL/MOL
REMARK 924 INTRA-LIGAND FREE ENERGY PREDICTED BY IDOCK:   -0.76 KCAL/MOL
REMARK 927      BINDING AFFINITY PREDICTED BY RF-SCORE:    0.00 PKD
ROOT
HETATM    1  N   UNL     1      -9.839   8.908  65.708  1.00  0.00    -0.465 N  
HETATM    2  C   UNL     1     -10.364   8.863  66.972  1.00  0.00    -0.269 C  
HETATM    3  H1  UNL     1      -9.825   9.779  65.177  1.00  0.00     0.000 HD 
HETATM    4  H2  UNL     1      -9.455   8.059  65.292  1.00  0.00     0.000 HD 
HETATM    5  O   UNL     1     -10.380   7.815  67.611  1.00  0.00    -0.206 OA 
ENDROOT
BRANCH   2   6
HETATM    6  C   UNL     1     -10.938  10.164  67.493  1.00  0.00    -0.255 C  
BRANCH   6   7
HETATM    7  S   UNL     1      -9.585  11.183  68.131  1.00  0.00    -0.185 S  
HETATM    8  O   UNL     1      -8.322  10.700  67.471  1.00  0.00    -0.115 OA 
BRANCH   7   9
HETATM    9  C   UNL     1     -10.044  12.809  67.362  1.00  0.00    -0.219 C  
BRANCH   9  10
HETATM   10  C   UNL     1     -10.765  12.643  66.031  1.00  0.00    -0.295 A  
HETATM   11  C   UNL     1     -12.153  12.856  65.948  1.00  0.00    -0.503 A  
HETATM   12  C   UNL     1     -10.076  12.282  64.860  1.00  0.00    -0.274 A  
HETATM   13  C   UNL     1     -12.826  12.730  64.728  1.00  0.00    -0.374 A  
HETATM   14  C   UNL     1     -12.126  12.379  63.578  1.00  0.00    -0.651 A  
HETATM   15  C   UNL     1     -10.753  12.152  63.645  1.00  0.00    -0.518 A  
ENDBRANCH   9  10
BRANCH   9  16
HETATM   16  C   UNL     1     -10.808  13.702  68.349  1.00  0.00    -0.274 A  
HETATM   17  C   UNL     1     -12.287  13.907  70.276  1.00  0.00    -0.413 A  
HETATM   18  C   UNL     1     -11.551  15.894  69.133  1.00  0.00    -0.382 A  
HETATM   19  C   UNL     1     -11.546  13.117  69.391  1.00  0.00    -0.360 A  
HETATM   20  C   UNL     1     -10.801  15.108  68.258  1.00  0.00    -0.262 A  
HETATM   21  C   UNL     1     -12.300  15.294  70.139  1.00  0.00    -0.392 A  
ENDBRANCH   9  16
ENDBRANCH   7   9
ENDBRANCH   6   7
ENDBRANCH   2   6
TORSDOF 5
ENDMDL
MODEL       71
REMARK 921   NORMALIZED FREE ENERGY PREDICTED BY IDOCK:   -4.76 KCAL/MOL
REMARK 922        TOTAL FREE ENERGY PREDICTED BY IDOCK:   -7.17 KCAL/MOL
REMARK 923 INTER-LIGAND FREE ENERGY PREDICTED BY IDOCK:   -6.29 KCAL/MOL
REMARK 924 INTRA-LIGAND FREE ENERGY PREDICTED BY IDOCK:   -0.88 KCAL/MOL
REMARK 927      BINDING AFFINITY PREDICTED BY RF-SCORE:    0.00 PKD
ROOT
HETATM    1  N   UNL     1     -12.719  11.493  70.928  1.00  0.00    -0.313 N  
HETATM    2  C   UNL     1     -11.742  11.060  70.073  1.00  0.00    -0.355 C  
HETATM    3  H1  UNL     1     -13.508  12.043  70.588  1.00  0.00     0.000 HD 
HETATM    4  H2  UNL     1     -12.657  11.263  71.921  1.00  0.00     0.000 HD 
HETATM    5  O   UNL     1     -10.792  10.399  70.483  1.00  0.00    -0.276 OA 
ENDROOT
BRANCH   2   6
HETATM    6  C   UNL     1     -11.902  11.478  68.625  1.00  0.00    -0.318 C  
BRANCH   6   7
HETATM    7  S   UNL     1     -11.857  13.285  68.532  1.00  0.00    -0.323 S  
HETATM    8  O   UNL     1     -11.303  13.778  69.841  1.00  0.00    -0.196 OA 
BRANCH   7   9
HETATM    9  C   UNL     1     -10.537  13.487  67.243  1.00  0.00    -0.263 C  
BRANCH   9  10
HETATM   10  C   UNL     1     -10.932  12.883  65.901  1.00  0.00    -0.300 A  
HETATM   11  C   UNL     1     -10.118  11.906  65.299  1.00  0.00    -0.290 A  
HETATM   12  C   UNL     1     -12.106  13.274  65.235  1.00  0.00    -0.456 A  
HETATM   13  C   UNL     1     -10.479  11.325  64.079  1.00  0.00    -0.440 A  
HETATM   14  C   UNL     1     -11.649  11.720  63.437  1.00  0.00    -0.419 A  
HETATM   15  C   UNL     1     -12.459  12.696  64.013  1.00  0.00    -0.487 A  
ENDBRANCH   9  10
BRANCH   9  16
HETATM   16  C   UNL     1     -10.081  14.949  67.130  1.00  0.00    -0.240 A  
HETATM   17  C   UNL     1     -10.511  17.314  67.534  1.00  0.00    -0.356 A  
HETATM   18  C   UNL     1      -8.510  16.657  66.366  1.00  0.00    -0.348 A  
HETATM   19  C   UNL     1     -10.882  15.971  67.663  1.00  0.00    -0.311 A  
HETATM   20  C   UNL     1      -8.872  15.318  66.506  1.00  0.00    -0.335 A  
HETATM   21  C   UNL     1      -9.332  17.657  66.874  1.00  0.00    -0.268 A  
ENDBRANCH   9  16
ENDBRANCH   7   9
ENDBRANCH   6   7
ENDBRANCH   2   6
TORSDOF 5
ENDMDL
MODEL       72
REMARK 921   NORMALIZED FREE ENERGY PREDICTED BY IDOCK:   -4.75 KCAL/MOL
REMARK 922        TOTAL FREE ENERGY PREDICTED BY IDOCK:   -7.16 KCAL/MOL
REMARK 923 INTER-LIGAND FREE ENERGY PREDICTED BY IDOCK:   -6.25 KCAL/MOL
REMARK 924 INTRA-LIGAND FREE ENERGY PREDICTED BY IDOCK:   -0.91 KCAL/MOL
REMARK 927      BINDING AFFINITY PREDICTED BY RF-SCORE:    0.00 PKD
ROOT
HETATM    1  N   UNL     1      -7.231  11.388  66.180  1.00  0.00    -0.367 N  
HETATM    2  C   UNL     1      -6.756  12.200  67.174  1.00  0.00    -0.123 C  
HETATM    3  H1  UNL     1      -8.125  10.908  66.278  1.00  0.00     0.000 HD 
HETATM    4  H2  UNL     1      -6.682  11.260  65.329  1.00  0.00     0.000 HD 
HETATM    5  O   UNL     1      -5.679  12.778  67.055  1.00  0.00    -0.334 OA 
ENDROOT
BRANCH   2   6
HETATM    6  C   UNL     1      -7.623  12.303  68.411  1.00  0.00    -0.128 C  
BRANCH   6   7
HETATM    7  S   UNL     1      -8.896  13.559  68.128  1.00  0.00    -0.178 S  
HETATM    8  O   UNL     1      -8.621  14.164  66.778  1.00  0.00    -0.181 OA 
BRANCH   7   9
HETATM    9  C   UNL     1     -10.378  12.454  67.967  1.00  0.00    -0.216 C  
BRANCH   9  10
HETATM   10  C   UNL     1     -11.284  12.508  69.190  1.00  0.00    -0.297 A  
HETATM   11  C   UNL     1     -11.829  11.324  69.719  1.00  0.00    -0.437 A  
HETATM   12  C   UNL     1     -11.596  13.724  69.822  1.00  0.00    -0.324 A  
HETATM   13  C   UNL     1     -12.644  11.355  70.856  1.00  0.00    -0.453 A  
HETATM   14  C   UNL     1     -12.936  12.568  71.472  1.00  0.00    -0.379 A  
HETATM   15  C   UNL     1     -12.415  13.751  70.953  1.00  0.00    -0.451 A  
ENDBRANCH   9  10
BRANCH   9  16
HETATM   16  C   UNL     1     -11.130  12.711  66.653  1.00  0.00    -0.314 A  
HETATM   17  C   UNL     1     -11.609  12.063  64.353  1.00  0.00    -0.411 A  
HETATM   18  C   UNL     1     -12.617  14.055  65.255  1.00  0.00    -0.495 A  
HETATM   19  C   UNL     1     -10.970  11.826  65.574  1.00  0.00    -0.344 A  
HETATM   20  C   UNL     1     -11.991  13.813  66.478  1.00  0.00    -0.470 A  
HETATM   21  C   UNL     1     -12.421  13.184  64.189  1.00  0.00    -0.348 A  
ENDBRANCH   9  16
ENDBRANCH   7   9
ENDBRANCH   6   7
ENDBRANCH   2   6
TORSDOF 5
ENDMDL
MODEL       73
REMARK 921   NORMALIZED FREE ENERGY PREDICTED BY IDOCK:   -4.71 KCAL/MOL
REMARK 922        TOTAL FREE ENERGY PREDICTED BY IDOCK:   -7.11 KCAL/MOL
REMARK 923 INTER-LIGAND FREE ENERGY PREDICTED BY IDOCK:   -6.95 KCAL/MOL
REMARK 924 INTRA-LIGAND FREE ENERGY PREDICTED BY IDOCK:   -0.16 KCAL/MOL
REMARK 927      BINDING AFFINITY PREDICTED BY RF-SCORE:    0.00 PKD
ROOT
HETATM    1  N   UNL     1     -11.676   7.958  70.092  1.00  0.00    -0.466 N  
HETATM    2  C   UNL     1     -11.247   8.973  70.905  1.00  0.00    -0.287 C  
HETATM    3  H1  UNL     1     -11.527   7.995  69.084  1.00  0.00     0.000 HD 
HETATM    4  H2  UNL     1     -12.151   7.152  70.501  1.00  0.00     0.000 HD 
HETATM    5  O   UNL     1     -11.426   8.928  72.119  1.00  0.00    -0.362 OA 
ENDROOT
BRANCH   2   6
HETATM    6  C   UNL     1     -10.581  10.140  70.205  1.00  0.00    -0.281 C  
BRANCH   6   7
HETATM    7  S   UNL     1     -11.784  10.917  69.097  1.00  0.00    -0.319 S  
HETATM    8  O   UNL     1     -13.142  10.713  69.711  1.00  0.00    -0.081 OA 
BRANCH   7   9
HETATM    9  C   UNL     1     -11.310  12.695  69.338  1.00  0.00    -0.208 C  
BRANCH   9  10
HETATM   10  C   UNL     1     -11.174  13.448  68.021  1.00  0.00    -0.298 A  
HETATM   11  C   UNL     1     -10.041  14.245  67.777  1.00  0.00    -0.231 A  
HETATM   12  C   UNL     1     -12.159  13.368  67.023  1.00  0.00    -0.390 A  
HETATM   13  C   UNL     1      -9.890  14.925  66.563  1.00  0.00    -0.281 A  
HETATM   14  C   UNL     1     -10.873  14.827  65.583  1.00  0.00    -0.344 A  
HETATM   15  C   UNL     1     -12.008  14.053  65.814  1.00  0.00    -0.417 A  
ENDBRANCH   9  10
BRANCH   9  16
HETATM   16  C   UNL     1     -12.245  13.396  70.334  1.00  0.00    -0.415 A  
HETATM   17  C   UNL     1     -13.662  13.279  72.315  1.00  0.00    -0.686 A  
HETATM   18  C   UNL     1     -13.501  15.349  71.095  1.00  0.00    -0.565 A  
HETATM   19  C   UNL     1     -12.773  12.675  71.419  1.00  0.00    -0.347 A  
HETATM   20  C   UNL     1     -12.604  14.752  70.209  1.00  0.00    -0.365 A  
HETATM   21  C   UNL     1     -14.036  14.610  72.145  1.00  0.00    -0.604 A  
ENDBRANCH   9  16
ENDBRANCH   7   9
ENDBRANCH   6   7
ENDBRANCH   2   6
TORSDOF 5
ENDMDL
MODEL       74
REMARK 921   NORMALIZED FREE ENERGY PREDICTED BY IDOCK:   -4.69 KCAL/MOL
REMARK 922        TOTAL FREE ENERGY PREDICTED BY IDOCK:   -7.09 KCAL/MOL
REMARK 923 INTER-LIGAND FREE ENERGY PREDICTED BY IDOCK:   -6.36 KCAL/MOL
REMARK 924 INTRA-LIGAND FREE ENERGY PREDICTED BY IDOCK:   -0.73 KCAL/MOL
REMARK 927      BINDING AFFINITY PREDICTED BY RF-SCORE:    0.00 PKD
ROOT
HETATM    1  N   UNL     1     -13.907   8.970  72.869  1.00  0.00    -0.923 N  
HETATM    2  C   UNL     1     -13.198   9.746  71.992  1.00  0.00    -0.460 C  
HETATM    3  H1  UNL     1     -13.848   7.952  72.836  1.00  0.00     0.000 HD 
HETATM    4  H2  UNL     1     -14.504   9.416  73.567  1.00  0.00     0.000 HD 
HETATM    5  O   UNL     1     -13.269  10.971  72.033  1.00  0.00    -0.499 OA 
ENDROOT
BRANCH   2   6
HETATM    6  C   UNL     1     -12.365   8.994  70.974  1.00  0.00    -0.193 C  
BRANCH   6   7
HETATM    7  S   UNL     1     -10.932  10.007  70.532  1.00  0.00    -0.318 S  
HETATM    8  O   UNL     1      -9.722   9.116  70.618  1.00  0.00    -0.214 OA 
BRANCH   7   9
HETATM    9  C   UNL     1     -11.305  10.289  68.736  1.00  0.00    -0.167 C  
BRANCH   9  10
HETATM   10  C   UNL     1     -11.538  11.759  68.410  1.00  0.00    -0.380 A  
HETATM   11  C   UNL     1     -11.739  12.165  67.078  1.00  0.00    -0.373 A  
HETATM   12  C   UNL     1     -11.565  12.740  69.416  1.00  0.00    -0.361 A  
HETATM   13  C   UNL     1     -11.977  13.507  66.766  1.00  0.00    -0.453 A  
HETATM   14  C   UNL     1     -12.007  14.464  67.776  1.00  0.00    -0.368 A  
HETATM   15  C   UNL     1     -11.798  14.081  69.099  1.00  0.00    -0.391 A  
ENDBRANCH   9  10
BRANCH   9  16
HETATM   16  C   UNL     1     -10.248   9.637  67.833  1.00  0.00    -0.242 A  
HETATM   17  C   UNL     1      -9.542   7.749  66.462  1.00  0.00    -0.270 A  
HETATM   18  C   UNL     1      -8.045   9.609  66.776  1.00  0.00    -0.113 A  
HETATM   19  C   UNL     1     -10.506   8.384  67.252  1.00  0.00    -0.373 A  
HETATM   20  C   UNL     1      -9.011  10.249  67.553  1.00  0.00    -0.138 A  
HETATM   21  C   UNL     1      -8.307   8.355  66.236  1.00  0.00    -0.123 A  
ENDBRANCH   9  16
ENDBRANCH   7   9
ENDBRANCH   6   7
ENDBRANCH   2   6
TORSDOF 5
ENDMDL
MODEL       75
REMARK 921   NORMALIZED FREE ENERGY PREDICTED BY IDOCK:   -4.67 KCAL/MOL
REMARK 922        TOTAL FREE ENERGY PREDICTED BY IDOCK:   -7.06 KCAL/MOL
REMARK 923 INTER-LIGAND FREE ENERGY PREDICTED BY IDOCK:   -6.49 KCAL/MOL
REMARK 924 INTRA-LIGAND FREE ENERGY PREDICTED BY IDOCK:   -0.57 KCAL/MOL
REMARK 927      BINDING AFFINITY PREDICTED BY RF-SCORE:    0.00 PKD
ROOT
HETATM    1  N   UNL     1     -11.846   6.607  69.652  1.00  0.00    -0.646 N  
HETATM    2  C   UNL     1     -11.891   6.855  70.998  1.00  0.00    -0.364 C  
HETATM    3  H1  UNL     1     -12.103   7.327  68.977  1.00  0.00     0.000 HD 
HETATM    4  H2  UNL     1     -11.550   5.689  69.319  1.00  0.00     0.000 HD 
HETATM    5  O   UNL     1     -11.582   5.988  71.810  1.00  0.00    -0.287 OA 
ENDROOT
BRANCH   2   6
HETATM    6  C   UNL     1     -12.373   8.235  71.397  1.00  0.00    -0.299 C  
BRANCH   6   7
HETATM    7  S   UNL     1     -11.008   9.407  71.200  1.00  0.00    -0.384 S  
HETATM    8  O   UNL     1      -9.866   8.651  70.576  1.00  0.00    -0.169 OA 
BRANCH   7   9
HETATM    9  C   UNL     1     -11.741  10.509  69.899  1.00  0.00    -0.294 C  
BRANCH   9  10
HETATM   10  C   UNL     1     -12.252  11.826  70.468  1.00  0.00    -0.438 A  
HETATM   11  C   UNL     1     -11.965  13.037  69.812  1.00  0.00    -0.377 A  
HETATM   12  C   UNL     1     -13.019  11.872  71.645  1.00  0.00    -0.447 A  
HETATM   13  C   UNL     1     -12.447  14.253  70.309  1.00  0.00    -0.422 A  
HETATM   14  C   UNL     1     -13.211  14.278  71.472  1.00  0.00    -0.420 A  
HETATM   15  C   UNL     1     -13.493  13.089  72.141  1.00  0.00    -0.638 A  
ENDBRANCH   9  10
BRANCH   9  16
HETATM   16  C   UNL     1     -10.780  10.700  68.717  1.00  0.00    -0.249 A  
HETATM   17  C   UNL     1      -8.606  11.419  67.881  1.00  0.00    -0.140 A  
HETATM   18  C   UNL     1     -10.270  10.633  66.329  1.00  0.00    -0.304 A  
HETATM   19  C   UNL     1      -9.485  11.194  68.946  1.00  0.00    -0.136 A  
HETATM   20  C   UNL     1     -11.143  10.395  67.391  1.00  0.00    -0.297 A  
HETATM   21  C   UNL     1      -9.003  11.151  66.572  1.00  0.00    -0.185 A  
ENDBRANCH   9  16
ENDBRANCH   7   9
ENDBRANCH   6   7
ENDBRANCH   2   6
TORSDOF 5
ENDMDL
MODEL       76
REMARK 921   NORMALIZED FREE ENERGY PREDICTED BY IDOCK:   -4.63 KCAL/MOL
REMARK 922        TOTAL FREE ENERGY PREDICTED BY IDOCK:   -7.01 KCAL/MOL
REMARK 923 INTER-LIGAND FREE ENERGY PREDICTED BY IDOCK:   -6.30 KCAL/MOL
REMARK 924 INTRA-LIGAND FREE ENERGY PREDICTED BY IDOCK:   -0.71 KCAL/MOL
REMARK 927      BINDING AFFINITY PREDICTED BY RF-SCORE:    0.00 PKD
ROOT
HETATM    1  N   UNL     1     -11.660  16.255  70.260  1.00  0.00    -0.435 N  
HETATM    2  C   UNL     1     -11.543  15.771  68.985  1.00  0.00    -0.400 C  
HETATM    3  H1  UNL     1     -12.116  15.706  70.989  1.00  0.00     0.000 HD 
HETATM    4  H2  UNL     1     -11.287  17.177  70.485  1.00  0.00     0.000 HD 
HETATM    5  O   UNL     1     -10.995  16.432  68.108  1.00  0.00    -0.337 OA 
ENDROOT
BRANCH   2   6
HETATM    6  C   UNL     1     -12.156  14.407  68.739  1.00  0.00    -0.241 C  
BRANCH   6   7
HETATM    7  S   UNL     1     -11.882  13.374  70.200  1.00  0.00    -0.223 S  
HETATM    8  O   UNL     1     -13.086  13.542  71.087  1.00  0.00    -0.293 OA 
BRANCH   7   9
HETATM    9  C   UNL     1     -11.988  11.699  69.407  1.00  0.00    -0.316 C  
BRANCH   9  10
HETATM   10  C   UNL     1     -10.937  11.498  68.323  1.00  0.00    -0.272 A  
HETATM   11  C   UNL     1      -9.710  12.183  68.391  1.00  0.00    -0.193 A  
HETATM   12  C   UNL     1     -11.156  10.631  67.239  1.00  0.00    -0.313 A  
HETATM   13  C   UNL     1      -8.727  11.991  67.415  1.00  0.00    -0.170 A  
HETATM   14  C   UNL     1      -8.958  11.122  66.353  1.00  0.00    -0.190 A  
HETATM   15  C   UNL     1     -10.173  10.447  66.263  1.00  0.00    -0.286 A  
ENDBRANCH   9  10
BRANCH   9  16
HETATM   16  C   UNL     1     -11.985  10.579  70.458  1.00  0.00    -0.436 A  
HETATM   17  C   UNL     1     -10.753   8.903  71.730  1.00  0.00    -0.432 A  
HETATM   18  C   UNL     1     -13.138   9.083  72.008  1.00  0.00    -0.474 A  
HETATM   19  C   UNL     1     -10.776   9.956  70.808  1.00  0.00    -0.350 A  
HETATM   20  C   UNL     1     -13.160  10.141  71.099  1.00  0.00    -0.480 A  
HETATM   21  C   UNL     1     -11.936   8.458  72.318  1.00  0.00    -0.455 A  
ENDBRANCH   9  16
ENDBRANCH   7   9
ENDBRANCH   6   7
ENDBRANCH   2   6
TORSDOF 5
ENDMDL
MODEL       77
REMARK 921   NORMALIZED FREE ENERGY PREDICTED BY IDOCK:   -4.61 KCAL/MOL
REMARK 922        TOTAL FREE ENERGY PREDICTED BY IDOCK:   -6.99 KCAL/MOL
REMARK 923 INTER-LIGAND FREE ENERGY PREDICTED BY IDOCK:   -6.49 KCAL/MOL
REMARK 924 INTRA-LIGAND FREE ENERGY PREDICTED BY IDOCK:   -0.50 KCAL/MOL
REMARK 927      BINDING AFFINITY PREDICTED BY RF-SCORE:    0.00 PKD
ROOT
HETATM    1  N   UNL     1      -9.810  16.821  65.888  1.00  0.00    -0.284 N  
HETATM    2  C   UNL     1     -10.614  16.107  65.040  1.00  0.00    -0.276 C  
HETATM    3  H1  UNL     1      -9.298  16.357  66.638  1.00  0.00     0.000 HD 
HETATM    4  H2  UNL     1      -9.723  17.830  65.768  1.00  0.00     0.000 HD 
HETATM    5  O   UNL     1     -11.232  16.665  64.137  1.00  0.00    -1.103 OA 
ENDROOT
BRANCH   2   6
HETATM    6  C   UNL     1     -10.707  14.620  65.316  1.00  0.00    -0.381 C  
BRANCH   6   7
HETATM    7  S   UNL     1     -11.938  14.344  66.613  1.00  0.00    -0.346 S  
HETATM    8  O   UNL     1     -13.203  13.900  65.929  1.00  0.00    -0.419 OA 
BRANCH   7   9
HETATM    9  C   UNL     1     -11.183  12.860  67.433  1.00  0.00    -0.291 C  
BRANCH   9  10
HETATM   10  C   UNL     1      -9.661  12.880  67.393  1.00  0.00    -0.203 A  
HETATM   11  C   UNL     1      -8.957  14.011  67.845  1.00  0.00    -0.188 A  
HETATM   12  C   UNL     1      -8.923  11.785  66.913  1.00  0.00    -0.195 A  
HETATM   13  C   UNL     1      -7.558  14.036  67.836  1.00  0.00    -0.159 A  
HETATM   14  C   UNL     1      -6.844  12.939  67.364  1.00  0.00    -0.133 A  
HETATM   15  C   UNL     1      -7.526  11.816  66.900  1.00  0.00    -0.106 A  
ENDBRANCH   9  10
BRANCH   9  16
HETATM   16  C   UNL     1     -11.741  12.656  68.849  1.00  0.00    -0.370 A  
HETATM   17  C   UNL     1     -12.482  11.142  70.610  1.00  0.00    -0.448 A  
HETATM   18  C   UNL     1     -12.633  13.520  70.953  1.00  0.00    -0.414 A  
HETATM   19  C   UNL     1     -11.933  11.355  69.341  1.00  0.00    -0.407 A  
HETATM   20  C   UNL     1     -12.074  13.734  69.693  1.00  0.00    -0.392 A  
HETATM   21  C   UNL     1     -12.844  12.225  71.410  1.00  0.00    -0.373 A  
ENDBRANCH   9  16
ENDBRANCH   7   9
ENDBRANCH   6   7
ENDBRANCH   2   6
TORSDOF 5
ENDMDL
MODEL       78
REMARK 921   NORMALIZED FREE ENERGY PREDICTED BY IDOCK:   -4.60 KCAL/MOL
REMARK 922        TOTAL FREE ENERGY PREDICTED BY IDOCK:   -6.97 KCAL/MOL
REMARK 923 INTER-LIGAND FREE ENERGY PREDICTED BY IDOCK:   -6.43 KCAL/MOL
REMARK 924 INTRA-LIGAND FREE ENERGY PREDICTED BY IDOCK:   -0.54 KCAL/MOL
REMARK 927      BINDING AFFINITY PREDICTED BY RF-SCORE:    0.00 PKD
ROOT
HETATM    1  N   UNL     1      -8.864   7.738  68.126  1.00  0.00    -0.126 N  
HETATM    2  C   UNL     1      -9.349   8.960  67.746  1.00  0.00    -0.141 C  
HETATM    3  H1  UNL     1      -9.481   7.030  68.523  1.00  0.00     0.000 HD 
HETATM    4  H2  UNL     1      -7.871   7.532  68.011  1.00  0.00     0.000 HD 
HETATM    5  O   UNL     1      -8.605   9.813  67.268  1.00  0.00    -0.127 OA 
ENDROOT
BRANCH   2   6
HETATM    6  C   UNL     1     -10.828   9.185  67.984  1.00  0.00    -0.075 C  
BRANCH   6   7
HETATM    7  S   UNL     1     -11.095  10.931  68.381  1.00  0.00    -0.286 S  
HETATM    8  O   UNL     1     -11.956  11.503  67.287  1.00  0.00    -0.605 OA 
BRANCH   7   9
HETATM    9  C   UNL     1     -12.151  10.737  69.895  1.00  0.00    -0.337 C  
BRANCH   9  10
HETATM   10  C   UNL     1     -11.601   9.698  70.863  1.00  0.00    -0.420 A  
HETATM   11  C   UNL     1     -12.460   8.743  71.438  1.00  0.00    -0.348 A  
HETATM   12  C   UNL     1     -10.238   9.657  71.203  1.00  0.00    -0.180 A  
HETATM   13  C   UNL     1     -11.966   7.768  72.311  1.00  0.00    -0.356 A  
HETATM   14  C   UNL     1     -10.612   7.739  72.630  1.00  0.00    -0.377 A  
HETATM   15  C   UNL     1      -9.750   8.685  72.080  1.00  0.00    -0.391 A  
ENDBRANCH   9  10
BRANCH   9  16
HETATM   16  C   UNL     1     -12.428  12.091  70.564  1.00  0.00    -0.292 A  
HETATM   17  C   UNL     1     -13.443  13.360  72.381  1.00  0.00    -0.685 A  
HETATM   18  C   UNL     1     -12.306  14.531  70.611  1.00  0.00    -0.407 A  
HETATM   19  C   UNL     1     -13.140  12.137  71.774  1.00  0.00    -0.457 A  
HETATM   20  C   UNL     1     -11.991  13.311  70.012  1.00  0.00    -0.399 A  
HETATM   21  C   UNL     1     -13.038  14.557  71.792  1.00  0.00    -0.421 A  
ENDBRANCH   9  16
ENDBRANCH   7   9
ENDBRANCH   6   7
ENDBRANCH   2   6
TORSDOF 5
ENDMDL
MODEL       79
REMARK 921   NORMALIZED FREE ENERGY PREDICTED BY IDOCK:   -4.59 KCAL/MOL
REMARK 922        TOTAL FREE ENERGY PREDICTED BY IDOCK:   -6.95 KCAL/MOL
REMARK 923 INTER-LIGAND FREE ENERGY PREDICTED BY IDOCK:   -6.64 KCAL/MOL
REMARK 924 INTRA-LIGAND FREE ENERGY PREDICTED BY IDOCK:   -0.31 KCAL/MOL
REMARK 927      BINDING AFFINITY PREDICTED BY RF-SCORE:    0.00 PKD
ROOT
HETATM    1  N   UNL     1     -12.937  15.001  69.964  1.00  0.00    -0.620 N  
HETATM    2  C   UNL     1     -12.347  13.786  69.744  1.00  0.00    -0.255 C  
HETATM    3  H1  UNL     1     -13.020  15.687  69.213  1.00  0.00     0.000 HD 
HETATM    4  H2  UNL     1     -13.299  15.224  70.891  1.00  0.00     0.000 HD 
HETATM    5  O   UNL     1     -12.247  12.960  70.647  1.00  0.00    -0.372 OA 
ENDROOT
BRANCH   2   6
HETATM    6  C   UNL     1     -11.811  13.558  68.345  1.00  0.00    -0.373 C  
BRANCH   6   7
HETATM    7  S   UNL     1     -10.006  13.452  68.423  1.00  0.00    -0.204 S  
HETATM    8  O   UNL     1      -9.647  11.994  68.319  1.00  0.00    -0.197 OA 
BRANCH   7   9
HETATM    9  C   UNL     1      -9.587  14.258  66.805  1.00  0.00    -0.280 C  
BRANCH   9  10
HETATM   10  C   UNL     1     -10.459  13.761  65.660  1.00  0.00    -0.312 A  
HETATM   11  C   UNL     1     -10.271  12.467  65.138  1.00  0.00    -0.299 A  
HETATM   12  C   UNL     1     -11.468  14.564  65.100  1.00  0.00    -0.368 A  
HETATM   13  C   UNL     1     -11.080  11.988  64.102  1.00  0.00    -0.431 A  
HETATM   14  C   UNL     1     -12.078  12.795  63.566  1.00  0.00    -0.642 A  
HETATM   15  C   UNL     1     -12.269  14.082  64.061  1.00  0.00    -0.395 A  
ENDBRANCH   9  10
BRANCH   9  16
HETATM   16  C   UNL     1      -9.575  15.789  66.926  1.00  0.00    -0.243 A  
HETATM   17  C   UNL     1      -8.524  17.923  66.395  1.00  0.00    -0.263 A  
HETATM   18  C   UNL     1     -10.462  17.881  67.823  1.00  0.00    -0.409 A  
HETATM   19  C   UNL     1      -8.583  16.532  66.264  1.00  0.00    -0.367 A  
HETATM   20  C   UNL     1     -10.531  16.495  67.682  1.00  0.00    -0.305 A  
HETATM   21  C   UNL     1      -9.455  18.596  67.185  1.00  0.00    -0.308 A  
ENDBRANCH   9  16
ENDBRANCH   7   9
ENDBRANCH   6   7
ENDBRANCH   2   6
TORSDOF 5
ENDMDL
MODEL       80
REMARK 921   NORMALIZED FREE ENERGY PREDICTED BY IDOCK:   -4.56 KCAL/MOL
REMARK 922        TOTAL FREE ENERGY PREDICTED BY IDOCK:   -6.92 KCAL/MOL
REMARK 923 INTER-LIGAND FREE ENERGY PREDICTED BY IDOCK:   -6.05 KCAL/MOL
REMARK 924 INTRA-LIGAND FREE ENERGY PREDICTED BY IDOCK:   -0.87 KCAL/MOL
REMARK 927      BINDING AFFINITY PREDICTED BY RF-SCORE:    0.00 PKD
ROOT
HETATM    1  N   UNL     1     -14.190   8.089  70.995  1.00  0.00    -0.655 N  
HETATM    2  C   UNL     1     -13.519   9.045  71.709  1.00  0.00    -0.411 C  
HETATM    3  H1  UNL     1     -14.385   8.217  70.002  1.00  0.00     0.000 HD 
HETATM    4  H2  UNL     1     -14.498   7.236  71.462  1.00  0.00     0.000 HD 
HETATM    5  O   UNL     1     -13.284   8.891  72.904  1.00  0.00    -0.333 OA 
ENDROOT
BRANCH   2   6
HETATM    6  C   UNL     1     -13.129  10.290  70.939  1.00  0.00    -0.344 C  
BRANCH   6   7
HETATM    7  S   UNL     1     -11.371  10.190  70.521  1.00  0.00    -0.355 S  
HETATM    8  O   UNL     1     -10.930   8.781  70.814  1.00  0.00    -0.230 OA 
BRANCH   7   9
HETATM    9  C   UNL     1     -11.489  10.379  68.678  1.00  0.00    -0.172 C  
BRANCH   9  10
HETATM   10  C   UNL     1     -11.602  11.834  68.245  1.00  0.00    -0.373 A  
HETATM   11  C   UNL     1     -11.712  12.159  66.880  1.00  0.00    -0.374 A  
HETATM   12  C   UNL     1     -11.604  12.882  69.181  1.00  0.00    -0.375 A  
HETATM   13  C   UNL     1     -11.839  13.490  66.468  1.00  0.00    -0.441 A  
HETATM   14  C   UNL     1     -11.847  14.514  67.410  1.00  0.00    -0.416 A  
HETATM   15  C   UNL     1     -11.725  14.211  68.764  1.00  0.00    -0.380 A  
ENDBRANCH   9  10
BRANCH   9  16
HETATM   16  C   UNL     1     -10.356   9.628  67.963  1.00  0.00    -0.262 A  
HETATM   17  C   UNL     1      -7.989   9.439  67.414  1.00  0.00    -0.106 A  
HETATM   18  C   UNL     1      -9.549   7.856  66.486  1.00  0.00    -0.281 A  
HETATM   19  C   UNL     1      -9.032  10.079  68.091  1.00  0.00    -0.122 A  
HETATM   20  C   UNL     1     -10.588   8.485  67.172  1.00  0.00    -0.314 A  
HETATM   21  C   UNL     1      -8.249   8.336  66.601  1.00  0.00    -0.106 A  
ENDBRANCH   9  16
ENDBRANCH   7   9
ENDBRANCH   6   7
ENDBRANCH   2   6
TORSDOF 5
ENDMDL
MODEL       81
REMARK 921   NORMALIZED FREE ENERGY PREDICTED BY IDOCK:   -4.54 KCAL/MOL
REMARK 922        TOTAL FREE ENERGY PREDICTED BY IDOCK:   -6.90 KCAL/MOL
REMARK 923 INTER-LIGAND FREE ENERGY PREDICTED BY IDOCK:   -6.62 KCAL/MOL
REMARK 924 INTRA-LIGAND FREE ENERGY PREDICTED BY IDOCK:   -0.28 KCAL/MOL
REMARK 927      BINDING AFFINITY PREDICTED BY RF-SCORE:    0.00 PKD
ROOT
HETATM    1  N   UNL     1      -9.096   9.950  70.410  1.00  0.00    -0.350 N  
HETATM    2  C   UNL     1     -10.422   9.688  70.625  1.00  0.00    -0.312 C  
HETATM    3  H1  UNL     1      -8.805  10.693  69.776  1.00  0.00     0.000 HD 
HETATM    4  H2  UNL     1      -8.388   9.394  70.891  1.00  0.00     0.000 HD 
HETATM    5  O   UNL     1     -10.773   8.794  71.390  1.00  0.00    -0.240 OA 
ENDROOT
BRANCH   2   6
HETATM    6  C   UNL     1     -11.398  10.544  69.843  1.00  0.00    -0.309 C  
BRANCH   6   7
HETATM    7  S   UNL     1     -10.473  11.525  68.636  1.00  0.00    -0.201 S  
HETATM    8  O   UNL     1     -10.400  10.711  67.372  1.00  0.00    -0.196 OA 
BRANCH   7   9
HETATM    9  C   UNL     1     -11.696  12.895  68.362  1.00  0.00    -0.345 C  
BRANCH   9  10
HETATM   10  C   UNL     1     -11.763  13.862  69.536  1.00  0.00    -0.369 A  
HETATM   11  C   UNL     1     -11.191  15.143  69.430  1.00  0.00    -0.293 A  
HETATM   12  C   UNL     1     -12.395  13.513  70.742  1.00  0.00    -0.440 A  
HETATM   13  C   UNL     1     -11.266  16.051  70.492  1.00  0.00    -0.397 A  
HETATM   14  C   UNL     1     -11.901  15.690  71.676  1.00  0.00    -0.504 A  
HETATM   15  C   UNL     1     -12.461  14.421  71.802  1.00  0.00    -0.414 A  
ENDBRANCH   9  10
BRANCH   9  16
HETATM   16  C   UNL     1     -11.458  13.600  67.019  1.00  0.00    -0.368 A  
HETATM   17  C   UNL     1      -9.943  14.762  65.502  1.00  0.00    -0.390 A  
HETATM   18  C   UNL     1     -12.254  14.487  64.886  1.00  0.00    -0.409 A  
HETATM   19  C   UNL     1     -10.176  14.077  66.700  1.00  0.00    -0.275 A  
HETATM   20  C   UNL     1     -12.485  13.792  66.073  1.00  0.00    -0.491 A  
HETATM   21  C   UNL     1     -10.985  14.978  64.602  1.00  0.00    -0.320 A  
ENDBRANCH   9  16
ENDBRANCH   7   9
ENDBRANCH   6   7
ENDBRANCH   2   6
TORSDOF 5
ENDMDL
MODEL       82
REMARK 921   NORMALIZED FREE ENERGY PREDICTED BY IDOCK:   -4.53 KCAL/MOL
REMARK 922        TOTAL FREE ENERGY PREDICTED BY IDOCK:   -6.88 KCAL/MOL
REMARK 923 INTER-LIGAND FREE ENERGY PREDICTED BY IDOCK:   -6.51 KCAL/MOL
REMARK 924 INTRA-LIGAND FREE ENERGY PREDICTED BY IDOCK:   -0.37 KCAL/MOL
REMARK 927      BINDING AFFINITY PREDICTED BY RF-SCORE:    0.00 PKD
ROOT
HETATM    1  N   UNL     1     -12.315  13.929  63.340  1.00  0.00    -1.139 N  
HETATM    2  C   UNL     1     -12.528  13.123  64.426  1.00  0.00    -0.310 C  
HETATM    3  H1  UNL     1     -11.862  14.837  63.441  1.00  0.00     0.000 HD 
HETATM    4  H2  UNL     1     -12.614  13.616  62.415  1.00  0.00     0.000 HD 
HETATM    5  O   UNL     1     -13.074  12.030  64.304  1.00  0.00    -0.671 OA 
ENDROOT
BRANCH   2   6
HETATM    6  C   UNL     1     -12.081  13.685  65.760  1.00  0.00    -0.428 C  
BRANCH   6   7
HETATM    7  S   UNL     1     -10.547  14.615  65.515  1.00  0.00    -0.384 S  
HETATM    8  O   UNL     1     -10.901  16.075  65.606  1.00  0.00    -0.327 OA 
BRANCH   7   9
HETATM    9  C   UNL     1      -9.658  14.146  67.075  1.00  0.00    -0.262 C  
BRANCH   9  10
HETATM   10  C   UNL     1     -10.572  14.149  68.293  1.00  0.00    -0.254 A  
HETATM   11  C   UNL     1     -10.950  15.366  68.890  1.00  0.00    -0.261 A  
HETATM   12  C   UNL     1     -11.063  12.955  68.848  1.00  0.00    -0.301 A  
HETATM   13  C   UNL     1     -11.807  15.387  69.995  1.00  0.00    -0.368 A  
HETATM   14  C   UNL     1     -12.289  14.195  70.527  1.00  0.00    -0.434 A  
HETATM   15  C   UNL     1     -11.915  12.981  69.956  1.00  0.00    -0.383 A  
ENDBRANCH   9  10
BRANCH   9  16
HETATM   16  C   UNL     1      -8.889  12.828  66.908  1.00  0.00    -0.194 A  
HETATM   17  C   UNL     1      -8.775  10.570  65.997  1.00  0.00    -0.174 A  
HETATM   18  C   UNL     1      -6.985  11.374  67.391  1.00  0.00    -0.106 A  
HETATM   19  C   UNL     1      -9.436  11.796  66.128  1.00  0.00    -0.240 A  
HETATM   20  C   UNL     1      -7.635  12.602  67.511  1.00  0.00    -0.160 A  
HETATM   21  C   UNL     1      -7.557  10.355  66.639  1.00  0.00    -0.114 A  
ENDBRANCH   9  16
ENDBRANCH   7   9
ENDBRANCH   6   7
ENDBRANCH   2   6
TORSDOF 5
ENDMDL
MODEL       83
REMARK 921   NORMALIZED FREE ENERGY PREDICTED BY IDOCK:   -4.51 KCAL/MOL
REMARK 922        TOTAL FREE ENERGY PREDICTED BY IDOCK:   -6.86 KCAL/MOL
REMARK 923 INTER-LIGAND FREE ENERGY PREDICTED BY IDOCK:   -6.28 KCAL/MOL
REMARK 924 INTRA-LIGAND FREE ENERGY PREDICTED BY IDOCK:   -0.57 KCAL/MOL
REMARK 927      BINDING AFFINITY PREDICTED BY RF-SCORE:    0.00 PKD
ROOT
HETATM    1  N   UNL     1     -13.052  12.613  64.409  1.00  0.00    -0.730 N  
HETATM    2  C   UNL     1     -12.173  13.651  64.254  1.00  0.00    -0.396 C  
HETATM    3  H1  UNL     1     -12.729  11.692  64.706  1.00  0.00     0.000 HD 
HETATM    4  H2  UNL     1     -14.045  12.762  64.225  1.00  0.00     0.000 HD 
HETATM    5  O   UNL     1     -12.563  14.759  63.896  1.00  0.00    -0.834 OA 
ENDROOT
BRANCH   2   6
HETATM    6  C   UNL     1     -10.717  13.326  64.518  1.00  0.00    -0.411 C  
BRANCH   6   7
HETATM    7  S   UNL     1     -10.555  11.541  64.769  1.00  0.00    -0.312 S  
HETATM    8  O   UNL     1      -9.536  11.049  63.778  1.00  0.00    -0.225 OA 
BRANCH   7   9
HETATM    9  C   UNL     1      -9.763  11.544  66.447  1.00  0.00    -0.207 C  
BRANCH   9  10
HETATM   10  C   UNL     1     -10.266  12.678  67.330  1.00  0.00    -0.219 A  
HETATM   11  C   UNL     1     -11.572  12.641  67.853  1.00  0.00    -0.401 A  
HETATM   12  C   UNL     1      -9.452  13.778  67.649  1.00  0.00    -0.217 A  
HETATM   13  C   UNL     1     -12.041  13.664  68.684  1.00  0.00    -0.325 A  
HETATM   14  C   UNL     1     -11.218  14.743  68.995  1.00  0.00    -0.286 A  
HETATM   15  C   UNL     1      -9.927  14.801  68.475  1.00  0.00    -0.228 A  
ENDBRANCH   9  10
BRANCH   9  16
HETATM   16  C   UNL     1      -9.870  10.168  67.122  1.00  0.00    -0.231 A  
HETATM   17  C   UNL     1     -10.341   7.783  66.950  1.00  0.00    -0.396 A  
HETATM   18  C   UNL     1      -9.814   8.733  69.099  1.00  0.00    -0.181 A  
HETATM   19  C   UNL     1     -10.194   9.039  66.352  1.00  0.00    -0.297 A  
HETATM   20  C   UNL     1      -9.653   9.984  68.502  1.00  0.00    -0.157 A  
HETATM   21  C   UNL     1     -10.164   7.633  68.325  1.00  0.00    -0.229 A  
ENDBRANCH   9  16
ENDBRANCH   7   9
ENDBRANCH   6   7
ENDBRANCH   2   6
TORSDOF 5
ENDMDL
MODEL       84
REMARK 921   NORMALIZED FREE ENERGY PREDICTED BY IDOCK:   -4.51 KCAL/MOL
REMARK 922        TOTAL FREE ENERGY PREDICTED BY IDOCK:   -6.85 KCAL/MOL
REMARK 923 INTER-LIGAND FREE ENERGY PREDICTED BY IDOCK:   -6.52 KCAL/MOL
REMARK 924 INTRA-LIGAND FREE ENERGY PREDICTED BY IDOCK:   -0.34 KCAL/MOL
REMARK 927      BINDING AFFINITY PREDICTED BY RF-SCORE:    0.00 PKD
ROOT
HETATM    1  N   UNL     1     -11.080   7.339  68.189  1.00  0.00    -0.478 N  
HETATM    2  C   UNL     1     -10.133   8.255  67.818  1.00  0.00    -0.206 C  
HETATM    3  H1  UNL     1     -11.973   7.280  67.699  1.00  0.00     0.000 HD 
HETATM    4  H2  UNL     1     -10.891   6.705  68.966  1.00  0.00     0.000 HD 
HETATM    5  O   UNL     1      -9.058   8.325  68.407  1.00  0.00    -0.136 OA 
ENDROOT
BRANCH   2   6
HETATM    6  C   UNL     1     -10.517   9.173  66.675  1.00  0.00    -0.167 C  
BRANCH   6   7
HETATM    7  S   UNL     1      -9.788  10.803  66.967  1.00  0.00    -0.193 S  
HETATM    8  O   UNL     1      -9.093  11.207  65.695  1.00  0.00    -0.205 OA 
BRANCH   7   9
HETATM    9  C   UNL     1     -11.342  11.807  67.111  1.00  0.00    -0.322 C  
BRANCH   9  10
HETATM   10  C   UNL     1     -11.754  12.044  68.558  1.00  0.00    -0.387 A  
HETATM   11  C   UNL     1     -11.892  13.356  69.048  1.00  0.00    -0.378 A  
HETATM   12  C   UNL     1     -12.009  10.976  69.435  1.00  0.00    -0.408 A  
HETATM   13  C   UNL     1     -12.292  13.589  70.368  1.00  0.00    -0.397 A  
HETATM   14  C   UNL     1     -12.547  12.519  71.220  1.00  0.00    -0.332 A  
HETATM   15  C   UNL     1     -12.402  11.214  70.754  1.00  0.00    -0.504 A  
ENDBRANCH   9  10
BRANCH   9  16
HETATM   16  C   UNL     1     -11.251  13.104  66.295  1.00  0.00    -0.328 A  
HETATM   17  C   UNL     1     -12.206  14.597  64.621  1.00  0.00    -0.447 A  
HETATM   18  C   UNL     1     -10.073  15.130  65.602  1.00  0.00    -0.392 A  
HETATM   19  C   UNL     1     -12.286  13.444  65.409  1.00  0.00    -0.522 A  
HETATM   20  C   UNL     1     -10.158  13.987  66.398  1.00  0.00    -0.299 A  
HETATM   21  C   UNL     1     -11.093  15.432  64.708  1.00  0.00    -0.416 A  
ENDBRANCH   9  16
ENDBRANCH   7   9
ENDBRANCH   6   7
ENDBRANCH   2   6
TORSDOF 5
ENDMDL
MODEL       85
REMARK 921   NORMALIZED FREE ENERGY PREDICTED BY IDOCK:   -4.50 KCAL/MOL
REMARK 922        TOTAL FREE ENERGY PREDICTED BY IDOCK:   -6.84 KCAL/MOL
REMARK 923 INTER-LIGAND FREE ENERGY PREDICTED BY IDOCK:   -5.91 KCAL/MOL
REMARK 924 INTRA-LIGAND FREE ENERGY PREDICTED BY IDOCK:   -0.94 KCAL/MOL
REMARK 927      BINDING AFFINITY PREDICTED BY RF-SCORE:    0.00 PKD
ROOT
HETATM    1  N   UNL     1     -13.164   9.826  70.707  1.00  0.00    -0.600 N  
HETATM    2  C   UNL     1     -11.843   9.644  71.018  1.00  0.00    -0.347 C  
HETATM    3  H1  UNL     1     -13.439  10.319  69.858  1.00  0.00     0.000 HD 
HETATM    4  H2  UNL     1     -13.883   9.464  71.334  1.00  0.00     0.000 HD 
HETATM    5  O   UNL     1     -11.512   9.051  72.040  1.00  0.00    -0.365 OA 
ENDROOT
BRANCH   2   6
HETATM    6  C   UNL     1     -10.849  10.244  70.045  1.00  0.00    -0.307 C  
BRANCH   6   7
HETATM    7  S   UNL     1     -11.696  11.489  69.041  1.00  0.00    -0.355 S  
HETATM    8  O   UNL     1     -11.979  12.661  69.941  1.00  0.00    -0.321 OA 
BRANCH   7   9
HETATM    9  C   UNL     1     -10.303  11.963  67.910  1.00  0.00    -0.198 C  
BRANCH   9  10
HETATM   10  C   UNL     1      -9.513  10.757  67.418  1.00  0.00    -0.171 A  
HETATM   11  C   UNL     1     -10.120   9.812  66.571  1.00  0.00    -0.307 A  
HETATM   12  C   UNL     1      -8.171  10.557  67.785  1.00  0.00    -0.107 A  
HETATM   13  C   UNL     1      -9.401   8.712  66.092  1.00  0.00    -0.291 A  
HETATM   14  C   UNL     1      -8.071   8.534  66.461  1.00  0.00    -0.103 A  
HETATM   15  C   UNL     1      -7.458   9.453  67.309  1.00  0.00    -0.091 A  
ENDBRANCH   9  10
BRANCH   9  16
HETATM   16  C   UNL     1     -10.788  12.867  66.768  1.00  0.00    -0.288 A  
HETATM   17  C   UNL     1     -12.623  13.724  65.411  1.00  0.00    -0.534 A  
HETATM   18  C   UNL     1     -10.367  14.407  64.918  1.00  0.00    -0.419 A  
HETATM   19  C   UNL     1     -12.160  12.942  66.475  1.00  0.00    -0.375 A  
HETATM   20  C   UNL     1      -9.905  13.639  65.987  1.00  0.00    -0.290 A  
HETATM   21  C   UNL     1     -11.726  14.445  64.625  1.00  0.00    -0.438 A  
ENDBRANCH   9  16
ENDBRANCH   7   9
ENDBRANCH   6   7
ENDBRANCH   2   6
TORSDOF 5
ENDMDL
MODEL       86
REMARK 921   NORMALIZED FREE ENERGY PREDICTED BY IDOCK:   -4.50 KCAL/MOL
REMARK 922        TOTAL FREE ENERGY PREDICTED BY IDOCK:   -6.84 KCAL/MOL
REMARK 923 INTER-LIGAND FREE ENERGY PREDICTED BY IDOCK:   -6.03 KCAL/MOL
REMARK 924 INTRA-LIGAND FREE ENERGY PREDICTED BY IDOCK:   -0.82 KCAL/MOL
REMARK 927      BINDING AFFINITY PREDICTED BY RF-SCORE:    0.00 PKD
ROOT
HETATM    1  N   UNL     1      -9.815  20.599  67.518  1.00  0.00    -0.414 N  
HETATM    2  C   UNL     1     -10.387  19.681  66.678  1.00  0.00    -0.486 C  
HETATM    3  H1  UNL     1      -9.529  20.339  68.462  1.00  0.00     0.000 HD 
HETATM    4  H2  UNL     1      -9.672  21.557  67.195  1.00  0.00     0.000 HD 
HETATM    5  O   UNL     1     -10.731  19.995  65.542  1.00  0.00    -0.426 OA 
ENDROOT
BRANCH   2   6
HETATM    6  C   UNL     1     -10.587  18.295  67.256  1.00  0.00    -0.381 C  
BRANCH   6   7
HETATM    7  S   UNL     1     -10.048  17.072  66.035  1.00  0.00    -0.266 S  
HETATM    8  O   UNL     1      -8.601  17.357  65.738  1.00  0.00    -0.526 OA 
BRANCH   7   9
HETATM    9  C   UNL     1     -10.125  15.544  67.086  1.00  0.00    -0.254 C  
BRANCH   9  10
HETATM   10  C   UNL     1     -10.656  14.337  66.325  1.00  0.00    -0.291 A  
HETATM   11  C   UNL     1     -10.579  14.296  64.921  1.00  0.00    -0.452 A  
HETATM   12  C   UNL     1     -11.228  13.240  66.992  1.00  0.00    -0.319 A  
HETATM   13  C   UNL     1     -11.042  13.184  64.209  1.00  0.00    -0.426 A  
HETATM   14  C   UNL     1     -11.598  12.104  64.888  1.00  0.00    -0.371 A  
HETATM   15  C   UNL     1     -11.694  12.134  66.277  1.00  0.00    -0.389 A  
ENDBRANCH   9  10
BRANCH   9  16
HETATM   16  C   UNL     1      -8.782  15.271  67.779  1.00  0.00    -0.168 A  
HETATM   17  C   UNL     1      -7.266  15.681  69.643  1.00  0.00    -0.153 A  
HETATM   18  C   UNL     1      -6.569  14.238  67.847  1.00  0.00    -0.175 A  
HETATM   19  C   UNL     1      -8.499  15.879  69.014  1.00  0.00    -0.242 A  
HETATM   20  C   UNL     1      -7.804  14.423  67.224  1.00  0.00    -0.188 A  
HETATM   21  C   UNL     1      -6.297  14.872  69.053  1.00  0.00    -0.099 A  
ENDBRANCH   9  16
ENDBRANCH   7   9
ENDBRANCH   6   7
ENDBRANCH   2   6
TORSDOF 5
ENDMDL
MODEL       87
REMARK 921   NORMALIZED FREE ENERGY PREDICTED BY IDOCK:   -4.50 KCAL/MOL
REMARK 922        TOTAL FREE ENERGY PREDICTED BY IDOCK:   -6.84 KCAL/MOL
REMARK 923 INTER-LIGAND FREE ENERGY PREDICTED BY IDOCK:   -6.46 KCAL/MOL
REMARK 924 INTRA-LIGAND FREE ENERGY PREDICTED BY IDOCK:   -0.38 KCAL/MOL
REMARK 927      BINDING AFFINITY PREDICTED BY RF-SCORE:    0.00 PKD
ROOT
HETATM    1  N   UNL     1     -10.478  18.194  66.343  1.00  0.00    -0.375 N  
HETATM    2  C   UNL     1     -10.585  18.576  67.653  1.00  0.00    -0.414 C  
HETATM    3  H1  UNL     1     -10.540  17.211  66.077  1.00  0.00     0.000 HD 
HETATM    4  H2  UNL     1     -10.335  18.902  65.622  1.00  0.00     0.000 HD 
HETATM    5  O   UNL     1     -10.511  19.759  67.973  1.00  0.00    -0.434 OA 
ENDROOT
BRANCH   2   6
HETATM    6  C   UNL     1     -10.764  17.453  68.654  1.00  0.00    -0.249 C  
BRANCH   6   7
HETATM    7  S   UNL     1      -9.507  16.190  68.344  1.00  0.00    -0.215 S  
HETATM    8  O   UNL     1      -8.392  16.429  69.327  1.00  0.00    -0.218 OA 
BRANCH   7   9
HETATM    9  C   UNL     1     -10.445  14.688  68.900  1.00  0.00    -0.248 C  
BRANCH   9  10
HETATM   10  C   UNL     1     -11.409  14.989  70.039  1.00  0.00    -0.305 A  
HETATM   11  C   UNL     1     -10.917  15.396  71.293  1.00  0.00    -0.240 A  
HETATM   12  C   UNL     1     -12.801  14.876  69.875  1.00  0.00    -0.035 A  
HETATM   13  C   UNL     1     -11.792  15.699  72.342  1.00  0.00    -0.584 A  
HETATM   14  C   UNL     1     -13.166  15.588  72.159  1.00  0.00    -0.541 A  
HETATM   15  C   UNL     1     -13.670  15.174  70.928  1.00  0.00    -0.352 A  
ENDBRANCH   9  10
BRANCH   9  16
HETATM   16  C   UNL     1     -11.119  13.977  67.717  1.00  0.00    -0.284 A  
HETATM   17  C   UNL     1     -11.624  11.909  66.529  1.00  0.00    -0.328 A  
HETATM   18  C   UNL     1     -12.365  14.010  65.615  1.00  0.00    -0.502 A  
HETATM   19  C   UNL     1     -11.056  12.577  67.619  1.00  0.00    -0.301 A  
HETATM   20  C   UNL     1     -11.811  14.676  66.709  1.00  0.00    -0.334 A  
HETATM   21  C   UNL     1     -12.266  12.627  65.521  1.00  0.00    -0.501 A  
ENDBRANCH   9  16
ENDBRANCH   7   9
ENDBRANCH   6   7
ENDBRANCH   2   6
TORSDOF 5
ENDMDL
MODEL       88
REMARK 921   NORMALIZED FREE ENERGY PREDICTED BY IDOCK:   -4.48 KCAL/MOL
REMARK 922        TOTAL FREE ENERGY PREDICTED BY IDOCK:   -6.82 KCAL/MOL
REMARK 923 INTER-LIGAND FREE ENERGY PREDICTED BY IDOCK:   -6.33 KCAL/MOL
REMARK 924 INTRA-LIGAND FREE ENERGY PREDICTED BY IDOCK:   -0.49 KCAL/MOL
REMARK 927      BINDING AFFINITY PREDICTED BY RF-SCORE:    0.00 PKD
ROOT
HETATM    1  N   UNL     1     -11.572  14.250  64.186  1.00  0.00    -0.635 N  
HETATM    2  C   UNL     1     -11.002  14.571  65.388  1.00  0.00    -0.342 C  
HETATM    3  H1  UNL     1     -12.491  13.809  64.142  1.00  0.00     0.000 HD 
HETATM    4  H2  UNL     1     -11.072  14.456  63.321  1.00  0.00     0.000 HD 
HETATM    5  O   UNL     1      -9.897  15.102  65.441  1.00  0.00    -0.328 OA 
ENDROOT
BRANCH   2   6
HETATM    6  C   UNL     1     -11.805  14.199  66.618  1.00  0.00    -0.424 C  
BRANCH   6   7
HETATM    7  S   UNL     1     -11.906  12.395  66.724  1.00  0.00    -0.226 S  
HETATM    8  O   UNL     1     -11.153  11.843  65.544  1.00  0.00    -0.302 OA 
BRANCH   7   9
HETATM    9  C   UNL     1     -10.868  12.124  68.239  1.00  0.00    -0.223 C  
BRANCH   9  10
HETATM   10  C   UNL     1     -11.666  12.272  69.528  1.00  0.00    -0.398 A  
HETATM   11  C   UNL     1     -11.985  13.551  70.019  1.00  0.00    -0.410 A  
HETATM   12  C   UNL     1     -12.104  11.151  70.254  1.00  0.00    -0.462 A  
HETATM   13  C   UNL     1     -12.736  13.702  71.189  1.00  0.00    -0.432 A  
HETATM   14  C   UNL     1     -13.169  12.581  71.891  1.00  0.00    -0.495 A  
HETATM   15  C   UNL     1     -12.850  11.308  71.426  1.00  0.00    -0.515 A  
ENDBRANCH   9  10
BRANCH   9  16
HETATM   16  C   UNL     1     -10.095  10.799  68.162  1.00  0.00    -0.183 A  
HETATM   17  C   UNL     1     -10.093   8.397  67.748  1.00  0.00    -0.263 A  
HETATM   18  C   UNL     1      -8.056   9.481  68.434  1.00  0.00    -0.101 A  
HETATM   19  C   UNL     1     -10.765   9.624  67.783  1.00  0.00    -0.316 A  
HETATM   20  C   UNL     1      -8.721  10.708  68.456  1.00  0.00    -0.141 A  
HETATM   21  C   UNL     1      -8.743   8.324  68.087  1.00  0.00    -0.136 A  
ENDBRANCH   9  16
ENDBRANCH   7   9
ENDBRANCH   6   7
ENDBRANCH   2   6
TORSDOF 5
ENDMDL
MODEL       89
REMARK 921   NORMALIZED FREE ENERGY PREDICTED BY IDOCK:   -4.48 KCAL/MOL
REMARK 922        TOTAL FREE ENERGY PREDICTED BY IDOCK:   -6.82 KCAL/MOL
REMARK 923 INTER-LIGAND FREE ENERGY PREDICTED BY IDOCK:   -6.36 KCAL/MOL
REMARK 924 INTRA-LIGAND FREE ENERGY PREDICTED BY IDOCK:   -0.46 KCAL/MOL
REMARK 927      BINDING AFFINITY PREDICTED BY RF-SCORE:    0.00 PKD
ROOT
HETATM    1  N   UNL     1      -8.629  10.425  69.770  1.00  0.00    -0.382 N  
HETATM    2  C   UNL     1      -9.704   9.599  69.959  1.00  0.00    -0.241 C  
HETATM    3  H1  UNL     1      -8.544  10.989  68.924  1.00  0.00     0.000 HD 
HETATM    4  H2  UNL     1      -7.903  10.479  70.485  1.00  0.00     0.000 HD 
HETATM    5  O   UNL     1      -9.806   8.921  70.977  1.00  0.00    -0.207 OA 
ENDROOT
BRANCH   2   6
HETATM    6  C   UNL     1     -10.713   9.562  68.830  1.00  0.00    -0.190 C  
BRANCH   6   7
HETATM    7  S   UNL     1     -11.760  11.035  68.936  1.00  0.00    -0.309 S  
HETATM    8  O   UNL     1     -11.712  11.505  70.365  1.00  0.00    -0.320 OA 
BRANCH   7   9
HETATM    9  C   UNL     1     -10.740  12.203  67.917  1.00  0.00    -0.207 C  
BRANCH   9  10
HETATM   10  C   UNL     1     -11.087  12.143  66.435  1.00  0.00    -0.358 A  
HETATM   11  C   UNL     1     -12.141  12.922  65.924  1.00  0.00    -0.503 A  
HETATM   12  C   UNL     1     -10.373  11.323  65.545  1.00  0.00    -0.321 A  
HETATM   13  C   UNL     1     -12.457  12.896  64.562  1.00  0.00    -0.468 A  
HETATM   14  C   UNL     1     -11.735  12.083  63.694  1.00  0.00    -0.587 A  
HETATM   15  C   UNL     1     -10.697  11.295  64.186  1.00  0.00    -0.436 A  
ENDBRANCH   9  10
BRANCH   9  16
HETATM   16  C   UNL     1     -10.784  13.629  68.484  1.00  0.00    -0.269 A  
HETATM   17  C   UNL     1      -9.614  15.683  69.082  1.00  0.00    -0.251 A  
HETATM   18  C   UNL     1     -11.971  15.490  69.533  1.00  0.00    -0.372 A  
HETATM   19  C   UNL     1      -9.609  14.398  68.529  1.00  0.00    -0.217 A  
HETATM   20  C   UNL     1     -11.970  14.214  68.970  1.00  0.00    -0.376 A  
HETATM   21  C   UNL     1     -10.791  16.223  69.596  1.00  0.00    -0.345 A  
ENDBRANCH   9  16
ENDBRANCH   7   9
ENDBRANCH   6   7
ENDBRANCH   2   6
TORSDOF 5
ENDMDL
MODEL       90
REMARK 921   NORMALIZED FREE ENERGY PREDICTED BY IDOCK:   -4.45 KCAL/MOL
REMARK 922        TOTAL FREE ENERGY PREDICTED BY IDOCK:   -6.77 KCAL/MOL
REMARK 923 INTER-LIGAND FREE ENERGY PREDICTED BY IDOCK:   -6.27 KCAL/MOL
REMARK 924 INTRA-LIGAND FREE ENERGY PREDICTED BY IDOCK:   -0.50 KCAL/MOL
REMARK 927      BINDING AFFINITY PREDICTED BY RF-SCORE:    0.00 PKD
ROOT
HETATM    1  N   UNL     1     -11.203  14.842  71.020  1.00  0.00    -0.526 N  
HETATM    2  C   UNL     1     -12.164  13.976  70.572  1.00  0.00    -0.365 C  
HETATM    3  H1  UNL     1     -10.502  15.222  70.384  1.00  0.00     0.000 HD 
HETATM    4  H2  UNL     1     -11.188  15.112  72.004  1.00  0.00     0.000 HD 
HETATM    5  O   UNL     1     -13.008  13.519  71.338  1.00  0.00    -0.348 OA 
ENDROOT
BRANCH   2   6
HETATM    6  C   UNL     1     -12.087  13.610  69.104  1.00  0.00    -0.319 C  
BRANCH   6   7
HETATM    7  S   UNL     1     -11.241  12.018  68.944  1.00  0.00    -0.280 S  
HETATM    8  O   UNL     1     -12.114  10.988  69.610  1.00  0.00    -0.318 OA 
BRANCH   7   9
HETATM    9  C   UNL     1     -11.384  11.784  67.109  1.00  0.00    -0.322 C  
BRANCH   9  10
HETATM   10  C   UNL     1     -11.303  13.098  66.343  1.00  0.00    -0.349 A  
HETATM   11  C   UNL     1     -10.184  13.938  66.496  1.00  0.00    -0.280 A  
HETATM   12  C   UNL     1     -12.326  13.505  65.470  1.00  0.00    -0.524 A  
HETATM   13  C   UNL     1     -10.085  15.137  65.782  1.00  0.00    -0.373 A  
HETATM   14  C   UNL     1     -11.105  15.520  64.917  1.00  0.00    -0.428 A  
HETATM   15  C   UNL     1     -12.226  14.707  64.764  1.00  0.00    -0.403 A  
ENDBRANCH   9  10
BRANCH   9  16
HETATM   16  C   UNL     1     -10.389  10.732  66.597  1.00  0.00    -0.294 A  
HETATM   17  C   UNL     1      -8.745   8.996  67.077  1.00  0.00    -0.124 A  
HETATM   18  C   UNL     1      -9.191   9.605  64.790  1.00  0.00    -0.298 A  
HETATM   19  C   UNL     1      -9.690   9.931  67.515  1.00  0.00    -0.193 A  
HETATM   20  C   UNL     1     -10.142  10.528  65.225  1.00  0.00    -0.369 A  
HETATM   21  C   UNL     1      -8.487   8.844  65.716  1.00  0.00    -0.157 A  
ENDBRANCH   9  16
ENDBRANCH   7   9
ENDBRANCH   6   7
ENDBRANCH   2   6
TORSDOF 5
ENDMDL
MODEL       91
REMARK 921   NORMALIZED FREE ENERGY PREDICTED BY IDOCK:   -4.43 KCAL/MOL
REMARK 922        TOTAL FREE ENERGY PREDICTED BY IDOCK:   -6.75 KCAL/MOL
REMARK 923 INTER-LIGAND FREE ENERGY PREDICTED BY IDOCK:   -5.86 KCAL/MOL
REMARK 924 INTRA-LIGAND FREE ENERGY PREDICTED BY IDOCK:   -0.89 KCAL/MOL
REMARK 927      BINDING AFFINITY PREDICTED BY RF-SCORE:    0.00 PKD
ROOT
HETATM    1  N   UNL     1     -11.318   8.691  69.596  1.00  0.00    -0.434 N  
HETATM    2  C   UNL     1     -11.623   9.852  70.252  1.00  0.00    -0.250 C  
HETATM    3  H1  UNL     1     -11.321   8.648  68.576  1.00  0.00     0.000 HD 
HETATM    4  H2  UNL     1     -11.082   7.856  70.133  1.00  0.00     0.000 HD 
HETATM    5  O   UNL     1     -11.618   9.904  71.479  1.00  0.00    -0.373 OA 
ENDROOT
BRANCH   2   6
HETATM    6  C   UNL     1     -11.991  11.029  69.371  1.00  0.00    -0.337 C  
BRANCH   6   7
HETATM    7  S   UNL     1     -10.503  11.602  68.514  1.00  0.00    -0.222 S  
HETATM    8  O   UNL     1      -9.342  10.842  69.095  1.00  0.00    -0.190 OA 
BRANCH   7   9
HETATM    9  C   UNL     1     -10.846  10.916  66.824  1.00  0.00    -0.224 C  
BRANCH   9  10
HETATM   10  C   UNL     1     -11.383  11.968  65.863  1.00  0.00    -0.391 A  
HETATM   11  C   UNL     1     -11.252  11.789  64.474  1.00  0.00    -0.368 A  
HETATM   12  C   UNL     1     -12.021  13.131  66.327  1.00  0.00    -0.473 A  
HETATM   13  C   UNL     1     -11.760  12.736  63.578  1.00  0.00    -0.597 A  
HETATM   14  C   UNL     1     -12.395  13.878  64.056  1.00  0.00    -0.355 A  
HETATM   15  C   UNL     1     -12.522  14.077  65.428  1.00  0.00    -0.520 A  
ENDBRANCH   9  10
BRANCH   9  16
HETATM   16  C   UNL     1      -9.631  10.161  66.267  1.00  0.00    -0.245 A  
HETATM   17  C   UNL     1      -8.564   8.047  65.686  1.00  0.00    -0.167 A  
HETATM   18  C   UNL     1      -7.343  10.104  65.411  1.00  0.00    -0.144 A  
HETATM   19  C   UNL     1      -9.674   8.762  66.149  1.00  0.00    -0.320 A  
HETATM   20  C   UNL     1      -8.454  10.819  65.860  1.00  0.00    -0.166 A  
HETATM   21  C   UNL     1      -7.395   8.717  65.330  1.00  0.00    -0.085 A  
ENDBRANCH   9  16
ENDBRANCH   7   9
ENDBRANCH   6   7
ENDBRANCH   2   6
TORSDOF 5
ENDMDL
MODEL       92
REMARK 921   NORMALIZED FREE ENERGY PREDICTED BY IDOCK:   -4.43 KCAL/MOL
REMARK 922        TOTAL FREE ENERGY PREDICTED BY IDOCK:   -6.74 KCAL/MOL
REMARK 923 INTER-LIGAND FREE ENERGY PREDICTED BY IDOCK:   -6.38 KCAL/MOL
REMARK 924 INTRA-LIGAND FREE ENERGY PREDICTED BY IDOCK:   -0.37 KCAL/MOL
REMARK 927      BINDING AFFINITY PREDICTED BY RF-SCORE:    0.00 PKD
ROOT
HETATM    1  N   UNL     1      -8.003  11.981  66.280  1.00  0.00    -0.363 N  
HETATM    2  C   UNL     1      -7.744  12.514  67.514  1.00  0.00    -0.165 C  
HETATM    3  H1  UNL     1      -8.908  12.117  65.831  1.00  0.00     0.000 HD 
HETATM    4  H2  UNL     1      -7.281  11.441  65.803  1.00  0.00     0.000 HD 
HETATM    5  O   UNL     1      -6.654  12.351  68.055  1.00  0.00    -0.066 OA 
ENDROOT
BRANCH   2   6
HETATM    6  C   UNL     1      -8.887  13.273  68.158  1.00  0.00    -0.187 C  
BRANCH   6   7
HETATM    7  S   UNL     1      -8.501  15.041  68.132  1.00  0.00    -0.157 S  
HETATM    8  O   UNL     1      -7.666  15.289  66.904  1.00  0.00    -0.199 OA 
BRANCH   7   9
HETATM    9  C   UNL     1     -10.200  15.715  67.812  1.00  0.00    -0.252 C  
BRANCH   9  10
HETATM   10  C   UNL     1     -10.207  17.230  67.651  1.00  0.00    -0.333 A  
HETATM   11  C   UNL     1     -10.087  18.061  68.779  1.00  0.00    -0.388 A  
HETATM   12  C   UNL     1     -10.328  17.834  66.388  1.00  0.00    -0.351 A  
HETATM   13  C   UNL     1     -10.069  19.454  68.645  1.00  0.00    -0.515 A  
HETATM   14  C   UNL     1     -10.183  20.035  67.385  1.00  0.00    -0.546 A  
HETATM   15  C   UNL     1     -10.316  19.226  66.259  1.00  0.00    -0.566 A  
ENDBRANCH   9  10
BRANCH   9  16
HETATM   16  C   UNL     1     -10.884  14.986  66.647  1.00  0.00    -0.318 A  
HETATM   17  C   UNL     1     -12.745  13.646  65.819  1.00  0.00    -0.470 A  
HETATM   18  C   UNL     1     -10.933  14.203  64.333  1.00  0.00    -0.240 A  
HETATM   19  C   UNL     1     -12.122  14.355  66.852  1.00  0.00    -0.386 A  
HETATM   20  C   UNL     1     -10.318  14.921  65.359  1.00  0.00    -0.413 A  
HETATM   21  C   UNL     1     -12.144  13.559  64.564  1.00  0.00    -0.460 A  
ENDBRANCH   9  16
ENDBRANCH   7   9
ENDBRANCH   6   7
ENDBRANCH   2   6
TORSDOF 5
ENDMDL
MODEL       93
REMARK 921   NORMALIZED FREE ENERGY PREDICTED BY IDOCK:   -4.41 KCAL/MOL
REMARK 922        TOTAL FREE ENERGY PREDICTED BY IDOCK:   -6.72 KCAL/MOL
REMARK 923 INTER-LIGAND FREE ENERGY PREDICTED BY IDOCK:   -5.88 KCAL/MOL
REMARK 924 INTRA-LIGAND FREE ENERGY PREDICTED BY IDOCK:   -0.84 KCAL/MOL
REMARK 927      BINDING AFFINITY PREDICTED BY RF-SCORE:    0.00 PKD
ROOT
HETATM    1  N   UNL     1     -11.523   6.551  66.805  1.00  0.00    -0.760 N  
HETATM    2  C   UNL     1     -10.184   6.529  67.093  1.00  0.00    -0.198 C  
HETATM    3  H1  UNL     1     -12.184   7.022  67.423  1.00  0.00     0.000 HD 
HETATM    4  H2  UNL     1     -11.864   6.090  65.962  1.00  0.00     0.000 HD 
HETATM    5  O   UNL     1      -9.389   5.962  66.349  1.00  0.00    -0.152 OA 
ENDROOT
BRANCH   2   6
HETATM    6  C   UNL     1      -9.776   7.212  68.382  1.00  0.00    -0.142 C  
BRANCH   6   7
HETATM    7  S   UNL     1      -9.931   9.003  68.166  1.00  0.00    -0.183 S  
HETATM    8  O   UNL     1     -10.586   9.229  66.830  1.00  0.00    -0.236 OA 
BRANCH   7   9
HETATM    9  C   UNL     1     -11.187   9.358  69.485  1.00  0.00    -0.033 C  
BRANCH   9  10
HETATM   10  C   UNL     1     -10.842   8.699  70.814  1.00  0.00    -0.272 A  
HETATM   11  C   UNL     1      -9.627   8.999  71.457  1.00  0.00    -0.340 A  
HETATM   12  C   UNL     1     -11.716   7.789  71.433  1.00  0.00    -0.310 A  
HETATM   13  C   UNL     1      -9.306   8.421  72.689  1.00  0.00    -0.334 A  
HETATM   14  C   UNL     1     -10.187   7.527  73.291  1.00  0.00    -0.398 A  
HETATM   15  C   UNL     1     -11.388   7.209  72.662  1.00  0.00    -0.306 A  
ENDBRANCH   9  10
BRANCH   9  16
HETATM   16  C   UNL     1     -11.455  10.864  69.615  1.00  0.00    -0.377 A  
HETATM   17  C   UNL     1     -12.501  12.709  70.817  1.00  0.00    -0.357 A  
HETATM   18  C   UNL     1     -11.281  13.158  68.790  1.00  0.00    -0.323 A  
HETATM   19  C   UNL     1     -12.205  11.347  70.700  1.00  0.00    -0.484 A  
HETATM   20  C   UNL     1     -10.974  11.801  68.680  1.00  0.00    -0.269 A  
HETATM   21  C   UNL     1     -12.050  13.612  69.855  1.00  0.00    -0.406 A  
ENDBRANCH   9  16
ENDBRANCH   7   9
ENDBRANCH   6   7
ENDBRANCH   2   6
TORSDOF 5
ENDMDL
MODEL       94
REMARK 921   NORMALIZED FREE ENERGY PREDICTED BY IDOCK:   -4.40 KCAL/MOL
REMARK 922        TOTAL FREE ENERGY PREDICTED BY IDOCK:   -6.71 KCAL/MOL
REMARK 923 INTER-LIGAND FREE ENERGY PREDICTED BY IDOCK:   -5.83 KCAL/MOL
REMARK 924 INTRA-LIGAND FREE ENERGY PREDICTED BY IDOCK:   -0.89 KCAL/MOL
REMARK 927      BINDING AFFINITY PREDICTED BY RF-SCORE:    0.00 PKD
ROOT
HETATM    1  N   UNL     1     -13.417   9.498  70.977  1.00  0.00    -0.574 N  
HETATM    2  C   UNL     1     -12.137   9.335  71.433  1.00  0.00    -0.348 C  
HETATM    3  H1  UNL     1     -13.609  10.051  70.141  1.00  0.00     0.000 HD 
HETATM    4  H2  UNL     1     -14.190   9.061  71.479  1.00  0.00     0.000 HD 
HETATM    5  O   UNL     1     -11.906   8.669  72.438  1.00  0.00    -0.372 OA 
ENDROOT
BRANCH   2   6
HETATM    6  C   UNL     1     -11.060  10.048  70.641  1.00  0.00    -0.335 C  
BRANCH   6   7
HETATM    7  S   UNL     1     -11.847  11.233  69.523  1.00  0.00    -0.376 S  
HETATM    8  O   UNL     1     -12.161  12.461  70.335  1.00  0.00    -0.359 OA 
BRANCH   7   9
HETATM    9  C   UNL     1     -10.398  11.626  68.432  1.00  0.00    -0.204 C  
BRANCH   9  10
HETATM   10  C   UNL     1      -9.821  10.389  67.756  1.00  0.00    -0.193 A  
HETATM   11  C   UNL     1      -8.428  10.229  67.644  1.00  0.00    -0.118 A  
HETATM   12  C   UNL     1     -10.651   9.381  67.236  1.00  0.00    -0.314 A  
HETATM   13  C   UNL     1      -7.883   9.088  67.048  1.00  0.00    -0.098 A  
HETATM   14  C   UNL     1      -8.720   8.096  66.544  1.00  0.00    -0.160 A  
HETATM   15  C   UNL     1     -10.102   8.245  66.635  1.00  0.00    -0.351 A  
ENDBRANCH   9  10
BRANCH   9  16
HETATM   16  C   UNL     1     -10.730  12.750  67.439  1.00  0.00    -0.248 A  
HETATM   17  C   UNL     1     -10.119  14.861  66.385  1.00  0.00    -0.296 A  
HETATM   18  C   UNL     1     -12.229  13.834  65.843  1.00  0.00    -0.501 A  
HETATM   19  C   UNL     1      -9.820  13.803  67.250  1.00  0.00    -0.241 A  
HETATM   20  C   UNL     1     -11.926  12.772  66.695  1.00  0.00    -0.411 A  
HETATM   21  C   UNL     1     -11.329  14.883  65.692  1.00  0.00    -0.325 A  
ENDBRANCH   9  16
ENDBRANCH   7   9
ENDBRANCH   6   7
ENDBRANCH   2   6
TORSDOF 5
ENDMDL
MODEL       95
REMARK 921   NORMALIZED FREE ENERGY PREDICTED BY IDOCK:   -4.40 KCAL/MOL
REMARK 922        TOTAL FREE ENERGY PREDICTED BY IDOCK:   -6.71 KCAL/MOL
REMARK 923 INTER-LIGAND FREE ENERGY PREDICTED BY IDOCK:   -6.52 KCAL/MOL
REMARK 924 INTRA-LIGAND FREE ENERGY PREDICTED BY IDOCK:   -0.19 KCAL/MOL
REMARK 927      BINDING AFFINITY PREDICTED BY RF-SCORE:    0.00 PKD
ROOT
HETATM    1  N   UNL     1      -7.421  13.603  69.144  1.00  0.00    -0.307 N  
HETATM    2  C   UNL     1      -7.280  13.318  67.813  1.00  0.00    -0.151 C  
HETATM    3  H1  UNL     1      -8.329  13.528  69.603  1.00  0.00     0.000 HD 
HETATM    4  H2  UNL     1      -6.607  13.894  69.686  1.00  0.00     0.000 HD 
HETATM    5  O   UNL     1      -6.187  13.408  67.261  1.00  0.00    -0.313 OA 
ENDROOT
BRANCH   2   6
HETATM    6  C   UNL     1      -8.549  12.925  67.085  1.00  0.00    -0.198 C  
BRANCH   6   7
HETATM    7  S   UNL     1      -8.859  11.164  67.364  1.00  0.00    -0.141 S  
HETATM    8  O   UNL     1      -8.449  10.865  68.781  1.00  0.00    -0.142 OA 
BRANCH   7   9
HETATM    9  C   UNL     1     -10.714  11.170  67.298  1.00  0.00    -0.258 C  
BRANCH   9  10
HETATM   10  C   UNL     1     -11.343  11.723  68.570  1.00  0.00    -0.328 A  
HETATM   11  C   UNL     1     -11.347  13.108  68.813  1.00  0.00    -0.333 A  
HETATM   12  C   UNL     1     -11.936  10.878  69.524  1.00  0.00    -0.401 A  
HETATM   13  C   UNL     1     -11.941  13.633  69.965  1.00  0.00    -0.413 A  
HETATM   14  C   UNL     1     -12.530  12.782  70.896  1.00  0.00    -0.373 A  
HETATM   15  C   UNL     1     -12.523  11.406  70.677  1.00  0.00    -0.419 A  
ENDBRANCH   9  10
BRANCH   9  16
HETATM   16  C   UNL     1     -11.228  11.861  66.027  1.00  0.00    -0.377 A  
HETATM   17  C   UNL     1     -11.268  12.011  63.594  1.00  0.00    -0.528 A  
HETATM   18  C   UNL     1     -12.486  13.627  64.899  1.00  0.00    -0.423 A  
HETATM   19  C   UNL     1     -10.849  11.372  64.766  1.00  0.00    -0.339 A  
HETATM   20  C   UNL     1     -12.080  12.983  66.068  1.00  0.00    -0.493 A  
HETATM   21  C   UNL     1     -12.074  13.145  63.661  1.00  0.00    -0.583 A  
ENDBRANCH   9  16
ENDBRANCH   7   9
ENDBRANCH   6   7
ENDBRANCH   2   6
TORSDOF 5
ENDMDL
MODEL       96
REMARK 921   NORMALIZED FREE ENERGY PREDICTED BY IDOCK:   -4.38 KCAL/MOL
REMARK 922        TOTAL FREE ENERGY PREDICTED BY IDOCK:   -6.68 KCAL/MOL
REMARK 923 INTER-LIGAND FREE ENERGY PREDICTED BY IDOCK:   -6.53 KCAL/MOL
REMARK 924 INTRA-LIGAND FREE ENERGY PREDICTED BY IDOCK:   -0.15 KCAL/MOL
REMARK 927      BINDING AFFINITY PREDICTED BY RF-SCORE:    0.00 PKD
ROOT
HETATM    1  N   UNL     1      -9.928  17.875  66.966  1.00  0.00    -0.310 N  
HETATM    2  C   UNL     1      -9.877  18.085  68.318  1.00  0.00    -0.355 C  
HETATM    3  H1  UNL     1     -10.457  17.095  66.576  1.00  0.00     0.000 HD 
HETATM    4  H2  UNL     1      -9.430  18.508  66.339  1.00  0.00     0.000 HD 
HETATM    5  O   UNL     1      -9.241  19.025  68.787  1.00  0.00    -0.353 OA 
ENDROOT
BRANCH   2   6
HETATM    6  C   UNL     1     -10.620  17.076  69.169  1.00  0.00    -0.303 C  
BRANCH   6   7
HETATM    7  S   UNL     1     -10.017  15.418  68.767  1.00  0.00    -0.218 S  
HETATM    8  O   UNL     1      -8.918  15.101  69.746  1.00  0.00    -0.149 OA 
BRANCH   7   9
HETATM    9  C   UNL     1     -11.511  14.428  69.247  1.00  0.00    -0.285 C  
BRANCH   9  10
HETATM   10  C   UNL     1     -11.254  12.927  69.217  1.00  0.00    -0.251 A  
HETATM   11  C   UNL     1     -12.043  12.059  69.994  1.00  0.00    -0.355 A  
HETATM   12  C   UNL     1     -10.239  12.371  68.421  1.00  0.00    -0.227 A  
HETATM   13  C   UNL     1     -11.834  10.677  69.959  1.00  0.00    -0.403 A  
HETATM   14  C   UNL     1     -10.829  10.143  69.159  1.00  0.00    -0.260 A  
HETATM   15  C   UNL     1     -10.030  10.989  68.394  1.00  0.00    -0.194 A  
ENDBRANCH   9  10
BRANCH   9  16
HETATM   16  C   UNL     1     -12.097  14.908  70.583  1.00  0.00    -0.366 A  
HETATM   17  C   UNL     1     -14.039  15.560  71.904  1.00  0.00    -0.586 A  
HETATM   18  C   UNL     1     -11.845  15.676  72.889  1.00  0.00    -0.564 A  
HETATM   19  C   UNL     1     -13.485  15.081  70.712  1.00  0.00    -0.316 A  
HETATM   20  C   UNL     1     -11.293  15.186  71.706  1.00  0.00    -0.391 A  
HETATM   21  C   UNL     1     -13.218  15.869  72.987  1.00  0.00    -0.648 A  
ENDBRANCH   9  16
ENDBRANCH   7   9
ENDBRANCH   6   7
ENDBRANCH   2   6
TORSDOF 5
ENDMDL
MODEL       97
REMARK 921   NORMALIZED FREE ENERGY PREDICTED BY IDOCK:   -4.37 KCAL/MOL
REMARK 922        TOTAL FREE ENERGY PREDICTED BY IDOCK:   -6.66 KCAL/MOL
REMARK 923 INTER-LIGAND FREE ENERGY PREDICTED BY IDOCK:   -5.58 KCAL/MOL
REMARK 924 INTRA-LIGAND FREE ENERGY PREDICTED BY IDOCK:   -1.08 KCAL/MOL
REMARK 927      BINDING AFFINITY PREDICTED BY RF-SCORE:    0.00 PKD
ROOT
HETATM    1  N   UNL     1      -8.357  14.692  69.458  1.00  0.00    -0.397 N  
HETATM    2  C   UNL     1      -9.362  14.369  68.585  1.00  0.00    -0.188 C  
HETATM    3  H1  UNL     1      -7.382  14.686  69.160  1.00  0.00     0.000 HD 
HETATM    4  H2  UNL     1      -8.587  14.943  70.420  1.00  0.00     0.000 HD 
HETATM    5  O   UNL     1     -10.536  14.377  68.944  1.00  0.00    -0.241 OA 
ENDROOT
BRANCH   2   6
HETATM    6  C   UNL     1      -8.921  13.980  67.189  1.00  0.00    -0.232 C  
BRANCH   6   7
HETATM    7  S   UNL     1      -8.310  12.277  67.224  1.00  0.00    -0.187 S  
HETATM    8  O   UNL     1      -7.790  12.026  68.614  1.00  0.00    -0.133 OA 
BRANCH   7   9
HETATM    9  C   UNL     1      -9.922  11.375  67.047  1.00  0.00    -0.201 C  
BRANCH   9  10
HETATM   10  C   UNL     1     -10.753  11.885  65.877  1.00  0.00    -0.326 A  
HETATM   11  C   UNL     1     -10.312  11.681  64.556  1.00  0.00    -0.349 A  
HETATM   12  C   UNL     1     -11.969  12.560  66.076  1.00  0.00    -0.456 A  
HETATM   13  C   UNL     1     -11.074  12.123  63.470  1.00  0.00    -0.525 A  
HETATM   14  C   UNL     1     -12.280  12.783  63.686  1.00  0.00    -0.597 A  
HETATM   15  C   UNL     1     -12.724  13.005  64.988  1.00  0.00    -0.475 A  
ENDBRANCH   9  10
BRANCH   9  16
HETATM   16  C   UNL     1      -9.715   9.854  67.017  1.00  0.00    -0.230 A  
HETATM   17  C   UNL     1      -8.219   7.949  66.740  1.00  0.00    -0.116 A  
HETATM   18  C   UNL     1     -10.570   7.566  67.095  1.00  0.00    -0.415 A  
HETATM   19  C   UNL     1      -8.427   9.331  66.817  1.00  0.00    -0.129 A  
HETATM   20  C   UNL     1     -10.776   8.943  67.185  1.00  0.00    -0.203 A  
HETATM   21  C   UNL     1      -9.292   7.069  66.866  1.00  0.00    -0.185 A  
ENDBRANCH   9  16
ENDBRANCH   7   9
ENDBRANCH   6   7
ENDBRANCH   2   6
TORSDOF 5
ENDMDL
MODEL       98
REMARK 921   NORMALIZED FREE ENERGY PREDICTED BY IDOCK:   -4.36 KCAL/MOL
REMARK 922        TOTAL FREE ENERGY PREDICTED BY IDOCK:   -6.66 KCAL/MOL
REMARK 923 INTER-LIGAND FREE ENERGY PREDICTED BY IDOCK:   -6.21 KCAL/MOL
REMARK 924 INTRA-LIGAND FREE ENERGY PREDICTED BY IDOCK:   -0.46 KCAL/MOL
REMARK 927      BINDING AFFINITY PREDICTED BY RF-SCORE:    0.00 PKD
ROOT
HETATM    1  N   UNL     1      -9.196  12.659  68.692  1.00  0.00    -0.401 N  
HETATM    2  C   UNL     1      -8.335  13.187  67.768  1.00  0.00    -0.171 C  
HETATM    3  H1  UNL     1      -9.836  13.258  69.214  1.00  0.00     0.000 HD 
HETATM    4  H2  UNL     1      -9.199  11.653  68.861  1.00  0.00     0.000 HD 
HETATM    5  O   UNL     1      -7.565  12.466  67.140  1.00  0.00    -0.152 OA 
ENDROOT
BRANCH   2   6
HETATM    6  C   UNL     1      -8.381  14.693  67.609  1.00  0.00    -0.177 C  
BRANCH   6   7
HETATM    7  S   UNL     1      -9.475  15.099  66.226  1.00  0.00    -0.322 S  
HETATM    8  O   UNL     1     -10.263  13.857  65.910  1.00  0.00    -0.297 OA 
BRANCH   7   9
HETATM    9  C   UNL     1     -10.610  16.293  67.080  1.00  0.00    -0.291 C  
BRANCH   9  10
HETATM   10  C   UNL     1     -11.103  15.772  68.424  1.00  0.00    -0.341 A  
HETATM   11  C   UNL     1     -10.720  16.415  69.615  1.00  0.00    -0.337 A  
HETATM   12  C   UNL     1     -11.948  14.653  68.513  1.00  0.00    -0.298 A  
HETATM   13  C   UNL     1     -11.184  15.963  70.855  1.00  0.00    -0.389 A  
HETATM   14  C   UNL     1     -12.026  14.857  70.924  1.00  0.00    -0.374 A  
HETATM   15  C   UNL     1     -12.404  14.201  69.754  1.00  0.00    -0.350 A  
ENDBRANCH   9  10
BRANCH   9  16
HETATM   16  C   UNL     1      -9.986  17.693  67.174  1.00  0.00    -0.316 A  
HETATM   17  C   UNL     1      -7.995  19.099  67.242  1.00  0.00    -0.277 A  
HETATM   18  C   UNL     1     -10.168  20.113  67.459  1.00  0.00    -0.520 A  
HETATM   19  C   UNL     1      -8.590  17.839  67.114  1.00  0.00    -0.242 A  
HETATM   20  C   UNL     1     -10.763  18.859  67.318  1.00  0.00    -0.523 A  
HETATM   21  C   UNL     1      -8.784  20.233  67.428  1.00  0.00    -0.428 A  
ENDBRANCH   9  16
ENDBRANCH   7   9
ENDBRANCH   6   7
ENDBRANCH   2   6
TORSDOF 5
ENDMDL
MODEL       99
REMARK 921   NORMALIZED FREE ENERGY PREDICTED BY IDOCK:   -4.34 KCAL/MOL
REMARK 922        TOTAL FREE ENERGY PREDICTED BY IDOCK:   -6.64 KCAL/MOL
REMARK 923 INTER-LIGAND FREE ENERGY PREDICTED BY IDOCK:   -6.37 KCAL/MOL
REMARK 924 INTRA-LIGAND FREE ENERGY PREDICTED BY IDOCK:   -0.27 KCAL/MOL
REMARK 927      BINDING AFFINITY PREDICTED BY RF-SCORE:    0.00 PKD
ROOT
HETATM    1  N   UNL     1     -13.283  15.267  70.538  1.00  0.00    -0.697 N  
HETATM    2  C   UNL     1     -12.625  14.076  70.388  1.00  0.00    -0.308 C  
HETATM    3  H1  UNL     1     -13.339  15.935  69.770  1.00  0.00     0.000 HD 
HETATM    4  H2  UNL     1     -13.724  15.489  71.431  1.00  0.00     0.000 HD 
HETATM    5  O   UNL     1     -12.559  13.271  71.313  1.00  0.00    -0.358 OA 
ENDROOT
BRANCH   2   6
HETATM    6  C   UNL     1     -11.975  13.848  69.039  1.00  0.00    -0.364 C  
BRANCH   6   7
HETATM    7  S   UNL     1     -11.254  12.189  69.012  1.00  0.00    -0.258 S  
HETATM    8  O   UNL     1     -12.372  11.229  68.704  1.00  0.00    -0.534 OA 
BRANCH   7   9
HETATM    9  C   UNL     1     -10.200  12.343  67.492  1.00  0.00    -0.209 C  
BRANCH   9  10
HETATM   10  C   UNL     1      -9.752  10.991  66.951  1.00  0.00    -0.215 A  
HETATM   11  C   UNL     1      -9.665  10.779  65.563  1.00  0.00    -0.290 A  
HETATM   12  C   UNL     1      -9.413   9.931  67.809  1.00  0.00    -0.158 A  
HETATM   13  C   UNL     1      -9.233   9.551  65.051  1.00  0.00    -0.297 A  
HETATM   14  C   UNL     1      -8.894   8.515  65.916  1.00  0.00    -0.219 A  
HETATM   15  C   UNL     1      -8.988   8.704  67.293  1.00  0.00    -0.145 A  
ENDBRANCH   9  10
BRANCH   9  16
HETATM   16  C   UNL     1     -10.875  13.219  66.427  1.00  0.00    -0.296 A  
HETATM   17  C   UNL     1     -10.869  15.244  65.070  1.00  0.00    -0.457 A  
HETATM   18  C   UNL     1     -12.730  13.724  64.918  1.00  0.00    -0.314 A  
HETATM   19  C   UNL     1     -10.254  14.406  66.006  1.00  0.00    -0.328 A  
HETATM   20  C   UNL     1     -12.111  12.881  65.841  1.00  0.00    -0.503 A  
HETATM   21  C   UNL     1     -12.113  14.910  64.537  1.00  0.00    -0.420 A  
ENDBRANCH   9  16
ENDBRANCH   7   9
ENDBRANCH   6   7
ENDBRANCH   2   6
TORSDOF 5
ENDMDL
MODEL      100
REMARK 921   NORMALIZED FREE ENERGY PREDICTED BY IDOCK:   -4.32 KCAL/MOL
REMARK 922        TOTAL FREE ENERGY PREDICTED BY IDOCK:   -6.61 KCAL/MOL
REMARK 923 INTER-LIGAND FREE ENERGY PREDICTED BY IDOCK:   -5.95 KCAL/MOL
REMARK 924 INTRA-LIGAND FREE ENERGY PREDICTED BY IDOCK:   -0.66 KCAL/MOL
REMARK 927      BINDING AFFINITY PREDICTED BY RF-SCORE:    0.00 PKD
ROOT
HETATM    1  N   UNL     1     -11.247   5.576  72.604  1.00  0.00    -0.286 N  
HETATM    2  C   UNL     1     -11.471   6.089  71.354  1.00  0.00    -0.199 C  
HETATM    3  H1  UNL     1     -11.891   5.765  73.371  1.00  0.00     0.000 HD 
HETATM    4  H2  UNL     1     -10.423   4.997  72.770  1.00  0.00     0.000 HD 
HETATM    5  O   UNL     1     -10.695   5.861  70.430  1.00  0.00    -0.259 OA 
ENDROOT
BRANCH   2   6
HETATM    6  C   UNL     1     -12.700   6.962  71.211  1.00  0.00    -0.315 C  
BRANCH   6   7
HETATM    7  S   UNL     1     -12.400   8.533  72.058  1.00  0.00    -0.390 S  
HETATM    8  O   UNL     1     -11.108   8.383  72.816  1.00  0.00    -0.327 OA 
BRANCH   7   9
HETATM    9  C   UNL     1     -12.074   9.613  70.584  1.00  0.00    -0.194 C  
BRANCH   9  10
HETATM   10  C   UNL     1     -12.363  11.083  70.861  1.00  0.00    -0.503 A  
HETATM   11  C   UNL     1     -13.220  11.449  71.915  1.00  0.00    -0.485 A  
HETATM   12  C   UNL     1     -11.787  12.104  70.086  1.00  0.00    -0.368 A  
HETATM   13  C   UNL     1     -13.476  12.795  72.195  1.00  0.00    -0.591 A  
HETATM   14  C   UNL     1     -12.891  13.793  71.422  1.00  0.00    -0.449 A  
HETATM   15  C   UNL     1     -12.051  13.447  70.366  1.00  0.00    -0.405 A  
ENDBRANCH   9  10
BRANCH   9  16
HETATM   16  C   UNL     1     -10.669   9.376  70.014  1.00  0.00    -0.270 A  
HETATM   17  C   UNL     1      -9.251   8.732  68.138  1.00  0.00    -0.145 A  
HETATM   18  C   UNL     1      -8.241   9.248  70.261  1.00  0.00    -0.187 A  
HETATM   19  C   UNL     1     -10.518   8.997  68.670  1.00  0.00    -0.229 A  
HETATM   20  C   UNL     1      -9.502   9.526  70.789  1.00  0.00    -0.237 A  
HETATM   21  C   UNL     1      -8.115   8.845  68.937  1.00  0.00    -0.112 A  
ENDBRANCH   9  16
ENDBRANCH   7   9
ENDBRANCH   6   7
ENDBRANCH   2   6
TORSDOF 5
ENDMDL
MODEL      101
REMARK 921   NORMALIZED FREE ENERGY PREDICTED BY IDOCK:   -4.32 KCAL/MOL
REMARK 922        TOTAL FREE ENERGY PREDICTED BY IDOCK:   -6.60 KCAL/MOL
REMARK 923 INTER-LIGAND FREE ENERGY PREDICTED BY IDOCK:   -5.85 KCAL/MOL
REMARK 924 INTRA-LIGAND FREE ENERGY PREDICTED BY IDOCK:   -0.75 KCAL/MOL
REMARK 927      BINDING AFFINITY PREDICTED BY RF-SCORE:    0.00 PKD
ROOT
HETATM    1  N   UNL     1      -9.792  14.723  69.364  1.00  0.00    -0.411 N  
HETATM    2  C   UNL     1      -9.168  13.995  68.387  1.00  0.00    -0.196 C  
HETATM    3  H1  UNL     1     -10.797  14.889  69.332  1.00  0.00     0.000 HD 
HETATM    4  H2  UNL     1      -9.243  15.104  70.135  1.00  0.00     0.000 HD 
HETATM    5  O   UNL     1      -7.957  13.794  68.425  1.00  0.00    -0.135 OA 
ENDROOT
BRANCH   2   6
HETATM    6  C   UNL     1     -10.058  13.497  67.267  1.00  0.00    -0.235 C  
BRANCH   6   7
HETATM    7  S   UNL     1     -11.385  12.494  67.980  1.00  0.00    -0.312 S  
HETATM    8  O   UNL     1     -12.120  11.857  66.831  1.00  0.00    -0.599 OA 
BRANCH   7   9
HETATM    9  C   UNL     1     -10.362  11.180  68.799  1.00  0.00    -0.205 C  
BRANCH   9  10
HETATM   10  C   UNL     1     -11.082  10.523  69.970  1.00  0.00    -0.376 A  
HETATM   11  C   UNL     1     -12.429  10.830  70.233  1.00  0.00    -0.395 A  
HETATM   12  C   UNL     1     -10.433   9.600  70.808  1.00  0.00    -0.375 A  
HETATM   13  C   UNL     1     -13.111  10.218  71.290  1.00  0.00    -0.492 A  
HETATM   14  C   UNL     1     -12.454   9.300  72.105  1.00  0.00    -0.421 A  
HETATM   15  C   UNL     1     -11.116   8.995  71.866  1.00  0.00    -0.433 A  
ENDBRANCH   9  10
BRANCH   9  16
HETATM   16  C   UNL     1      -9.829  10.164  67.779  1.00  0.00    -0.190 A  
HETATM   17  C   UNL     1      -8.112   9.510  66.176  1.00  0.00    -0.111 A  
HETATM   18  C   UNL     1     -10.049   8.111  66.473  1.00  0.00    -0.286 A  
HETATM   19  C   UNL     1      -8.598  10.397  67.142  1.00  0.00    -0.130 A  
HETATM   20  C   UNL     1     -10.528   8.988  67.447  1.00  0.00    -0.338 A  
HETATM   21  C   UNL     1      -8.844   8.375  65.832  1.00  0.00    -0.212 A  
ENDBRANCH   9  16
ENDBRANCH   7   9
ENDBRANCH   6   7
ENDBRANCH   2   6
TORSDOF 5
ENDMDL
MODEL      102
REMARK 921   NORMALIZED FREE ENERGY PREDICTED BY IDOCK:   -4.30 KCAL/MOL
REMARK 922        TOTAL FREE ENERGY PREDICTED BY IDOCK:   -6.58 KCAL/MOL
REMARK 923 INTER-LIGAND FREE ENERGY PREDICTED BY IDOCK:   -6.03 KCAL/MOL
REMARK 924 INTRA-LIGAND FREE ENERGY PREDICTED BY IDOCK:   -0.56 KCAL/MOL
REMARK 927      BINDING AFFINITY PREDICTED BY RF-SCORE:    0.00 PKD
ROOT
HETATM    1  N   UNL     1     -12.851  10.365  69.888  1.00  0.00    -0.498 N  
HETATM    2  C   UNL     1     -12.539  10.294  71.220  1.00  0.00    -0.418 C  
HETATM    3  H1  UNL     1     -12.276   9.894  69.190  1.00  0.00     0.000 HD 
HETATM    4  H2  UNL     1     -13.670  10.896  69.591  1.00  0.00     0.000 HD 
HETATM    5  O   UNL     1     -13.231  10.860  72.061  1.00  0.00    -0.492 OA 
ENDROOT
BRANCH   2   6
HETATM    6  C   UNL     1     -11.288   9.511  71.562  1.00  0.00    -0.385 C  
BRANCH   6   7
HETATM    7  S   UNL     1     -11.769   7.849  72.093  1.00  0.00    -0.355 S  
HETATM    8  O   UNL     1     -12.993   7.473  71.303  1.00  0.00    -0.331 OA 
BRANCH   7   9
HETATM    9  C   UNL     1     -10.334   6.889  71.412  1.00  0.00    -0.201 C  
BRANCH   9  10
HETATM   10  C   UNL     1     -10.304   5.449  71.909  1.00  0.00    -0.270 A  
HETATM   11  C   UNL     1     -11.087   5.067  73.014  1.00  0.00    -0.378 A  
HETATM   12  C   UNL     1      -9.510   4.472  71.286  1.00  0.00    -0.222 A  
HETATM   13  C   UNL     1     -11.088   3.744  73.468  1.00  0.00    -0.328 A  
HETATM   14  C   UNL     1     -10.300   2.788  72.833  1.00  0.00    -0.238 A  
HETATM   15  C   UNL     1      -9.509   3.153  71.746  1.00  0.00    -0.216 A  
ENDBRANCH   9  10
BRANCH   9  16
HETATM   16  C   UNL     1     -10.263   6.995  69.882  1.00  0.00    -0.213 A  
HETATM   17  C   UNL     1     -11.000   6.218  67.692  1.00  0.00    -0.438 A  
HETATM   18  C   UNL     1      -9.316   7.933  67.834  1.00  0.00    -0.150 A  
HETATM   19  C   UNL     1     -11.078   6.172  69.088  1.00  0.00    -0.448 A  
HETATM   20  C   UNL     1      -9.403   7.897  69.225  1.00  0.00    -0.148 A  
HETATM   21  C   UNL     1     -10.109   7.088  67.066  1.00  0.00    -0.298 A  
ENDBRANCH   9  16
ENDBRANCH   7   9
ENDBRANCH   6   7
ENDBRANCH   2   6
TORSDOF 5
ENDMDL
MODEL      103
REMARK 921   NORMALIZED FREE ENERGY PREDICTED BY IDOCK:   -4.30 KCAL/MOL
REMARK 922        TOTAL FREE ENERGY PREDICTED BY IDOCK:   -6.58 KCAL/MOL
REMARK 923 INTER-LIGAND FREE ENERGY PREDICTED BY IDOCK:   -5.66 KCAL/MOL
REMARK 924 INTRA-LIGAND FREE ENERGY PREDICTED BY IDOCK:   -0.92 KCAL/MOL
REMARK 927      BINDING AFFINITY PREDICTED BY RF-SCORE:    0.00 PKD
ROOT
HETATM    1  N   UNL     1      -8.102   6.687  67.416  1.00  0.00    -0.120 N  
HETATM    2  C   UNL     1      -8.068   7.578  68.455  1.00  0.00    -0.125 C  
HETATM    3  H1  UNL     1      -8.091   7.009  66.449  1.00  0.00     0.000 HD 
HETATM    4  H2  UNL     1      -8.140   5.686  67.613  1.00  0.00     0.000 HD 
HETATM    5  O   UNL     1      -8.081   7.190  69.620  1.00  0.00    -0.125 OA 
ENDROOT
BRANCH   2   6
HETATM    6  C   UNL     1      -8.045   9.042  68.066  1.00  0.00    -0.105 C  
BRANCH   6   7
HETATM    7  S   UNL     1      -9.657   9.485  67.372  1.00  0.00    -0.146 S  
HETATM    8  O   UNL     1     -10.587   8.337  67.655  1.00  0.00    -0.241 OA 
BRANCH   7   9
HETATM    9  C   UNL     1     -10.105  10.877  68.515  1.00  0.00    -0.183 C  
BRANCH   9  10
HETATM   10  C   UNL     1     -10.774  12.037  67.790  1.00  0.00    -0.243 A  
HETATM   11  C   UNL     1     -10.721  13.334  68.332  1.00  0.00    -0.273 A  
HETATM   12  C   UNL     1     -11.452  11.852  66.573  1.00  0.00    -0.381 A  
HETATM   13  C   UNL     1     -11.311  14.414  67.667  1.00  0.00    -0.348 A  
HETATM   14  C   UNL     1     -11.972  14.212  66.459  1.00  0.00    -0.466 A  
HETATM   15  C   UNL     1     -12.045  12.932  65.915  1.00  0.00    -0.503 A  
ENDBRANCH   9  10
BRANCH   9  16
HETATM   16  C   UNL     1     -10.916  10.376  69.719  1.00  0.00    -0.345 A  
HETATM   17  C   UNL     1     -11.014   9.096  71.792  1.00  0.00    -0.429 A  
HETATM   18  C   UNL     1     -13.011  10.149  70.955  1.00  0.00    -0.473 A  
HETATM   19  C   UNL     1     -10.287   9.602  70.708  1.00  0.00    -0.356 A  
HETATM   20  C   UNL     1     -12.285  10.665  69.882  1.00  0.00    -0.346 A  
HETATM   21  C   UNL     1     -12.378   9.359  71.908  1.00  0.00    -0.450 A  
ENDBRANCH   9  16
ENDBRANCH   7   9
ENDBRANCH   6   7
ENDBRANCH   2   6
TORSDOF 5
ENDMDL
MODEL      104
REMARK 921   NORMALIZED FREE ENERGY PREDICTED BY IDOCK:   -4.26 KCAL/MOL
REMARK 922        TOTAL FREE ENERGY PREDICTED BY IDOCK:   -6.53 KCAL/MOL
REMARK 923 INTER-LIGAND FREE ENERGY PREDICTED BY IDOCK:   -5.85 KCAL/MOL
REMARK 924 INTRA-LIGAND FREE ENERGY PREDICTED BY IDOCK:   -0.68 KCAL/MOL
REMARK 927      BINDING AFFINITY PREDICTED BY RF-SCORE:    0.00 PKD
ROOT
HETATM    1  N   UNL     1      -9.072  10.377  69.729  1.00  0.00    -0.404 N  
HETATM    2  C   UNL     1      -9.256  10.359  68.373  1.00  0.00    -0.147 C  
HETATM    3  H1  UNL     1      -8.412  11.024  70.160  1.00  0.00     0.000 HD 
HETATM    4  H2  UNL     1      -9.603   9.734  70.318  1.00  0.00     0.000 HD 
HETATM    5  O   UNL     1     -10.051   9.580  67.854  1.00  0.00    -0.171 OA 
ENDROOT
BRANCH   2   6
HETATM    6  C   UNL     1      -8.401  11.326  67.579  1.00  0.00    -0.131 C  
BRANCH   6   7
HETATM    7  S   UNL     1      -8.694  13.002  68.196  1.00  0.00    -0.180 S  
HETATM    8  O   UNL     1      -8.219  13.951  67.129  1.00  0.00    -0.171 OA 
BRANCH   7   9
HETATM    9  C   UNL     1     -10.549  13.010  68.180  1.00  0.00    -0.245 C  
BRANCH   9  10
HETATM   10  C   UNL     1     -11.139  13.962  69.212  1.00  0.00    -0.261 A  
HETATM   11  C   UNL     1     -10.423  15.107  69.608  1.00  0.00    -0.261 A  
HETATM   12  C   UNL     1     -12.401  13.734  69.788  1.00  0.00    -0.311 A  
HETATM   13  C   UNL     1     -10.962  16.003  70.537  1.00  0.00    -0.322 A  
HETATM   14  C   UNL     1     -12.216  15.765  71.091  1.00  0.00    -0.473 A  
HETATM   15  C   UNL     1     -12.932  14.629  70.720  1.00  0.00    -0.405 A  
ENDBRANCH   9  10
BRANCH   9  16
HETATM   16  C   UNL     1     -11.099  13.244  66.766  1.00  0.00    -0.313 A  
HETATM   17  C   UNL     1     -11.748  14.797  65.002  1.00  0.00    -0.364 A  
HETATM   18  C   UNL     1     -12.051  12.432  64.667  1.00  0.00    -0.487 A  
HETATM   19  C   UNL     1     -11.210  14.554  66.270  1.00  0.00    -0.342 A  
HETATM   20  C   UNL     1     -11.502  12.187  65.926  1.00  0.00    -0.418 A  
HETATM   21  C   UNL     1     -12.181  13.737  64.207  1.00  0.00    -0.444 A  
ENDBRANCH   9  16
ENDBRANCH   7   9
ENDBRANCH   6   7
ENDBRANCH   2   6
TORSDOF 5
ENDMDL
MODEL      105
REMARK 921   NORMALIZED FREE ENERGY PREDICTED BY IDOCK:   -4.23 KCAL/MOL
REMARK 922        TOTAL FREE ENERGY PREDICTED BY IDOCK:   -6.50 KCAL/MOL
REMARK 923 INTER-LIGAND FREE ENERGY PREDICTED BY IDOCK:   -5.72 KCAL/MOL
REMARK 924 INTRA-LIGAND FREE ENERGY PREDICTED BY IDOCK:   -0.78 KCAL/MOL
REMARK 927      BINDING AFFINITY PREDICTED BY RF-SCORE:    0.00 PKD
ROOT
HETATM    1  N   UNL     1      -7.295  13.623  69.433  1.00  0.00    -0.317 N  
HETATM    2  C   UNL     1      -6.663  12.730  68.610  1.00  0.00    -0.088 C  
HETATM    3  H1  UNL     1      -8.230  13.966  69.214  1.00  0.00     0.000 HD 
HETATM    4  H2  UNL     1      -6.824  13.949  70.277  1.00  0.00     0.000 HD 
HETATM    5  O   UNL     1      -5.537  12.316  68.873  1.00  0.00    -0.051 OA 
ENDROOT
BRANCH   2   6
HETATM    6  C   UNL     1      -7.427  12.327  67.365  1.00  0.00    -0.160 C  
BRANCH   6   7
HETATM    7  S   UNL     1      -8.766  11.207  67.840  1.00  0.00    -0.141 S  
HETATM    8  O   UNL     1      -8.528  10.822  69.276  1.00  0.00    -0.135 OA 
BRANCH   7   9
HETATM    9  C   UNL     1     -10.186  12.401  67.798  1.00  0.00    -0.211 C  
BRANCH   9  10
HETATM   10  C   UNL     1     -10.932  12.377  66.470  1.00  0.00    -0.312 A  
HETATM   11  C   UNL     1     -12.147  13.071  66.329  1.00  0.00    -0.453 A  
HETATM   12  C   UNL     1     -10.434  11.674  65.359  1.00  0.00    -0.324 A  
HETATM   13  C   UNL     1     -12.832  13.078  65.109  1.00  0.00    -0.335 A  
HETATM   14  C   UNL     1     -12.320  12.382  64.018  1.00  0.00    -0.579 A  
HETATM   15  C   UNL     1     -11.124  11.678  64.144  1.00  0.00    -0.435 A  
ENDBRANCH   9  10
BRANCH   9  16
HETATM   16  C   UNL     1     -11.114  12.214  69.008  1.00  0.00    -0.290 A  
HETATM   17  C   UNL     1     -12.439  10.736  70.422  1.00  0.00    -0.430 A  
HETATM   18  C   UNL     1     -12.433  13.104  70.862  1.00  0.00    -0.407 A  
HETATM   19  C   UNL     1     -11.559  10.927  69.352  1.00  0.00    -0.387 A  
HETATM   20  C   UNL     1     -11.545  13.294  69.803  1.00  0.00    -0.297 A  
HETATM   21  C   UNL     1     -12.886  11.826  71.168  1.00  0.00    -0.365 A  
ENDBRANCH   9  16
ENDBRANCH   7   9
ENDBRANCH   6   7
ENDBRANCH   2   6
TORSDOF 5
ENDMDL
MODEL      106
REMARK 921   NORMALIZED FREE ENERGY PREDICTED BY IDOCK:   -4.22 KCAL/MOL
REMARK 922        TOTAL FREE ENERGY PREDICTED BY IDOCK:   -6.48 KCAL/MOL
REMARK 923 INTER-LIGAND FREE ENERGY PREDICTED BY IDOCK:   -5.47 KCAL/MOL
REMARK 924 INTRA-LIGAND FREE ENERGY PREDICTED BY IDOCK:   -1.01 KCAL/MOL
REMARK 927      BINDING AFFINITY PREDICTED BY RF-SCORE:    0.00 PKD
ROOT
HETATM    1  N   UNL     1     -12.942  13.392  65.190  1.00  0.00    -0.716 N  
HETATM    2  C   UNL     1     -11.724  13.796  65.665  1.00  0.00    -0.347 C  
HETATM    3  H1  UNL     1     -13.081  12.442  64.845  1.00  0.00     0.000 HD 
HETATM    4  H2  UNL     1     -13.723  14.049  65.180  1.00  0.00     0.000 HD 
HETATM    5  O   UNL     1     -11.557  14.940  66.081  1.00  0.00    -0.324 OA 
ENDROOT
BRANCH   2   6
HETATM    6  C   UNL     1     -10.619  12.761  65.611  1.00  0.00    -0.275 C  
BRANCH   6   7
HETATM    7  S   UNL     1     -10.710  11.733  67.097  1.00  0.00    -0.254 S  
HETATM    8  O   UNL     1     -12.151  11.713  67.530  1.00  0.00    -0.611 OA 
BRANCH   7   9
HETATM    9  C   UNL     1     -10.317  10.082  66.346  1.00  0.00    -0.179 C  
BRANCH   9  10
HETATM   10  C   UNL     1      -8.960  10.061  65.656  1.00  0.00    -0.203 A  
HETATM   11  C   UNL     1      -7.807  10.469  66.351  1.00  0.00    -0.138 A  
HETATM   12  C   UNL     1      -8.818   9.635  64.324  1.00  0.00    -0.260 A  
HETATM   13  C   UNL     1      -6.550  10.433  65.738  1.00  0.00    -0.126 A  
HETATM   14  C   UNL     1      -6.428  10.001  64.421  1.00  0.00    -0.131 A  
HETATM   15  C   UNL     1      -7.562   9.607  63.714  1.00  0.00    -0.126 A  
ENDBRANCH   9  10
BRANCH   9  16
HETATM   16  C   UNL     1     -10.488   8.946  67.365  1.00  0.00    -0.347 A  
HETATM   17  C   UNL     1     -10.918   6.591  67.823  1.00  0.00    -0.407 A  
HETATM   18  C   UNL     1     -10.641   8.122  69.661  1.00  0.00    -0.223 A  
HETATM   19  C   UNL     1     -10.715   7.635  66.915  1.00  0.00    -0.271 A  
HETATM   20  C   UNL     1     -10.425   9.162  68.756  1.00  0.00    -0.236 A  
HETATM   21  C   UNL     1     -10.894   6.837  69.195  1.00  0.00    -0.298 A  
ENDBRANCH   9  16
ENDBRANCH   7   9
ENDBRANCH   6   7
ENDBRANCH   2   6
TORSDOF 5
ENDMDL
MODEL      107
REMARK 921   NORMALIZED FREE ENERGY PREDICTED BY IDOCK:   -4.21 KCAL/MOL
REMARK 922        TOTAL FREE ENERGY PREDICTED BY IDOCK:   -6.46 KCAL/MOL
REMARK 923 INTER-LIGAND FREE ENERGY PREDICTED BY IDOCK:   -5.76 KCAL/MOL
REMARK 924 INTRA-LIGAND FREE ENERGY PREDICTED BY IDOCK:   -0.70 KCAL/MOL
REMARK 927      BINDING AFFINITY PREDICTED BY RF-SCORE:    0.00 PKD
ROOT
HETATM    1  N   UNL     1     -10.257  11.255  65.268  1.00  0.00    -0.261 N  
HETATM    2  C   UNL     1     -10.095  12.440  65.933  1.00  0.00    -0.253 C  
HETATM    3  H1  UNL     1      -9.999  10.369  65.703  1.00  0.00     0.000 HD 
HETATM    4  H2  UNL     1     -10.643  11.256  64.323  1.00  0.00     0.000 HD 
HETATM    5  O   UNL     1     -10.406  13.506  65.409  1.00  0.00    -0.299 OA 
ENDROOT
BRANCH   2   6
HETATM    6  C   UNL     1      -9.487  12.340  67.317  1.00  0.00    -0.186 C  
BRANCH   6   7
HETATM    7  S   UNL     1     -10.819  12.122  68.524  1.00  0.00    -0.246 S  
HETATM    8  O   UNL     1     -12.051  11.734  67.752  1.00  0.00    -0.595 OA 
BRANCH   7   9
HETATM    9  C   UNL     1     -10.191  10.607  69.393  1.00  0.00    -0.192 C  
BRANCH   9  10
HETATM   10  C   UNL     1     -11.180  10.069  70.418  1.00  0.00    -0.393 A  
HETATM   11  C   UNL     1     -12.310  10.827  70.777  1.00  0.00    -0.480 A  
HETATM   12  C   UNL     1     -11.001   8.814  71.026  1.00  0.00    -0.328 A  
HETATM   13  C   UNL     1     -13.239  10.336  71.700  1.00  0.00    -0.509 A  
HETATM   14  C   UNL     1     -13.049   9.089  72.286  1.00  0.00    -0.508 A  
HETATM   15  C   UNL     1     -11.929   8.331  71.952  1.00  0.00    -0.383 A  
ENDBRANCH   9  10
BRANCH   9  16
HETATM   16  C   UNL     1      -9.724   9.538  68.394  1.00  0.00    -0.168 A  
HETATM   17  C   UNL     1     -10.275   7.822  66.753  1.00  0.00    -0.346 A  
HETATM   18  C   UNL     1      -7.969   8.215  67.326  1.00  0.00    -0.113 A  
HETATM   19  C   UNL     1     -10.672   8.831  67.637  1.00  0.00    -0.206 A  
HETATM   20  C   UNL     1      -8.363   9.231  68.197  1.00  0.00    -0.120 A  
HETATM   21  C   UNL     1      -8.925   7.505  66.608  1.00  0.00    -0.177 A  
ENDBRANCH   9  16
ENDBRANCH   7   9
ENDBRANCH   6   7
ENDBRANCH   2   6
TORSDOF 5
ENDMDL
MODEL      108
REMARK 921   NORMALIZED FREE ENERGY PREDICTED BY IDOCK:   -4.20 KCAL/MOL
REMARK 922        TOTAL FREE ENERGY PREDICTED BY IDOCK:   -6.45 KCAL/MOL
REMARK 923 INTER-LIGAND FREE ENERGY PREDICTED BY IDOCK:   -5.54 KCAL/MOL
REMARK 924 INTRA-LIGAND FREE ENERGY PREDICTED BY IDOCK:   -0.91 KCAL/MOL
REMARK 927      BINDING AFFINITY PREDICTED BY RF-SCORE:    0.00 PKD
ROOT
HETATM    1  N   UNL     1      -6.215  11.090  65.457  1.00  0.00    -0.370 N  
HETATM    2  C   UNL     1      -5.991  11.553  66.726  1.00  0.00    -0.139 C  
HETATM    3  H1  UNL     1      -6.924  10.378  65.276  1.00  0.00     0.000 HD 
HETATM    4  H2  UNL     1      -5.668  11.463  64.681  1.00  0.00     0.000 HD 
HETATM    5  O   UNL     1      -5.139  12.409  66.943  1.00  0.00    -0.322 OA 
ENDROOT
BRANCH   2   6
HETATM    6  C   UNL     1      -6.829  10.918  67.816  1.00  0.00    -0.072 C  
BRANCH   6   7
HETATM    7  S   UNL     1      -8.465  11.693  67.818  1.00  0.00    -0.152 S  
HETATM    8  O   UNL     1      -8.340  12.984  67.055  1.00  0.00    -0.170 OA 
BRANCH   7   9
HETATM    9  C   UNL     1      -9.373  10.482  66.745  1.00  0.00    -0.157 C  
BRANCH   9  10
HETATM   10  C   UNL     1      -9.957   9.320  67.538  1.00  0.00    -0.254 A  
HETATM   11  C   UNL     1     -10.319   8.128  66.884  1.00  0.00    -0.401 A  
HETATM   12  C   UNL     1     -10.146   9.400  68.929  1.00  0.00    -0.201 A  
HETATM   13  C   UNL     1     -10.835   7.044  67.602  1.00  0.00    -0.312 A  
HETATM   14  C   UNL     1     -11.008   7.139  68.979  1.00  0.00    -0.122 A  
HETATM   15  C   UNL     1     -10.667   8.317  69.641  1.00  0.00    -0.196 A  
ENDBRANCH   9  10
BRANCH   9  16
HETATM   16  C   UNL     1     -10.413  11.185  65.860  1.00  0.00    -0.310 A  
HETATM   17  C   UNL     1     -11.311  11.635  63.639  1.00  0.00    -0.485 A  
HETATM   18  C   UNL     1     -12.292  12.717  65.554  1.00  0.00    -0.495 A  
HETATM   19  C   UNL     1     -10.403  10.973  64.472  1.00  0.00    -0.420 A  
HETATM   20  C   UNL     1     -11.396  12.046  66.387  1.00  0.00    -0.411 A  
HETATM   21  C   UNL     1     -12.246  12.517  64.179  1.00  0.00    -0.552 A  
ENDBRANCH   9  16
ENDBRANCH   7   9
ENDBRANCH   6   7
ENDBRANCH   2   6
TORSDOF 5
ENDMDL
MODEL      109
REMARK 921   NORMALIZED FREE ENERGY PREDICTED BY IDOCK:   -4.14 KCAL/MOL
REMARK 922        TOTAL FREE ENERGY PREDICTED BY IDOCK:   -6.38 KCAL/MOL
REMARK 923 INTER-LIGAND FREE ENERGY PREDICTED BY IDOCK:   -5.43 KCAL/MOL
REMARK 924 INTRA-LIGAND FREE ENERGY PREDICTED BY IDOCK:   -0.95 KCAL/MOL
REMARK 927      BINDING AFFINITY PREDICTED BY RF-SCORE:    0.00 PKD
ROOT
HETATM    1  N   UNL     1     -13.988   9.079  72.916  1.00  0.00    -0.896 N  
HETATM    2  C   UNL     1     -13.221   9.773  72.019  1.00  0.00    -0.460 C  
HETATM    3  H1  UNL     1     -14.030   8.060  72.891  1.00  0.00     0.000 HD 
HETATM    4  H2  UNL     1     -14.525   9.587  73.619  1.00  0.00     0.000 HD 
HETATM    5  O   UNL     1     -13.171  11.000  72.050  1.00  0.00    -0.499 OA 
ENDROOT
BRANCH   2   6
HETATM    6  C   UNL     1     -12.486   8.935  70.993  1.00  0.00    -0.140 C  
BRANCH   6   7
HETATM    7  S   UNL     1     -10.977   8.281  71.749  1.00  0.00    -0.300 S  
HETATM    8  O   UNL     1     -11.316   7.929  73.173  1.00  0.00    -0.361 OA 
BRANCH   7   9
HETATM    9  C   UNL     1     -10.823   6.699  70.792  1.00  0.00    -0.252 C  
BRANCH   9  10
HETATM   10  C   UNL     1     -10.441   6.930  69.336  1.00  0.00    -0.237 A  
HETATM   11  C   UNL     1      -9.576   7.985  68.991  1.00  0.00    -0.156 A  
HETATM   12  C   UNL     1     -10.931   6.107  68.307  1.00  0.00    -0.397 A  
HETATM   13  C   UNL     1      -9.198   8.196  67.661  1.00  0.00    -0.150 A  
HETATM   14  C   UNL     1      -9.687   7.367  66.657  1.00  0.00    -0.262 A  
HETATM   15  C   UNL     1     -10.555   6.326  66.979  1.00  0.00    -0.386 A  
ENDBRANCH   9  10
BRANCH   9  16
HETATM   16  C   UNL     1      -9.896   5.701  71.502  1.00  0.00    -0.213 A  
HETATM   17  C   UNL     1      -9.628   3.734  72.917  1.00  0.00    -0.170 A  
HETATM   18  C   UNL     1      -7.675   4.923  72.160  1.00  0.00    -0.094 A  
HETATM   19  C   UNL     1     -10.449   4.631  72.225  1.00  0.00    -0.238 A  
HETATM   20  C   UNL     1      -8.492   5.810  71.459  1.00  0.00    -0.128 A  
HETATM   21  C   UNL     1      -8.242   3.889  72.895  1.00  0.00    -0.091 A  
ENDBRANCH   9  16
ENDBRANCH   7   9
ENDBRANCH   6   7
ENDBRANCH   2   6
TORSDOF 5
ENDMDL
MODEL      110
REMARK 921   NORMALIZED FREE ENERGY PREDICTED BY IDOCK:   -4.14 KCAL/MOL
REMARK 922        TOTAL FREE ENERGY PREDICTED BY IDOCK:   -6.37 KCAL/MOL
REMARK 923 INTER-LIGAND FREE ENERGY PREDICTED BY IDOCK:   -5.73 KCAL/MOL
REMARK 924 INTRA-LIGAND FREE ENERGY PREDICTED BY IDOCK:   -0.64 KCAL/MOL
REMARK 927      BINDING AFFINITY PREDICTED BY RF-SCORE:    0.00 PKD
ROOT
HETATM    1  N   UNL     1     -10.159  20.364  65.708  1.00  0.00    -0.535 N  
HETATM    2  C   UNL     1      -9.884  19.408  66.649  1.00  0.00    -0.374 C  
HETATM    3  H1  UNL     1     -10.612  20.118  64.828  1.00  0.00     0.000 HD 
HETATM    4  H2  UNL     1      -9.908  21.336  65.890  1.00  0.00     0.000 HD 
HETATM    5  O   UNL     1      -9.339  19.704  67.708  1.00  0.00    -0.318 OA 
ENDROOT
BRANCH   2   6
HETATM    6  C   UNL     1     -10.264  17.989  66.277  1.00  0.00    -0.381 C  
BRANCH   6   7
HETATM    7  S   UNL     1     -10.037  16.927  67.724  1.00  0.00    -0.303 S  
HETATM    8  O   UNL     1     -11.407  16.494  68.170  1.00  0.00    -0.308 OA 
BRANCH   7   9
HETATM    9  C   UNL     1      -9.219  15.475  66.905  1.00  0.00    -0.236 C  
BRANCH   9  10
HETATM   10  C   UNL     1      -8.182  14.807  67.799  1.00  0.00    -0.167 A  
HETATM   11  C   UNL     1      -7.950  15.294  69.098  1.00  0.00    -0.214 A  
HETATM   12  C   UNL     1      -7.438  13.698  67.360  1.00  0.00    -0.139 A  
HETATM   13  C   UNL     1      -7.018  14.677  69.939  1.00  0.00    -0.099 A  
HETATM   14  C   UNL     1      -6.296  13.575  69.490  1.00  0.00    -0.108 A  
HETATM   15  C   UNL     1      -6.503  13.089  68.202  1.00  0.00    -0.100 A  
ENDBRANCH   9  10
BRANCH   9  16
HETATM   16  C   UNL     1     -10.255  14.487  66.349  1.00  0.00    -0.293 A  
HETATM   17  C   UNL     1     -11.621  13.714  64.484  1.00  0.00    -0.415 A  
HETATM   18  C   UNL     1     -11.820  12.631  66.625  1.00  0.00    -0.449 A  
HETATM   19  C   UNL     1     -10.647  14.574  65.003  1.00  0.00    -0.458 A  
HETATM   20  C   UNL     1     -10.839  13.478  67.140  1.00  0.00    -0.291 A  
HETATM   21  C   UNL     1     -12.216  12.752  65.298  1.00  0.00    -0.535 A  
ENDBRANCH   9  16
ENDBRANCH   7   9
ENDBRANCH   6   7
ENDBRANCH   2   6
TORSDOF 5
ENDMDL
MODEL      111
REMARK 921   NORMALIZED FREE ENERGY PREDICTED BY IDOCK:   -4.12 KCAL/MOL
REMARK 922        TOTAL FREE ENERGY PREDICTED BY IDOCK:   -6.35 KCAL/MOL
REMARK 923 INTER-LIGAND FREE ENERGY PREDICTED BY IDOCK:   -6.25 KCAL/MOL
REMARK 924 INTRA-LIGAND FREE ENERGY PREDICTED BY IDOCK:   -0.10 KCAL/MOL
REMARK 927      BINDING AFFINITY PREDICTED BY RF-SCORE:    0.00 PKD
ROOT
HETATM    1  N   UNL     1      -9.352  16.336  66.484  1.00  0.00    -0.250 N  
HETATM    2  C   UNL     1     -10.555  15.995  65.928  1.00  0.00    -0.328 C  
HETATM    3  H1  UNL     1      -9.020  15.882  67.335  1.00  0.00     0.000 HD 
HETATM    4  H2  UNL     1      -8.778  17.054  66.041  1.00  0.00     0.000 HD 
HETATM    5  O   UNL     1     -10.954  16.541  64.903  1.00  0.00    -0.624 OA 
ENDROOT
BRANCH   2   6
HETATM    6  C   UNL     1     -11.351  14.943  66.673  1.00  0.00    -0.326 C  
BRANCH   6   7
HETATM    7  S   UNL     1     -10.253  14.101  67.840  1.00  0.00    -0.239 S  
HETATM    8  O   UNL     1     -10.175  14.964  69.070  1.00  0.00    -0.232 OA 
BRANCH   7   9
HETATM    9  C   UNL     1     -11.311  12.630  68.242  1.00  0.00    -0.295 C  
BRANCH   9  10
HETATM   10  C   UNL     1     -10.561  11.313  68.097  1.00  0.00    -0.225 A  
HETATM   11  C   UNL     1      -9.294  11.152  68.688  1.00  0.00    -0.186 A  
HETATM   12  C   UNL     1     -11.105  10.231  67.384  1.00  0.00    -0.261 A  
HETATM   13  C   UNL     1      -8.603   9.940  68.584  1.00  0.00    -0.119 A  
HETATM   14  C   UNL     1      -9.161   8.877  67.880  1.00  0.00    -0.145 A  
HETATM   15  C   UNL     1     -10.408   9.024  67.277  1.00  0.00    -0.342 A  
ENDBRANCH   9  10
BRANCH   9  16
HETATM   16  C   UNL     1     -11.991  12.785  69.610  1.00  0.00    -0.354 A  
HETATM   17  C   UNL     1     -12.885  11.757  71.632  1.00  0.00    -0.433 A  
HETATM   18  C   UNL     1     -13.064  14.140  71.336  1.00  0.00    -0.428 A  
HETATM   19  C   UNL     1     -12.227  11.649  70.402  1.00  0.00    -0.434 A  
HETATM   20  C   UNL     1     -12.396  14.035  70.116  1.00  0.00    -0.409 A  
HETATM   21  C   UNL     1     -13.315  13.001  72.092  1.00  0.00    -0.622 A  
ENDBRANCH   9  16
ENDBRANCH   7   9
ENDBRANCH   6   7
ENDBRANCH   2   6
TORSDOF 5
ENDMDL
MODEL      112
REMARK 921   NORMALIZED FREE ENERGY PREDICTED BY IDOCK:   -4.11 KCAL/MOL
REMARK 922        TOTAL FREE ENERGY PREDICTED BY IDOCK:   -6.34 KCAL/MOL
REMARK 923 INTER-LIGAND FREE ENERGY PREDICTED BY IDOCK:   -5.95 KCAL/MOL
REMARK 924 INTRA-LIGAND FREE ENERGY PREDICTED BY IDOCK:   -0.39 KCAL/MOL
REMARK 927      BINDING AFFINITY PREDICTED BY RF-SCORE:    0.00 PKD
ROOT
HETATM    1  N   UNL     1     -12.007  14.181  63.790  1.00  0.00    -0.772 N  
HETATM    2  C   UNL     1     -12.660  13.316  64.627  1.00  0.00    -0.293 C  
HETATM    3  H1  UNL     1     -11.587  15.039  64.147  1.00  0.00     0.000 HD 
HETATM    4  H2  UNL     1     -11.939  13.964  62.795  1.00  0.00     0.000 HD 
HETATM    5  O   UNL     1     -13.165  12.282  64.197  1.00  0.00    -0.745 OA 
ENDROOT
BRANCH   2   6
HETATM    6  C   UNL     1     -12.738  13.738  66.080  1.00  0.00    -0.354 C  
BRANCH   6   7
HETATM    7  S   UNL     1     -11.417  14.929  66.412  1.00  0.00    -0.223 S  
HETATM    8  O   UNL     1     -11.639  15.454  67.805  1.00  0.00    -0.322 OA 
BRANCH   7   9
HETATM    9  C   UNL     1      -9.970  13.768  66.464  1.00  0.00    -0.288 C  
BRANCH   9  10
HETATM   10  C   UNL     1      -8.688  14.450  66.924  1.00  0.00    -0.218 A  
HETATM   11  C   UNL     1      -8.449  15.798  66.599  1.00  0.00    -0.323 A  
HETATM   12  C   UNL     1      -7.722  13.766  67.681  1.00  0.00    -0.187 A  
HETATM   13  C   UNL     1      -7.287  16.445  67.034  1.00  0.00    -0.255 A  
HETATM   14  C   UNL     1      -6.345  15.753  67.789  1.00  0.00    -0.174 A  
HETATM   15  C   UNL     1      -6.560  14.415  68.108  1.00  0.00    -0.133 A  
ENDBRANCH   9  10
BRANCH   9  16
HETATM   16  C   UNL     1     -10.295  12.501  67.267  1.00  0.00    -0.228 A  
HETATM   17  C   UNL     1     -10.514  10.074  67.354  1.00  0.00    -0.316 A  
HETATM   18  C   UNL     1     -11.053  11.381  69.303  1.00  0.00    -0.313 A  
HETATM   19  C   UNL     1     -10.181  11.241  66.657  1.00  0.00    -0.268 A  
HETATM   20  C   UNL     1     -10.708  12.544  68.614  1.00  0.00    -0.263 A  
HETATM   21  C   UNL     1     -10.963  10.146  68.672  1.00  0.00    -0.273 A  
ENDBRANCH   9  16
ENDBRANCH   7   9
ENDBRANCH   6   7
ENDBRANCH   2   6
TORSDOF 5
ENDMDL
MODEL      113
REMARK 921   NORMALIZED FREE ENERGY PREDICTED BY IDOCK:   -4.09 KCAL/MOL
REMARK 922        TOTAL FREE ENERGY PREDICTED BY IDOCK:   -6.31 KCAL/MOL
REMARK 923 INTER-LIGAND FREE ENERGY PREDICTED BY IDOCK:   -5.63 KCAL/MOL
REMARK 924 INTRA-LIGAND FREE ENERGY PREDICTED BY IDOCK:   -0.68 KCAL/MOL
REMARK 927      BINDING AFFINITY PREDICTED BY RF-SCORE:    0.00 PKD
ROOT
HETATM    1  N   UNL     1     -13.400  15.150  70.621  1.00  0.00    -0.686 N  
HETATM    2  C   UNL     1     -12.189  14.795  70.090  1.00  0.00    -0.337 C  
HETATM    3  H1  UNL     1     -14.268  14.960  70.120  1.00  0.00     0.000 HD 
HETATM    4  H2  UNL     1     -13.435  15.612  71.530  1.00  0.00     0.000 HD 
HETATM    5  O   UNL     1     -11.144  15.024  70.693  1.00  0.00    -0.260 OA 
ENDROOT
BRANCH   2   6
HETATM    6  C   UNL     1     -12.235  14.144  68.723  1.00  0.00    -0.199 C  
BRANCH   6   7
HETATM    7  S   UNL     1     -11.276  12.610  68.776  1.00  0.00    -0.297 S  
HETATM    8  O   UNL     1     -12.149  11.527  68.201  1.00  0.00    -0.604 OA 
BRANCH   7   9
HETATM    9  C   UNL     1      -9.977  13.023  67.517  1.00  0.00    -0.212 C  
BRANCH   9  10
HETATM   10  C   UNL     1      -8.596  12.515  67.912  1.00  0.00    -0.179 A  
HETATM   11  C   UNL     1      -8.463  11.304  68.615  1.00  0.00    -0.143 A  
HETATM   12  C   UNL     1      -7.430  13.229  67.588  1.00  0.00    -0.173 A  
HETATM   13  C   UNL     1      -7.201  10.813  68.965  1.00  0.00    -0.096 A  
HETATM   14  C   UNL     1      -6.056  11.529  68.629  1.00  0.00    -0.047 A  
HETATM   15  C   UNL     1      -6.171  12.737  67.945  1.00  0.00    -0.115 A  
ENDBRANCH   9  10
BRANCH   9  16
HETATM   16  C   UNL     1     -10.397  12.578  66.108  1.00  0.00    -0.274 A  
HETATM   17  C   UNL     1     -10.318  10.916  64.327  1.00  0.00    -0.436 A  
HETATM   18  C   UNL     1     -11.511  12.977  63.971  1.00  0.00    -0.473 A  
HETATM   19  C   UNL     1      -9.986  11.326  65.622  1.00  0.00    -0.292 A  
HETATM   20  C   UNL     1     -11.192  13.381  65.267  1.00  0.00    -0.305 A  
HETATM   21  C   UNL     1     -11.069  11.747  63.497  1.00  0.00    -0.503 A  
ENDBRANCH   9  16
ENDBRANCH   7   9
ENDBRANCH   6   7
ENDBRANCH   2   6
TORSDOF 5
ENDMDL
MODEL      114
REMARK 921   NORMALIZED FREE ENERGY PREDICTED BY IDOCK:   -4.09 KCAL/MOL
REMARK 922        TOTAL FREE ENERGY PREDICTED BY IDOCK:   -6.31 KCAL/MOL
REMARK 923 INTER-LIGAND FREE ENERGY PREDICTED BY IDOCK:   -5.37 KCAL/MOL
REMARK 924 INTRA-LIGAND FREE ENERGY PREDICTED BY IDOCK:   -0.94 KCAL/MOL
REMARK 927      BINDING AFFINITY PREDICTED BY RF-SCORE:    0.00 PKD
ROOT
HETATM    1  N   UNL     1     -12.261  14.545  67.460  1.00  0.00    -0.608 N  
HETATM    2  C   UNL     1     -12.339  13.743  66.354  1.00  0.00    -0.412 C  
HETATM    3  H1  UNL     1     -11.562  14.373  68.184  1.00  0.00     0.000 HD 
HETATM    4  H2  UNL     1     -12.910  15.325  67.563  1.00  0.00     0.000 HD 
HETATM    5  O   UNL     1     -13.179  13.949  65.483  1.00  0.00    -0.698 OA 
ENDROOT
BRANCH   2   6
HETATM    6  C   UNL     1     -11.355  12.591  66.304  1.00  0.00    -0.338 C  
BRANCH   6   7
HETATM    7  S   UNL     1     -11.203  11.884  67.963  1.00  0.00    -0.281 S  
HETATM    8  O   UNL     1     -12.588  11.834  68.548  1.00  0.00    -0.004 OA 
BRANCH   7   9
HETATM    9  C   UNL     1     -10.713  10.152  67.508  1.00  0.00    -0.290 C  
BRANCH   9  10
HETATM   10  C   UNL     1      -9.566  10.113  66.507  1.00  0.00    -0.236 A  
HETATM   11  C   UNL     1      -8.296  10.598  66.868  1.00  0.00    -0.125 A  
HETATM   12  C   UNL     1      -9.736   9.593  65.212  1.00  0.00    -0.330 A  
HETATM   13  C   UNL     1      -7.226  10.547  65.968  1.00  0.00    -0.137 A  
HETATM   14  C   UNL     1      -7.412  10.023  64.693  1.00  0.00    -0.143 A  
HETATM   15  C   UNL     1      -8.666   9.550  64.315  1.00  0.00    -0.232 A  
ENDBRANCH   9  10
BRANCH   9  16
HETATM   16  C   UNL     1     -10.449   9.297  68.755  1.00  0.00    -0.233 A  
HETATM   17  C   UNL     1     -10.089   9.158  71.162  1.00  0.00    -0.384 A  
HETATM   18  C   UNL     1      -9.982   7.154  69.833  1.00  0.00    -0.184 A  
HETATM   19  C   UNL     1     -10.373   9.910  70.017  1.00  0.00    -0.320 A  
HETATM   20  C   UNL     1     -10.278   7.900  68.691  1.00  0.00    -0.223 A  
HETATM   21  C   UNL     1      -9.881   7.783  71.068  1.00  0.00    -0.186 A  
ENDBRANCH   9  16
ENDBRANCH   7   9
ENDBRANCH   6   7
ENDBRANCH   2   6
TORSDOF 5
ENDMDL
MODEL      115
REMARK 921   NORMALIZED FREE ENERGY PREDICTED BY IDOCK:   -4.08 KCAL/MOL
REMARK 922        TOTAL FREE ENERGY PREDICTED BY IDOCK:   -6.30 KCAL/MOL
REMARK 923 INTER-LIGAND FREE ENERGY PREDICTED BY IDOCK:   -5.64 KCAL/MOL
REMARK 924 INTRA-LIGAND FREE ENERGY PREDICTED BY IDOCK:   -0.65 KCAL/MOL
REMARK 927      BINDING AFFINITY PREDICTED BY RF-SCORE:    0.00 PKD
ROOT
HETATM    1  N   UNL     1      -7.234   8.034  71.614  1.00  0.00    -0.068 N  
HETATM    2  C   UNL     1      -8.037   7.716  72.676  1.00  0.00    -0.118 C  
HETATM    3  H1  UNL     1      -6.830   7.305  71.026  1.00  0.00     0.000 HD 
HETATM    4  H2  UNL     1      -7.038   9.014  71.407  1.00  0.00     0.000 HD 
HETATM    5  O   UNL     1      -8.524   8.593  73.384  1.00  0.00    -0.385 OA 
ENDROOT
BRANCH   2   6
HETATM    6  C   UNL     1      -8.246   6.236  72.924  1.00  0.00    -0.115 C  
BRANCH   6   7
HETATM    7  S   UNL     1     -10.017   5.875  72.838  1.00  0.00    -0.177 S  
HETATM    8  O   UNL     1     -10.648   6.475  74.065  1.00  0.00    -0.310 OA 
BRANCH   7   9
HETATM    9  C   UNL     1     -10.471   6.939  71.386  1.00  0.00    -0.209 C  
BRANCH   9  10
HETATM   10  C   UNL     1     -10.376   6.193  70.062  1.00  0.00    -0.267 A  
HETATM   11  C   UNL     1     -10.895   6.769  68.887  1.00  0.00    -0.288 A  
HETATM   12  C   UNL     1      -9.772   4.927  69.972  1.00  0.00    -0.285 A  
HETATM   13  C   UNL     1     -10.794   6.106  67.659  1.00  0.00    -0.421 A  
HETATM   14  C   UNL     1     -10.187   4.856  67.588  1.00  0.00    -0.135 A  
HETATM   15  C   UNL     1      -9.680   4.266  68.744  1.00  0.00    -0.184 A  
ENDBRANCH   9  10
BRANCH   9  16
HETATM   16  C   UNL     1     -11.831   7.621  71.592  1.00  0.00    -0.323 A  
HETATM   17  C   UNL     1     -14.261   7.458  71.698  1.00  0.00    -0.583 A  
HETATM   18  C   UNL     1     -13.207   9.609  71.948  1.00  0.00    -0.538 A  
HETATM   19  C   UNL     1     -13.007   6.854  71.557  1.00  0.00    -0.362 A  
HETATM   20  C   UNL     1     -11.956   9.005  71.821  1.00  0.00    -0.438 A  
HETATM   21  C   UNL     1     -14.361   8.836  71.879  1.00  0.00    -0.441 A  
ENDBRANCH   9  16
ENDBRANCH   7   9
ENDBRANCH   6   7
ENDBRANCH   2   6
TORSDOF 5
ENDMDL
MODEL      116
REMARK 921   NORMALIZED FREE ENERGY PREDICTED BY IDOCK:   -4.06 KCAL/MOL
REMARK 922        TOTAL FREE ENERGY PREDICTED BY IDOCK:   -6.28 KCAL/MOL
REMARK 923 INTER-LIGAND FREE ENERGY PREDICTED BY IDOCK:   -5.94 KCAL/MOL
REMARK 924 INTRA-LIGAND FREE ENERGY PREDICTED BY IDOCK:   -0.34 KCAL/MOL
REMARK 927      BINDING AFFINITY PREDICTED BY RF-SCORE:    0.00 PKD
ROOT
HETATM    1  N   UNL     1     -11.990  12.727  66.077  1.00  0.00    -0.430 N  
HETATM    2  C   UNL     1     -11.032  13.595  65.627  1.00  0.00    -0.290 C  
HETATM    3  H1  UNL     1     -12.476  12.893  66.958  1.00  0.00     0.000 HD 
HETATM    4  H2  UNL     1     -12.222  11.901  65.523  1.00  0.00     0.000 HD 
HETATM    5  O   UNL     1     -10.448  13.395  64.566  1.00  0.00    -0.404 OA 
ENDROOT
BRANCH   2   6
HETATM    6  C   UNL     1     -10.735  14.773  66.531  1.00  0.00    -0.319 C  
BRANCH   6   7
HETATM    7  S   UNL     1      -9.721  14.202  67.917  1.00  0.00    -0.230 S  
HETATM    8  O   UNL     1      -8.306  14.103  67.414  1.00  0.00    -0.175 OA 
BRANCH   7   9
HETATM    9  C   UNL     1      -9.834  15.698  69.010  1.00  0.00    -0.236 C  
BRANCH   9  10
HETATM   10  C   UNL     1      -9.713  17.002  68.231  1.00  0.00    -0.275 A  
HETATM   11  C   UNL     1      -8.511  17.324  67.574  1.00  0.00    -0.210 A  
HETATM   12  C   UNL     1     -10.783  17.908  68.142  1.00  0.00    -0.287 A  
HETATM   13  C   UNL     1      -8.392  18.506  66.836  1.00  0.00    -0.270 A  
HETATM   14  C   UNL     1      -9.465  19.388  66.753  1.00  0.00    -0.404 A  
HETATM   15  C   UNL     1     -10.658  19.090  67.409  1.00  0.00    -0.559 A  
ENDBRANCH   9  10
BRANCH   9  16
HETATM   16  C   UNL     1     -11.081  15.649  69.903  1.00  0.00    -0.323 A  
HETATM   17  C   UNL     1     -12.150  16.145  72.038  1.00  0.00    -0.572 A  
HETATM   18  C   UNL     1     -13.387  14.969  70.340  1.00  0.00    -0.056 A  
HETATM   19  C   UNL     1     -11.041  16.217  71.187  1.00  0.00    -0.113 A  
HETATM   20  C   UNL     1     -12.287  15.051  69.486  1.00  0.00    -0.199 A  
HETATM   21  C   UNL     1     -13.317  15.510  71.619  1.00  0.00    -0.585 A  
ENDBRANCH   9  16
ENDBRANCH   7   9
ENDBRANCH   6   7
ENDBRANCH   2   6
TORSDOF 5
ENDMDL
MODEL      117
REMARK 921   NORMALIZED FREE ENERGY PREDICTED BY IDOCK:   -4.06 KCAL/MOL
REMARK 922        TOTAL FREE ENERGY PREDICTED BY IDOCK:   -6.27 KCAL/MOL
REMARK 923 INTER-LIGAND FREE ENERGY PREDICTED BY IDOCK:   -5.75 KCAL/MOL
REMARK 924 INTRA-LIGAND FREE ENERGY PREDICTED BY IDOCK:   -0.52 KCAL/MOL
REMARK 927      BINDING AFFINITY PREDICTED BY RF-SCORE:    0.00 PKD
ROOT
HETATM    1  N   UNL     1      -7.192  13.129  67.119  1.00  0.00    -0.361 N  
HETATM    2  C   UNL     1      -6.544  14.149  67.764  1.00  0.00    -0.175 C  
HETATM    3  H1  UNL     1      -7.936  12.606  67.581  1.00  0.00     0.000 HD 
HETATM    4  H2  UNL     1      -6.928  12.890  66.163  1.00  0.00     0.000 HD 
HETATM    5  O   UNL     1      -5.649  14.779  67.208  1.00  0.00    -0.298 OA 
ENDROOT
BRANCH   2   6
HETATM    6  C   UNL     1      -6.984  14.410  69.190  1.00  0.00    -0.123 C  
BRANCH   6   7
HETATM    7  S   UNL     1      -7.439  16.154  69.349  1.00  0.00    -0.100 S  
HETATM    8  O   UNL     1      -6.219  16.961  68.994  1.00  0.00    -0.165 OA 
BRANCH   7   9
HETATM    9  C   UNL     1      -8.638  16.282  67.937  1.00  0.00    -0.173 C  
BRANCH   9  10
HETATM   10  C   UNL     1      -9.863  15.398  68.129  1.00  0.00    -0.213 A  
HETATM   11  C   UNL     1     -10.350  15.135  69.422  1.00  0.00    -0.259 A  
HETATM   12  C   UNL     1     -10.538  14.830  67.035  1.00  0.00    -0.290 A  
HETATM   13  C   UNL     1     -11.488  14.344  69.612  1.00  0.00    -0.331 A  
HETATM   14  C   UNL     1     -12.148  13.796  68.517  1.00  0.00    -0.327 A  
HETATM   15  C   UNL     1     -11.671  14.035  67.230  1.00  0.00    -0.420 A  
ENDBRANCH   9  10
BRANCH   9  16
HETATM   16  C   UNL     1      -8.996  17.744  67.635  1.00  0.00    -0.249 A  
HETATM   17  C   UNL     1     -10.249  19.755  68.209  1.00  0.00    -0.569 A  
HETATM   18  C   UNL     1      -8.863  19.746  66.240  1.00  0.00    -0.417 A  
HETATM   19  C   UNL     1      -9.872  18.437  68.487  1.00  0.00    -0.402 A  
HETATM   20  C   UNL     1      -8.476  18.436  66.523  1.00  0.00    -0.287 A  
HETATM   21  C   UNL     1      -9.755  20.404  67.078  1.00  0.00    -0.588 A  
ENDBRANCH   9  16
ENDBRANCH   7   9
ENDBRANCH   6   7
ENDBRANCH   2   6
TORSDOF 5
ENDMDL
MODEL      118
REMARK 921   NORMALIZED FREE ENERGY PREDICTED BY IDOCK:   -4.05 KCAL/MOL
REMARK 922        TOTAL FREE ENERGY PREDICTED BY IDOCK:   -6.26 KCAL/MOL
REMARK 923 INTER-LIGAND FREE ENERGY PREDICTED BY IDOCK:   -6.35 KCAL/MOL
REMARK 924 INTRA-LIGAND FREE ENERGY PREDICTED BY IDOCK:    0.08 KCAL/MOL
REMARK 927      BINDING AFFINITY PREDICTED BY RF-SCORE:    0.00 PKD
ROOT
HETATM    1  N   UNL     1      -7.061  13.415  69.097  1.00  0.00    -0.265 N  
HETATM    2  C   UNL     1      -7.371  13.857  67.839  1.00  0.00    -0.154 C  
HETATM    3  H1  UNL     1      -7.672  12.764  69.589  1.00  0.00     0.000 HD 
HETATM    4  H2  UNL     1      -6.206  13.741  69.548  1.00  0.00     0.000 HD 
HETATM    5  O   UNL     1      -6.635  14.641  67.246  1.00  0.00    -0.290 OA 
ENDROOT
BRANCH   2   6
HETATM    6  C   UNL     1      -8.675  13.343  67.263  1.00  0.00    -0.218 C  
BRANCH   6   7
HETATM    7  S   UNL     1      -9.708  14.758  66.806  1.00  0.00    -0.265 S  
HETATM    8  O   UNL     1     -11.112  14.242  66.643  1.00  0.00    -0.308 OA 
BRANCH   7   9
HETATM    9  C   UNL     1      -9.632  15.712  68.396  1.00  0.00    -0.199 C  
BRANCH   9  10
HETATM   10  C   UNL     1      -9.589  17.218  68.173  1.00  0.00    -0.283 A  
HETATM   11  C   UNL     1     -10.627  17.859  67.471  1.00  0.00    -0.386 A  
HETATM   12  C   UNL     1      -8.530  18.004  68.659  1.00  0.00    -0.277 A  
HETATM   13  C   UNL     1     -10.613  19.244  67.278  1.00  0.00    -0.590 A  
HETATM   14  C   UNL     1      -9.560  20.007  67.773  1.00  0.00    -0.509 A  
HETATM   15  C   UNL     1      -8.518  19.387  68.459  1.00  0.00    -0.397 A  
ENDBRANCH   9  10
BRANCH   9  16
HETATM   16  C   UNL     1     -10.745  15.282  69.363  1.00  0.00    -0.266 A  
HETATM   17  C   UNL     1     -12.314  13.579  70.126  1.00  0.00    -0.345 A  
HETATM   18  C   UNL     1     -12.322  15.749  71.170  1.00  0.00    -0.480 A  
HETATM   19  C   UNL     1     -11.269  13.981  69.286  1.00  0.00    -0.304 A  
HETATM   20  C   UNL     1     -11.272  16.147  70.342  1.00  0.00    -0.394 A  
HETATM   21  C   UNL     1     -12.848  14.467  71.058  1.00  0.00    -0.418 A  
ENDBRANCH   9  16
ENDBRANCH   7   9
ENDBRANCH   6   7
ENDBRANCH   2   6
TORSDOF 5
ENDMDL
MODEL      119
REMARK 921   NORMALIZED FREE ENERGY PREDICTED BY IDOCK:   -4.05 KCAL/MOL
REMARK 922        TOTAL FREE ENERGY PREDICTED BY IDOCK:   -6.26 KCAL/MOL
REMARK 923 INTER-LIGAND FREE ENERGY PREDICTED BY IDOCK:   -5.62 KCAL/MOL
REMARK 924 INTRA-LIGAND FREE ENERGY PREDICTED BY IDOCK:   -0.64 KCAL/MOL
REMARK 927      BINDING AFFINITY PREDICTED BY RF-SCORE:    0.00 PKD
ROOT
HETATM    1  N   UNL     1      -7.217  14.491  70.099  1.00  0.00    -0.381 N  
HETATM    2  C   UNL     1      -7.776  15.037  68.976  1.00  0.00    -0.170 C  
HETATM    3  H1  UNL     1      -7.665  13.712  70.582  1.00  0.00     0.000 HD 
HETATM    4  H2  UNL     1      -6.339  14.867  70.458  1.00  0.00     0.000 HD 
HETATM    5  O   UNL     1      -7.237  15.974  68.394  1.00  0.00    -0.120 OA 
ENDROOT
BRANCH   2   6
HETATM    6  C   UNL     1      -9.095  14.434  68.537  1.00  0.00    -0.193 C  
BRANCH   6   7
HETATM    7  S   UNL     1      -8.769  12.845  67.733  1.00  0.00    -0.201 S  
HETATM    8  O   UNL     1      -8.029  11.993  68.729  1.00  0.00    -0.109 OA 
BRANCH   7   9
HETATM    9  C   UNL     1     -10.507  12.205  67.618  1.00  0.00    -0.206 C  
BRANCH   9  10
HETATM   10  C   UNL     1     -11.013  12.140  66.182  1.00  0.00    -0.335 A  
HETATM   11  C   UNL     1     -10.270  11.457  65.202  1.00  0.00    -0.328 A  
HETATM   12  C   UNL     1     -12.221  12.747  65.800  1.00  0.00    -0.469 A  
HETATM   13  C   UNL     1     -10.733  11.370  63.884  1.00  0.00    -0.462 A  
HETATM   14  C   UNL     1     -11.935  11.971  63.525  1.00  0.00    -0.605 A  
HETATM   15  C   UNL     1     -12.676  12.662  64.481  1.00  0.00    -0.439 A  
ENDBRANCH   9  10
BRANCH   9  16
HETATM   16  C   UNL     1     -10.668  10.875  68.369  1.00  0.00    -0.240 A  
HETATM   17  C   UNL     1     -11.188   9.685  70.432  1.00  0.00    -0.342 A  
HETATM   18  C   UNL     1     -10.518   8.439  68.483  1.00  0.00    -0.201 A  
HETATM   19  C   UNL     1     -11.078  10.879  69.712  1.00  0.00    -0.328 A  
HETATM   20  C   UNL     1     -10.420   9.628  67.761  1.00  0.00    -0.309 A  
HETATM   21  C   UNL     1     -10.896   8.466  69.821  1.00  0.00    -0.184 A  
ENDBRANCH   9  16
ENDBRANCH   7   9
ENDBRANCH   6   7
ENDBRANCH   2   6
TORSDOF 5
ENDMDL
MODEL      120
REMARK 921   NORMALIZED FREE ENERGY PREDICTED BY IDOCK:   -4.05 KCAL/MOL
REMARK 922        TOTAL FREE ENERGY PREDICTED BY IDOCK:   -6.26 KCAL/MOL
REMARK 923 INTER-LIGAND FREE ENERGY PREDICTED BY IDOCK:   -5.58 KCAL/MOL
REMARK 924 INTRA-LIGAND FREE ENERGY PREDICTED BY IDOCK:   -0.68 KCAL/MOL
REMARK 927      BINDING AFFINITY PREDICTED BY RF-SCORE:    0.00 PKD
ROOT
HETATM    1  N   UNL     1     -11.091   5.693  66.272  1.00  0.00    -0.772 N  
HETATM    2  C   UNL     1     -10.729   6.743  67.073  1.00  0.00    -0.365 C  
HETATM    3  H1  UNL     1     -10.931   5.723  65.265  1.00  0.00     0.000 HD 
HETATM    4  H2  UNL     1     -11.526   4.869  66.688  1.00  0.00     0.000 HD 
HETATM    5  O   UNL     1     -10.922   6.707  68.285  1.00  0.00    -0.262 OA 
ENDROOT
BRANCH   2   6
HETATM    6  C   UNL     1     -10.120   7.934  66.362  1.00  0.00    -0.079 C  
BRANCH   6   7
HETATM    7  S   UNL     1      -9.424   9.057  67.599  1.00  0.00    -0.143 S  
HETATM    8  O   UNL     1      -8.385   9.891  66.899  1.00  0.00    -0.123 OA 
BRANCH   7   9
HETATM    9  C   UNL     1     -10.908  10.131  67.899  1.00  0.00    -0.284 C  
BRANCH   9  10
HETATM   10  C   UNL     1     -11.401  10.058  69.338  1.00  0.00    -0.192 A  
HETATM   11  C   UNL     1     -12.523  10.807  69.739  1.00  0.00    -0.231 A  
HETATM   12  C   UNL     1     -10.764   9.250  70.294  1.00  0.00    -0.284 A  
HETATM   13  C   UNL     1     -13.002  10.733  71.052  1.00  0.00    -0.425 A  
HETATM   14  C   UNL     1     -12.362   9.922  71.983  1.00  0.00    -0.286 A  
HETATM   15  C   UNL     1     -11.242   9.185  71.606  1.00  0.00    -0.447 A  
ENDBRANCH   9  10
BRANCH   9  16
HETATM   16  C   UNL     1     -10.667  11.570  67.420  1.00  0.00    -0.275 A  
HETATM   17  C   UNL     1     -11.007  13.303  65.740  1.00  0.00    -0.284 A  
HETATM   18  C   UNL     1      -9.628  13.768  67.658  1.00  0.00    -0.219 A  
HETATM   19  C   UNL     1     -11.248  12.011  66.220  1.00  0.00    -0.394 A  
HETATM   20  C   UNL     1      -9.878  12.485  68.144  1.00  0.00    -0.221 A  
HETATM   21  C   UNL     1     -10.187  14.176  66.452  1.00  0.00    -0.292 A  
ENDBRANCH   9  16
ENDBRANCH   7   9
ENDBRANCH   6   7
ENDBRANCH   2   6
TORSDOF 5
ENDMDL
MODEL      121
REMARK 921   NORMALIZED FREE ENERGY PREDICTED BY IDOCK:   -4.04 KCAL/MOL
REMARK 922        TOTAL FREE ENERGY PREDICTED BY IDOCK:   -6.25 KCAL/MOL
REMARK 923 INTER-LIGAND FREE ENERGY PREDICTED BY IDOCK:   -5.23 KCAL/MOL
REMARK 924 INTRA-LIGAND FREE ENERGY PREDICTED BY IDOCK:   -1.02 KCAL/MOL
REMARK 927      BINDING AFFINITY PREDICTED BY RF-SCORE:    0.00 PKD
ROOT
HETATM    1  N   UNL     1     -11.758   8.291  69.969  1.00  0.00    -0.400 N  
HETATM    2  C   UNL     1     -10.945   9.223  70.557  1.00  0.00    -0.265 C  
HETATM    3  H1  UNL     1     -11.759   8.161  68.958  1.00  0.00     0.000 HD 
HETATM    4  H2  UNL     1     -12.371   7.720  70.551  1.00  0.00     0.000 HD 
HETATM    5  O   UNL     1     -10.942   9.380  71.775  1.00  0.00    -0.363 OA 
ENDROOT
BRANCH   2   6
HETATM    6  C   UNL     1     -10.094  10.046  69.611  1.00  0.00    -0.236 C  
BRANCH   6   7
HETATM    7  S   UNL     1     -11.131  10.611  68.239  1.00  0.00    -0.291 S  
HETATM    8  O   UNL     1     -12.467  10.983  68.823  1.00  0.00    -0.468 OA 
BRANCH   7   9
HETATM    9  C   UNL     1     -10.237  12.181  67.814  1.00  0.00    -0.201 C  
BRANCH   9  10
HETATM   10  C   UNL     1      -8.758  11.954  67.531  1.00  0.00    -0.163 A  
HETATM   11  C   UNL     1      -7.782  12.586  68.323  1.00  0.00    -0.141 A  
HETATM   12  C   UNL     1      -8.328  11.115  66.488  1.00  0.00    -0.166 A  
HETATM   13  C   UNL     1      -6.419  12.370  68.091  1.00  0.00    -0.072 A  
HETATM   14  C   UNL     1      -6.013  11.530  67.058  1.00  0.00    -0.125 A  
HETATM   15  C   UNL     1      -6.966  10.907  66.256  1.00  0.00    -0.120 A  
ENDBRANCH   9  10
BRANCH   9  16
HETATM   16  C   UNL     1     -10.950  12.947  66.690  1.00  0.00    -0.302 A  
HETATM   17  C   UNL     1     -11.472  15.066  65.604  1.00  0.00    -0.248 A  
HETATM   18  C   UNL     1     -12.447  13.032  64.760  1.00  0.00    -0.485 A  
HETATM   19  C   UNL     1     -10.797  14.340  66.591  1.00  0.00    -0.301 A  
HETATM   20  C   UNL     1     -11.764  12.305  65.736  1.00  0.00    -0.445 A  
HETATM   21  C   UNL     1     -12.306  14.414  64.698  1.00  0.00    -0.435 A  
ENDBRANCH   9  16
ENDBRANCH   7   9
ENDBRANCH   6   7
ENDBRANCH   2   6
TORSDOF 5
ENDMDL
MODEL      122
REMARK 921   NORMALIZED FREE ENERGY PREDICTED BY IDOCK:   -4.03 KCAL/MOL
REMARK 922        TOTAL FREE ENERGY PREDICTED BY IDOCK:   -6.23 KCAL/MOL
REMARK 923 INTER-LIGAND FREE ENERGY PREDICTED BY IDOCK:   -6.53 KCAL/MOL
REMARK 924 INTRA-LIGAND FREE ENERGY PREDICTED BY IDOCK:    0.30 KCAL/MOL
REMARK 927      BINDING AFFINITY PREDICTED BY RF-SCORE:    0.00 PKD
ROOT
HETATM    1  N   UNL     1     -10.782  16.871  67.005  1.00  0.00    -0.218 N  
HETATM    2  C   UNL     1      -9.605  16.568  66.373  1.00  0.00    -0.285 C  
HETATM    3  H1  UNL     1     -11.446  16.138  67.255  1.00  0.00     0.000 HD 
HETATM    4  H2  UNL     1     -10.996  17.843  67.229  1.00  0.00     0.000 HD 
HETATM    5  O   UNL     1      -8.805  17.449  66.072  1.00  0.00    -0.498 OA 
ENDROOT
BRANCH   2   6
HETATM    6  C   UNL     1      -9.389  15.103  66.052  1.00  0.00    -0.291 C  
BRANCH   6   7
HETATM    7  S   UNL     1      -8.884  14.244  67.563  1.00  0.00    -0.211 S  
HETATM    8  O   UNL     1      -9.227  15.148  68.717  1.00  0.00    -0.183 OA 
BRANCH   7   9
HETATM    9  C   UNL     1     -10.112  12.853  67.544  1.00  0.00    -0.214 C  
BRANCH   9  10
HETATM   10  C   UNL     1     -11.055  12.889  68.739  1.00  0.00    -0.305 A  
HETATM   11  C   UNL     1     -11.483  11.689  69.338  1.00  0.00    -0.372 A  
HETATM   12  C   UNL     1     -11.517  14.102  69.276  1.00  0.00    -0.337 A  
HETATM   13  C   UNL     1     -12.331  11.706  70.450  1.00  0.00    -0.373 A  
HETATM   14  C   UNL     1     -12.773  12.918  70.973  1.00  0.00    -0.338 A  
HETATM   15  C   UNL     1     -12.369  14.114  70.384  1.00  0.00    -0.428 A  
ENDBRANCH   9  10
BRANCH   9  16
HETATM   16  C   UNL     1     -10.851  12.774  66.200  1.00  0.00    -0.303 A  
HETATM   17  C   UNL     1     -12.850  13.225  64.881  1.00  0.00    -0.321 A  
HETATM   18  C   UNL     1     -11.003  12.059  63.869  1.00  0.00    -0.465 A  
HETATM   19  C   UNL     1     -12.138  13.323  66.081  1.00  0.00    -0.477 A  
HETATM   20  C   UNL     1     -10.286  12.168  65.061  1.00  0.00    -0.320 A  
HETATM   21  C   UNL     1     -12.288  12.582  63.780  1.00  0.00    -0.595 A  
ENDBRANCH   9  16
ENDBRANCH   7   9
ENDBRANCH   6   7
ENDBRANCH   2   6
TORSDOF 5
ENDMDL
MODEL      123
REMARK 921   NORMALIZED FREE ENERGY PREDICTED BY IDOCK:   -4.03 KCAL/MOL
REMARK 922        TOTAL FREE ENERGY PREDICTED BY IDOCK:   -6.23 KCAL/MOL
REMARK 923 INTER-LIGAND FREE ENERGY PREDICTED BY IDOCK:   -5.36 KCAL/MOL
REMARK 924 INTRA-LIGAND FREE ENERGY PREDICTED BY IDOCK:   -0.87 KCAL/MOL
REMARK 927      BINDING AFFINITY PREDICTED BY RF-SCORE:    0.00 PKD
ROOT
HETATM    1  N   UNL     1     -11.270   4.719  65.437  1.00  0.00    -0.970 N  
HETATM    2  C   UNL     1     -10.450   5.301  66.366  1.00  0.00    -0.292 C  
HETATM    3  H1  UNL     1     -12.193   5.103  65.239  1.00  0.00     0.000 HD 
HETATM    4  H2  UNL     1     -10.952   3.889  64.935  1.00  0.00     0.000 HD 
HETATM    5  O   UNL     1      -9.338   4.839  66.604  1.00  0.00    -0.128 OA 
ENDROOT
BRANCH   2   6
HETATM    6  C   UNL     1     -11.020   6.508  67.083  1.00  0.00    -0.408 C  
BRANCH   6   7
HETATM    7  S   UNL     1      -9.708   7.739  67.285  1.00  0.00    -0.189 S  
HETATM    8  O   UNL     1      -9.406   8.287  65.916  1.00  0.00    -0.178 OA 
BRANCH   7   9
HETATM    9  C   UNL     1     -10.651   9.033  68.223  1.00  0.00    -0.163 C  
BRANCH   9  10
HETATM   10  C   UNL     1     -10.695   8.755  69.720  1.00  0.00    -0.220 A  
HETATM   11  C   UNL     1     -11.609   9.442  70.539  1.00  0.00    -0.291 A  
HETATM   12  C   UNL     1      -9.839   7.815  70.319  1.00  0.00    -0.184 A  
HETATM   13  C   UNL     1     -11.677   9.181  71.912  1.00  0.00    -0.436 A  
HETATM   14  C   UNL     1     -10.827   8.241  72.487  1.00  0.00    -0.421 A  
HETATM   15  C   UNL     1      -9.907   7.562  71.692  1.00  0.00    -0.185 A  
ENDBRANCH   9  10
BRANCH   9  16
HETATM   16  C   UNL     1     -10.148  10.445  67.891  1.00  0.00    -0.200 A  
HETATM   17  C   UNL     1      -8.379  12.119  68.002  1.00  0.00    -0.167 A  
HETATM   18  C   UNL     1     -10.487  12.691  66.989  1.00  0.00    -0.244 A  
HETATM   19  C   UNL     1      -8.845  10.824  68.253  1.00  0.00    -0.139 A  
HETATM   20  C   UNL     1     -10.948  11.396  67.226  1.00  0.00    -0.336 A  
HETATM   21  C   UNL     1      -9.204  13.055  67.382  1.00  0.00    -0.208 A  
ENDBRANCH   9  16
ENDBRANCH   7   9
ENDBRANCH   6   7
ENDBRANCH   2   6
TORSDOF 5
ENDMDL
MODEL      124
REMARK 921   NORMALIZED FREE ENERGY PREDICTED BY IDOCK:   -4.02 KCAL/MOL
REMARK 922        TOTAL FREE ENERGY PREDICTED BY IDOCK:   -6.21 KCAL/MOL
REMARK 923 INTER-LIGAND FREE ENERGY PREDICTED BY IDOCK:   -5.41 KCAL/MOL
REMARK 924 INTRA-LIGAND FREE ENERGY PREDICTED BY IDOCK:   -0.81 KCAL/MOL
REMARK 927      BINDING AFFINITY PREDICTED BY RF-SCORE:    0.00 PKD
ROOT
HETATM    1  N   UNL     1      -8.834   4.988  67.845  1.00  0.00    -0.103 N  
HETATM    2  C   UNL     1      -8.114   5.733  68.739  1.00  0.00    -0.102 C  
HETATM    3  H1  UNL     1      -9.819   4.778  68.010  1.00  0.00     0.000 HD 
HETATM    4  H2  UNL     1      -8.380   4.637  67.001  1.00  0.00     0.000 HD 
HETATM    5  O   UNL     1      -6.929   5.986  68.540  1.00  0.00    -0.070 OA 
ENDROOT
BRANCH   2   6
HETATM    6  C   UNL     1      -8.864   6.182  69.977  1.00  0.00    -0.144 C  
BRANCH   6   7
HETATM    7  S   UNL     1      -9.592   7.808  69.658  1.00  0.00    -0.164 S  
HETATM    8  O   UNL     1     -10.050   7.811  68.225  1.00  0.00    -0.179 OA 
BRANCH   7   9
HETATM    9  C   UNL     1     -11.097   7.681  70.737  1.00  0.00    -0.264 C  
BRANCH   9  10
HETATM   10  C   UNL     1     -10.817   6.958  72.048  1.00  0.00    -0.255 A  
HETATM   11  C   UNL     1     -11.406   5.707  72.305  1.00  0.00    -0.300 A  
HETATM   12  C   UNL     1      -9.972   7.509  73.026  1.00  0.00    -0.321 A  
HETATM   13  C   UNL     1     -11.141   5.020  73.494  1.00  0.00    -0.386 A  
HETATM   14  C   UNL     1     -10.295   5.578  74.448  1.00  0.00    -0.282 A  
HETATM   15  C   UNL     1      -9.714   6.823  74.215  1.00  0.00    -0.328 A  
ENDBRANCH   9  10
BRANCH   9  16
HETATM   16  C   UNL     1     -11.762   9.050  70.938  1.00  0.00    -0.327 A  
HETATM   17  C   UNL     1     -11.867  11.426  70.403  1.00  0.00    -0.428 A  
HETATM   18  C   UNL     1     -13.374  10.516  72.046  1.00  0.00    -0.420 A  
HETATM   19  C   UNL     1     -11.308  10.159  70.205  1.00  0.00    -0.387 A  
HETATM   20  C   UNL     1     -12.826   9.249  71.840  1.00  0.00    -0.485 A  
HETATM   21  C   UNL     1     -12.890  11.606  71.332  1.00  0.00    -0.461 A  
ENDBRANCH   9  16
ENDBRANCH   7   9
ENDBRANCH   6   7
ENDBRANCH   2   6
TORSDOF 5
ENDMDL
MODEL      125
REMARK 921   NORMALIZED FREE ENERGY PREDICTED BY IDOCK:   -3.99 KCAL/MOL
REMARK 922        TOTAL FREE ENERGY PREDICTED BY IDOCK:   -6.17 KCAL/MOL
REMARK 923 INTER-LIGAND FREE ENERGY PREDICTED BY IDOCK:   -5.20 KCAL/MOL
REMARK 924 INTRA-LIGAND FREE ENERGY PREDICTED BY IDOCK:   -0.97 KCAL/MOL
REMARK 927      BINDING AFFINITY PREDICTED BY RF-SCORE:    0.00 PKD
ROOT
HETATM    1  N   UNL     1      -8.717   8.204  69.440  1.00  0.00    -0.142 N  
HETATM    2  C   UNL     1      -8.636   9.480  69.930  1.00  0.00    -0.204 C  
HETATM    3  H1  UNL     1      -9.476   7.930  68.815  1.00  0.00     0.000 HD 
HETATM    4  H2  UNL     1      -8.009   7.518  69.703  1.00  0.00     0.000 HD 
HETATM    5  O   UNL     1      -7.723   9.810  70.681  1.00  0.00    -0.270 OA 
ENDROOT
BRANCH   2   6
HETATM    6  C   UNL     1      -9.749  10.419  69.510  1.00  0.00    -0.170 C  
BRANCH   6   7
HETATM    7  S   UNL     1      -9.832  10.453  67.703  1.00  0.00    -0.175 S  
HETATM    8  O   UNL     1     -10.765   9.348  67.286  1.00  0.00    -0.267 OA 
BRANCH   7   9
HETATM    9  C   UNL     1     -10.720  12.066  67.473  1.00  0.00    -0.226 C  
BRANCH   9  10
HETATM   10  C   UNL     1      -9.947  13.246  68.047  1.00  0.00    -0.233 A  
HETATM   11  C   UNL     1     -10.587  14.160  68.904  1.00  0.00    -0.249 A  
HETATM   12  C   UNL     1      -8.590  13.453  67.747  1.00  0.00    -0.194 A  
HETATM   13  C   UNL     1      -9.885  15.236  69.458  1.00  0.00    -0.230 A  
HETATM   14  C   UNL     1      -8.540  15.421  69.155  1.00  0.00    -0.242 A  
HETATM   15  C   UNL     1      -7.895  14.533  68.298  1.00  0.00    -0.131 A  
ENDBRANCH   9  10
BRANCH   9  16
HETATM   16  C   UNL     1     -11.132  12.276  66.009  1.00  0.00    -0.347 A  
HETATM   17  C   UNL     1     -12.746  13.120  64.388  1.00  0.00    -0.235 A  
HETATM   18  C   UNL     1     -10.780  11.968  63.610  1.00  0.00    -0.506 A  
HETATM   19  C   UNL     1     -12.326  12.955  65.712  1.00  0.00    -0.437 A  
HETATM   20  C   UNL     1     -10.354  11.814  64.930  1.00  0.00    -0.334 A  
HETATM   21  C   UNL     1     -11.980  12.615  63.339  1.00  0.00    -0.613 A  
ENDBRANCH   9  16
ENDBRANCH   7   9
ENDBRANCH   6   7
ENDBRANCH   2   6
TORSDOF 5
ENDMDL
MODEL      126
REMARK 921   NORMALIZED FREE ENERGY PREDICTED BY IDOCK:   -3.98 KCAL/MOL
REMARK 922        TOTAL FREE ENERGY PREDICTED BY IDOCK:   -6.17 KCAL/MOL
REMARK 923 INTER-LIGAND FREE ENERGY PREDICTED BY IDOCK:   -5.14 KCAL/MOL
REMARK 924 INTRA-LIGAND FREE ENERGY PREDICTED BY IDOCK:   -1.03 KCAL/MOL
REMARK 927      BINDING AFFINITY PREDICTED BY RF-SCORE:    0.00 PKD
ROOT
HETATM    1  N   UNL     1     -12.283  13.934  67.302  1.00  0.00    -0.489 N  
HETATM    2  C   UNL     1     -11.808  12.771  66.758  1.00  0.00    -0.382 C  
HETATM    3  H1  UNL     1     -11.796  14.388  68.075  1.00  0.00     0.000 HD 
HETATM    4  H2  UNL     1     -13.136  14.352  66.930  1.00  0.00     0.000 HD 
HETATM    5  O   UNL     1     -12.394  12.224  65.827  1.00  0.00    -0.622 OA 
ENDROOT
BRANCH   2   6
HETATM    6  C   UNL     1     -10.555  12.209  67.397  1.00  0.00    -0.226 C  
BRANCH   6   7
HETATM    7  S   UNL     1     -10.989  11.496  69.003  1.00  0.00    -0.233 S  
HETATM    8  O   UNL     1     -12.490  11.395  69.046  1.00  0.00    -0.364 OA 
BRANCH   7   9
HETATM    9  C   UNL     1     -10.309   9.785  68.767  1.00  0.00    -0.208 C  
BRANCH   9  10
HETATM   10  C   UNL     1      -8.814   9.785  68.477  1.00  0.00    -0.121 A  
HETATM   11  C   UNL     1      -7.916  10.358  69.396  1.00  0.00    -0.161 A  
HETATM   12  C   UNL     1      -8.292   9.217  67.303  1.00  0.00    -0.121 A  
HETATM   13  C   UNL     1      -6.538  10.345  69.156  1.00  0.00    -0.054 A  
HETATM   14  C   UNL     1      -6.038   9.771  67.991  1.00  0.00    -0.054 A  
HETATM   15  C   UNL     1      -6.915   9.212  67.064  1.00  0.00    -0.081 A  
ENDBRANCH   9  10
BRANCH   9  16
HETATM   16  C   UNL     1     -10.693   8.862  69.932  1.00  0.00    -0.236 A  
HETATM   17  C   UNL     1     -11.216   6.625  70.746  1.00  0.00    -0.366 A  
HETATM   18  C   UNL     1     -11.327   8.492  72.263  1.00  0.00    -0.441 A  
HETATM   19  C   UNL     1     -10.824   7.481  69.712  1.00  0.00    -0.234 A  
HETATM   20  C   UNL     1     -10.923   9.345  71.235  1.00  0.00    -0.440 A  
HETATM   21  C   UNL     1     -11.480   7.132  72.017  1.00  0.00    -0.310 A  
ENDBRANCH   9  16
ENDBRANCH   7   9
ENDBRANCH   6   7
ENDBRANCH   2   6
TORSDOF 5
ENDMDL
MODEL      127
REMARK 921   NORMALIZED FREE ENERGY PREDICTED BY IDOCK:   -3.97 KCAL/MOL
REMARK 922        TOTAL FREE ENERGY PREDICTED BY IDOCK:   -6.16 KCAL/MOL
REMARK 923 INTER-LIGAND FREE ENERGY PREDICTED BY IDOCK:   -5.85 KCAL/MOL
REMARK 924 INTRA-LIGAND FREE ENERGY PREDICTED BY IDOCK:   -0.31 KCAL/MOL
REMARK 927      BINDING AFFINITY PREDICTED BY RF-SCORE:    0.00 PKD
ROOT
HETATM    1  N   UNL     1     -12.403  13.883  63.144  1.00  0.00    -1.106 N  
HETATM    2  C   UNL     1     -12.413  12.671  63.780  1.00  0.00    -0.420 C  
HETATM    3  H1  UNL     1     -12.437  14.753  63.674  1.00  0.00     0.000 HD 
HETATM    4  H2  UNL     1     -12.361  13.916  62.125  1.00  0.00     0.000 HD 
HETATM    5  O   UNL     1     -12.372  11.623  63.142  1.00  0.00    -0.399 OA 
ENDROOT
BRANCH   2   6
HETATM    6  C   UNL     1     -12.510  12.721  65.291  1.00  0.00    -0.465 C  
BRANCH   6   7
HETATM    7  S   UNL     1     -12.020  14.371  65.851  1.00  0.00    -0.327 S  
HETATM    8  O   UNL     1     -12.428  14.484  67.295  1.00  0.00    -0.157 OA 
BRANCH   7   9
HETATM    9  C   UNL     1     -10.176  14.174  65.794  1.00  0.00    -0.332 C  
BRANCH   9  10
HETATM   10  C   UNL     1      -9.440  15.389  66.341  1.00  0.00    -0.325 A  
HETATM   11  C   UNL     1      -8.195  15.234  66.979  1.00  0.00    -0.267 A  
HETATM   12  C   UNL     1      -9.971  16.685  66.225  1.00  0.00    -0.336 A  
HETATM   13  C   UNL     1      -7.496  16.343  67.466  1.00  0.00    -0.165 A  
HETATM   14  C   UNL     1      -8.034  17.620  67.335  1.00  0.00    -0.217 A  
HETATM   15  C   UNL     1      -9.272  17.790  66.719  1.00  0.00    -0.281 A  
ENDBRANCH   9  10
BRANCH   9  16
HETATM   16  C   UNL     1      -9.731  12.859  66.450  1.00  0.00    -0.263 A  
HETATM   17  C   UNL     1      -9.364  11.547  68.472  1.00  0.00    -0.171 A  
HETATM   18  C   UNL     1      -8.793  10.606  66.330  1.00  0.00    -0.164 A  
HETATM   19  C   UNL     1      -9.805  12.717  67.846  1.00  0.00    -0.223 A  
HETATM   20  C   UNL     1      -9.244  11.768  65.704  1.00  0.00    -0.109 A  
HETATM   21  C   UNL     1      -8.846  10.497  67.715  1.00  0.00    -0.125 A  
ENDBRANCH   9  16
ENDBRANCH   7   9
ENDBRANCH   6   7
ENDBRANCH   2   6
TORSDOF 5
ENDMDL
MODEL      128
REMARK 921   NORMALIZED FREE ENERGY PREDICTED BY IDOCK:   -3.97 KCAL/MOL
REMARK 922        TOTAL FREE ENERGY PREDICTED BY IDOCK:   -6.16 KCAL/MOL
REMARK 923 INTER-LIGAND FREE ENERGY PREDICTED BY IDOCK:   -5.43 KCAL/MOL
REMARK 924 INTRA-LIGAND FREE ENERGY PREDICTED BY IDOCK:   -0.73 KCAL/MOL
REMARK 927      BINDING AFFINITY PREDICTED BY RF-SCORE:    0.00 PKD
ROOT
HETATM    1  N   UNL     1      -8.985  10.371  68.743  1.00  0.00    -0.149 N  
HETATM    2  C   UNL     1     -10.210   9.986  69.217  1.00  0.00    -0.214 C  
HETATM    3  H1  UNL     1      -8.241   9.688  68.595  1.00  0.00     0.000 HD 
HETATM    4  H2  UNL     1      -8.812  11.355  68.534  1.00  0.00     0.000 HD 
HETATM    5  O   UNL     1     -11.104  10.808  69.394  1.00  0.00    -0.229 OA 
ENDROOT
BRANCH   2   6
HETATM    6  C   UNL     1     -10.361   8.511  69.528  1.00  0.00    -0.218 C  
BRANCH   6   7
HETATM    7  S   UNL     1      -9.137   8.051  70.779  1.00  0.00    -0.147 S  
HETATM    8  O   UNL     1      -8.653   9.329  71.410  1.00  0.00    -0.326 OA 
BRANCH   7   9
HETATM    9  C   UNL     1     -10.253   7.202  71.995  1.00  0.00    -0.190 C  
BRANCH   9  10
HETATM   10  C   UNL     1     -11.690   7.700  71.917  1.00  0.00    -0.328 A  
HETATM   11  C   UNL     1     -12.005   9.014  72.308  1.00  0.00    -0.332 A  
HETATM   12  C   UNL     1     -12.730   6.876  71.454  1.00  0.00    -0.384 A  
HETATM   13  C   UNL     1     -13.316   9.494  72.220  1.00  0.00    -0.526 A  
HETATM   14  C   UNL     1     -14.332   8.666  71.752  1.00  0.00    -0.476 A  
HETATM   15  C   UNL     1     -14.040   7.358  71.374  1.00  0.00    -0.491 A  
ENDBRANCH   9  10
BRANCH   9  16
HETATM   16  C   UNL     1     -10.143   5.674  71.887  1.00  0.00    -0.235 A  
HETATM   17  C   UNL     1     -10.225   3.488  72.962  1.00  0.00    -0.234 A  
HETATM   18  C   UNL     1      -9.675   3.636  70.623  1.00  0.00    -0.215 A  
HETATM   19  C   UNL     1     -10.364   4.879  73.023  1.00  0.00    -0.234 A  
HETATM   20  C   UNL     1      -9.826   5.022  70.679  1.00  0.00    -0.282 A  
HETATM   21  C   UNL     1      -9.868   2.869  71.765  1.00  0.00    -0.218 A  
ENDBRANCH   9  16
ENDBRANCH   7   9
ENDBRANCH   6   7
ENDBRANCH   2   6
TORSDOF 5
ENDMDL
MODEL      129
REMARK 921   NORMALIZED FREE ENERGY PREDICTED BY IDOCK:   -3.97 KCAL/MOL
REMARK 922        TOTAL FREE ENERGY PREDICTED BY IDOCK:   -6.15 KCAL/MOL
REMARK 923 INTER-LIGAND FREE ENERGY PREDICTED BY IDOCK:   -6.64 KCAL/MOL
REMARK 924 INTRA-LIGAND FREE ENERGY PREDICTED BY IDOCK:    0.48 KCAL/MOL
REMARK 927      BINDING AFFINITY PREDICTED BY RF-SCORE:    0.00 PKD
ROOT
HETATM    1  N   UNL     1     -10.323  14.048  64.238  1.00  0.00    -0.510 N  
HETATM    2  C   UNL     1     -10.748  15.107  64.995  1.00  0.00    -0.430 C  
HETATM    3  H1  UNL     1     -10.103  13.151  64.670  1.00  0.00     0.000 HD 
HETATM    4  H2  UNL     1     -10.226  14.158  63.228  1.00  0.00     0.000 HD 
HETATM    5  O   UNL     1     -11.014  16.187  64.475  1.00  0.00    -0.645 OA 
ENDROOT
BRANCH   2   6
HETATM    6  C   UNL     1     -10.832  14.859  66.487  1.00  0.00    -0.322 C  
BRANCH   6   7
HETATM    7  S   UNL     1     -12.286  13.836  66.827  1.00  0.00    -0.340 S  
HETATM    8  O   UNL     1     -12.324  12.763  65.772  1.00  0.00    -0.547 OA 
BRANCH   7   9
HETATM    9  C   UNL     1     -11.737  13.052  68.417  1.00  0.00    -0.351 C  
BRANCH   9  10
HETATM   10  C   UNL     1     -10.374  12.383  68.301  1.00  0.00    -0.232 A  
HETATM   11  C   UNL     1     -10.148  11.131  68.901  1.00  0.00    -0.199 A  
HETATM   12  C   UNL     1      -9.317  12.985  67.597  1.00  0.00    -0.202 A  
HETATM   13  C   UNL     1      -8.909  10.493  68.783  1.00  0.00    -0.158 A  
HETATM   14  C   UNL     1      -7.876  11.101  68.076  1.00  0.00    -0.114 A  
HETATM   15  C   UNL     1      -8.079  12.347  67.487  1.00  0.00    -0.173 A  
ENDBRANCH   9  10
BRANCH   9  16
HETATM   16  C   UNL     1     -11.820  14.042  69.589  1.00  0.00    -0.386 A  
HETATM   17  C   UNL     1     -12.634  14.579  71.823  1.00  0.00    -0.417 A  
HETATM   18  C   UNL     1     -11.366  16.220  70.600  1.00  0.00    -0.321 A  
HETATM   19  C   UNL     1     -12.506  13.679  70.759  1.00  0.00    -0.432 A  
HETATM   20  C   UNL     1     -11.226  15.319  69.544  1.00  0.00    -0.289 A  
HETATM   21  C   UNL     1     -12.075  15.853  71.737  1.00  0.00    -0.567 A  
ENDBRANCH   9  16
ENDBRANCH   7   9
ENDBRANCH   6   7
ENDBRANCH   2   6
TORSDOF 5
ENDMDL
MODEL      130
REMARK 921   NORMALIZED FREE ENERGY PREDICTED BY IDOCK:   -3.96 KCAL/MOL
REMARK 922        TOTAL FREE ENERGY PREDICTED BY IDOCK:   -6.15 KCAL/MOL
REMARK 923 INTER-LIGAND FREE ENERGY PREDICTED BY IDOCK:   -5.92 KCAL/MOL
REMARK 924 INTRA-LIGAND FREE ENERGY PREDICTED BY IDOCK:   -0.22 KCAL/MOL
REMARK 927      BINDING AFFINITY PREDICTED BY RF-SCORE:    0.00 PKD
ROOT
HETATM    1  N   UNL     1      -9.113   9.817  70.415  1.00  0.00    -0.351 N  
HETATM    2  C   UNL     1      -9.445   9.447  69.140  1.00  0.00    -0.163 C  
HETATM    3  H1  UNL     1      -8.372  10.497  70.588  1.00  0.00     0.000 HD 
HETATM    4  H2  UNL     1      -9.614   9.408  71.205  1.00  0.00     0.000 HD 
HETATM    5  O   UNL     1     -10.336   8.629  68.932  1.00  0.00    -0.208 OA 
ENDROOT
BRANCH   2   6
HETATM    6  C   UNL     1      -8.625  10.083  68.035  1.00  0.00    -0.121 C  
BRANCH   6   7
HETATM    7  S   UNL     1      -8.827  11.879  68.121  1.00  0.00    -0.180 S  
HETATM    8  O   UNL     1      -8.314  12.441  66.822  1.00  0.00    -0.155 OA 
BRANCH   7   9
HETATM    9  C   UNL     1     -10.681  11.975  68.091  1.00  0.00    -0.216 C  
BRANCH   9  10
HETATM   10  C   UNL     1     -11.232  12.964  69.109  1.00  0.00    -0.293 A  
HETATM   11  C   UNL     1     -12.131  12.530  70.101  1.00  0.00    -0.368 A  
HETATM   12  C   UNL     1     -10.862  14.319  69.094  1.00  0.00    -0.264 A  
HETATM   13  C   UNL     1     -12.628  13.421  71.057  1.00  0.00    -0.425 A  
HETATM   14  C   UNL     1     -12.245  14.758  71.031  1.00  0.00    -0.393 A  
HETATM   15  C   UNL     1     -11.366  15.207  70.048  1.00  0.00    -0.304 A  
ENDBRANCH   9  10
BRANCH   9  16
HETATM   16  C   UNL     1     -11.207  12.224  66.670  1.00  0.00    -0.367 A  
HETATM   17  C   UNL     1     -12.656  13.478  65.163  1.00  0.00    -0.485 A  
HETATM   18  C   UNL     1     -11.340  11.658  64.296  1.00  0.00    -0.361 A  
HETATM   19  C   UNL     1     -12.127  13.260  66.440  1.00  0.00    -0.454 A  
HETATM   20  C   UNL     1     -10.802  11.448  65.566  1.00  0.00    -0.282 A  
HETATM   21  C   UNL     1     -12.272  12.669  64.095  1.00  0.00    -0.532 A  
ENDBRANCH   9  16
ENDBRANCH   7   9
ENDBRANCH   6   7
ENDBRANCH   2   6
TORSDOF 5
ENDMDL
MODEL      131
REMARK 921   NORMALIZED FREE ENERGY PREDICTED BY IDOCK:   -3.96 KCAL/MOL
REMARK 922        TOTAL FREE ENERGY PREDICTED BY IDOCK:   -6.14 KCAL/MOL
REMARK 923 INTER-LIGAND FREE ENERGY PREDICTED BY IDOCK:   -5.97 KCAL/MOL
REMARK 924 INTRA-LIGAND FREE ENERGY PREDICTED BY IDOCK:   -0.17 KCAL/MOL
REMARK 927      BINDING AFFINITY PREDICTED BY RF-SCORE:    0.00 PKD
ROOT
HETATM    1  N   UNL     1     -13.534  15.555  70.650  1.00  0.00    -0.829 N  
HETATM    2  C   UNL     1     -12.798  14.403  70.581  1.00  0.00    -0.328 C  
HETATM    3  H1  UNL     1     -13.427  16.289  69.950  1.00  0.00     0.000 HD 
HETATM    4  H2  UNL     1     -14.199  15.682  71.414  1.00  0.00     0.000 HD 
HETATM    5  O   UNL     1     -12.927  13.520  71.424  1.00  0.00    -0.348 OA 
ENDROOT
BRANCH   2   6
HETATM    6  C   UNL     1     -11.814  14.319  69.432  1.00  0.00    -0.326 C  
BRANCH   6   7
HETATM    7  S   UNL     1     -11.599  15.972  68.727  1.00  0.00    -0.279 S  
HETATM    8  O   UNL     1     -10.851  16.789  69.745  1.00  0.00    -0.325 OA 
BRANCH   7   9
HETATM    9  C   UNL     1     -10.422  15.561  67.351  1.00  0.00    -0.281 C  
BRANCH   9  10
HETATM   10  C   UNL     1      -8.974  15.496  67.819  1.00  0.00    -0.173 A  
HETATM   11  C   UNL     1      -8.664  14.968  69.086  1.00  0.00    -0.188 A  
HETATM   12  C   UNL     1      -7.918  15.950  67.011  1.00  0.00    -0.270 A  
HETATM   13  C   UNL     1      -7.338  14.880  69.521  1.00  0.00    -0.178 A  
HETATM   14  C   UNL     1      -6.304  15.328  68.704  1.00  0.00    -0.087 A  
HETATM   15  C   UNL     1      -6.595  15.865  67.452  1.00  0.00    -0.222 A  
ENDBRANCH   9  10
BRANCH   9  16
HETATM   16  C   UNL     1     -10.863  14.301  66.592  1.00  0.00    -0.301 A  
HETATM   17  C   UNL     1     -12.570  13.111  65.323  1.00  0.00    -0.531 A  
HETATM   18  C   UNL     1     -10.489  12.010  65.829  1.00  0.00    -0.290 A  
HETATM   19  C   UNL     1     -12.128  14.263  65.982  1.00  0.00    -0.423 A  
HETATM   20  C   UNL     1     -10.041  13.163  66.475  1.00  0.00    -0.280 A  
HETATM   21  C   UNL     1     -11.756  11.981  65.258  1.00  0.00    -0.312 A  
ENDBRANCH   9  16
ENDBRANCH   7   9
ENDBRANCH   6   7
ENDBRANCH   2   6
TORSDOF 5
ENDMDL
MODEL      132
REMARK 921   NORMALIZED FREE ENERGY PREDICTED BY IDOCK:   -3.94 KCAL/MOL
REMARK 922        TOTAL FREE ENERGY PREDICTED BY IDOCK:   -6.12 KCAL/MOL
REMARK 923 INTER-LIGAND FREE ENERGY PREDICTED BY IDOCK:   -5.39 KCAL/MOL
REMARK 924 INTRA-LIGAND FREE ENERGY PREDICTED BY IDOCK:   -0.73 KCAL/MOL
REMARK 927      BINDING AFFINITY PREDICTED BY RF-SCORE:    0.00 PKD
ROOT
HETATM    1  N   UNL     1     -11.706  14.836  66.671  1.00  0.00    -0.329 N  
HETATM    2  C   UNL     1     -12.295  13.841  65.939  1.00  0.00    -0.476 C  
HETATM    3  H1  UNL     1     -10.859  14.659  67.211  1.00  0.00     0.000 HD 
HETATM    4  H2  UNL     1     -12.120  15.769  66.678  1.00  0.00     0.000 HD 
HETATM    5  O   UNL     1     -13.315  14.054  65.290  1.00  0.00    -0.741 OA 
ENDROOT
BRANCH   2   6
HETATM    6  C   UNL     1     -11.627  12.483  66.017  1.00  0.00    -0.406 C  
BRANCH   6   7
HETATM    7  S   UNL     1     -10.971  12.251  67.687  1.00  0.00    -0.259 S  
HETATM    8  O   UNL     1     -11.903  12.966  68.628  1.00  0.00    -0.305 OA 
BRANCH   7   9
HETATM    9  C   UNL     1     -11.261  10.428  67.874  1.00  0.00    -0.263 C  
BRANCH   9  10
HETATM   10  C   UNL     1     -10.172   9.591  67.216  1.00  0.00    -0.295 A  
HETATM   11  C   UNL     1     -10.397   8.231  66.935  1.00  0.00    -0.391 A  
HETATM   12  C   UNL     1      -8.927  10.145  66.869  1.00  0.00    -0.146 A  
HETATM   13  C   UNL     1      -9.415   7.456  66.309  1.00  0.00    -0.144 A  
HETATM   14  C   UNL     1      -8.192   8.023  65.966  1.00  0.00    -0.120 A  
HETATM   15  C   UNL     1      -7.947   9.365  66.250  1.00  0.00    -0.111 A  
ENDBRANCH   9  10
BRANCH   9  16
HETATM   16  C   UNL     1     -11.504  10.045  69.341  1.00  0.00    -0.139 A  
HETATM   17  C   UNL     1     -13.042   9.818  71.219  1.00  0.00    -0.465 A  
HETATM   18  C   UNL     1     -10.706   9.327  71.537  1.00  0.00    -0.425 A  
HETATM   19  C   UNL     1     -12.802  10.119  69.874  1.00  0.00     0.289 A  
HETATM   20  C   UNL     1     -10.468   9.613  70.192  1.00  0.00    -0.321 A  
HETATM   21  C   UNL     1     -11.992   9.436  72.053  1.00  0.00    -0.345 A  
ENDBRANCH   9  16
ENDBRANCH   7   9
ENDBRANCH   6   7
ENDBRANCH   2   6
TORSDOF 5
ENDMDL
MODEL      133
REMARK 921   NORMALIZED FREE ENERGY PREDICTED BY IDOCK:   -3.94 KCAL/MOL
REMARK 922        TOTAL FREE ENERGY PREDICTED BY IDOCK:   -6.12 KCAL/MOL
REMARK 923 INTER-LIGAND FREE ENERGY PREDICTED BY IDOCK:   -5.19 KCAL/MOL
REMARK 924 INTRA-LIGAND FREE ENERGY PREDICTED BY IDOCK:   -0.93 KCAL/MOL
REMARK 927      BINDING AFFINITY PREDICTED BY RF-SCORE:    0.00 PKD
ROOT
HETATM    1  N   UNL     1     -13.920   9.198  72.854  1.00  0.00    -0.876 N  
HETATM    2  C   UNL     1     -13.124   9.942  72.024  1.00  0.00    -0.448 C  
HETATM    3  H1  UNL     1     -13.977   8.185  72.755  1.00  0.00     0.000 HD 
HETATM    4  H2  UNL     1     -14.462   9.665  73.582  1.00  0.00     0.000 HD 
HETATM    5  O   UNL     1     -13.054  11.161  72.143  1.00  0.00    -0.463 OA 
ENDROOT
BRANCH   2   6
HETATM    6  C   UNL     1     -12.382   9.166  70.954  1.00  0.00    -0.142 C  
BRANCH   6   7
HETATM    7  S   UNL     1     -12.163   7.460  71.518  1.00  0.00    -0.354 S  
HETATM    8  O   UNL     1     -13.482   6.761  71.325  1.00  0.00    -0.185 OA 
BRANCH   7   9
HETATM    9  C   UNL     1     -11.000   6.856  70.204  1.00  0.00    -0.281 C  
BRANCH   9  10
HETATM   10  C   UNL     1      -9.872   7.840  69.923  1.00  0.00    -0.177 A  
HETATM   11  C   UNL     1      -9.043   8.282  70.970  1.00  0.00    -0.189 A  
HETATM   12  C   UNL     1      -9.626   8.326  68.628  1.00  0.00    -0.152 A  
HETATM   13  C   UNL     1      -7.988   9.168  70.724  1.00  0.00    -0.192 A  
HETATM   14  C   UNL     1      -7.755   9.633  69.434  1.00  0.00    -0.101 A  
HETATM   15  C   UNL     1      -8.575   9.216  68.388  1.00  0.00    -0.129 A  
ENDBRANCH   9  10
BRANCH   9  16
HETATM   16  C   UNL     1     -10.495   5.438  70.510  1.00  0.00    -0.335 A  
HETATM   17  C   UNL     1      -9.993   3.701  72.144  1.00  0.00    -0.238 A  
HETATM   18  C   UNL     1      -9.523   3.306  69.816  1.00  0.00    -0.212 A  
HETATM   19  C   UNL     1     -10.490   4.971  71.835  1.00  0.00    -0.255 A  
HETATM   20  C   UNL     1     -10.030   4.568  69.504  1.00  0.00    -0.235 A  
HETATM   21  C   UNL     1      -9.498   2.874  71.137  1.00  0.00    -0.225 A  
ENDBRANCH   9  16
ENDBRANCH   7   9
ENDBRANCH   6   7
ENDBRANCH   2   6
TORSDOF 5
ENDMDL
MODEL      134
REMARK 921   NORMALIZED FREE ENERGY PREDICTED BY IDOCK:   -3.94 KCAL/MOL
REMARK 922        TOTAL FREE ENERGY PREDICTED BY IDOCK:   -6.12 KCAL/MOL
REMARK 923 INTER-LIGAND FREE ENERGY PREDICTED BY IDOCK:   -5.77 KCAL/MOL
REMARK 924 INTRA-LIGAND FREE ENERGY PREDICTED BY IDOCK:   -0.34 KCAL/MOL
REMARK 927      BINDING AFFINITY PREDICTED BY RF-SCORE:    0.00 PKD
ROOT
HETATM    1  N   UNL     1     -10.918   5.883  66.339  1.00  0.00    -0.734 N  
HETATM    2  C   UNL     1     -11.030   6.838  67.314  1.00  0.00    -0.363 C  
HETATM    3  H1  UNL     1     -11.020   4.893  66.561  1.00  0.00     0.000 HD 
HETATM    4  H2  UNL     1     -10.730   6.166  65.377  1.00  0.00     0.000 HD 
HETATM    5  O   UNL     1     -10.907   8.030  67.046  1.00  0.00    -0.283 OA 
ENDROOT
BRANCH   2   6
HETATM    6  C   UNL     1     -11.277   6.321  68.716  1.00  0.00    -0.273 C  
BRANCH   6   7
HETATM    7  S   UNL     1      -9.699   5.797  69.431  1.00  0.00    -0.165 S  
HETATM    8  O   UNL     1      -8.618   6.561  68.716  1.00  0.00    -0.121 OA 
BRANCH   7   9
HETATM    9  C   UNL     1      -9.882   6.522  71.129  1.00  0.00    -0.182 C  
BRANCH   9  10
HETATM   10  C   UNL     1     -10.941   7.615  71.188  1.00  0.00    -0.263 A  
HETATM   11  C   UNL     1     -10.584   8.957  70.965  1.00  0.00    -0.315 A  
HETATM   12  C   UNL     1     -12.288   7.320  71.459  1.00  0.00    -0.397 A  
HETATM   13  C   UNL     1     -11.549   9.970  70.993  1.00  0.00    -0.476 A  
HETATM   14  C   UNL     1     -12.880   9.658  71.255  1.00  0.00    -0.438 A  
HETATM   15  C   UNL     1     -13.248   8.336  71.491  1.00  0.00    -0.308 A  
ENDBRANCH   9  10
BRANCH   9  16
HETATM   16  C   UNL     1     -10.091   5.429  72.187  1.00  0.00    -0.237 A  
HETATM   17  C   UNL     1     -10.424   4.810  74.522  1.00  0.00    -0.303 A  
HETATM   18  C   UNL     1     -10.241   3.083  72.854  1.00  0.00    -0.235 A  
HETATM   19  C   UNL     1     -10.276   5.788  73.533  1.00  0.00    -0.225 A  
HETATM   20  C   UNL     1     -10.107   4.057  71.865  1.00  0.00    -0.214 A  
HETATM   21  C   UNL     1     -10.393   3.458  74.184  1.00  0.00    -0.241 A  
ENDBRANCH   9  16
ENDBRANCH   7   9
ENDBRANCH   6   7
ENDBRANCH   2   6
TORSDOF 5
ENDMDL
MODEL      135
REMARK 921   NORMALIZED FREE ENERGY PREDICTED BY IDOCK:   -3.93 KCAL/MOL
REMARK 922        TOTAL FREE ENERGY PREDICTED BY IDOCK:   -6.10 KCAL/MOL
REMARK 923 INTER-LIGAND FREE ENERGY PREDICTED BY IDOCK:   -5.08 KCAL/MOL
REMARK 924 INTRA-LIGAND FREE ENERGY PREDICTED BY IDOCK:   -1.02 KCAL/MOL
REMARK 927      BINDING AFFINITY PREDICTED BY RF-SCORE:    0.00 PKD
ROOT
HETATM    1  N   UNL     1     -11.081   5.097  65.796  1.00  0.00    -0.808 N  
HETATM    2  C   UNL     1      -9.758   5.157  66.142  1.00  0.00    -0.176 C  
HETATM    3  H1  UNL     1     -11.703   5.889  65.959  1.00  0.00     0.000 HD 
HETATM    4  H2  UNL     1     -11.451   4.248  65.367  1.00  0.00     0.000 HD 
HETATM    5  O   UNL     1      -9.011   4.204  65.945  1.00  0.00    -0.118 OA 
ENDROOT
BRANCH   2   6
HETATM    6  C   UNL     1      -9.308   6.446  66.801  1.00  0.00    -0.147 C  
BRANCH   6   7
HETATM    7  S   UNL     1     -10.733   7.215  67.609  1.00  0.00    -0.228 S  
HETATM    8  O   UNL     1     -11.339   6.175  68.512  1.00  0.00    -0.289 OA 
BRANCH   7   9
HETATM    9  C   UNL     1      -9.844   8.448  68.675  1.00  0.00    -0.170 C  
BRANCH   9  10
HETATM   10  C   UNL     1      -9.991   9.875  68.165  1.00  0.00    -0.175 A  
HETATM   11  C   UNL     1      -9.083  10.869  68.576  1.00  0.00    -0.173 A  
HETATM   12  C   UNL     1     -11.018  10.238  67.278  1.00  0.00    -0.277 A  
HETATM   13  C   UNL     1      -9.191  12.180  68.098  1.00  0.00    -0.197 A  
HETATM   14  C   UNL     1     -10.211  12.519  67.214  1.00  0.00    -0.222 A  
HETATM   15  C   UNL     1     -11.125  11.550  66.808  1.00  0.00    -0.361 A  
ENDBRANCH   9  10
BRANCH   9  16
HETATM   16  C   UNL     1     -10.234   8.297  70.153  1.00  0.00    -0.199 A  
HETATM   17  C   UNL     1      -9.760   7.379  72.361  1.00  0.00    -0.194 A  
HETATM   18  C   UNL     1     -11.766   8.668  72.020  1.00  0.00    -0.439 A  
HETATM   19  C   UNL     1      -9.405   7.569  71.021  1.00  0.00    -0.157 A  
HETATM   20  C   UNL     1     -11.406   8.868  70.687  1.00  0.00    -0.299 A  
HETATM   21  C   UNL     1     -10.947   7.918  72.856  1.00  0.00    -0.452 A  
ENDBRANCH   9  16
ENDBRANCH   7   9
ENDBRANCH   6   7
ENDBRANCH   2   6
TORSDOF 5
ENDMDL
MODEL      136
REMARK 921   NORMALIZED FREE ENERGY PREDICTED BY IDOCK:   -3.93 KCAL/MOL
REMARK 922        TOTAL FREE ENERGY PREDICTED BY IDOCK:   -6.10 KCAL/MOL
REMARK 923 INTER-LIGAND FREE ENERGY PREDICTED BY IDOCK:   -5.89 KCAL/MOL
REMARK 924 INTRA-LIGAND FREE ENERGY PREDICTED BY IDOCK:   -0.21 KCAL/MOL
REMARK 927      BINDING AFFINITY PREDICTED BY RF-SCORE:    0.00 PKD
ROOT
HETATM    1  N   UNL     1      -9.263   7.743  65.593  1.00  0.00    -0.397 N  
HETATM    2  C   UNL     1     -10.017   7.321  66.655  1.00  0.00    -0.176 C  
HETATM    3  H1  UNL     1      -9.056   8.732  65.458  1.00  0.00     0.000 HD 
HETATM    4  H2  UNL     1      -8.903   7.058  64.928  1.00  0.00     0.000 HD 
HETATM    5  O   UNL     1     -10.266   6.130  66.818  1.00  0.00    -0.181 OA 
ENDROOT
BRANCH   2   6
HETATM    6  C   UNL     1     -10.534   8.412  67.570  1.00  0.00    -0.257 C  
BRANCH   6   7
HETATM    7  S   UNL     1      -9.291   8.741  68.844  1.00  0.00    -0.145 S  
HETATM    8  O   UNL     1      -8.003   9.053  68.130  1.00  0.00    -0.100 OA 
BRANCH   7   9
HETATM    9  C   UNL     1      -9.967  10.332  69.520  1.00  0.00    -0.228 C  
BRANCH   9  10
HETATM   10  C   UNL     1     -10.224  11.367  68.433  1.00  0.00    -0.206 A  
HETATM   11  C   UNL     1     -11.395  11.300  67.656  1.00  0.00    -0.352 A  
HETATM   12  C   UNL     1      -9.316  12.410  68.181  1.00  0.00    -0.209 A  
HETATM   13  C   UNL     1     -11.656  12.257  66.670  1.00  0.00    -0.438 A  
HETATM   14  C   UNL     1     -10.749  13.286  66.438  1.00  0.00    -0.291 A  
HETATM   15  C   UNL     1      -9.579  13.360  67.190  1.00  0.00    -0.241 A  
ENDBRANCH   9  10
BRANCH   9  16
HETATM   16  C   UNL     1     -11.190  10.087  70.415  1.00  0.00    -0.393 A  
HETATM   17  C   UNL     1     -13.132  10.970  71.595  1.00  0.00    -0.543 A  
HETATM   18  C   UNL     1     -12.594   8.630  71.786  1.00  0.00    -0.396 A  
HETATM   19  C   UNL     1     -12.037  11.158  70.745  1.00  0.00    -0.458 A  
HETATM   20  C   UNL     1     -11.510   8.814  70.928  1.00  0.00    -0.330 A  
HETATM   21  C   UNL     1     -13.403   9.709  72.125  1.00  0.00    -0.545 A  
ENDBRANCH   9  16
ENDBRANCH   7   9
ENDBRANCH   6   7
ENDBRANCH   2   6
TORSDOF 5
ENDMDL
MODEL      137
REMARK 921   NORMALIZED FREE ENERGY PREDICTED BY IDOCK:   -3.90 KCAL/MOL
REMARK 922        TOTAL FREE ENERGY PREDICTED BY IDOCK:   -6.06 KCAL/MOL
REMARK 923 INTER-LIGAND FREE ENERGY PREDICTED BY IDOCK:   -5.79 KCAL/MOL
REMARK 924 INTRA-LIGAND FREE ENERGY PREDICTED BY IDOCK:   -0.27 KCAL/MOL
REMARK 927      BINDING AFFINITY PREDICTED BY RF-SCORE:    0.00 PKD
ROOT
HETATM    1  N   UNL     1      -8.577  14.582  66.595  1.00  0.00    -0.438 N  
HETATM    2  C   UNL     1      -8.251  13.791  67.664  1.00  0.00    -0.177 C  
HETATM    3  H1  UNL     1      -9.509  14.546  66.182  1.00  0.00     0.000 HD 
HETATM    4  H2  UNL     1      -7.879  15.216  66.207  1.00  0.00     0.000 HD 
HETATM    5  O   UNL     1      -7.130  13.834  68.162  1.00  0.00    -0.090 OA 
ENDROOT
BRANCH   2   6
HETATM    6  C   UNL     1      -9.343  12.860  68.151  1.00  0.00    -0.214 C  
BRANCH   6   7
HETATM    7  S   UNL     1     -10.951  13.602  67.779  1.00  0.00    -0.266 S  
HETATM    8  O   UNL     1     -11.297  13.213  66.367  1.00  0.00    -0.296 OA 
BRANCH   7   9
HETATM    9  C   UNL     1     -12.016  12.602  68.923  1.00  0.00    -0.242 C  
BRANCH   9  10
HETATM   10  C   UNL     1     -11.481  11.192  69.139  1.00  0.00    -0.366 A  
HETATM   11  C   UNL     1     -11.207  10.732  70.440  1.00  0.00    -0.270 A  
HETATM   12  C   UNL     1     -11.251  10.320  68.062  1.00  0.00    -0.303 A  
HETATM   13  C   UNL     1     -10.737   9.432  70.656  1.00  0.00    -0.353 A  
HETATM   14  C   UNL     1     -10.522   8.579  69.578  1.00  0.00    -0.222 A  
HETATM   15  C   UNL     1     -10.775   9.024  68.282  1.00  0.00    -0.155 A  
ENDBRANCH   9  10
BRANCH   9  16
HETATM   16  C   UNL     1     -12.284  13.348  70.238  1.00  0.00    -0.405 A  
HETATM   17  C   UNL     1     -11.762  15.195  71.742  1.00  0.00    -0.480 A  
HETATM   18  C   UNL     1     -13.414  13.568  72.393  1.00  0.00    -0.685 A  
HETATM   19  C   UNL     1     -11.569  14.521  70.531  1.00  0.00    -0.295 A  
HETATM   20  C   UNL     1     -13.232  12.903  71.180  1.00  0.00    -0.062 A  
HETATM   21  C   UNL     1     -12.674  14.711  72.678  1.00  0.00    -0.464 A  
ENDBRANCH   9  16
ENDBRANCH   7   9
ENDBRANCH   6   7
ENDBRANCH   2   6
TORSDOF 5
ENDMDL
MODEL      138
REMARK 921   NORMALIZED FREE ENERGY PREDICTED BY IDOCK:   -3.90 KCAL/MOL
REMARK 922        TOTAL FREE ENERGY PREDICTED BY IDOCK:   -6.06 KCAL/MOL
REMARK 923 INTER-LIGAND FREE ENERGY PREDICTED BY IDOCK:   -5.60 KCAL/MOL
REMARK 924 INTRA-LIGAND FREE ENERGY PREDICTED BY IDOCK:   -0.46 KCAL/MOL
REMARK 927      BINDING AFFINITY PREDICTED BY RF-SCORE:    0.00 PKD
ROOT
HETATM    1  N   UNL     1     -12.291  14.020  67.591  1.00  0.00    -0.513 N  
HETATM    2  C   UNL     1     -11.471  12.992  67.211  1.00  0.00    -0.332 C  
HETATM    3  H1  UNL     1     -12.233  14.417  68.529  1.00  0.00     0.000 HD 
HETATM    4  H2  UNL     1     -12.968  14.396  66.927  1.00  0.00     0.000 HD 
HETATM    5  O   UNL     1     -11.539  12.515  66.082  1.00  0.00    -0.353 OA 
ENDROOT
BRANCH   2   6
HETATM    6  C   UNL     1     -10.521  12.480  68.274  1.00  0.00    -0.234 C  
BRANCH   6   7
HETATM    7  S   UNL     1     -11.455  11.477  69.456  1.00  0.00    -0.318 S  
HETATM    8  O   UNL     1     -12.659  10.947  68.727  1.00  0.00    -0.317 OA 
BRANCH   7   9
HETATM    9  C   UNL     1     -10.257  10.076  69.674  1.00  0.00    -0.239 C  
BRANCH   9  10
HETATM   10  C   UNL     1     -10.865   8.899  70.427  1.00  0.00    -0.269 A  
HETATM   11  C   UNL     1     -11.013   7.653  69.789  1.00  0.00    -0.178 A  
HETATM   12  C   UNL     1     -11.286   9.018  71.762  1.00  0.00    -0.448 A  
HETATM   13  C   UNL     1     -11.547   6.557  70.474  1.00  0.00    -0.455 A  
HETATM   14  C   UNL     1     -11.952   6.691  71.799  1.00  0.00    -0.391 A  
HETATM   15  C   UNL     1     -11.825   7.921  72.440  1.00  0.00    -0.402 A  
ENDBRANCH   9  10
BRANCH   9  16
HETATM   16  C   UNL     1      -9.621   9.667  68.338  1.00  0.00    -0.154 A  
HETATM   17  C   UNL     1      -7.617   9.258  67.012  1.00  0.00    -0.091 A  
HETATM   18  C   UNL     1      -9.783   9.053  65.979  1.00  0.00    -0.339 A  
HETATM   19  C   UNL     1      -8.223   9.584  68.230  1.00  0.00    -0.113 A  
HETATM   20  C   UNL     1     -10.388   9.365  67.196  1.00  0.00    -0.326 A  
HETATM   21  C   UNL     1      -8.396   9.006  65.884  1.00  0.00    -0.129 A  
ENDBRANCH   9  16
ENDBRANCH   7   9
ENDBRANCH   6   7
ENDBRANCH   2   6
TORSDOF 5
ENDMDL
MODEL      139
REMARK 921   NORMALIZED FREE ENERGY PREDICTED BY IDOCK:   -3.89 KCAL/MOL
REMARK 922        TOTAL FREE ENERGY PREDICTED BY IDOCK:   -6.05 KCAL/MOL
REMARK 923 INTER-LIGAND FREE ENERGY PREDICTED BY IDOCK:   -5.56 KCAL/MOL
REMARK 924 INTRA-LIGAND FREE ENERGY PREDICTED BY IDOCK:   -0.49 KCAL/MOL
REMARK 927      BINDING AFFINITY PREDICTED BY RF-SCORE:    0.00 PKD
ROOT
HETATM    1  N   UNL     1     -12.156  13.742  70.850  1.00  0.00    -0.465 N  
HETATM    2  C   UNL     1     -12.581  12.459  71.064  1.00  0.00    -0.254 C  
HETATM    3  H1  UNL     1     -11.545  13.968  70.065  1.00  0.00     0.000 HD 
HETATM    4  H2  UNL     1     -12.456  14.484  71.483  1.00  0.00     0.000 HD 
HETATM    5  O   UNL     1     -13.318  12.187  72.008  1.00  0.00    -0.503 OA 
ENDROOT
BRANCH   2   6
HETATM    6  C   UNL     1     -12.059  11.421  70.091  1.00  0.00    -0.357 C  
BRANCH   6   7
HETATM    7  S   UNL     1     -11.774  12.215  68.490  1.00  0.00    -0.321 S  
HETATM    8  O   UNL     1     -10.606  13.148  68.664  1.00  0.00    -0.249 OA 
BRANCH   7   9
HETATM    9  C   UNL     1     -11.189  10.743  67.523  1.00  0.00    -0.274 C  
BRANCH   9  10
HETATM   10  C   UNL     1     -10.790  11.100  66.098  1.00  0.00    -0.247 A  
HETATM   11  C   UNL     1     -11.320  12.249  65.482  1.00  0.00    -0.394 A  
HETATM   12  C   UNL     1      -9.890  10.307  65.365  1.00  0.00    -0.362 A  
HETATM   13  C   UNL     1     -10.945  12.602  64.181  1.00  0.00    -0.427 A  
HETATM   14  C   UNL     1     -10.047  11.809  63.474  1.00  0.00    -0.463 A  
HETATM   15  C   UNL     1      -9.523  10.661  64.064  1.00  0.00    -0.329 A  
ENDBRANCH   9  10
BRANCH   9  16
HETATM   16  C   UNL     1     -10.094   9.975  68.277  1.00  0.00    -0.182 A  
HETATM   17  C   UNL     1      -7.853   9.924  69.234  1.00  0.00    -0.117 A  
HETATM   18  C   UNL     1      -9.218   7.942  69.311  1.00  0.00    -0.148 A  
HETATM   19  C   UNL     1      -8.883  10.615  68.588  1.00  0.00    -0.151 A  
HETATM   20  C   UNL     1     -10.251   8.634  68.679  1.00  0.00    -0.214 A  
HETATM   21  C   UNL     1      -8.015   8.585  69.584  1.00  0.00    -0.101 A  
ENDBRANCH   9  16
ENDBRANCH   7   9
ENDBRANCH   6   7
ENDBRANCH   2   6
TORSDOF 5
ENDMDL
MODEL      140
REMARK 921   NORMALIZED FREE ENERGY PREDICTED BY IDOCK:   -3.89 KCAL/MOL
REMARK 922        TOTAL FREE ENERGY PREDICTED BY IDOCK:   -6.05 KCAL/MOL
REMARK 923 INTER-LIGAND FREE ENERGY PREDICTED BY IDOCK:   -4.94 KCAL/MOL
REMARK 924 INTRA-LIGAND FREE ENERGY PREDICTED BY IDOCK:   -1.11 KCAL/MOL
REMARK 927      BINDING AFFINITY PREDICTED BY RF-SCORE:    0.00 PKD
ROOT
HETATM    1  N   UNL     1     -11.791  12.621  68.817  1.00  0.00    -0.311 N  
HETATM    2  C   UNL     1     -11.227  12.672  67.571  1.00  0.00    -0.288 C  
HETATM    3  H1  UNL     1     -12.173  11.749  69.184  1.00  0.00     0.000 HD 
HETATM    4  H2  UNL     1     -11.830  13.466  69.387  1.00  0.00     0.000 HD 
HETATM    5  O   UNL     1     -10.766  13.720  67.130  1.00  0.00    -0.278 OA 
ENDROOT
BRANCH   2   6
HETATM    6  C   UNL     1     -11.244  11.375  66.787  1.00  0.00    -0.252 C  
BRANCH   6   7
HETATM    7  S   UNL     1      -9.794  10.396  67.249  1.00  0.00    -0.184 S  
HETATM    8  O   UNL     1      -9.164  11.077  68.434  1.00  0.00    -0.161 OA 
BRANCH   7   9
HETATM    9  C   UNL     1     -10.646   8.864  67.859  1.00  0.00    -0.183 C  
BRANCH   9  10
HETATM   10  C   UNL     1     -10.204   7.612  67.114  1.00  0.00    -0.360 A  
HETATM   11  C   UNL     1     -11.029   6.472  67.096  1.00  0.00    -0.480 A  
HETATM   12  C   UNL     1      -8.979   7.559  66.427  1.00  0.00    -0.196 A  
HETATM   13  C   UNL     1     -10.647   5.323  66.396  1.00  0.00    -0.338 A  
HETATM   14  C   UNL     1      -9.433   5.290  65.716  1.00  0.00    -0.132 A  
HETATM   15  C   UNL     1      -8.599   6.406  65.735  1.00  0.00    -0.152 A  
ENDBRANCH   9  10
BRANCH   9  16
HETATM   16  C   UNL     1     -10.530   8.726  69.384  1.00  0.00    -0.228 A  
HETATM   17  C   UNL     1     -11.421   9.196  71.604  1.00  0.00    -0.451 A  
HETATM   18  C   UNL     1      -9.340   8.002  71.392  1.00  0.00    -0.182 A  
HETATM   19  C   UNL     1     -11.526   9.270  70.211  1.00  0.00    -0.198 A  
HETATM   20  C   UNL     1      -9.451   8.064  70.003  1.00  0.00    -0.160 A  
HETATM   21  C   UNL     1     -10.322   8.574  72.194  1.00  0.00    -0.409 A  
ENDBRANCH   9  16
ENDBRANCH   7   9
ENDBRANCH   6   7
ENDBRANCH   2   6
TORSDOF 5
ENDMDL
MODEL      141
REMARK 921   NORMALIZED FREE ENERGY PREDICTED BY IDOCK:   -3.86 KCAL/MOL
REMARK 922        TOTAL FREE ENERGY PREDICTED BY IDOCK:   -6.02 KCAL/MOL
REMARK 923 INTER-LIGAND FREE ENERGY PREDICTED BY IDOCK:   -5.45 KCAL/MOL
REMARK 924 INTRA-LIGAND FREE ENERGY PREDICTED BY IDOCK:   -0.57 KCAL/MOL
REMARK 927      BINDING AFFINITY PREDICTED BY RF-SCORE:    0.00 PKD
ROOT
HETATM    1  N   UNL     1     -12.009  16.371  71.796  1.00  0.00    -0.659 N  
HETATM    2  C   UNL     1     -12.477  15.254  71.158  1.00  0.00    -0.375 C  
HETATM    3  H1  UNL     1     -11.882  17.249  71.291  1.00  0.00     0.000 HD 
HETATM    4  H2  UNL     1     -11.783  16.326  72.790  1.00  0.00     0.000 HD 
HETATM    5  O   UNL     1     -12.630  14.199  71.765  1.00  0.00    -0.332 OA 
ENDROOT
BRANCH   2   6
HETATM    6  C   UNL     1     -12.754  15.409  69.676  1.00  0.00     0.083 C  
BRANCH   6   7
HETATM    7  S   UNL     1     -11.573  14.395  68.754  1.00  0.00    -0.335 S  
HETATM    8  O   UNL     1     -11.976  14.460  67.305  1.00  0.00    -0.399 OA 
BRANCH   7   9
HETATM    9  C   UNL     1     -10.051  15.436  68.968  1.00  0.00    -0.234 C  
BRANCH   9  10
HETATM   10  C   UNL     1      -8.772  14.675  68.647  1.00  0.00    -0.174 A  
HETATM   11  C   UNL     1      -7.548  15.077  69.214  1.00  0.00    -0.187 A  
HETATM   12  C   UNL     1      -8.774  13.560  67.790  1.00  0.00    -0.189 A  
HETATM   13  C   UNL     1      -6.369  14.374  68.946  1.00  0.00    -0.091 A  
HETATM   14  C   UNL     1      -6.392  13.269  68.101  1.00  0.00    -0.110 A  
HETATM   15  C   UNL     1      -7.592  12.865  67.521  1.00  0.00    -0.164 A  
ENDBRANCH   9  10
BRANCH   9  16
HETATM   16  C   UNL     1     -10.165  16.763  68.205  1.00  0.00    -0.295 A  
HETATM   17  C   UNL     1     -10.337  19.195  68.246  1.00  0.00    -0.448 A  
HETATM   18  C   UNL     1     -10.409  18.039  66.135  1.00  0.00    -0.368 A  
HETATM   19  C   UNL     1     -10.189  17.975  68.915  1.00  0.00    -0.320 A  
HETATM   20  C   UNL     1     -10.247  16.823  66.800  1.00  0.00    -0.304 A  
HETATM   21  C   UNL     1     -10.461  19.225  66.858  1.00  0.00    -0.547 A  
ENDBRANCH   9  16
ENDBRANCH   7   9
ENDBRANCH   6   7
ENDBRANCH   2   6
TORSDOF 5
ENDMDL
MODEL      142
REMARK 921   NORMALIZED FREE ENERGY PREDICTED BY IDOCK:   -3.83 KCAL/MOL
REMARK 922        TOTAL FREE ENERGY PREDICTED BY IDOCK:   -5.97 KCAL/MOL
REMARK 923 INTER-LIGAND FREE ENERGY PREDICTED BY IDOCK:   -5.93 KCAL/MOL
REMARK 924 INTRA-LIGAND FREE ENERGY PREDICTED BY IDOCK:   -0.04 KCAL/MOL
REMARK 927      BINDING AFFINITY PREDICTED BY RF-SCORE:    0.00 PKD
ROOT
HETATM    1  N   UNL     1     -10.840   9.719  70.912  1.00  0.00    -0.328 N  
HETATM    2  C   UNL     1     -11.529  10.705  70.259  1.00  0.00    -0.337 C  
HETATM    3  H1  UNL     1     -10.229   9.080  70.402  1.00  0.00     0.000 HD 
HETATM    4  H2  UNL     1     -10.938   9.620  71.923  1.00  0.00     0.000 HD 
HETATM    5  O   UNL     1     -12.263  11.474  70.873  1.00  0.00    -0.368 OA 
ENDROOT
BRANCH   2   6
HETATM    6  C   UNL     1     -11.344  10.753  68.756  1.00  0.00    -0.288 C  
BRANCH   6   7
HETATM    7  S   UNL     1      -9.691  11.393  68.392  1.00  0.00    -0.205 S  
HETATM    8  O   UNL     1      -8.733  10.682  69.309  1.00  0.00    -0.149 OA 
BRANCH   7   9
HETATM    9  C   UNL     1      -9.469  10.700  66.685  1.00  0.00    -0.167 C  
BRANCH   9  10
HETATM   10  C   UNL     1      -9.487   9.177  66.665  1.00  0.00    -0.242 A  
HETATM   11  C   UNL     1      -8.349   8.462  66.251  1.00  0.00    -0.123 A  
HETATM   12  C   UNL     1     -10.624   8.450  67.058  1.00  0.00    -0.316 A  
HETATM   13  C   UNL     1      -8.343   7.063  66.249  1.00  0.00    -0.129 A  
HETATM   14  C   UNL     1      -9.475   6.360  66.649  1.00  0.00    -0.191 A  
HETATM   15  C   UNL     1     -10.615   7.053  67.049  1.00  0.00    -0.412 A  
ENDBRANCH   9  10
BRANCH   9  16
HETATM   16  C   UNL     1     -10.460  11.324  65.692  1.00  0.00    -0.317 A  
HETATM   17  C   UNL     1     -11.269  11.548  63.403  1.00  0.00    -0.342 A  
HETATM   18  C   UNL     1     -12.288  12.852  65.152  1.00  0.00    -0.547 A  
HETATM   19  C   UNL     1     -10.407  10.961  64.336  1.00  0.00    -0.430 A  
HETATM   20  C   UNL     1     -11.438  12.257  66.085  1.00  0.00    -0.429 A  
HETATM   21  C   UNL     1     -12.200  12.503  63.810  1.00  0.00    -0.615 A  
ENDBRANCH   9  16
ENDBRANCH   7   9
ENDBRANCH   6   7
ENDBRANCH   2   6
TORSDOF 5
ENDMDL
MODEL      143
REMARK 921   NORMALIZED FREE ENERGY PREDICTED BY IDOCK:   -3.82 KCAL/MOL
REMARK 922        TOTAL FREE ENERGY PREDICTED BY IDOCK:   -5.97 KCAL/MOL
REMARK 923 INTER-LIGAND FREE ENERGY PREDICTED BY IDOCK:   -5.58 KCAL/MOL
REMARK 924 INTRA-LIGAND FREE ENERGY PREDICTED BY IDOCK:   -0.38 KCAL/MOL
REMARK 927      BINDING AFFINITY PREDICTED BY RF-SCORE:    0.00 PKD
ROOT
HETATM    1  N   UNL     1     -11.669  11.639  63.028  1.00  0.00    -0.851 N  
HETATM    2  C   UNL     1     -11.131  11.473  64.276  1.00  0.00    -0.315 C  
HETATM    3  H1  UNL     1     -12.270  12.436  62.818  1.00  0.00     0.000 HD 
HETATM    4  H2  UNL     1     -11.465  10.956  62.298  1.00  0.00     0.000 HD 
HETATM    5  O   UNL     1     -10.407  10.514  64.529  1.00  0.00    -0.348 OA 
ENDROOT
BRANCH   2   6
HETATM    6  C   UNL     1     -11.514  12.519  65.303  1.00  0.00    -0.333 C  
BRANCH   6   7
HETATM    7  S   UNL     1     -10.545  14.017  64.998  1.00  0.00    -0.429 S  
HETATM    8  O   UNL     1     -11.506  15.072  64.521  1.00  0.00    -0.373 OA 
BRANCH   7   9
HETATM    9  C   UNL     1     -10.069  14.428  66.744  1.00  0.00    -0.266 C  
BRANCH   9  10
HETATM   10  C   UNL     1      -8.789  13.729  67.182  1.00  0.00    -0.240 A  
HETATM   11  C   UNL     1      -8.560  12.386  66.828  1.00  0.00    -0.129 A  
HETATM   12  C   UNL     1      -7.808  14.394  67.938  1.00  0.00    -0.155 A  
HETATM   13  C   UNL     1      -7.379  11.737  67.202  1.00  0.00    -0.146 A  
HETATM   14  C   UNL     1      -6.416  12.414  67.944  1.00  0.00    -0.095 A  
HETATM   15  C   UNL     1      -6.633  13.739  68.315  1.00  0.00    -0.109 A  
ENDBRANCH   9  10
BRANCH   9  16
HETATM   16  C   UNL     1     -10.030  15.946  66.974  1.00  0.00    -0.248 A  
HETATM   17  C   UNL     1      -9.065  18.120  66.440  1.00  0.00    -0.255 A  
HETATM   18  C   UNL     1     -10.753  17.961  68.151  1.00  0.00    -0.287 A  
HETATM   19  C   UNL     1      -9.152  16.742  66.219  1.00  0.00    -0.320 A  
HETATM   20  C   UNL     1     -10.850  16.589  67.922  1.00  0.00    -0.326 A  
HETATM   21  C   UNL     1      -9.856  18.727  67.415  1.00  0.00    -0.357 A  
ENDBRANCH   9  16
ENDBRANCH   7   9
ENDBRANCH   6   7
ENDBRANCH   2   6
TORSDOF 5
ENDMDL
MODEL      144
REMARK 921   NORMALIZED FREE ENERGY PREDICTED BY IDOCK:   -3.81 KCAL/MOL
REMARK 922        TOTAL FREE ENERGY PREDICTED BY IDOCK:   -5.95 KCAL/MOL
REMARK 923 INTER-LIGAND FREE ENERGY PREDICTED BY IDOCK:   -4.88 KCAL/MOL
REMARK 924 INTRA-LIGAND FREE ENERGY PREDICTED BY IDOCK:   -1.06 KCAL/MOL
REMARK 927      BINDING AFFINITY PREDICTED BY RF-SCORE:    0.00 PKD
ROOT
HETATM    1  N   UNL     1      -8.965   7.177  66.339  1.00  0.00    -0.151 N  
HETATM    2  C   UNL     1     -10.136   7.701  66.817  1.00  0.00    -0.255 C  
HETATM    3  H1  UNL     1      -8.784   6.174  66.379  1.00  0.00     0.000 HD 
HETATM    4  H2  UNL     1      -8.262   7.799  65.937  1.00  0.00     0.000 HD 
HETATM    5  O   UNL     1     -10.353   8.909  66.768  1.00  0.00    -0.269 OA 
ENDROOT
BRANCH   2   6
HETATM    6  C   UNL     1     -11.103   6.706  67.424  1.00  0.00    -0.320 C  
BRANCH   6   7
HETATM    7  S   UNL     1     -10.505   6.240  69.067  1.00  0.00    -0.269 S  
HETATM    8  O   UNL     1      -9.083   5.776  68.901  1.00  0.00    -0.115 OA 
BRANCH   7   9
HETATM    9  C   UNL     1     -10.468   7.918  69.861  1.00  0.00    -0.229 C  
BRANCH   9  10
HETATM   10  C   UNL     1     -11.735   8.219  70.651  1.00  0.00    -0.153 A  
HETATM   11  C   UNL     1     -12.639   7.186  70.958  1.00  0.00    -0.335 A  
HETATM   12  C   UNL     1     -12.032   9.518  71.097  1.00  0.00    -0.429 A  
HETATM   13  C   UNL     1     -13.794   7.442  71.704  1.00  0.00    -0.490 A  
HETATM   14  C   UNL     1     -14.069   8.734  72.143  1.00  0.00    -0.519 A  
HETATM   15  C   UNL     1     -13.191   9.771  71.836  1.00  0.00    -0.545 A  
ENDBRANCH   9  10
BRANCH   9  16
HETATM   16  C   UNL     1      -9.187   8.123  70.681  1.00  0.00    -0.162 A  
HETATM   17  C   UNL     1      -7.982   7.859  72.784  1.00  0.00    -0.175 A  
HETATM   18  C   UNL     1      -6.924   9.004  70.949  1.00  0.00    -0.093 A  
HETATM   19  C   UNL     1      -9.121   7.645  72.000  1.00  0.00    -0.167 A  
HETATM   20  C   UNL     1      -8.054   8.780  70.163  1.00  0.00    -0.114 A  
HETATM   21  C   UNL     1      -6.889   8.550  72.263  1.00  0.00    -0.093 A  
ENDBRANCH   9  16
ENDBRANCH   7   9
ENDBRANCH   6   7
ENDBRANCH   2   6
TORSDOF 5
ENDMDL
MODEL      145
REMARK 921   NORMALIZED FREE ENERGY PREDICTED BY IDOCK:   -3.80 KCAL/MOL
REMARK 922        TOTAL FREE ENERGY PREDICTED BY IDOCK:   -5.94 KCAL/MOL
REMARK 923 INTER-LIGAND FREE ENERGY PREDICTED BY IDOCK:   -5.64 KCAL/MOL
REMARK 924 INTRA-LIGAND FREE ENERGY PREDICTED BY IDOCK:   -0.30 KCAL/MOL
REMARK 927      BINDING AFFINITY PREDICTED BY RF-SCORE:    0.00 PKD
ROOT
HETATM    1  N   UNL     1     -10.847   6.825  66.865  1.00  0.00    -0.501 N  
HETATM    2  C   UNL     1     -10.820   6.912  68.231  1.00  0.00    -0.184 C  
HETATM    3  H1  UNL     1     -10.362   7.511  66.286  1.00  0.00     0.000 HD 
HETATM    4  H2  UNL     1     -11.360   6.064  66.419  1.00  0.00     0.000 HD 
HETATM    5  O   UNL     1     -11.403   6.086  68.927  1.00  0.00    -0.307 OA 
ENDROOT
BRANCH   2   6
HETATM    6  C   UNL     1     -10.062   8.093  68.801  1.00  0.00    -0.199 C  
BRANCH   6   7
HETATM    7  S   UNL     1     -11.063   8.856  70.101  1.00  0.00    -0.153 S  
HETATM    8  O   UNL     1     -10.115   9.291  71.186  1.00  0.00    -0.288 OA 
BRANCH   7   9
HETATM    9  C   UNL     1     -11.628  10.374  69.196  1.00  0.00    -0.164 C  
BRANCH   9  10
HETATM   10  C   UNL     1     -12.181  11.441  70.130  1.00  0.00    -0.401 A  
HETATM   11  C   UNL     1     -12.011  12.804  69.826  1.00  0.00    -0.362 A  
HETATM   12  C   UNL     1     -12.872  11.103  71.306  1.00  0.00    -0.515 A  
HETATM   13  C   UNL     1     -12.534  13.796  70.663  1.00  0.00    -0.429 A  
HETATM   14  C   UNL     1     -13.222  13.442  71.820  1.00  0.00    -0.495 A  
HETATM   15  C   UNL     1     -13.387  12.097  72.142  1.00  0.00    -0.438 A  
ENDBRANCH   9  10
BRANCH   9  16
HETATM   16  C   UNL     1     -10.536  10.908  68.258  1.00  0.00    -0.205 A  
HETATM   17  C   UNL     1      -9.814  11.497  66.005  1.00  0.00    -0.255 A  
HETATM   18  C   UNL     1      -8.261  11.694  67.834  1.00  0.00    -0.141 A  
HETATM   19  C   UNL     1     -10.805  11.055  66.887  1.00  0.00    -0.324 A  
HETATM   20  C   UNL     1      -9.253  11.266  68.717  1.00  0.00    -0.133 A  
HETATM   21  C   UNL     1      -8.538  11.803  66.477  1.00  0.00    -0.148 A  
ENDBRANCH   9  16
ENDBRANCH   7   9
ENDBRANCH   6   7
ENDBRANCH   2   6
TORSDOF 5
ENDMDL
MODEL      146
REMARK 921   NORMALIZED FREE ENERGY PREDICTED BY IDOCK:   -3.80 KCAL/MOL
REMARK 922        TOTAL FREE ENERGY PREDICTED BY IDOCK:   -5.93 KCAL/MOL
REMARK 923 INTER-LIGAND FREE ENERGY PREDICTED BY IDOCK:   -5.20 KCAL/MOL
REMARK 924 INTRA-LIGAND FREE ENERGY PREDICTED BY IDOCK:   -0.73 KCAL/MOL
REMARK 927      BINDING AFFINITY PREDICTED BY RF-SCORE:    0.00 PKD
ROOT
HETATM    1  N   UNL     1      -6.511  10.285  63.908  1.00  0.00    -0.251 N  
HETATM    2  C   UNL     1      -6.615  10.205  65.271  1.00  0.00    -0.119 C  
HETATM    3  H1  UNL     1      -7.010   9.630  63.305  1.00  0.00     0.000 HD 
HETATM    4  H2  UNL     1      -5.928  11.010  63.489  1.00  0.00     0.000 HD 
HETATM    5  O   UNL     1      -6.016  10.994  65.996  1.00  0.00    -0.138 OA 
ENDROOT
BRANCH   2   6
HETATM    6  C   UNL     1      -7.477   9.078  65.800  1.00  0.00    -0.090 C  
BRANCH   6   7
HETATM    7  S   UNL     1      -9.218   9.518  65.570  1.00  0.00    -0.250 S  
HETATM    8  O   UNL     1     -10.034   8.431  66.216  1.00  0.00    -0.245 OA 
BRANCH   7   9
HETATM    9  C   UNL     1      -9.296  11.015  66.664  1.00  0.00    -0.177 C  
BRANCH   9  10
HETATM   10  C   UNL     1      -9.871  12.232  65.949  1.00  0.00    -0.266 A  
HETATM   11  C   UNL     1     -10.737  12.064  64.853  1.00  0.00    -0.346 A  
HETATM   12  C   UNL     1      -9.563  13.540  66.360  1.00  0.00    -0.268 A  
HETATM   13  C   UNL     1     -11.292  13.171  64.202  1.00  0.00    -0.440 A  
HETATM   14  C   UNL     1     -10.980  14.459  64.627  1.00  0.00    -0.367 A  
HETATM   15  C   UNL     1     -10.114  14.642  65.702  1.00  0.00    -0.389 A  
ENDBRANCH   9  10
BRANCH   9  16
HETATM   16  C   UNL     1     -10.009  10.707  67.988  1.00  0.00    -0.180 A  
HETATM   17  C   UNL     1     -12.002  10.874  69.383  1.00  0.00    -0.393 A  
HETATM   18  C   UNL     1     -10.026   9.815  70.263  1.00  0.00    -0.309 A  
HETATM   19  C   UNL     1     -11.344  11.103  68.169  1.00  0.00    -0.377 A  
HETATM   20  C   UNL     1      -9.374  10.031  69.049  1.00  0.00    -0.183 A  
HETATM   21  C   UNL     1     -11.338  10.242  70.433  1.00  0.00    -0.410 A  
ENDBRANCH   9  16
ENDBRANCH   7   9
ENDBRANCH   6   7
ENDBRANCH   2   6
TORSDOF 5
ENDMDL
MODEL      147
REMARK 921   NORMALIZED FREE ENERGY PREDICTED BY IDOCK:   -3.79 KCAL/MOL
REMARK 922        TOTAL FREE ENERGY PREDICTED BY IDOCK:   -5.93 KCAL/MOL
REMARK 923 INTER-LIGAND FREE ENERGY PREDICTED BY IDOCK:   -5.03 KCAL/MOL
REMARK 924 INTRA-LIGAND FREE ENERGY PREDICTED BY IDOCK:   -0.90 KCAL/MOL
REMARK 927      BINDING AFFINITY PREDICTED BY RF-SCORE:    0.00 PKD
ROOT
HETATM    1  N   UNL     1     -10.767   8.148  70.567  1.00  0.00    -0.222 N  
HETATM    2  C   UNL     1      -9.845   8.459  69.604  1.00  0.00    -0.184 C  
HETATM    3  H1  UNL     1     -11.758   8.066  70.337  1.00  0.00     0.000 HD 
HETATM    4  H2  UNL     1     -10.460   7.997  71.529  1.00  0.00     0.000 HD 
HETATM    5  O   UNL     1      -8.653   8.558  69.881  1.00  0.00    -0.126 OA 
ENDROOT
BRANCH   2   6
HETATM    6  C   UNL     1     -10.399   8.697  68.215  1.00  0.00    -0.207 C  
BRANCH   6   7
HETATM    7  S   UNL     1     -11.124  10.354  68.152  1.00  0.00    -0.263 S  
HETATM    8  O   UNL     1     -10.866  10.996  69.488  1.00  0.00    -0.242 OA 
BRANCH   7   9
HETATM    9  C   UNL     1      -9.982  11.135  66.915  1.00  0.00    -0.198 C  
BRANCH   9  10
HETATM   10  C   UNL     1     -10.727  11.759  65.743  1.00  0.00    -0.328 A  
HETATM   11  C   UNL     1     -11.914  12.482  65.964  1.00  0.00    -0.456 A  
HETATM   12  C   UNL     1     -10.258  11.638  64.423  1.00  0.00    -0.346 A  
HETATM   13  C   UNL     1     -12.598  13.080  64.900  1.00  0.00    -0.490 A  
HETATM   14  C   UNL     1     -12.114  12.956  63.601  1.00  0.00    -0.611 A  
HETATM   15  C   UNL     1     -10.948  12.232  63.363  1.00  0.00    -0.467 A  
ENDBRANCH   9  10
BRANCH   9  16
HETATM   16  C   UNL     1      -9.004  12.109  67.589  1.00  0.00    -0.178 A  
HETATM   17  C   UNL     1      -8.414  14.393  68.204  1.00  0.00    -0.160 A  
HETATM   18  C   UNL     1      -6.899  12.597  68.729  1.00  0.00    -0.096 A  
HETATM   19  C   UNL     1      -9.308  13.480  67.635  1.00  0.00    -0.216 A  
HETATM   20  C   UNL     1      -7.796  11.683  68.175  1.00  0.00    -0.133 A  
HETATM   21  C   UNL     1      -7.204  13.953  68.738  1.00  0.00    -0.106 A  
ENDBRANCH   9  16
ENDBRANCH   7   9
ENDBRANCH   6   7
ENDBRANCH   2   6
TORSDOF 5
ENDMDL
MODEL      148
REMARK 921   NORMALIZED FREE ENERGY PREDICTED BY IDOCK:   -3.78 KCAL/MOL
REMARK 922        TOTAL FREE ENERGY PREDICTED BY IDOCK:   -5.90 KCAL/MOL
REMARK 923 INTER-LIGAND FREE ENERGY PREDICTED BY IDOCK:   -5.60 KCAL/MOL
REMARK 924 INTRA-LIGAND FREE ENERGY PREDICTED BY IDOCK:   -0.31 KCAL/MOL
REMARK 927      BINDING AFFINITY PREDICTED BY RF-SCORE:    0.00 PKD
ROOT
HETATM    1  N   UNL     1      -7.455  12.547  69.085  1.00  0.00    -0.326 N  
HETATM    2  C   UNL     1      -6.502  13.509  69.286  1.00  0.00    -0.111 C  
HETATM    3  H1  UNL     1      -8.441  12.740  69.265  1.00  0.00     0.000 HD 
HETATM    4  H2  UNL     1      -7.177  11.624  68.749  1.00  0.00     0.000 HD 
HETATM    5  O   UNL     1      -5.316  13.277  69.068  1.00  0.00    -0.069 OA 
ENDROOT
BRANCH   2   6
HETATM    6  C   UNL     1      -7.007  14.835  69.816  1.00  0.00    -0.158 C  
BRANCH   6   7
HETATM    7  S   UNL     1      -7.275  15.956  68.420  1.00  0.00    -0.126 S  
HETATM    8  O   UNL     1      -7.277  15.112  67.174  1.00  0.00    -0.187 OA 
BRANCH   7   9
HETATM    9  C   UNL     1      -9.027  16.459  68.770  1.00  0.00    -0.245 C  
BRANCH   9  10
HETATM   10  C   UNL     1      -9.431  17.727  68.029  1.00  0.00    -0.281 A  
HETATM   11  C   UNL     1     -10.088  17.641  66.788  1.00  0.00    -0.334 A  
HETATM   12  C   UNL     1      -9.167  19.003  68.555  1.00  0.00    -0.413 A  
HETATM   13  C   UNL     1     -10.486  18.795  66.105  1.00  0.00    -0.499 A  
HETATM   14  C   UNL     1     -10.223  20.050  66.646  1.00  0.00    -0.597 A  
HETATM   15  C   UNL     1      -9.561  20.154  67.867  1.00  0.00    -0.468 A  
ENDBRANCH   9  10
BRANCH   9  16
HETATM   16  C   UNL     1     -10.002  15.296  68.542  1.00  0.00    -0.222 A  
HETATM   17  C   UNL     1     -11.903  13.976  69.308  1.00  0.00    -0.389 A  
HETATM   18  C   UNL     1     -10.778  13.359  67.270  1.00  0.00    -0.265 A  
HETATM   19  C   UNL     1     -11.029  15.056  69.470  1.00  0.00    -0.281 A  
HETATM   20  C   UNL     1      -9.915  14.444  67.423  1.00  0.00    -0.242 A  
HETATM   21  C   UNL     1     -11.769  13.120  68.215  1.00  0.00    -0.384 A  
ENDBRANCH   9  16
ENDBRANCH   7   9
ENDBRANCH   6   7
ENDBRANCH   2   6
TORSDOF 5
ENDMDL
MODEL      149
REMARK 921   NORMALIZED FREE ENERGY PREDICTED BY IDOCK:   -3.76 KCAL/MOL
REMARK 922        TOTAL FREE ENERGY PREDICTED BY IDOCK:   -5.89 KCAL/MOL
REMARK 923 INTER-LIGAND FREE ENERGY PREDICTED BY IDOCK:   -5.47 KCAL/MOL
REMARK 924 INTRA-LIGAND FREE ENERGY PREDICTED BY IDOCK:   -0.42 KCAL/MOL
REMARK 927      BINDING AFFINITY PREDICTED BY RF-SCORE:    0.00 PKD
ROOT
HETATM    1  N   UNL     1     -11.877  16.351  71.575  1.00  0.00    -0.663 N  
HETATM    2  C   UNL     1     -12.003  15.278  70.734  1.00  0.00    -0.339 C  
HETATM    3  H1  UNL     1     -11.689  17.284  71.209  1.00  0.00     0.000 HD 
HETATM    4  H2  UNL     1     -11.973  16.216  72.582  1.00  0.00     0.000 HD 
HETATM    5  O   UNL     1     -12.230  14.155  71.174  1.00  0.00    -0.341 OA 
ENDROOT
BRANCH   2   6
HETATM    6  C   UNL     1     -11.813  15.571  69.260  1.00  0.00    -0.353 C  
BRANCH   6   7
HETATM    7  S   UNL     1     -11.812  14.007  68.350  1.00  0.00    -0.353 S  
HETATM    8  O   UNL     1     -12.243  14.317  66.943  1.00  0.00    -0.438 OA 
BRANCH   7   9
HETATM    9  C   UNL     1      -9.986  13.674  68.326  1.00  0.00    -0.236 C  
BRANCH   9  10
HETATM   10  C   UNL     1      -9.632  12.408  67.556  1.00  0.00    -0.185 A  
HETATM   11  C   UNL     1      -8.286  12.030  67.399  1.00  0.00    -0.168 A  
HETATM   12  C   UNL     1     -10.624  11.589  66.991  1.00  0.00    -0.277 A  
HETATM   13  C   UNL     1      -7.946  10.858  66.715  1.00  0.00    -0.143 A  
HETATM   14  C   UNL     1      -8.943  10.055  66.168  1.00  0.00    -0.174 A  
HETATM   15  C   UNL     1     -10.279  10.423  66.303  1.00  0.00    -0.286 A  
ENDBRANCH   9  10
BRANCH   9  16
HETATM   16  C   UNL     1      -9.197  14.903  67.853  1.00  0.00    -0.183 A  
HETATM   17  C   UNL     1      -7.830  16.849  68.390  1.00  0.00    -0.229 A  
HETATM   18  C   UNL     1      -8.442  16.428  66.099  1.00  0.00    -0.329 A  
HETATM   19  C   UNL     1      -8.519  15.699  68.790  1.00  0.00    -0.192 A  
HETATM   20  C   UNL     1      -9.118  15.274  66.496  1.00  0.00    -0.334 A  
HETATM   21  C   UNL     1      -7.803  17.220  67.046  1.00  0.00    -0.243 A  
ENDBRANCH   9  16
ENDBRANCH   7   9
ENDBRANCH   6   7
ENDBRANCH   2   6
TORSDOF 5
ENDMDL
MODEL      150
REMARK 921   NORMALIZED FREE ENERGY PREDICTED BY IDOCK:   -3.75 KCAL/MOL
REMARK 922        TOTAL FREE ENERGY PREDICTED BY IDOCK:   -5.87 KCAL/MOL
REMARK 923 INTER-LIGAND FREE ENERGY PREDICTED BY IDOCK:   -5.55 KCAL/MOL
REMARK 924 INTRA-LIGAND FREE ENERGY PREDICTED BY IDOCK:   -0.32 KCAL/MOL
REMARK 927      BINDING AFFINITY PREDICTED BY RF-SCORE:    0.00 PKD
ROOT
HETATM    1  N   UNL     1      -7.759  11.742  66.172  1.00  0.00    -0.355 N  
HETATM    2  C   UNL     1      -8.268  12.590  67.118  1.00  0.00    -0.168 C  
HETATM    3  H1  UNL     1      -7.994  10.749  66.177  1.00  0.00     0.000 HD 
HETATM    4  H2  UNL     1      -7.137  12.107  65.450  1.00  0.00     0.000 HD 
HETATM    5  O   UNL     1      -7.985  13.785  67.112  1.00  0.00    -0.145 OA 
ENDROOT
BRANCH   2   6
HETATM    6  C   UNL     1      -9.156  11.951  68.166  1.00  0.00    -0.190 C  
BRANCH   6   7
HETATM    7  S   UNL     1     -10.803  11.701  67.459  1.00  0.00    -0.253 S  
HETATM    8  O   UNL     1     -10.646  10.744  66.308  1.00  0.00    -0.246 OA 
BRANCH   7   9
HETATM    9  C   UNL     1     -11.596  10.779  68.862  1.00  0.00    -0.291 C  
BRANCH   9  10
HETATM   10  C   UNL     1     -10.681   9.714  69.453  1.00  0.00    -0.248 A  
HETATM   11  C   UNL     1     -10.325   8.586  68.691  1.00  0.00    -0.224 A  
HETATM   12  C   UNL     1     -10.169   9.826  70.757  1.00  0.00    -0.251 A  
HETATM   13  C   UNL     1      -9.468   7.611  69.212  1.00  0.00    -0.158 A  
HETATM   14  C   UNL     1      -8.964   7.742  70.502  1.00  0.00    -0.150 A  
HETATM   15  C   UNL     1      -9.317   8.846  71.275  1.00  0.00    -0.336 A  
ENDBRANCH   9  10
BRANCH   9  16
HETATM   16  C   UNL     1     -12.157  11.740  69.920  1.00  0.00    -0.359 A  
HETATM   17  C   UNL     1     -13.409  12.084  71.983  1.00  0.00    -0.447 A  
HETATM   18  C   UNL     1     -12.575  13.991  70.774  1.00  0.00    -0.431 A  
HETATM   19  C   UNL     1     -12.850  11.227  71.029  1.00  0.00    -0.395 A  
HETATM   20  C   UNL     1     -12.005  13.138  69.829  1.00  0.00    -0.382 A  
HETATM   21  C   UNL     1     -13.283  13.465  71.848  1.00  0.00    -0.522 A  
ENDBRANCH   9  16
ENDBRANCH   7   9
ENDBRANCH   6   7
ENDBRANCH   2   6
TORSDOF 5
ENDMDL
MODEL      151
REMARK 921   NORMALIZED FREE ENERGY PREDICTED BY IDOCK:   -3.71 KCAL/MOL
REMARK 922        TOTAL FREE ENERGY PREDICTED BY IDOCK:   -5.82 KCAL/MOL
REMARK 923 INTER-LIGAND FREE ENERGY PREDICTED BY IDOCK:   -4.92 KCAL/MOL
REMARK 924 INTRA-LIGAND FREE ENERGY PREDICTED BY IDOCK:   -0.91 KCAL/MOL
REMARK 927      BINDING AFFINITY PREDICTED BY RF-SCORE:    0.00 PKD
ROOT
HETATM    1  N   UNL     1      -6.719  10.840  65.205  1.00  0.00    -0.359 N  
HETATM    2  C   UNL     1      -6.380  11.200  66.481  1.00  0.00    -0.132 C  
HETATM    3  H1  UNL     1      -7.354  10.061  65.031  1.00  0.00     0.000 HD 
HETATM    4  H2  UNL     1      -6.330  11.357  64.416  1.00  0.00     0.000 HD 
HETATM    5  O   UNL     1      -5.615  12.137  66.690  1.00  0.00    -0.311 OA 
ENDROOT
BRANCH   2   6
HETATM    6  C   UNL     1      -6.980  10.354  67.585  1.00  0.00    -0.083 C  
BRANCH   6   7
HETATM    7  S   UNL     1      -8.779  10.547  67.554  1.00  0.00    -0.124 S  
HETATM    8  O   UNL     1      -9.242  10.123  66.186  1.00  0.00    -0.151 OA 
BRANCH   7   9
HETATM    9  C   UNL     1      -9.246   9.210  68.753  1.00  0.00    -0.136 C  
BRANCH   9  10
HETATM   10  C   UNL     1     -10.401   9.614  69.660  1.00  0.00    -0.245 A  
HETATM   11  C   UNL     1     -11.271  10.652  69.277  1.00  0.00    -0.332 A  
HETATM   12  C   UNL     1     -10.633   8.970  70.888  1.00  0.00    -0.316 A  
HETATM   13  C   UNL     1     -12.350  11.019  70.088  1.00  0.00    -0.389 A  
HETATM   14  C   UNL     1     -12.568  10.365  71.297  1.00  0.00    -0.525 A  
HETATM   15  C   UNL     1     -11.708   9.345  71.698  1.00  0.00    -0.468 A  
ENDBRANCH   9  10
BRANCH   9  16
HETATM   16  C   UNL     1      -9.488   7.872  68.038  1.00  0.00    -0.159 A  
HETATM   17  C   UNL     1     -11.030   6.321  66.963  1.00  0.00    -0.442 A  
HETATM   18  C   UNL     1      -8.716   5.704  67.216  1.00  0.00    -0.107 A  
HETATM   19  C   UNL     1     -10.775   7.551  67.578  1.00  0.00    -0.296 A  
HETATM   20  C   UNL     1      -8.458   6.937  67.817  1.00  0.00    -0.123 A  
HETATM   21  C   UNL     1     -10.004   5.393  66.795  1.00  0.00    -0.217 A  
ENDBRANCH   9  16
ENDBRANCH   7   9
ENDBRANCH   6   7
ENDBRANCH   2   6
TORSDOF 5
ENDMDL
MODEL      152
REMARK 921   NORMALIZED FREE ENERGY PREDICTED BY IDOCK:   -3.71 KCAL/MOL
REMARK 922        TOTAL FREE ENERGY PREDICTED BY IDOCK:   -5.81 KCAL/MOL
REMARK 923 INTER-LIGAND FREE ENERGY PREDICTED BY IDOCK:   -5.67 KCAL/MOL
REMARK 924 INTRA-LIGAND FREE ENERGY PREDICTED BY IDOCK:   -0.14 KCAL/MOL
REMARK 927      BINDING AFFINITY PREDICTED BY RF-SCORE:    0.00 PKD
ROOT
HETATM    1  N   UNL     1      -6.241  11.793  68.701  1.00  0.00    -0.052 N  
HETATM    2  C   UNL     1      -7.353  11.073  68.355  1.00  0.00    -0.096 C  
HETATM    3  H1  UNL     1      -6.313  12.777  68.959  1.00  0.00     0.000 HD 
HETATM    4  H2  UNL     1      -5.327  11.339  68.703  1.00  0.00     0.000 HD 
HETATM    5  O   UNL     1      -7.265   9.888  68.045  1.00  0.00    -0.081 OA 
ENDROOT
BRANCH   2   6
HETATM    6  C   UNL     1      -8.659  11.840  68.351  1.00  0.00    -0.156 C  
BRANCH   6   7
HETATM    7  S   UNL     1     -10.029  10.657  68.370  1.00  0.00    -0.171 S  
HETATM    8  O   UNL     1     -10.199  10.206  69.796  1.00  0.00    -0.234 OA 
BRANCH   7   9
HETATM    9  C   UNL     1     -11.427  11.809  67.966  1.00  0.00    -0.319 C  
BRANCH   9  10
HETATM   10  C   UNL     1     -11.449  13.039  68.864  1.00  0.00    -0.345 A  
HETATM   11  C   UNL     1     -12.105  12.995  70.108  1.00  0.00    -0.377 A  
HETATM   12  C   UNL     1     -10.821  14.238  68.485  1.00  0.00    -0.264 A  
HETATM   13  C   UNL     1     -12.115  14.109  70.953  1.00  0.00    -0.416 A  
HETATM   14  C   UNL     1     -11.481  15.285  70.565  1.00  0.00    -0.342 A  
HETATM   15  C   UNL     1     -10.838  15.350  69.330  1.00  0.00    -0.263 A  
ENDBRANCH   9  10
BRANCH   9  16
HETATM   16  C   UNL     1     -11.453  12.158  66.471  1.00  0.00    -0.430 A  
HETATM   17  C   UNL     1     -10.558  11.830  64.228  1.00  0.00    -0.386 A  
HETATM   18  C   UNL     1     -12.288  13.467  64.584  1.00  0.00    -0.433 A  
HETATM   19  C   UNL     1     -10.585  11.498  65.586  1.00  0.00    -0.326 A  
HETATM   20  C   UNL     1     -12.325  13.127  65.936  1.00  0.00    -0.462 A  
HETATM   21  C   UNL     1     -11.400  12.823  63.730  1.00  0.00    -0.520 A  
ENDBRANCH   9  16
ENDBRANCH   7   9
ENDBRANCH   6   7
ENDBRANCH   2   6
TORSDOF 5
ENDMDL
MODEL      153
REMARK 921   NORMALIZED FREE ENERGY PREDICTED BY IDOCK:   -3.70 KCAL/MOL
REMARK 922        TOTAL FREE ENERGY PREDICTED BY IDOCK:   -5.80 KCAL/MOL
REMARK 923 INTER-LIGAND FREE ENERGY PREDICTED BY IDOCK:   -6.48 KCAL/MOL
REMARK 924 INTRA-LIGAND FREE ENERGY PREDICTED BY IDOCK:    0.68 KCAL/MOL
REMARK 927      BINDING AFFINITY PREDICTED BY RF-SCORE:    0.00 PKD
ROOT
HETATM    1  N   UNL     1     -11.016  13.761  65.243  1.00  0.00    -0.310 N  
HETATM    2  C   UNL     1     -10.499  14.108  66.463  1.00  0.00    -0.280 C  
HETATM    3  H1  UNL     1     -11.983  13.450  65.153  1.00  0.00     0.000 HD 
HETATM    4  H2  UNL     1     -10.425  13.815  64.413  1.00  0.00     0.000 HD 
HETATM    5  O   UNL     1      -9.335  14.483  66.571  1.00  0.00    -0.269 OA 
ENDROOT
BRANCH   2   6
HETATM    6  C   UNL     1     -11.441  13.965  67.641  1.00  0.00    -0.324 C  
BRANCH   6   7
HETATM    7  S   UNL     1     -11.667  12.205  67.996  1.00  0.00    -0.305 S  
HETATM    8  O   UNL     1     -10.501  11.480  67.381  1.00  0.00    -0.198 OA 
BRANCH   7   9
HETATM    9  C   UNL     1     -11.416  12.234  69.835  1.00  0.00    -0.114 C  
BRANCH   9  10
HETATM   10  C   UNL     1     -12.064  13.443  70.495  1.00  0.00    -0.399 A  
HETATM   11  C   UNL     1     -11.370  14.665  70.571  1.00  0.00    -0.209 A  
HETATM   12  C   UNL     1     -13.360  13.380  71.037  1.00  0.00    -0.009 A  
HETATM   13  C   UNL     1     -11.961  15.791  71.153  1.00  0.00    -0.469 A  
HETATM   14  C   UNL     1     -13.247  15.711  71.678  1.00  0.00    -0.554 A  
HETATM   15  C   UNL     1     -13.943  14.506  71.623  1.00  0.00    -0.527 A  
ENDBRANCH   9  10
BRANCH   9  16
HETATM   16  C   UNL     1     -11.834  10.904  70.480  1.00  0.00    -0.457 A  
HETATM   17  C   UNL     1     -13.332   9.673  71.956  1.00  0.00    -0.547 A  
HETATM   18  C   UNL     1     -11.496   8.522  70.906  1.00  0.00    -0.302 A  
HETATM   19  C   UNL     1     -12.958  10.862  71.321  1.00  0.00    -0.492 A  
HETATM   20  C   UNL     1     -11.130   9.704  70.261  1.00  0.00    -0.327 A  
HETATM   21  C   UNL     1     -12.594   8.507  71.759  1.00  0.00    -0.387 A  
ENDBRANCH   9  16
ENDBRANCH   7   9
ENDBRANCH   6   7
ENDBRANCH   2   6
TORSDOF 5
ENDMDL
MODEL      154
REMARK 921   NORMALIZED FREE ENERGY PREDICTED BY IDOCK:   -3.64 KCAL/MOL
REMARK 922        TOTAL FREE ENERGY PREDICTED BY IDOCK:   -5.73 KCAL/MOL
REMARK 923 INTER-LIGAND FREE ENERGY PREDICTED BY IDOCK:   -5.55 KCAL/MOL
REMARK 924 INTRA-LIGAND FREE ENERGY PREDICTED BY IDOCK:   -0.18 KCAL/MOL
REMARK 927      BINDING AFFINITY PREDICTED BY RF-SCORE:    0.00 PKD
ROOT
HETATM    1  N   UNL     1     -13.644  15.633  70.939  1.00  0.00    -0.790 N  
HETATM    2  C   UNL     1     -12.554  14.855  70.656  1.00  0.00    -0.363 C  
HETATM    3  H1  UNL     1     -14.376  15.781  70.245  1.00  0.00     0.000 HD 
HETATM    4  H2  UNL     1     -13.725  16.070  71.857  1.00  0.00     0.000 HD 
HETATM    5  O   UNL     1     -11.672  14.676  71.491  1.00  0.00    -0.325 OA 
ENDROOT
BRANCH   2   6
HETATM    6  C   UNL     1     -12.505  14.273  69.257  1.00  0.00    -0.030 C  
BRANCH   6   7
HETATM    7  S   UNL     1     -11.139  15.043  68.354  1.00  0.00    -0.292 S  
HETATM    8  O   UNL     1     -10.198  15.612  69.381  1.00  0.00    -0.224 OA 
BRANCH   7   9
HETATM    9  C   UNL     1     -10.353  13.520  67.642  1.00  0.00    -0.239 C  
BRANCH   9  10
HETATM   10  C   UNL     1     -10.841  13.214  66.232  1.00  0.00    -0.292 A  
HETATM   11  C   UNL     1     -12.011  13.821  65.742  1.00  0.00    -0.423 A  
HETATM   12  C   UNL     1     -10.145  12.331  65.388  1.00  0.00    -0.292 A  
HETATM   13  C   UNL     1     -12.459  13.568  64.441  1.00  0.00    -0.324 A  
HETATM   14  C   UNL     1     -11.753  12.697  63.617  1.00  0.00    -0.597 A  
HETATM   15  C   UNL     1     -10.600  12.077  64.092  1.00  0.00    -0.398 A  
ENDBRANCH   9  10
BRANCH   9  16
HETATM   16  C   UNL     1      -8.822  13.577  67.746  1.00  0.00    -0.198 A  
HETATM   17  C   UNL     1      -6.730  12.538  68.445  1.00  0.00    -0.081 A  
HETATM   18  C   UNL     1      -6.689  14.736  67.462  1.00  0.00    -0.157 A  
HETATM   19  C   UNL     1      -8.121  12.492  68.299  1.00  0.00    -0.165 A  
HETATM   20  C   UNL     1      -8.075  14.686  67.303  1.00  0.00    -0.230 A  
HETATM   21  C   UNL     1      -6.017  13.665  68.040  1.00  0.00    -0.133 A  
ENDBRANCH   9  16
ENDBRANCH   7   9
ENDBRANCH   6   7
ENDBRANCH   2   6
TORSDOF 5
ENDMDL
MODEL      155
REMARK 921   NORMALIZED FREE ENERGY PREDICTED BY IDOCK:   -3.61 KCAL/MOL
REMARK 922        TOTAL FREE ENERGY PREDICTED BY IDOCK:   -5.68 KCAL/MOL
REMARK 923 INTER-LIGAND FREE ENERGY PREDICTED BY IDOCK:   -4.94 KCAL/MOL
REMARK 924 INTRA-LIGAND FREE ENERGY PREDICTED BY IDOCK:   -0.74 KCAL/MOL
REMARK 927      BINDING AFFINITY PREDICTED BY RF-SCORE:    0.00 PKD
ROOT
HETATM    1  N   UNL     1     -11.341   8.428  69.758  1.00  0.00    -0.445 N  
HETATM    2  C   UNL     1     -10.210   9.190  69.634  1.00  0.00    -0.203 C  
HETATM    3  H1  UNL     1     -11.753   7.966  68.947  1.00  0.00     0.000 HD 
HETATM    4  H2  UNL     1     -11.777   8.320  70.674  1.00  0.00     0.000 HD 
HETATM    5  O   UNL     1      -9.714   9.745  70.609  1.00  0.00    -0.228 OA 
ENDROOT
BRANCH   2   6
HETATM    6  C   UNL     1      -9.653   9.317  68.230  1.00  0.00    -0.147 C  
BRANCH   6   7
HETATM    7  S   UNL     1     -10.920  10.049  67.165  1.00  0.00     0.008 S  
HETATM    8  O   UNL     1     -11.788  10.910  68.042  1.00  0.00    -0.585 OA 
BRANCH   7   9
HETATM    9  C   UNL     1      -9.847  11.170  66.147  1.00  0.00    -0.225 C  
BRANCH   9  10
HETATM   10  C   UNL     1      -8.721  10.423  65.444  1.00  0.00    -0.193 A  
HETATM   11  C   UNL     1      -9.009   9.549  64.380  1.00  0.00    -0.255 A  
HETATM   12  C   UNL     1      -7.378  10.585  65.828  1.00  0.00    -0.137 A  
HETATM   13  C   UNL     1      -7.984   8.874  63.709  1.00  0.00    -0.154 A  
HETATM   14  C   UNL     1      -6.660   9.052  64.099  1.00  0.00    -0.083 A  
HETATM   15  C   UNL     1      -6.358   9.904  65.159  1.00  0.00    -0.102 A  
ENDBRANCH   9  10
BRANCH   9  16
HETATM   16  C   UNL     1     -10.683  12.031  65.190  1.00  0.00    -0.332 A  
HETATM   17  C   UNL     1     -11.309  14.237  64.363  1.00  0.00    -0.284 A  
HETATM   18  C   UNL     1     -12.401  12.285  63.471  1.00  0.00    -0.670 A  
HETATM   19  C   UNL     1     -10.528  13.427  65.194  1.00  0.00    -0.358 A  
HETATM   20  C   UNL     1     -11.613  11.476  64.290  1.00  0.00    -0.219 A  
HETATM   21  C   UNL     1     -12.255  13.667  63.512  1.00  0.00    -0.329 A  
ENDBRANCH   9  16
ENDBRANCH   7   9
ENDBRANCH   6   7
ENDBRANCH   2   6
TORSDOF 5
ENDMDL
MODEL      156
REMARK 921   NORMALIZED FREE ENERGY PREDICTED BY IDOCK:   -3.60 KCAL/MOL
REMARK 922        TOTAL FREE ENERGY PREDICTED BY IDOCK:   -5.67 KCAL/MOL
REMARK 923 INTER-LIGAND FREE ENERGY PREDICTED BY IDOCK:   -4.80 KCAL/MOL
REMARK 924 INTRA-LIGAND FREE ENERGY PREDICTED BY IDOCK:   -0.87 KCAL/MOL
REMARK 927      BINDING AFFINITY PREDICTED BY RF-SCORE:    0.00 PKD
ROOT
HETATM    1  N   UNL     1     -11.490   8.684  70.112  1.00  0.00    -0.457 N  
HETATM    2  C   UNL     1     -10.250   9.016  69.636  1.00  0.00    -0.206 C  
HETATM    3  H1  UNL     1     -12.251   8.453  69.474  1.00  0.00     0.000 HD 
HETATM    4  H2  UNL     1     -11.655   8.668  71.119  1.00  0.00     0.000 HD 
HETATM    5  O   UNL     1      -9.333   9.294  70.404  1.00  0.00    -0.211 OA 
ENDROOT
BRANCH   2   6
HETATM    6  C   UNL     1     -10.109   9.045  68.128  1.00  0.00    -0.191 C  
BRANCH   6   7
HETATM    7  S   UNL     1     -10.956  10.512  67.492  1.00  0.00    -0.279 S  
HETATM    8  O   UNL     1     -11.471  11.273  68.684  1.00  0.00    -0.243 OA 
BRANCH   7   9
HETATM    9  C   UNL     1      -9.495  11.434  66.815  1.00  0.00    -0.182 C  
BRANCH   9  10
HETATM   10  C   UNL     1      -8.983  10.842  65.508  1.00  0.00    -0.210 A  
HETATM   11  C   UNL     1      -9.858  10.668  64.420  1.00  0.00    -0.395 A  
HETATM   12  C   UNL     1      -7.640  10.460  65.350  1.00  0.00    -0.131 A  
HETATM   13  C   UNL     1      -9.398  10.147  63.206  1.00  0.00    -0.332 A  
HETATM   14  C   UNL     1      -8.063   9.781  63.065  1.00  0.00    -0.146 A  
HETATM   15  C   UNL     1      -7.187   9.934  64.137  1.00  0.00    -0.134 A  
ENDBRANCH   9  10
BRANCH   9  16
HETATM   16  C   UNL     1      -9.776  12.941  66.719  1.00  0.00    -0.246 A  
HETATM   17  C   UNL     1     -11.313  14.754  66.179  1.00  0.00    -0.330 A  
HETATM   18  C   UNL     1      -9.066  15.274  66.872  1.00  0.00    -0.263 A  
HETATM   19  C   UNL     1     -11.045  13.388  66.317  1.00  0.00    -0.305 A  
HETATM   20  C   UNL     1      -8.802  13.912  67.023  1.00  0.00    -0.231 A  
HETATM   21  C   UNL     1     -10.319  15.696  66.444  1.00  0.00    -0.303 A  
ENDBRANCH   9  16
ENDBRANCH   7   9
ENDBRANCH   6   7
ENDBRANCH   2   6
TORSDOF 5
ENDMDL
MODEL      157
REMARK 921   NORMALIZED FREE ENERGY PREDICTED BY IDOCK:   -3.59 KCAL/MOL
REMARK 922        TOTAL FREE ENERGY PREDICTED BY IDOCK:   -5.67 KCAL/MOL
REMARK 923 INTER-LIGAND FREE ENERGY PREDICTED BY IDOCK:   -5.09 KCAL/MOL
REMARK 924 INTRA-LIGAND FREE ENERGY PREDICTED BY IDOCK:   -0.57 KCAL/MOL
REMARK 927      BINDING AFFINITY PREDICTED BY RF-SCORE:    0.00 PKD
ROOT
HETATM    1  N   UNL     1     -10.550  10.277  66.992  1.00  0.00    -0.251 N  
HETATM    2  C   UNL     1     -10.428   8.960  67.343  1.00  0.00    -0.277 C  
HETATM    3  H1  UNL     1     -10.751  10.990  67.694  1.00  0.00     0.000 HD 
HETATM    4  H2  UNL     1     -10.439  10.551  66.015  1.00  0.00     0.000 HD 
HETATM    5  O   UNL     1     -10.186   8.102  66.498  1.00  0.00    -0.279 OA 
ENDROOT
BRANCH   2   6
HETATM    6  C   UNL     1     -10.640   8.646  68.810  1.00  0.00    -0.140 C  
BRANCH   6   7
HETATM    7  S   UNL     1      -9.129   9.055  69.718  1.00  0.00    -0.169 S  
HETATM    8  O   UNL     1      -8.834  10.505  69.448  1.00  0.00    -0.152 OA 
BRANCH   7   9
HETATM    9  C   UNL     1      -9.774   8.917  71.452  1.00  0.00    -0.300 C  
BRANCH   9  10
HETATM   10  C   UNL     1     -11.284   8.727  71.502  1.00  0.00    -0.377 A  
HETATM   11  C   UNL     1     -12.137   9.846  71.531  1.00  0.00    -0.496 A  
HETATM   12  C   UNL     1     -11.865   7.447  71.515  1.00  0.00    -0.327 A  
HETATM   13  C   UNL     1     -13.526   9.688  71.554  1.00  0.00    -0.430 A  
HETATM   14  C   UNL     1     -14.084   8.413  71.559  1.00  0.00    -0.440 A  
HETATM   15  C   UNL     1     -13.254   7.295  71.544  1.00  0.00    -0.434 A  
ENDBRANCH   9  10
BRANCH   9  16
HETATM   16  C   UNL     1      -9.010   7.852  72.253  1.00  0.00    -0.211 A  
HETATM   17  C   UNL     1      -7.626   5.845  72.281  1.00  0.00    -0.101 A  
HETATM   18  C   UNL     1      -8.341   6.819  74.364  1.00  0.00    -0.162 A  
HETATM   19  C   UNL     1      -8.293   6.853  71.575  1.00  0.00    -0.114 A  
HETATM   20  C   UNL     1      -8.995   7.832  73.662  1.00  0.00    -0.335 A  
HETATM   21  C   UNL     1      -7.662   5.821  73.674  1.00  0.00    -0.101 A  
ENDBRANCH   9  16
ENDBRANCH   7   9
ENDBRANCH   6   7
ENDBRANCH   2   6
TORSDOF 5
ENDMDL
MODEL      158
REMARK 921   NORMALIZED FREE ENERGY PREDICTED BY IDOCK:   -3.59 KCAL/MOL
REMARK 922        TOTAL FREE ENERGY PREDICTED BY IDOCK:   -5.66 KCAL/MOL
REMARK 923 INTER-LIGAND FREE ENERGY PREDICTED BY IDOCK:   -5.89 KCAL/MOL
REMARK 924 INTRA-LIGAND FREE ENERGY PREDICTED BY IDOCK:    0.23 KCAL/MOL
REMARK 927      BINDING AFFINITY PREDICTED BY RF-SCORE:    0.00 PKD
ROOT
HETATM    1  N   UNL     1     -12.746  15.920  71.491  1.00  0.00    -0.522 N  
HETATM    2  C   UNL     1     -11.908  15.095  70.789  1.00  0.00    -0.324 C  
HETATM    3  H1  UNL     1     -12.604  16.930  71.496  1.00  0.00     0.000 HD 
HETATM    4  H2  UNL     1     -13.523  15.519  72.017  1.00  0.00     0.000 HD 
HETATM    5  O   UNL     1     -12.079  13.879  70.783  1.00  0.00    -0.334 OA 
ENDROOT
BRANCH   2   6
HETATM    6  C   UNL     1     -10.765  15.778  70.067  1.00  0.00    -0.341 C  
BRANCH   6   7
HETATM    7  S   UNL     1     -10.383  14.843  68.565  1.00  0.00    -0.243 S  
HETATM    8  O   UNL     1     -11.568  14.983  67.648  1.00  0.00    -0.339 OA 
BRANCH   7   9
HETATM    9  C   UNL     1      -9.014  15.899  67.892  1.00  0.00    -0.181 C  
BRANCH   9  10
HETATM   10  C   UNL     1      -9.470  17.318  67.576  1.00  0.00    -0.245 A  
HETATM   11  C   UNL     1      -9.463  18.303  68.580  1.00  0.00    -0.346 A  
HETATM   12  C   UNL     1      -9.902  17.682  66.289  1.00  0.00    -0.297 A  
HETATM   13  C   UNL     1      -9.857  19.616  68.299  1.00  0.00    -0.521 A  
HETATM   14  C   UNL     1     -10.275  19.959  67.017  1.00  0.00    -0.588 A  
HETATM   15  C   UNL     1     -10.301  18.993  66.015  1.00  0.00    -0.512 A  
ENDBRANCH   9  10
BRANCH   9  16
HETATM   16  C   UNL     1      -7.775  15.858  68.799  1.00  0.00    -0.181 A  
HETATM   17  C   UNL     1      -5.883  17.012  69.813  1.00  0.00    -0.219 A  
HETATM   18  C   UNL     1      -6.173  14.653  70.196  1.00  0.00    -0.165 A  
HETATM   19  C   UNL     1      -7.040  17.033  69.028  1.00  0.00    -0.233 A  
HETATM   20  C   UNL     1      -7.335  14.675  69.424  1.00  0.00    -0.135 A  
HETATM   21  C   UNL     1      -5.442  15.820  70.386  1.00  0.00    -0.157 A  
ENDBRANCH   9  16
ENDBRANCH   7   9
ENDBRANCH   6   7
ENDBRANCH   2   6
TORSDOF 5
ENDMDL
MODEL      159
REMARK 921   NORMALIZED FREE ENERGY PREDICTED BY IDOCK:   -3.55 KCAL/MOL
REMARK 922        TOTAL FREE ENERGY PREDICTED BY IDOCK:   -5.61 KCAL/MOL
REMARK 923 INTER-LIGAND FREE ENERGY PREDICTED BY IDOCK:   -4.95 KCAL/MOL
REMARK 924 INTRA-LIGAND FREE ENERGY PREDICTED BY IDOCK:   -0.66 KCAL/MOL
REMARK 927      BINDING AFFINITY PREDICTED BY RF-SCORE:    0.00 PKD
ROOT
HETATM    1  N   UNL     1      -8.265   9.025  66.757  1.00  0.00    -0.114 N  
HETATM    2  C   UNL     1      -9.601   9.054  66.459  1.00  0.00    -0.223 C  
HETATM    3  H1  UNL     1      -7.932   8.610  67.627  1.00  0.00     0.000 HD 
HETATM    4  H2  UNL     1      -7.594   9.423  66.100  1.00  0.00     0.000 HD 
HETATM    5  O   UNL     1     -10.003   9.553  65.411  1.00  0.00    -0.284 OA 
ENDROOT
BRANCH   2   6
HETATM    6  C   UNL     1     -10.523   8.469  67.509  1.00  0.00    -0.258 C  
BRANCH   6   7
HETATM    7  S   UNL     1     -10.552   6.669  67.321  1.00  0.00    -0.363 S  
HETATM    8  O   UNL     1      -9.598   6.329  66.208  1.00  0.00    -0.153 OA 
BRANCH   7   9
HETATM    9  C   UNL     1      -9.752   6.186  68.925  1.00  0.00    -0.130 C  
BRANCH   9  10
HETATM   10  C   UNL     1     -10.436   6.814  70.132  1.00  0.00    -0.240 A  
HETATM   11  C   UNL     1      -9.708   7.642  71.006  1.00  0.00    -0.169 A  
HETATM   12  C   UNL     1     -11.797   6.592  70.404  1.00  0.00    -0.407 A  
HETATM   13  C   UNL     1     -10.328   8.244  72.106  1.00  0.00    -0.370 A  
HETATM   14  C   UNL     1     -11.678   8.019  72.356  1.00  0.00    -0.444 A  
HETATM   15  C   UNL     1     -12.410   7.191  71.508  1.00  0.00    -0.406 A  
ENDBRANCH   9  10
BRANCH   9  16
HETATM   16  C   UNL     1      -9.607   4.662  69.044  1.00  0.00    -0.242 A  
HETATM   17  C   UNL     1      -9.404   2.682  70.451  1.00  0.00    -0.212 A  
HETATM   18  C   UNL     1      -9.311   2.447  68.056  1.00  0.00    -0.253 A  
HETATM   19  C   UNL     1      -9.579   4.063  70.314  1.00  0.00    -0.271 A  
HETATM   20  C   UNL     1      -9.500   3.823  67.918  1.00  0.00    -0.224 A  
HETATM   21  C   UNL     1      -9.256   1.877  69.322  1.00  0.00    -0.185 A  
ENDBRANCH   9  16
ENDBRANCH   7   9
ENDBRANCH   6   7
ENDBRANCH   2   6
TORSDOF 5
ENDMDL
MODEL      160
REMARK 921   NORMALIZED FREE ENERGY PREDICTED BY IDOCK:   -3.49 KCAL/MOL
REMARK 922        TOTAL FREE ENERGY PREDICTED BY IDOCK:   -5.53 KCAL/MOL
REMARK 923 INTER-LIGAND FREE ENERGY PREDICTED BY IDOCK:   -4.41 KCAL/MOL
REMARK 924 INTRA-LIGAND FREE ENERGY PREDICTED BY IDOCK:   -1.12 KCAL/MOL
REMARK 927      BINDING AFFINITY PREDICTED BY RF-SCORE:    0.00 PKD
ROOT
HETATM    1  N   UNL     1      -8.803   3.854  65.131  1.00  0.00    -0.122 N  
HETATM    2  C   UNL     1      -9.758   4.195  66.050  1.00  0.00    -0.205 C  
HETATM    3  H1  UNL     1      -7.938   3.395  65.418  1.00  0.00     0.000 HD 
HETATM    4  H2  UNL     1      -8.958   4.062  64.144  1.00  0.00     0.000 HD 
HETATM    5  O   UNL     1     -10.798   4.747  65.704  1.00  0.00    -0.274 OA 
ENDROOT
BRANCH   2   6
HETATM    6  C   UNL     1      -9.425   3.876  67.494  1.00  0.00    -0.190 C  
BRANCH   6   7
HETATM    7  S   UNL     1      -8.582   5.301  68.225  1.00  0.00    -0.098 S  
HETATM    8  O   UNL     1      -7.832   5.985  67.115  1.00  0.00    -0.100 OA 
BRANCH   7   9
HETATM    9  C   UNL     1     -10.060   6.344  68.642  1.00  0.00    -0.158 C  
BRANCH   9  10
HETATM   10  C   UNL     1     -10.577   6.089  70.052  1.00  0.00    -0.340 A  
HETATM   11  C   UNL     1     -11.756   6.715  70.496  1.00  0.00    -0.453 A  
HETATM   12  C   UNL     1      -9.905   5.230  70.938  1.00  0.00    -0.257 A  
HETATM   13  C   UNL     1     -12.256   6.473  71.780  1.00  0.00    -0.374 A  
HETATM   14  C   UNL     1     -11.581   5.613  72.641  1.00  0.00    -0.307 A  
HETATM   15  C   UNL     1     -10.405   4.996  72.222  1.00  0.00    -0.267 A  
ENDBRANCH   9  10
BRANCH   9  16
HETATM   16  C   UNL     1      -9.796   7.830  68.361  1.00  0.00    -0.180 A  
HETATM   17  C   UNL     1     -10.134   9.786  66.945  1.00  0.00    -0.287 A  
HETATM   18  C   UNL     1      -8.700   9.953  68.873  1.00  0.00    -0.140 A  
HETATM   19  C   UNL     1     -10.393   8.445  67.248  1.00  0.00    -0.369 A  
HETATM   20  C   UNL     1      -8.969   8.620  69.184  1.00  0.00    -0.142 A  
HETATM   21  C   UNL     1      -9.277  10.535  67.750  1.00  0.00    -0.151 A  
ENDBRANCH   9  16
ENDBRANCH   7   9
ENDBRANCH   6   7
ENDBRANCH   2   6
TORSDOF 5
ENDMDL
MODEL      161
REMARK 921   NORMALIZED FREE ENERGY PREDICTED BY IDOCK:   -3.49 KCAL/MOL
REMARK 922        TOTAL FREE ENERGY PREDICTED BY IDOCK:   -5.53 KCAL/MOL
REMARK 923 INTER-LIGAND FREE ENERGY PREDICTED BY IDOCK:   -4.70 KCAL/MOL
REMARK 924 INTRA-LIGAND FREE ENERGY PREDICTED BY IDOCK:   -0.83 KCAL/MOL
REMARK 927      BINDING AFFINITY PREDICTED BY RF-SCORE:    0.00 PKD
ROOT
HETATM    1  N   UNL     1     -10.080   5.467  65.864  1.00  0.00    -0.397 N  
HETATM    2  C   UNL     1      -9.089   5.516  66.808  1.00  0.00    -0.118 C  
HETATM    3  H1  UNL     1     -10.580   6.312  65.585  1.00  0.00     0.000 HD 
HETATM    4  H2  UNL     1     -10.323   4.574  65.434  1.00  0.00     0.000 HD 
HETATM    5  O   UNL     1      -8.488   4.500  67.144  1.00  0.00    -0.105 OA 
ENDROOT
BRANCH   2   6
HETATM    6  C   UNL     1      -8.822   6.879  67.412  1.00  0.00    -0.118 C  
BRANCH   6   7
HETATM    7  S   UNL     1     -10.397   7.607  67.926  1.00  0.00    -0.206 S  
HETATM    8  O   UNL     1     -11.236   6.490  68.486  1.00  0.00    -0.285 OA 
BRANCH   7   9
HETATM    9  C   UNL     1      -9.802   8.640  69.348  1.00  0.00    -0.184 C  
BRANCH   9  10
HETATM   10  C   UNL     1      -8.904   9.787  68.903  1.00  0.00    -0.140 A  
HETATM   11  C   UNL     1      -7.852  10.224  69.729  1.00  0.00    -0.151 A  
HETATM   12  C   UNL     1      -9.093  10.433  67.669  1.00  0.00    -0.143 A  
HETATM   13  C   UNL     1      -7.005  11.260  69.324  1.00  0.00    -0.119 A  
HETATM   14  C   UNL     1      -7.203  11.883  68.095  1.00  0.00    -0.085 A  
HETATM   15  C   UNL     1      -8.248  11.472  67.271  1.00  0.00    -0.155 A  
ENDBRANCH   9  10
BRANCH   9  16
HETATM   16  C   UNL     1     -10.968   9.102  70.235  1.00  0.00    -0.279 A  
HETATM   17  C   UNL     1     -12.577  10.828  70.847  1.00  0.00    -0.498 A  
HETATM   18  C   UNL     1     -12.518   8.769  72.093  1.00  0.00    -0.460 A  
HETATM   19  C   UNL     1     -11.543  10.366  70.025  1.00  0.00    -0.378 A  
HETATM   20  C   UNL     1     -11.497   8.302  71.266  1.00  0.00    -0.314 A  
HETATM   21  C   UNL     1     -13.054  10.035  71.889  1.00  0.00    -0.563 A  
ENDBRANCH   9  16
ENDBRANCH   7   9
ENDBRANCH   6   7
ENDBRANCH   2   6
TORSDOF 5
ENDMDL
MODEL      162
REMARK 921   NORMALIZED FREE ENERGY PREDICTED BY IDOCK:   -3.49 KCAL/MOL
REMARK 922        TOTAL FREE ENERGY PREDICTED BY IDOCK:   -5.53 KCAL/MOL
REMARK 923 INTER-LIGAND FREE ENERGY PREDICTED BY IDOCK:   -4.75 KCAL/MOL
REMARK 924 INTRA-LIGAND FREE ENERGY PREDICTED BY IDOCK:   -0.77 KCAL/MOL
REMARK 927      BINDING AFFINITY PREDICTED BY RF-SCORE:    0.00 PKD
ROOT
HETATM    1  N   UNL     1     -11.355  13.562  67.873  1.00  0.00    -0.273 N  
HETATM    2  C   UNL     1     -10.289  12.806  67.467  1.00  0.00    -0.219 C  
HETATM    3  H1  UNL     1     -11.852  13.346  68.738  1.00  0.00     0.000 HD 
HETATM    4  H2  UNL     1     -11.657  14.354  67.304  1.00  0.00     0.000 HD 
HETATM    5  O   UNL     1      -9.691  13.066  66.427  1.00  0.00    -0.260 OA 
ENDROOT
BRANCH   2   6
HETATM    6  C   UNL     1      -9.935  11.634  68.360  1.00  0.00    -0.201 C  
BRANCH   6   7
HETATM    7  S   UNL     1     -10.905  10.195  67.845  1.00  0.00    -0.275 S  
HETATM    8  O   UNL     1     -10.668  10.011  66.370  1.00  0.00    -0.118 OA 
BRANCH   7   9
HETATM    9  C   UNL     1      -9.972   8.866  68.743  1.00  0.00    -0.184 C  
BRANCH   9  10
HETATM   10  C   UNL     1     -10.547   8.579  70.124  1.00  0.00    -0.238 A  
HETATM   11  C   UNL     1     -11.617   9.347  70.618  1.00  0.00    -0.330 A  
HETATM   12  C   UNL     1     -10.037   7.549  70.933  1.00  0.00    -0.192 A  
HETATM   13  C   UNL     1     -12.171   9.080  71.875  1.00  0.00    -0.451 A  
HETATM   14  C   UNL     1     -11.657   8.052  72.659  1.00  0.00    -0.448 A  
HETATM   15  C   UNL     1     -10.590   7.290  72.191  1.00  0.00    -0.242 A  
ENDBRANCH   9  10
BRANCH   9  16
HETATM   16  C   UNL     1      -9.824   7.603  67.882  1.00  0.00    -0.190 A  
HETATM   17  C   UNL     1      -8.406   6.120  66.566  1.00  0.00    -0.113 A  
HETATM   18  C   UNL     1     -10.765   5.667  66.727  1.00  0.00    -0.358 A  
HETATM   19  C   UNL     1      -8.560   7.240  67.390  1.00  0.00    -0.121 A  
HETATM   20  C   UNL     1     -10.918   6.776  67.559  1.00  0.00    -0.375 A  
HETATM   21  C   UNL     1      -9.511   5.341  66.225  1.00  0.00    -0.166 A  
ENDBRANCH   9  16
ENDBRANCH   7   9
ENDBRANCH   6   7
ENDBRANCH   2   6
TORSDOF 5
ENDMDL
MODEL      163
REMARK 921   NORMALIZED FREE ENERGY PREDICTED BY IDOCK:   -3.48 KCAL/MOL
REMARK 922        TOTAL FREE ENERGY PREDICTED BY IDOCK:   -5.52 KCAL/MOL
REMARK 923 INTER-LIGAND FREE ENERGY PREDICTED BY IDOCK:   -5.06 KCAL/MOL
REMARK 924 INTRA-LIGAND FREE ENERGY PREDICTED BY IDOCK:   -0.46 KCAL/MOL
REMARK 927      BINDING AFFINITY PREDICTED BY RF-SCORE:    0.00 PKD
ROOT
HETATM    1  N   UNL     1      -9.340   6.299  65.676  1.00  0.00    -0.376 N  
HETATM    2  C   UNL     1      -8.727   5.879  66.825  1.00  0.00    -0.117 C  
HETATM    3  H1  UNL     1      -9.705   7.248  65.594  1.00  0.00     0.000 HD 
HETATM    4  H2  UNL     1      -9.433   5.655  64.890  1.00  0.00     0.000 HD 
HETATM    5  O   UNL     1      -8.287   4.737  66.924  1.00  0.00    -0.107 OA 
ENDROOT
BRANCH   2   6
HETATM    6  C   UNL     1      -8.664   6.895  67.947  1.00  0.00    -0.121 C  
BRANCH   6   7
HETATM    7  S   UNL     1     -10.339   7.488  68.291  1.00  0.00    -0.182 S  
HETATM    8  O   UNL     1     -11.283   6.381  67.906  1.00  0.00    -0.319 OA 
BRANCH   7   9
HETATM    9  C   UNL     1     -10.261   7.553  70.144  1.00  0.00    -0.206 C  
BRANCH   9  10
HETATM   10  C   UNL     1     -11.579   7.990  70.770  1.00  0.00    -0.251 A  
HETATM   11  C   UNL     1     -11.842   9.356  70.981  1.00  0.00    -0.396 A  
HETATM   12  C   UNL     1     -12.560   7.057  71.146  1.00  0.00    -0.387 A  
HETATM   13  C   UNL     1     -13.057   9.775  71.534  1.00  0.00    -0.506 A  
HETATM   14  C   UNL     1     -14.020   8.837  71.893  1.00  0.00    -0.493 A  
HETATM   15  C   UNL     1     -13.770   7.480  71.703  1.00  0.00    -0.465 A  
ENDBRANCH   9  10
BRANCH   9  16
HETATM   16  C   UNL     1      -9.728   6.238  70.731  1.00  0.00    -0.202 A  
HETATM   17  C   UNL     1      -8.153   5.082  72.188  1.00  0.00    -0.112 A  
HETATM   18  C   UNL     1      -9.703   3.798  70.867  1.00  0.00    -0.248 A  
HETATM   19  C   UNL     1      -8.686   6.268  71.673  1.00  0.00    -0.134 A  
HETATM   20  C   UNL     1     -10.245   4.980  70.362  1.00  0.00    -0.324 A  
HETATM   21  C   UNL     1      -8.652   3.848  71.775  1.00  0.00    -0.114 A  
ENDBRANCH   9  16
ENDBRANCH   7   9
ENDBRANCH   6   7
ENDBRANCH   2   6
TORSDOF 5
ENDMDL
MODEL      164
REMARK 921   NORMALIZED FREE ENERGY PREDICTED BY IDOCK:   -3.48 KCAL/MOL
REMARK 922        TOTAL FREE ENERGY PREDICTED BY IDOCK:   -5.52 KCAL/MOL
REMARK 923 INTER-LIGAND FREE ENERGY PREDICTED BY IDOCK:   -5.33 KCAL/MOL
REMARK 924 INTRA-LIGAND FREE ENERGY PREDICTED BY IDOCK:   -0.19 KCAL/MOL
REMARK 927      BINDING AFFINITY PREDICTED BY RF-SCORE:    0.00 PKD
ROOT
HETATM    1  N   UNL     1      -6.504  12.539  70.140  1.00  0.00    -0.365 N  
HETATM    2  C   UNL     1      -6.523  11.417  69.356  1.00  0.00    -0.108 C  
HETATM    3  H1  UNL     1      -7.348  13.095  70.280  1.00  0.00     0.000 HD 
HETATM    4  H2  UNL     1      -5.634  12.823  70.592  1.00  0.00     0.000 HD 
HETATM    5  O   UNL     1      -5.508  10.748  69.188  1.00  0.00    -0.041 OA 
ENDROOT
BRANCH   2   6
HETATM    6  C   UNL     1      -7.851  11.094  68.702  1.00  0.00    -0.138 C  
BRANCH   6   7
HETATM    7  S   UNL     1      -8.632   9.736  69.609  1.00  0.00    -0.204 S  
HETATM    8  O   UNL     1      -7.791   9.485  70.832  1.00  0.00    -0.299 OA 
BRANCH   7   9
HETATM    9  C   UNL     1     -10.186  10.592  70.153  1.00  0.00     0.139 C  
BRANCH   9  10
HETATM   10  C   UNL     1     -10.787  11.464  69.059  1.00  0.00    -0.265 A  
HETATM   11  C   UNL     1     -10.690  11.074  67.710  1.00  0.00    -0.270 A  
HETATM   12  C   UNL     1     -11.452  12.666  69.358  1.00  0.00    -0.330 A  
HETATM   13  C   UNL     1     -11.257  11.853  66.696  1.00  0.00    -0.384 A  
HETATM   14  C   UNL     1     -11.917  13.037  67.012  1.00  0.00    -0.409 A  
HETATM   15  C   UNL     1     -12.011  13.444  68.341  1.00  0.00    -0.359 A  
ENDBRANCH   9  10
BRANCH   9  16
HETATM   16  C   UNL     1     -11.196   9.599  70.748  1.00  0.00    -0.403 A  
HETATM   17  C   UNL     1     -11.808   7.299  71.278  1.00  0.00    -0.340 A  
HETATM   18  C   UNL     1     -13.360   9.077  71.755  1.00  0.00    -0.453 A  
HETATM   19  C   UNL     1     -10.887   8.229  70.782  1.00  0.00    -0.252 A  
HETATM   20  C   UNL     1     -12.438  10.006  71.273  1.00  0.00    -0.494 A  
HETATM   21  C   UNL     1     -13.049   7.723  71.751  1.00  0.00    -0.353 A  
ENDBRANCH   9  16
ENDBRANCH   7   9
ENDBRANCH   6   7
ENDBRANCH   2   6
TORSDOF 5
ENDMDL
MODEL      165
REMARK 921   NORMALIZED FREE ENERGY PREDICTED BY IDOCK:   -3.45 KCAL/MOL
REMARK 922        TOTAL FREE ENERGY PREDICTED BY IDOCK:   -5.49 KCAL/MOL
REMARK 923 INTER-LIGAND FREE ENERGY PREDICTED BY IDOCK:   -5.06 KCAL/MOL
REMARK 924 INTRA-LIGAND FREE ENERGY PREDICTED BY IDOCK:   -0.43 KCAL/MOL
REMARK 927      BINDING AFFINITY PREDICTED BY RF-SCORE:    0.00 PKD
ROOT
HETATM    1  N   UNL     1     -12.818  15.702  69.831  1.00  0.00    -0.596 N  
HETATM    2  C   UNL     1     -11.722  14.968  70.196  1.00  0.00    -0.299 C  
HETATM    3  H1  UNL     1     -12.998  15.924  68.852  1.00  0.00     0.000 HD 
HETATM    4  H2  UNL     1     -13.465  16.032  70.548  1.00  0.00     0.000 HD 
HETATM    5  O   UNL     1     -11.506  14.700  71.374  1.00  0.00    -0.258 OA 
ENDROOT
BRANCH   2   6
HETATM    6  C   UNL     1     -10.803  14.551  69.066  1.00  0.00    -0.254 C  
BRANCH   6   7
HETATM    7  S   UNL     1     -11.751  13.569  67.877  1.00  0.00    -0.365 S  
HETATM    8  O   UNL     1     -12.683  14.515  67.170  1.00  0.00     0.169 OA 
BRANCH   7   9
HETATM    9  C   UNL     1     -10.387  13.125  66.698  1.00  0.00    -0.265 C  
BRANCH   9  10
HETATM   10  C   UNL     1      -9.083  13.843  67.016  1.00  0.00    -0.259 A  
HETATM   11  C   UNL     1      -8.929  15.205  66.697  1.00  0.00    -0.319 A  
HETATM   12  C   UNL     1      -8.008  13.179  67.633  1.00  0.00    -0.174 A  
HETATM   13  C   UNL     1      -7.745  15.884  67.004  1.00  0.00    -0.268 A  
HETATM   14  C   UNL     1      -6.695  15.212  67.621  1.00  0.00    -0.201 A  
HETATM   15  C   UNL     1      -6.825  13.860  67.932  1.00  0.00    -0.166 A  
ENDBRANCH   9  10
BRANCH   9  16
HETATM   16  C   UNL     1     -10.220  11.603  66.580  1.00  0.00    -0.249 A  
HETATM   17  C   UNL     1      -9.542   9.667  65.263  1.00  0.00    -0.347 A  
HETATM   18  C   UNL     1     -10.492   9.336  67.451  1.00  0.00    -0.340 A  
HETATM   19  C   UNL     1      -9.665  11.053  65.413  1.00  0.00    -0.279 A  
HETATM   20  C   UNL     1     -10.602  10.718  67.607  1.00  0.00    -0.271 A  
HETATM   21  C   UNL     1      -9.968   8.809  66.276  1.00  0.00    -0.315 A  
ENDBRANCH   9  16
ENDBRANCH   7   9
ENDBRANCH   6   7
ENDBRANCH   2   6
TORSDOF 5
ENDMDL
MODEL      166
REMARK 921   NORMALIZED FREE ENERGY PREDICTED BY IDOCK:   -3.44 KCAL/MOL
REMARK 922        TOTAL FREE ENERGY PREDICTED BY IDOCK:   -5.47 KCAL/MOL
REMARK 923 INTER-LIGAND FREE ENERGY PREDICTED BY IDOCK:   -4.83 KCAL/MOL
REMARK 924 INTRA-LIGAND FREE ENERGY PREDICTED BY IDOCK:   -0.64 KCAL/MOL
REMARK 927      BINDING AFFINITY PREDICTED BY RF-SCORE:    0.00 PKD
ROOT
HETATM    1  N   UNL     1      -9.082  12.140  65.608  1.00  0.00    -0.429 N  
HETATM    2  C   UNL     1      -9.381  12.401  66.918  1.00  0.00    -0.213 C  
HETATM    3  H1  UNL     1      -8.832  11.198  65.305  1.00  0.00     0.000 HD 
HETATM    4  H2  UNL     1      -9.111  12.897  64.924  1.00  0.00     0.000 HD 
HETATM    5  O   UNL     1      -9.683  13.534  67.282  1.00  0.00    -0.225 OA 
ENDROOT
BRANCH   2   6
HETATM    6  C   UNL     1      -9.281  11.222  67.864  1.00  0.00    -0.157 C  
BRANCH   6   7
HETATM    7  S   UNL     1     -10.598  10.046  67.469  1.00  0.00    -0.285 S  
HETATM    8  O   UNL     1     -10.165   9.299  66.237  1.00  0.00    -0.273 OA 
BRANCH   7   9
HETATM    9  C   UNL     1     -10.424   8.901  68.920  1.00  0.00    -0.205 C  
BRANCH   9  10
HETATM   10  C   UNL     1      -8.979   8.750  69.376  1.00  0.00    -0.145 A  
HETATM   11  C   UNL     1      -8.074   7.988  68.614  1.00  0.00    -0.125 A  
HETATM   12  C   UNL     1      -8.511   9.361  70.552  1.00  0.00    -0.251 A  
HETATM   13  C   UNL     1      -6.738   7.859  69.007  1.00  0.00    -0.049 A  
HETATM   14  C   UNL     1      -6.290   8.477  70.171  1.00  0.00    -0.038 A  
HETATM   15  C   UNL     1      -7.176   9.224  70.944  1.00  0.00    -0.113 A  
ENDBRANCH   9  10
BRANCH   9  16
HETATM   16  C   UNL     1     -11.374   9.293  70.062  1.00  0.00    -0.137 A  
HETATM   17  C   UNL     1     -12.716  10.993  71.179  1.00  0.00    -0.521 A  
HETATM   18  C   UNL     1     -12.582   8.782  72.123  1.00  0.00    -0.463 A  
HETATM   19  C   UNL     1     -11.885  10.599  70.125  1.00  0.00    -0.421 A  
HETATM   20  C   UNL     1     -11.764   8.385  71.065  1.00  0.00    -0.296 A  
HETATM   21  C   UNL     1     -13.053  10.089  72.185  1.00  0.00    -0.482 A  
ENDBRANCH   9  16
ENDBRANCH   7   9
ENDBRANCH   6   7
ENDBRANCH   2   6
TORSDOF 5
ENDMDL
MODEL      167
REMARK 921   NORMALIZED FREE ENERGY PREDICTED BY IDOCK:   -3.44 KCAL/MOL
REMARK 922        TOTAL FREE ENERGY PREDICTED BY IDOCK:   -5.47 KCAL/MOL
REMARK 923 INTER-LIGAND FREE ENERGY PREDICTED BY IDOCK:   -5.27 KCAL/MOL
REMARK 924 INTRA-LIGAND FREE ENERGY PREDICTED BY IDOCK:   -0.20 KCAL/MOL
REMARK 927      BINDING AFFINITY PREDICTED BY RF-SCORE:    0.00 PKD
ROOT
HETATM    1  N   UNL     1      -9.193   5.768  67.314  1.00  0.00    -0.110 N  
HETATM    2  C   UNL     1      -8.230   5.809  68.286  1.00  0.00    -0.108 C  
HETATM    3  H1  UNL     1     -10.163   6.000  67.527  1.00  0.00     0.000 HD 
HETATM    4  H2  UNL     1      -8.937   5.503  66.362  1.00  0.00     0.000 HD 
HETATM    5  O   UNL     1      -7.062   5.532  68.029  1.00  0.00    -0.064 OA 
ENDROOT
BRANCH   2   6
HETATM    6  C   UNL     1      -8.711   6.183  69.674  1.00  0.00    -0.135 C  
BRANCH   6   7
HETATM    7  S   UNL     1     -10.193   7.210  69.520  1.00  0.00    -0.201 S  
HETATM    8  O   UNL     1     -11.378   6.285  69.599  1.00  0.00    -0.405 OA 
BRANCH   7   9
HETATM    9  C   UNL     1     -10.085   8.137  71.124  1.00  0.00    -0.184 C  
BRANCH   9  10
HETATM   10  C   UNL     1     -11.137   9.232  71.239  1.00  0.00    -0.427 A  
HETATM   11  C   UNL     1     -10.956  10.458  70.572  1.00  0.00    -0.270 A  
HETATM   12  C   UNL     1     -12.305   9.054  71.999  1.00  0.00    -0.455 A  
HETATM   13  C   UNL     1     -11.924  11.465  70.649  1.00  0.00    -0.413 A  
HETATM   14  C   UNL     1     -13.078  11.268  71.401  1.00  0.00    -0.395 A  
HETATM   15  C   UNL     1     -13.266  10.065  72.078  1.00  0.00    -0.545 A  
ENDBRANCH   9  10
BRANCH   9  16
HETATM   16  C   UNL     1     -10.082   7.181  72.326  1.00  0.00    -0.202 A  
HETATM   17  C   UNL     1     -11.038   5.253  73.471  1.00  0.00    -0.316 A  
HETATM   18  C   UNL     1      -9.251   6.483  74.515  1.00  0.00    -0.228 A  
HETATM   19  C   UNL     1     -10.991   6.111  72.367  1.00  0.00    -0.299 A  
HETATM   20  C   UNL     1      -9.193   7.331  73.409  1.00  0.00    -0.227 A  
HETATM   21  C   UNL     1     -10.178   5.448  74.550  1.00  0.00    -0.293 A  
ENDBRANCH   9  16
ENDBRANCH   7   9
ENDBRANCH   6   7
ENDBRANCH   2   6
TORSDOF 5
ENDMDL
MODEL      168
REMARK 921   NORMALIZED FREE ENERGY PREDICTED BY IDOCK:   -3.40 KCAL/MOL
REMARK 922        TOTAL FREE ENERGY PREDICTED BY IDOCK:   -5.41 KCAL/MOL
REMARK 923 INTER-LIGAND FREE ENERGY PREDICTED BY IDOCK:   -5.80 KCAL/MOL
REMARK 924 INTRA-LIGAND FREE ENERGY PREDICTED BY IDOCK:    0.39 KCAL/MOL
REMARK 927      BINDING AFFINITY PREDICTED BY RF-SCORE:    0.00 PKD
ROOT
HETATM    1  N   UNL     1      -9.265  10.519  66.961  1.00  0.00    -0.150 N  
HETATM    2  C   UNL     1      -9.669  10.836  68.231  1.00  0.00    -0.164 C  
HETATM    3  H1  UNL     1      -9.057  11.249  66.280  1.00  0.00     0.000 HD 
HETATM    4  H2  UNL     1      -9.172   9.539  66.693  1.00  0.00     0.000 HD 
HETATM    5  O   UNL     1      -9.920   9.958  69.051  1.00  0.00    -0.170 OA 
ENDROOT
BRANCH   2   6
HETATM    6  C   UNL     1      -9.809  12.316  68.526  1.00  0.00    -0.153 C  
BRANCH   6   7
HETATM    7  S   UNL     1     -10.900  13.056  67.286  1.00  0.00    -0.256 S  
HETATM    8  O   UNL     1     -12.061  12.116  67.105  1.00  0.00    -0.575 OA 
BRANCH   7   9
HETATM    9  C   UNL     1     -11.500  14.523  68.252  1.00  0.00    -0.311 C  
BRANCH   9  10
HETATM   10  C   UNL     1     -12.108  14.133  69.592  1.00  0.00    -0.400 A  
HETATM   11  C   UNL     1     -12.642  15.120  70.441  1.00  0.00    -0.405 A  
HETATM   12  C   UNL     1     -12.157  12.794  70.016  1.00  0.00    -0.355 A  
HETATM   13  C   UNL     1     -13.224  14.774  71.665  1.00  0.00    -0.431 A  
HETATM   14  C   UNL     1     -13.270  13.442  72.065  1.00  0.00    -0.531 A  
HETATM   15  C   UNL     1     -12.734  12.454  71.242  1.00  0.00    -0.347 A  
ENDBRANCH   9  10
BRANCH   9  16
HETATM   16  C   UNL     1     -10.410  15.597  68.379  1.00  0.00    -0.231 A  
HETATM   17  C   UNL     1      -9.604  17.836  67.849  1.00  0.00    -0.280 A  
HETATM   18  C   UNL     1      -8.209  16.348  69.127  1.00  0.00    -0.189 A  
HETATM   19  C   UNL     1     -10.601  16.856  67.786  1.00  0.00    -0.340 A  
HETATM   20  C   UNL     1      -9.207  15.374  69.076  1.00  0.00    -0.235 A  
HETATM   21  C   UNL     1      -8.404  17.577  68.508  1.00  0.00    -0.274 A  
ENDBRANCH   9  16
ENDBRANCH   7   9
ENDBRANCH   6   7
ENDBRANCH   2   6
TORSDOF 5
ENDMDL
MODEL      169
REMARK 921   NORMALIZED FREE ENERGY PREDICTED BY IDOCK:   -3.39 KCAL/MOL
REMARK 922        TOTAL FREE ENERGY PREDICTED BY IDOCK:   -5.41 KCAL/MOL
REMARK 923 INTER-LIGAND FREE ENERGY PREDICTED BY IDOCK:   -4.63 KCAL/MOL
REMARK 924 INTRA-LIGAND FREE ENERGY PREDICTED BY IDOCK:   -0.77 KCAL/MOL
REMARK 927      BINDING AFFINITY PREDICTED BY RF-SCORE:    0.00 PKD
ROOT
HETATM    1  N   UNL     1      -6.987   7.798  66.745  1.00  0.00    -0.071 N  
HETATM    2  C   UNL     1      -7.460   8.514  67.812  1.00  0.00    -0.097 C  
HETATM    3  H1  UNL     1      -7.170   6.798  66.663  1.00  0.00     0.000 HD 
HETATM    4  H2  UNL     1      -6.444   8.271  66.023  1.00  0.00     0.000 HD 
HETATM    5  O   UNL     1      -7.239   9.718  67.911  1.00  0.00    -0.083 OA 
ENDROOT
BRANCH   2   6
HETATM    6  C   UNL     1      -8.228   7.721  68.849  1.00  0.00    -0.127 C  
BRANCH   6   7
HETATM    7  S   UNL     1      -9.532   8.770  69.537  1.00  0.00    -0.168 S  
HETATM    8  O   UNL     1     -10.542   8.989  68.443  1.00  0.00    -0.207 OA 
BRANCH   7   9
HETATM    9  C   UNL     1     -10.263   7.580  70.759  1.00  0.00    -0.194 C  
BRANCH   9  10
HETATM   10  C   UNL     1      -9.296   7.226  71.882  1.00  0.00    -0.152 A  
HETATM   11  C   UNL     1      -8.972   5.881  72.138  1.00  0.00    -0.143 A  
HETATM   12  C   UNL     1      -8.703   8.218  72.682  1.00  0.00    -0.291 A  
HETATM   13  C   UNL     1      -8.069   5.542  73.150  1.00  0.00    -0.115 A  
HETATM   14  C   UNL     1      -7.485   6.537  73.927  1.00  0.00    -0.084 A  
HETATM   15  C   UNL     1      -7.805   7.873  73.696  1.00  0.00    -0.217 A  
ENDBRANCH   9  10
BRANCH   9  16
HETATM   16  C   UNL     1     -11.625   8.069  71.274  1.00  0.00    -0.306 A  
HETATM   17  C   UNL     1     -13.949   7.588  71.828  1.00  0.00    -0.473 A  
HETATM   18  C   UNL     1     -13.124   9.840  72.040  1.00  0.00    -0.546 A  
HETATM   19  C   UNL     1     -12.687   7.159  71.404  1.00  0.00    -0.433 A  
HETATM   20  C   UNL     1     -11.861   9.411  71.630  1.00  0.00    -0.464 A  
HETATM   21  C   UNL     1     -14.171   8.930  72.133  1.00  0.00    -0.463 A  
ENDBRANCH   9  16
ENDBRANCH   7   9
ENDBRANCH   6   7
ENDBRANCH   2   6
TORSDOF 5
ENDMDL
MODEL      170
REMARK 921   NORMALIZED FREE ENERGY PREDICTED BY IDOCK:   -3.39 KCAL/MOL
REMARK 922        TOTAL FREE ENERGY PREDICTED BY IDOCK:   -5.40 KCAL/MOL
REMARK 923 INTER-LIGAND FREE ENERGY PREDICTED BY IDOCK:   -5.76 KCAL/MOL
REMARK 924 INTRA-LIGAND FREE ENERGY PREDICTED BY IDOCK:    0.36 KCAL/MOL
REMARK 927      BINDING AFFINITY PREDICTED BY RF-SCORE:    0.00 PKD
ROOT
HETATM    1  N   UNL     1     -10.826   7.010  66.813  1.00  0.00    -0.530 N  
HETATM    2  C   UNL     1     -10.165   8.044  67.420  1.00  0.00    -0.261 C  
HETATM    3  H1  UNL     1     -11.307   7.145  65.924  1.00  0.00     0.000 HD 
HETATM    4  H2  UNL     1     -10.836   6.090  67.256  1.00  0.00     0.000 HD 
HETATM    5  O   UNL     1      -9.586   7.881  68.490  1.00  0.00    -0.148 OA 
ENDROOT
BRANCH   2   6
HETATM    6  C   UNL     1     -10.231   9.378  66.704  1.00  0.00    -0.249 C  
BRANCH   6   7
HETATM    7  S   UNL     1      -9.900  10.697  67.899  1.00  0.00    -0.164 S  
HETATM    8  O   UNL     1      -8.558  11.279  67.548  1.00  0.00    -0.131 OA 
BRANCH   7   9
HETATM    9  C   UNL     1     -11.203  11.911  67.375  1.00  0.00    -0.305 C  
BRANCH   9  10
HETATM   10  C   UNL     1     -11.098  13.237  68.116  1.00  0.00    -0.286 A  
HETATM   11  C   UNL     1     -10.469  14.339  67.508  1.00  0.00    -0.252 A  
HETATM   12  C   UNL     1     -11.623  13.401  69.410  1.00  0.00    -0.365 A  
HETATM   13  C   UNL     1     -10.386  15.570  68.167  1.00  0.00    -0.237 A  
HETATM   14  C   UNL     1     -10.918  15.715  69.444  1.00  0.00    -0.283 A  
HETATM   15  C   UNL     1     -11.532  14.631  70.066  1.00  0.00    -0.313 A  
ENDBRANCH   9  10
BRANCH   9  16
HETATM   16  C   UNL     1     -11.234  12.079  65.849  1.00  0.00    -0.385 A  
HETATM   17  C   UNL     1     -12.410  12.821  63.847  1.00  0.00    -0.510 A  
HETATM   18  C   UNL     1     -10.265  11.749  63.630  1.00  0.00    -0.461 A  
HETATM   19  C   UNL     1     -12.338  12.696  65.239  1.00  0.00    -0.528 A  
HETATM   20  C   UNL     1     -10.186  11.636  65.018  1.00  0.00    -0.321 A  
HETATM   21  C   UNL     1     -11.380  12.336  63.043  1.00  0.00    -0.027 A  
ENDBRANCH   9  16
ENDBRANCH   7   9
ENDBRANCH   6   7
ENDBRANCH   2   6
TORSDOF 5
ENDMDL
MODEL      171
REMARK 921   NORMALIZED FREE ENERGY PREDICTED BY IDOCK:   -3.34 KCAL/MOL
REMARK 922        TOTAL FREE ENERGY PREDICTED BY IDOCK:   -5.34 KCAL/MOL
REMARK 923 INTER-LIGAND FREE ENERGY PREDICTED BY IDOCK:   -4.50 KCAL/MOL
REMARK 924 INTRA-LIGAND FREE ENERGY PREDICTED BY IDOCK:   -0.83 KCAL/MOL
REMARK 927      BINDING AFFINITY PREDICTED BY RF-SCORE:    0.00 PKD
ROOT
HETATM    1  N   UNL     1     -11.411   6.694  68.616  1.00  0.00    -0.570 N  
HETATM    2  C   UNL     1     -10.054   6.575  68.481  1.00  0.00    -0.160 C  
HETATM    3  H1  UNL     1     -11.899   7.528  68.289  1.00  0.00     0.000 HD 
HETATM    4  H2  UNL     1     -11.942   5.938  69.049  1.00  0.00     0.000 HD 
HETATM    5  O   UNL     1      -9.467   5.572  68.874  1.00  0.00    -0.121 OA 
ENDROOT
BRANCH   2   6
HETATM    6  C   UNL     1      -9.348   7.761  67.856  1.00  0.00    -0.140 C  
BRANCH   6   7
HETATM    7  S   UNL     1     -10.545   9.102  67.637  1.00  0.00    -0.192 S  
HETATM    8  O   UNL     1     -10.981   9.530  69.013  1.00  0.00    -0.194 OA 
BRANCH   7   9
HETATM    9  C   UNL     1      -9.411  10.410  66.967  1.00  0.00    -0.163 C  
BRANCH   9  10
HETATM   10  C   UNL     1      -8.828  10.039  65.610  1.00  0.00    -0.184 A  
HETATM   11  C   UNL     1      -9.628  10.102  64.455  1.00  0.00    -0.366 A  
HETATM   12  C   UNL     1      -7.490   9.631  65.471  1.00  0.00    -0.106 A  
HETATM   13  C   UNL     1      -9.100   9.787  63.198  1.00  0.00    -0.270 A  
HETATM   14  C   UNL     1      -7.771   9.393  63.079  1.00  0.00    -0.119 A  
HETATM   15  C   UNL     1      -6.968   9.311  64.215  1.00  0.00    -0.097 A  
ENDBRANCH   9  10
BRANCH   9  16
HETATM   16  C   UNL     1     -10.082  11.791  66.972  1.00  0.00    -0.232 A  
HETATM   17  C   UNL     1      -9.878  14.219  67.064  1.00  0.00    -0.254 A  
HETATM   18  C   UNL     1     -12.066  13.217  66.997  1.00  0.00    -0.375 A  
HETATM   19  C   UNL     1      -9.290  12.950  67.014  1.00  0.00    -0.235 A  
HETATM   20  C   UNL     1     -11.481  11.952  66.933  1.00  0.00    -0.390 A  
HETATM   21  C   UNL     1     -11.265  14.351  67.069  1.00  0.00    -0.336 A  
ENDBRANCH   9  16
ENDBRANCH   7   9
ENDBRANCH   6   7
ENDBRANCH   2   6
TORSDOF 5
ENDMDL
MODEL      172
REMARK 921   NORMALIZED FREE ENERGY PREDICTED BY IDOCK:   -3.32 KCAL/MOL
REMARK 922        TOTAL FREE ENERGY PREDICTED BY IDOCK:   -5.31 KCAL/MOL
REMARK 923 INTER-LIGAND FREE ENERGY PREDICTED BY IDOCK:   -5.32 KCAL/MOL
REMARK 924 INTRA-LIGAND FREE ENERGY PREDICTED BY IDOCK:    0.01 KCAL/MOL
REMARK 927      BINDING AFFINITY PREDICTED BY RF-SCORE:    0.00 PKD
ROOT
HETATM    1  N   UNL     1      -6.988   9.724  67.166  1.00  0.00    -0.084 N  
HETATM    2  C   UNL     1      -7.972  10.393  66.489  1.00  0.00    -0.123 C  
HETATM    3  H1  UNL     1      -7.005   9.655  68.183  1.00  0.00     0.000 HD 
HETATM    4  H2  UNL     1      -6.226   9.288  66.645  1.00  0.00     0.000 HD 
HETATM    5  O   UNL     1      -7.952  10.476  65.265  1.00  0.00    -0.152 OA 
ENDROOT
BRANCH   2   6
HETATM    6  C   UNL     1      -9.043  11.034  67.349  1.00  0.00    -0.141 C  
BRANCH   6   7
HETATM    7  S   UNL     1     -10.633  10.255  66.975  1.00  0.00    -0.213 S  
HETATM    8  O   UNL     1     -10.420   8.767  67.044  1.00  0.00    -0.283 OA 
BRANCH   7   9
HETATM    9  C   UNL     1     -11.581  10.765  68.488  1.00  0.00    -0.255 C  
BRANCH   9  10
HETATM   10  C   UNL     1     -11.104  10.050  69.745  1.00  0.00    -0.319 A  
HETATM   11  C   UNL     1      -9.731   9.828  69.954  1.00  0.00    -0.273 A  
HETATM   12  C   UNL     1     -12.007   9.602  70.724  1.00  0.00    -0.356 A  
HETATM   13  C   UNL     1      -9.276   9.194  71.115  1.00  0.00    -0.301 A  
HETATM   14  C   UNL     1     -10.184   8.763  72.077  1.00  0.00    -0.401 A  
HETATM   15  C   UNL     1     -11.549   8.964  71.880  1.00  0.00    -0.442 A  
ENDBRANCH   9  10
BRANCH   9  16
HETATM   16  C   UNL     1     -11.612  12.292  68.643  1.00  0.00    -0.372 A  
HETATM   17  C   UNL     1     -11.784  14.498  67.619  1.00  0.00    -0.410 A  
HETATM   18  C   UNL     1     -11.439  14.320  69.995  1.00  0.00    -0.280 A  
HETATM   19  C   UNL     1     -11.796  13.103  67.511  1.00  0.00    -0.409 A  
HETATM   20  C   UNL     1     -11.465  12.929  69.891  1.00  0.00    -0.147 A  
HETATM   21  C   UNL     1     -11.592  15.105  68.859  1.00  0.00    -0.361 A  
ENDBRANCH   9  16
ENDBRANCH   7   9
ENDBRANCH   6   7
ENDBRANCH   2   6
TORSDOF 5
ENDMDL
MODEL      173
REMARK 921   NORMALIZED FREE ENERGY PREDICTED BY IDOCK:   -3.28 KCAL/MOL
REMARK 922        TOTAL FREE ENERGY PREDICTED BY IDOCK:   -5.26 KCAL/MOL
REMARK 923 INTER-LIGAND FREE ENERGY PREDICTED BY IDOCK:   -4.98 KCAL/MOL
REMARK 924 INTRA-LIGAND FREE ENERGY PREDICTED BY IDOCK:   -0.29 KCAL/MOL
REMARK 927      BINDING AFFINITY PREDICTED BY RF-SCORE:    0.00 PKD
ROOT
HETATM    1  N   UNL     1     -10.463   8.849  71.942  1.00  0.00    -0.347 N  
HETATM    2  C   UNL     1     -10.080   7.758  71.209  1.00  0.00    -0.179 C  
HETATM    3  H1  UNL     1      -9.980   9.742  71.843  1.00  0.00     0.000 HD 
HETATM    4  H2  UNL     1     -11.243   8.768  72.595  1.00  0.00     0.000 HD 
HETATM    5  O   UNL     1     -10.661   6.683  71.327  1.00  0.00    -0.223 OA 
ENDROOT
BRANCH   2   6
HETATM    6  C   UNL     1      -8.893   7.965  70.290  1.00  0.00    -0.140 C  
BRANCH   6   7
HETATM    7  S   UNL     1      -9.026   9.601  69.527  1.00  0.00    -0.210 S  
HETATM    8  O   UNL     1      -7.754   9.831  68.757  1.00  0.00    -0.078 OA 
BRANCH   7   9
HETATM    9  C   UNL     1     -10.377   9.252  68.303  1.00  0.00    -0.217 C  
BRANCH   9  10
HETATM   10  C   UNL     1     -10.698  10.456  67.427  1.00  0.00    -0.338 A  
HETATM   11  C   UNL     1     -11.442  11.531  67.948  1.00  0.00    -0.372 A  
HETATM   12  C   UNL     1     -10.264  10.531  66.092  1.00  0.00    -0.299 A  
HETATM   13  C   UNL     1     -11.725  12.654  67.163  1.00  0.00    -0.438 A  
HETATM   14  C   UNL     1     -11.280  12.714  65.845  1.00  0.00    -0.350 A  
HETATM   15  C   UNL     1     -10.555  11.652  65.310  1.00  0.00    -0.333 A  
ENDBRANCH   9  10
BRANCH   9  16
HETATM   16  C   UNL     1     -10.086   7.982  67.491  1.00  0.00    -0.281 A  
HETATM   17  C   UNL     1     -10.770   5.757  66.765  1.00  0.00    -0.369 A  
HETATM   18  C   UNL     1      -8.630   6.621  66.078  1.00  0.00    -0.152 A  
HETATM   19  C   UNL     1     -11.031   6.943  67.461  1.00  0.00    -0.340 A  
HETATM   20  C   UNL     1      -8.895   7.808  66.760  1.00  0.00    -0.154 A  
HETATM   21  C   UNL     1      -9.565   5.592  66.085  1.00  0.00    -0.158 A  
ENDBRANCH   9  16
ENDBRANCH   7   9
ENDBRANCH   6   7
ENDBRANCH   2   6
TORSDOF 5
ENDMDL
MODEL      174
REMARK 921   NORMALIZED FREE ENERGY PREDICTED BY IDOCK:   -3.25 KCAL/MOL
REMARK 922        TOTAL FREE ENERGY PREDICTED BY IDOCK:   -5.23 KCAL/MOL
REMARK 923 INTER-LIGAND FREE ENERGY PREDICTED BY IDOCK:   -4.31 KCAL/MOL
REMARK 924 INTRA-LIGAND FREE ENERGY PREDICTED BY IDOCK:   -0.92 KCAL/MOL
REMARK 927      BINDING AFFINITY PREDICTED BY RF-SCORE:    0.00 PKD
ROOT
HETATM    1  N   UNL     1      -7.647  10.780  67.400  1.00  0.00    -0.097 N  
HETATM    2  C   UNL     1      -6.610  10.082  67.957  1.00  0.00    -0.063 C  
HETATM    3  H1  UNL     1      -8.562  10.347  67.272  1.00  0.00     0.000 HD 
HETATM    4  H2  UNL     1      -7.504  11.748  67.109  1.00  0.00     0.000 HD 
HETATM    5  O   UNL     1      -5.509  10.604  68.111  1.00  0.00    -0.037 OA 
ENDROOT
BRANCH   2   6
HETATM    6  C   UNL     1      -6.909   8.644  68.328  1.00  0.00    -0.066 C  
BRANCH   6   7
HETATM    7  S   UNL     1      -7.874   8.625  69.859  1.00  0.00    -0.097 S  
HETATM    8  O   UNL     1      -7.734   9.988  70.482  1.00  0.00    -0.264 OA 
BRANCH   7   9
HETATM    9  C   UNL     1      -9.579   8.500  69.138  1.00  0.00    -0.167 C  
BRANCH   9  10
HETATM   10  C   UNL     1      -9.861   7.130  68.536  1.00  0.00    -0.155 A  
HETATM   11  C   UNL     1     -10.601   7.020  67.344  1.00  0.00    -0.372 A  
HETATM   12  C   UNL     1      -9.393   5.950  69.140  1.00  0.00    -0.137 A  
HETATM   13  C   UNL     1     -10.848   5.770  66.767  1.00  0.00    -0.327 A  
HETATM   14  C   UNL     1     -10.371   4.613  67.376  1.00  0.00    -0.020 A  
HETATM   15  C   UNL     1      -9.648   4.704  68.563  1.00  0.00    -0.220 A  
ENDBRANCH   9  10
BRANCH   9  16
HETATM   16  C   UNL     1     -10.650   8.942  70.146  1.00  0.00    -0.243 A  
HETATM   17  C   UNL     1     -11.958   8.477  72.150  1.00  0.00    -0.451 A  
HETATM   18  C   UNL     1     -12.358  10.508  70.920  1.00  0.00    -0.490 A  
HETATM   19  C   UNL     1     -10.956   8.118  71.242  1.00  0.00    -0.281 A  
HETATM   20  C   UNL     1     -11.350  10.158  70.022  1.00  0.00    -0.351 A  
HETATM   21  C   UNL     1     -12.667   9.665  71.981  1.00  0.00    -0.470 A  
ENDBRANCH   9  16
ENDBRANCH   7   9
ENDBRANCH   6   7
ENDBRANCH   2   6
TORSDOF 5
ENDMDL
MODEL      175
REMARK 921   NORMALIZED FREE ENERGY PREDICTED BY IDOCK:   -3.23 KCAL/MOL
REMARK 922        TOTAL FREE ENERGY PREDICTED BY IDOCK:   -5.20 KCAL/MOL
REMARK 923 INTER-LIGAND FREE ENERGY PREDICTED BY IDOCK:   -4.73 KCAL/MOL
REMARK 924 INTRA-LIGAND FREE ENERGY PREDICTED BY IDOCK:   -0.47 KCAL/MOL
REMARK 927      BINDING AFFINITY PREDICTED BY RF-SCORE:    0.00 PKD
ROOT
HETATM    1  N   UNL     1      -5.711  10.835  63.870  1.00  0.00    -0.370 N  
HETATM    2  C   UNL     1      -5.864  10.467  65.179  1.00  0.00    -0.135 C  
HETATM    3  H1  UNL     1      -5.815  10.153  63.118  1.00  0.00     0.000 HD 
HETATM    4  H2  UNL     1      -5.490  11.804  63.641  1.00  0.00     0.000 HD 
HETATM    5  O   UNL     1      -5.739  11.288  66.084  1.00  0.00    -0.145 OA 
ENDROOT
BRANCH   2   6
HETATM    6  C   UNL     1      -6.160   9.001  65.421  1.00  0.00    -0.062 C  
BRANCH   6   7
HETATM    7  S   UNL     1      -7.857   8.654  64.896  1.00  0.00    -0.123 S  
HETATM    8  O   UNL     1      -8.146   7.223  65.263  1.00  0.00    -0.124 OA 
BRANCH   7   9
HETATM    9  C   UNL     1      -8.770   9.744  66.090  1.00  0.00    -0.136 C  
BRANCH   9  10
HETATM   10  C   UNL     1      -9.790  10.641  65.401  1.00  0.00    -0.325 A  
HETATM   11  C   UNL     1      -9.852  10.692  63.997  1.00  0.00    -0.399 A  
HETATM   12  C   UNL     1     -10.690  11.430  66.136  1.00  0.00    -0.320 A  
HETATM   13  C   UNL     1     -10.798  11.493  63.349  1.00  0.00    -0.423 A  
HETATM   14  C   UNL     1     -11.687  12.262  64.094  1.00  0.00    -0.481 A  
HETATM   15  C   UNL     1     -11.630  12.234  65.486  1.00  0.00    -0.422 A  
ENDBRANCH   9  10
BRANCH   9  16
HETATM   16  C   UNL     1      -9.371   8.931  67.246  1.00  0.00    -0.173 A  
HETATM   17  C   UNL     1      -9.493   8.461  69.635  1.00  0.00    -0.166 A  
HETATM   18  C   UNL     1     -10.790   7.134  68.100  1.00  0.00    -0.170 A  
HETATM   19  C   UNL     1      -8.993   9.216  68.568  1.00  0.00    -0.133 A  
HETATM   20  C   UNL     1     -10.303   7.895  67.037  1.00  0.00    -0.411 A  
HETATM   21  C   UNL     1     -10.380   7.412  69.399  1.00  0.00    -0.211 A  
ENDBRANCH   9  16
ENDBRANCH   7   9
ENDBRANCH   6   7
ENDBRANCH   2   6
TORSDOF 5
ENDMDL
MODEL      176
REMARK 921   NORMALIZED FREE ENERGY PREDICTED BY IDOCK:   -3.21 KCAL/MOL
REMARK 922        TOTAL FREE ENERGY PREDICTED BY IDOCK:   -5.18 KCAL/MOL
REMARK 923 INTER-LIGAND FREE ENERGY PREDICTED BY IDOCK:   -5.54 KCAL/MOL
REMARK 924 INTRA-LIGAND FREE ENERGY PREDICTED BY IDOCK:    0.36 KCAL/MOL
REMARK 927      BINDING AFFINITY PREDICTED BY RF-SCORE:    0.00 PKD
ROOT
HETATM    1  N   UNL     1      -6.985  12.582  67.476  1.00  0.00    -0.136 N  
HETATM    2  C   UNL     1      -7.581  13.590  68.184  1.00  0.00    -0.138 C  
HETATM    3  H1  UNL     1      -7.293  12.351  66.531  1.00  0.00     0.000 HD 
HETATM    4  H2  UNL     1      -6.221  12.053  67.898  1.00  0.00     0.000 HD 
HETATM    5  O   UNL     1      -7.210  13.868  69.321  1.00  0.00    -0.081 OA 
ENDROOT
BRANCH   2   6
HETATM    6  C   UNL     1      -8.726  14.296  67.488  1.00  0.00    -0.199 C  
BRANCH   6   7
HETATM    7  S   UNL     1      -9.418  15.534  68.612  1.00  0.00    -0.215 S  
HETATM    8  O   UNL     1      -9.295  16.868  67.925  1.00  0.00    -0.232 OA 
BRANCH   7   9
HETATM    9  C   UNL     1     -11.202  15.027  68.559  1.00  0.00    -0.287 C  
BRANCH   9  10
HETATM   10  C   UNL     1     -11.466  13.924  67.543  1.00  0.00    -0.368 A  
HETATM   11  C   UNL     1     -11.016  12.614  67.789  1.00  0.00    -0.266 A  
HETATM   12  C   UNL     1     -12.162  14.175  66.348  1.00  0.00    -0.473 A  
HETATM   13  C   UNL     1     -11.271  11.584  66.876  1.00  0.00    -0.363 A  
HETATM   14  C   UNL     1     -11.968  11.851  65.702  1.00  0.00    -0.005 A  
HETATM   15  C   UNL     1     -12.409  13.145  65.436  1.00  0.00    -0.532 A  
ENDBRANCH   9  10
BRANCH   9  16
HETATM   16  C   UNL     1     -11.733  14.690  69.959  1.00  0.00    -0.348 A  
HETATM   17  C   UNL     1     -13.130  13.296  71.390  1.00  0.00    -0.361 A  
HETATM   18  C   UNL     1     -11.927  15.148  72.352  1.00  0.00    -0.488 A  
HETATM   19  C   UNL     1     -12.597  13.597  70.132  1.00  0.00    -0.215 A  
HETATM   20  C   UNL     1     -11.385  15.440  71.100  1.00  0.00    -0.427 A  
HETATM   21  C   UNL     1     -12.805  14.080  72.497  1.00  0.00    -0.408 A  
ENDBRANCH   9  16
ENDBRANCH   7   9
ENDBRANCH   6   7
ENDBRANCH   2   6
TORSDOF 5
ENDMDL
MODEL      177
REMARK 921   NORMALIZED FREE ENERGY PREDICTED BY IDOCK:   -3.19 KCAL/MOL
REMARK 922        TOTAL FREE ENERGY PREDICTED BY IDOCK:   -5.15 KCAL/MOL
REMARK 923 INTER-LIGAND FREE ENERGY PREDICTED BY IDOCK:   -4.99 KCAL/MOL
REMARK 924 INTRA-LIGAND FREE ENERGY PREDICTED BY IDOCK:   -0.16 KCAL/MOL
REMARK 927      BINDING AFFINITY PREDICTED BY RF-SCORE:    0.00 PKD
ROOT
HETATM    1  N   UNL     1      -8.960   8.910  64.587  1.00  0.00    -0.423 N  
HETATM    2  C   UNL     1      -9.516  10.149  64.762  1.00  0.00    -0.295 C  
HETATM    3  H1  UNL     1      -8.525   8.416  65.366  1.00  0.00     0.000 HD 
HETATM    4  H2  UNL     1      -8.983   8.474  63.665  1.00  0.00     0.000 HD 
HETATM    5  O   UNL     1     -10.041  10.743  63.824  1.00  0.00    -0.322 OA 
ENDROOT
BRANCH   2   6
HETATM    6  C   UNL     1      -9.407  10.729  66.157  1.00  0.00    -0.183 C  
BRANCH   6   7
HETATM    7  S   UNL     1     -10.778  10.101  67.158  1.00  0.00    -0.181 S  
HETATM    8  O   UNL     1     -10.667   8.600  67.162  1.00  0.00    -0.270 OA 
BRANCH   7   9
HETATM    9  C   UNL     1     -10.241  10.716  68.824  1.00  0.00    -0.190 C  
BRANCH   9  10
HETATM   10  C   UNL     1     -11.268  10.430  69.913  1.00  0.00    -0.371 A  
HETATM   11  C   UNL     1     -11.426   9.123  70.408  1.00  0.00    -0.228 A  
HETATM   12  C   UNL     1     -12.073  11.448  70.451  1.00  0.00    -0.473 A  
HETATM   13  C   UNL     1     -12.348   8.848  71.424  1.00  0.00    -0.368 A  
HETATM   14  C   UNL     1     -13.132   9.870  71.950  1.00  0.00    -0.559 A  
HETATM   15  C   UNL     1     -12.997  11.167  71.461  1.00  0.00    -0.542 A  
ENDBRANCH   9  10
BRANCH   9  16
HETATM   16  C   UNL     1      -8.834  10.216  69.182  1.00  0.00    -0.179 A  
HETATM   17  C   UNL     1      -7.354   8.368  69.761  1.00  0.00    -0.060 A  
HETATM   18  C   UNL     1      -6.478  10.610  69.694  1.00  0.00    -0.096 A  
HETATM   19  C   UNL     1      -8.616   8.844  69.391  1.00  0.00    -0.133 A  
HETATM   20  C   UNL     1      -7.733  11.084  69.311  1.00  0.00    -0.071 A  
HETATM   21  C   UNL     1      -6.289   9.252  69.925  1.00  0.00    -0.043 A  
ENDBRANCH   9  16
ENDBRANCH   7   9
ENDBRANCH   6   7
ENDBRANCH   2   6
TORSDOF 5
ENDMDL
MODEL      178
REMARK 921   NORMALIZED FREE ENERGY PREDICTED BY IDOCK:   -3.17 KCAL/MOL
REMARK 922        TOTAL FREE ENERGY PREDICTED BY IDOCK:   -5.12 KCAL/MOL
REMARK 923 INTER-LIGAND FREE ENERGY PREDICTED BY IDOCK:   -5.15 KCAL/MOL
REMARK 924 INTRA-LIGAND FREE ENERGY PREDICTED BY IDOCK:    0.03 KCAL/MOL
REMARK 927      BINDING AFFINITY PREDICTED BY RF-SCORE:    0.00 PKD
ROOT
HETATM    1  N   UNL     1     -13.157  12.567  64.451  1.00  0.00    -0.730 N  
HETATM    2  C   UNL     1     -12.418  12.993  65.522  1.00  0.00    -0.438 C  
HETATM    3  H1  UNL     1     -13.173  11.582  64.185  1.00  0.00     0.000 HD 
HETATM    4  H2  UNL     1     -13.699  13.243  63.913  1.00  0.00     0.000 HD 
HETATM    5  O   UNL     1     -12.398  14.178  65.844  1.00  0.00    -0.448 OA 
ENDROOT
BRANCH   2   6
HETATM    6  C   UNL     1     -11.622  11.923  66.241  1.00  0.00    -0.246 C  
BRANCH   6   7
HETATM    7  S   UNL     1     -10.004  12.601  66.686  1.00  0.00    -0.247 S  
HETATM    8  O   UNL     1     -10.093  13.039  68.123  1.00  0.00    -0.225 OA 
BRANCH   7   9
HETATM    9  C   UNL     1      -8.997  11.043  66.626  1.00  0.00    -0.168 C  
BRANCH   9  10
HETATM   10  C   UNL     1      -9.570   9.942  67.509  1.00  0.00    -0.183 A  
HETATM   11  C   UNL     1      -9.616  10.108  68.906  1.00  0.00    -0.186 A  
HETATM   12  C   UNL     1     -10.067   8.746  66.964  1.00  0.00    -0.335 A  
HETATM   13  C   UNL     1     -10.160   9.116  69.728  1.00  0.00    -0.211 A  
HETATM   14  C   UNL     1     -10.654   7.940  69.170  1.00  0.00    -0.184 A  
HETATM   15  C   UNL     1     -10.604   7.755  67.790  1.00  0.00    -0.254 A  
ENDBRANCH   9  10
BRANCH   9  16
HETATM   16  C   UNL     1      -8.755  10.586  65.181  1.00  0.00    -0.197 A  
HETATM   17  C   UNL     1      -9.567  10.353  62.894  1.00  0.00    -0.331 A  
HETATM   18  C   UNL     1      -7.394   9.493  63.471  1.00  0.00    -0.107 A  
HETATM   19  C   UNL     1      -9.745  10.800  64.207  1.00  0.00    -0.357 A  
HETATM   20  C   UNL     1      -7.564   9.951  64.778  1.00  0.00    -0.139 A  
HETATM   21  C   UNL     1      -8.398   9.688  62.530  1.00  0.00    -0.160 A  
ENDBRANCH   9  16
ENDBRANCH   7   9
ENDBRANCH   6   7
ENDBRANCH   2   6
TORSDOF 5
ENDMDL
MODEL      179
REMARK 921   NORMALIZED FREE ENERGY PREDICTED BY IDOCK:   -3.16 KCAL/MOL
REMARK 922        TOTAL FREE ENERGY PREDICTED BY IDOCK:   -5.11 KCAL/MOL
REMARK 923 INTER-LIGAND FREE ENERGY PREDICTED BY IDOCK:   -4.42 KCAL/MOL
REMARK 924 INTRA-LIGAND FREE ENERGY PREDICTED BY IDOCK:   -0.69 KCAL/MOL
REMARK 927      BINDING AFFINITY PREDICTED BY RF-SCORE:    0.00 PKD
ROOT
HETATM    1  N   UNL     1      -9.645   6.059  65.853  1.00  0.00    -0.368 N  
HETATM    2  C   UNL     1      -8.654   6.637  66.599  1.00  0.00    -0.123 C  
HETATM    3  H1  UNL     1     -10.492   6.576  65.617  1.00  0.00     0.000 HD 
HETATM    4  H2  UNL     1      -9.535   5.098  65.527  1.00  0.00     0.000 HD 
HETATM    5  O   UNL     1      -7.633   6.015  66.882  1.00  0.00    -0.093 OA 
ENDROOT
BRANCH   2   6
HETATM    6  C   UNL     1      -8.920   8.054  67.064  1.00  0.00    -0.138 C  
BRANCH   6   7
HETATM    7  S   UNL     1     -10.656   8.188  67.557  1.00  0.00    -0.168 S  
HETATM    8  O   UNL     1     -10.958   7.000  68.429  1.00  0.00    -0.165 OA 
BRANCH   7   9
HETATM    9  C   UNL     1     -10.544   9.684  68.650  1.00  0.00    -0.217 C  
BRANCH   9  10
HETATM   10  C   UNL     1      -9.173   9.834  69.297  1.00  0.00    -0.197 A  
HETATM   11  C   UNL     1      -8.799   8.995  70.363  1.00  0.00    -0.228 A  
HETATM   12  C   UNL     1      -8.252  10.798  68.853  1.00  0.00    -0.149 A  
HETATM   13  C   UNL     1      -7.535   9.105  70.952  1.00  0.00    -0.136 A  
HETATM   14  C   UNL     1      -6.633  10.061  70.494  1.00  0.00    -0.122 A  
HETATM   15  C   UNL     1      -6.993  10.908  69.449  1.00  0.00    -0.125 A  
ENDBRANCH   9  10
BRANCH   9  16
HETATM   16  C   UNL     1     -11.001  10.952  67.916  1.00  0.00    -0.325 A  
HETATM   17  C   UNL     1     -12.031  13.161  67.994  1.00  0.00    -0.345 A  
HETATM   18  C   UNL     1     -11.354  12.245  65.873  1.00  0.00    -0.406 A  
HETATM   19  C   UNL     1     -11.565  12.013  68.644  1.00  0.00    -0.372 A  
HETATM   20  C   UNL     1     -10.877  11.105  66.521  1.00  0.00    -0.302 A  
HETATM   21  C   UNL     1     -11.937  13.270  66.608  1.00  0.00    -0.446 A  
ENDBRANCH   9  16
ENDBRANCH   7   9
ENDBRANCH   6   7
ENDBRANCH   2   6
TORSDOF 5
ENDMDL
MODEL      180
REMARK 921   NORMALIZED FREE ENERGY PREDICTED BY IDOCK:   -3.13 KCAL/MOL
REMARK 922        TOTAL FREE ENERGY PREDICTED BY IDOCK:   -5.07 KCAL/MOL
REMARK 923 INTER-LIGAND FREE ENERGY PREDICTED BY IDOCK:   -4.03 KCAL/MOL
REMARK 924 INTRA-LIGAND FREE ENERGY PREDICTED BY IDOCK:   -1.04 KCAL/MOL
REMARK 927      BINDING AFFINITY PREDICTED BY RF-SCORE:    0.00 PKD
ROOT
HETATM    1  N   UNL     1     -11.497   7.101  73.161  1.00  0.00    -0.551 N  
HETATM    2  C   UNL     1     -11.221   5.838  72.713  1.00  0.00    -0.292 C  
HETATM    3  H1  UNL     1     -10.946   7.901  72.849  1.00  0.00     0.000 HD 
HETATM    4  H2  UNL     1     -12.265   7.246  73.817  1.00  0.00     0.000 HD 
HETATM    5  O   UNL     1     -11.884   4.876  73.089  1.00  0.00    -0.279 OA 
ENDROOT
BRANCH   2   6
HETATM    6  C   UNL     1     -10.043   5.718  71.767  1.00  0.00    -0.187 C  
BRANCH   6   7
HETATM    7  S   UNL     1     -10.522   6.382  70.153  1.00  0.00    -0.235 S  
HETATM    8  O   UNL     1     -12.002   6.650  70.210  1.00  0.00    -0.387 OA 
BRANCH   7   9
HETATM    9  C   UNL     1      -9.644   8.016  70.228  1.00  0.00    -0.171 C  
BRANCH   9  10
HETATM   10  C   UNL     1      -8.223   7.892  70.760  1.00  0.00    -0.110 A  
HETATM   11  C   UNL     1      -7.226   7.277  69.980  1.00  0.00    -0.078 A  
HETATM   12  C   UNL     1      -7.866   8.386  72.027  1.00  0.00    -0.171 A  
HETATM   13  C   UNL     1      -5.911   7.177  70.445  1.00  0.00    -0.024 A  
HETATM   14  C   UNL     1      -5.575   7.678  71.699  1.00  0.00    -0.035 A  
HETATM   15  C   UNL     1      -6.552   8.278  72.490  1.00  0.00    -0.093 A  
ENDBRANCH   9  10
BRANCH   9  16
HETATM   16  C   UNL     1      -9.718   8.755  68.884  1.00  0.00    -0.174 A  
HETATM   17  C   UNL     1      -9.706  10.855  67.646  1.00  0.00    -0.188 A  
HETATM   18  C   UNL     1     -10.022   8.784  66.460  1.00  0.00    -0.360 A  
HETATM   19  C   UNL     1      -9.598  10.154  68.852  1.00  0.00    -0.186 A  
HETATM   20  C   UNL     1      -9.901   8.083  67.660  1.00  0.00    -0.214 A  
HETATM   21  C   UNL     1      -9.931  10.171  66.453  1.00  0.00    -0.295 A  
ENDBRANCH   9  16
ENDBRANCH   7   9
ENDBRANCH   6   7
ENDBRANCH   2   6
TORSDOF 5
ENDMDL
MODEL      181
REMARK 921   NORMALIZED FREE ENERGY PREDICTED BY IDOCK:   -3.11 KCAL/MOL
REMARK 922        TOTAL FREE ENERGY PREDICTED BY IDOCK:   -5.04 KCAL/MOL
REMARK 923 INTER-LIGAND FREE ENERGY PREDICTED BY IDOCK:   -4.67 KCAL/MOL
REMARK 924 INTRA-LIGAND FREE ENERGY PREDICTED BY IDOCK:   -0.38 KCAL/MOL
REMARK 927      BINDING AFFINITY PREDICTED BY RF-SCORE:    0.00 PKD
ROOT
HETATM    1  N   UNL     1     -10.371  18.190  69.146  1.00  0.00    -0.417 N  
HETATM    2  C   UNL     1     -10.603  17.649  67.910  1.00  0.00    -0.387 C  
HETATM    3  H1  UNL     1     -10.302  17.596  69.973  1.00  0.00     0.000 HD 
HETATM    4  H2  UNL     1     -10.267  19.200  69.243  1.00  0.00     0.000 HD 
HETATM    5  O   UNL     1     -10.686  18.364  66.915  1.00  0.00    -0.370 OA 
ENDROOT
BRANCH   2   6
HETATM    6  C   UNL     1     -10.776  16.145  67.871  1.00  0.00    -0.321 C  
BRANCH   6   7
HETATM    7  S   UNL     1      -9.925  15.498  66.410  1.00  0.00    -0.304 S  
HETATM    8  O   UNL     1      -8.563  16.139  66.376  1.00  0.00    -0.273 OA 
BRANCH   7   9
HETATM    9  C   UNL     1      -9.711  13.733  66.943  1.00  0.00    -0.265 C  
BRANCH   9  10
HETATM   10  C   UNL     1      -9.986  12.745  65.817  1.00  0.00    -0.259 A  
HETATM   11  C   UNL     1     -10.226  13.210  64.511  1.00  0.00    -0.333 A  
HETATM   12  C   UNL     1     -10.004  11.358  66.044  1.00  0.00    -0.269 A  
HETATM   13  C   UNL     1     -10.457  12.314  63.462  1.00  0.00    -0.459 A  
HETATM   14  C   UNL     1     -10.464  10.944  63.704  1.00  0.00    -0.301 A  
HETATM   15  C   UNL     1     -10.242  10.467  64.994  1.00  0.00    -0.365 A  
ENDBRANCH   9  10
BRANCH   9  16
HETATM   16  C   UNL     1      -8.348  13.510  67.615  1.00  0.00    -0.179 A  
HETATM   17  C   UNL     1      -6.135  12.489  67.574  1.00  0.00    -0.154 A  
HETATM   18  C   UNL     1      -6.806  13.783  69.491  1.00  0.00     0.001 A  
HETATM   19  C   UNL     1      -7.368  12.745  66.963  1.00  0.00     0.087 A  
HETATM   20  C   UNL     1      -8.031  14.050  68.877  1.00  0.00    -0.025 A  
HETATM   21  C   UNL     1      -5.860  12.998  68.843  1.00  0.00    -0.076 A  
ENDBRANCH   9  16
ENDBRANCH   7   9
ENDBRANCH   6   7
ENDBRANCH   2   6
TORSDOF 5
ENDMDL
MODEL      182
REMARK 921   NORMALIZED FREE ENERGY PREDICTED BY IDOCK:   -3.11 KCAL/MOL
REMARK 922        TOTAL FREE ENERGY PREDICTED BY IDOCK:   -5.04 KCAL/MOL
REMARK 923 INTER-LIGAND FREE ENERGY PREDICTED BY IDOCK:   -4.12 KCAL/MOL
REMARK 924 INTRA-LIGAND FREE ENERGY PREDICTED BY IDOCK:   -0.92 KCAL/MOL
REMARK 927      BINDING AFFINITY PREDICTED BY RF-SCORE:    0.00 PKD
ROOT
HETATM    1  N   UNL     1      -8.492   7.316  66.447  1.00  0.00    -0.123 N  
HETATM    2  C   UNL     1      -9.595   8.009  66.869  1.00  0.00    -0.204 C  
HETATM    3  H1  UNL     1      -8.566   6.341  66.156  1.00  0.00     0.000 HD 
HETATM    4  H2  UNL     1      -7.584   7.781  66.422  1.00  0.00     0.000 HD 
HETATM    5  O   UNL     1      -9.507   9.183  67.219  1.00  0.00    -0.141 OA 
ENDROOT
BRANCH   2   6
HETATM    6  C   UNL     1     -10.892   7.227  66.901  1.00  0.00    -0.195 C  
BRANCH   6   7
HETATM    7  S   UNL     1     -10.710   5.846  68.057  1.00  0.00    -0.222 S  
HETATM    8  O   UNL     1      -9.627   4.955  67.510  1.00  0.00    -0.136 OA 
BRANCH   7   9
HETATM    9  C   UNL     1     -10.015   6.762  69.513  1.00  0.00    -0.162 C  
BRANCH   9  10
HETATM   10  C   UNL     1     -11.073   7.560  70.263  1.00  0.00    -0.263 A  
HETATM   11  C   UNL     1     -12.263   6.937  70.683  1.00  0.00    -0.311 A  
HETATM   12  C   UNL     1     -10.895   8.922  70.558  1.00  0.00    -0.276 A  
HETATM   13  C   UNL     1     -13.234   7.651  71.392  1.00  0.00    -0.337 A  
HETATM   14  C   UNL     1     -13.038   8.998  71.681  1.00  0.00    -0.420 A  
HETATM   15  C   UNL     1     -11.871   9.633  71.261  1.00  0.00    -0.460 A  
ENDBRANCH   9  10
BRANCH   9  16
HETATM   16  C   UNL     1      -9.208   5.830  70.430  1.00  0.00    -0.175 A  
HETATM   17  C   UNL     1      -9.085   3.790  71.758  1.00  0.00    -0.164 A  
HETATM   18  C   UNL     1      -7.203   5.290  71.718  1.00  0.00    -0.080 A  
HETATM   19  C   UNL     1      -9.783   4.633  70.887  1.00  0.00    -0.262 A  
HETATM   20  C   UNL     1      -7.892   6.126  70.838  1.00  0.00    -0.107 A  
HETATM   21  C   UNL     1      -7.801   4.125  72.183  1.00  0.00    -0.081 A  
ENDBRANCH   9  16
ENDBRANCH   7   9
ENDBRANCH   6   7
ENDBRANCH   2   6
TORSDOF 5
ENDMDL
MODEL      183
REMARK 921   NORMALIZED FREE ENERGY PREDICTED BY IDOCK:   -3.10 KCAL/MOL
REMARK 922        TOTAL FREE ENERGY PREDICTED BY IDOCK:   -5.03 KCAL/MOL
REMARK 923 INTER-LIGAND FREE ENERGY PREDICTED BY IDOCK:   -5.72 KCAL/MOL
REMARK 924 INTRA-LIGAND FREE ENERGY PREDICTED BY IDOCK:    0.69 KCAL/MOL
REMARK 927      BINDING AFFINITY PREDICTED BY RF-SCORE:    0.00 PKD
ROOT
HETATM    1  N   UNL     1      -8.793   8.870  69.162  1.00  0.00    -0.135 N  
HETATM    2  C   UNL     1      -8.410  10.173  68.990  1.00  0.00    -0.138 C  
HETATM    3  H1  UNL     1      -9.622   8.502  68.695  1.00  0.00     0.000 HD 
HETATM    4  H2  UNL     1      -8.242   8.259  69.765  1.00  0.00     0.000 HD 
HETATM    5  O   UNL     1      -7.412  10.617  69.551  1.00  0.00    -0.133 OA 
ENDROOT
BRANCH   2   6
HETATM    6  C   UNL     1      -9.307  11.012  68.102  1.00  0.00    -0.173 C  
BRANCH   6   7
HETATM    7  S   UNL     1      -8.778  12.739  68.204  1.00  0.00    -0.182 S  
HETATM    8  O   UNL     1      -7.873  12.991  67.028  1.00  0.00    -0.103 OA 
BRANCH   7   9
HETATM    9  C   UNL     1     -10.401  13.572  67.864  1.00  0.00    -0.249 C  
BRANCH   9  10
HETATM   10  C   UNL     1     -11.041  13.098  66.566  1.00  0.00    -0.317 A  
HETATM   11  C   UNL     1     -10.371  12.174  65.743  1.00  0.00    -0.289 A  
HETATM   12  C   UNL     1     -12.305  13.558  66.158  1.00  0.00    -0.463 A  
HETATM   13  C   UNL     1     -10.956  11.712  64.560  1.00  0.00    -0.376 A  
HETATM   14  C   UNL     1     -12.211  12.173  64.175  1.00  0.00    -0.509 A  
HETATM   15  C   UNL     1     -12.882  13.098  64.971  1.00  0.00    -0.370 A  
ENDBRANCH   9  10
BRANCH   9  16
HETATM   16  C   UNL     1     -11.347  13.473  69.069  1.00  0.00    -0.336 A  
HETATM   17  C   UNL     1     -12.719  14.581  70.752  1.00  0.00    -0.425 A  
HETATM   18  C   UNL     1     -12.520  12.182  70.781  1.00  0.00    -0.362 A  
HETATM   19  C   UNL     1     -11.890  14.642  69.627  1.00  0.00    -0.367 A  
HETATM   20  C   UNL     1     -11.704  12.240  69.650  1.00  0.00    -0.386 A  
HETATM   21  C   UNL     1     -13.023  13.353  71.336  1.00  0.00    -0.412 A  
ENDBRANCH   9  16
ENDBRANCH   7   9
ENDBRANCH   6   7
ENDBRANCH   2   6
TORSDOF 5
ENDMDL
MODEL      184
REMARK 921   NORMALIZED FREE ENERGY PREDICTED BY IDOCK:   -3.09 KCAL/MOL
REMARK 922        TOTAL FREE ENERGY PREDICTED BY IDOCK:   -5.02 KCAL/MOL
REMARK 923 INTER-LIGAND FREE ENERGY PREDICTED BY IDOCK:   -4.78 KCAL/MOL
REMARK 924 INTRA-LIGAND FREE ENERGY PREDICTED BY IDOCK:   -0.24 KCAL/MOL
REMARK 927      BINDING AFFINITY PREDICTED BY RF-SCORE:    0.00 PKD
ROOT
HETATM    1  N   UNL     1      -6.254  11.536  68.584  1.00  0.00    -0.050 N  
HETATM    2  C   UNL     1      -7.275  10.764  68.099  1.00  0.00    -0.083 C  
HETATM    3  H1  UNL     1      -6.443  12.437  69.025  1.00  0.00     0.000 HD 
HETATM    4  H2  UNL     1      -5.292  11.207  68.504  1.00  0.00     0.000 HD 
HETATM    5  O   UNL     1      -7.048   9.680  67.568  1.00  0.00    -0.086 OA 
ENDROOT
BRANCH   2   6
HETATM    6  C   UNL     1      -8.666  11.349  68.234  1.00  0.00    -0.160 C  
BRANCH   6   7
HETATM    7  S   UNL     1      -9.876  10.093  67.750  1.00  0.00    -0.168 S  
HETATM    8  O   UNL     1     -10.896  10.019  68.854  1.00  0.00    -0.213 OA 
BRANCH   7   9
HETATM    9  C   UNL     1     -10.657  10.966  66.311  1.00  0.00    -0.214 C  
BRANCH   9  10
HETATM   10  C   UNL     1     -10.728  12.474  66.509  1.00  0.00    -0.266 A  
HETATM   11  C   UNL     1     -11.852  13.054  67.125  1.00  0.00    -0.431 A  
HETATM   12  C   UNL     1      -9.686  13.321  66.094  1.00  0.00    -0.258 A  
HETATM   13  C   UNL     1     -11.922  14.436  67.335  1.00  0.00    -0.407 A  
HETATM   14  C   UNL     1     -10.877  15.257  66.924  1.00  0.00    -0.317 A  
HETATM   15  C   UNL     1      -9.762  14.701  66.301  1.00  0.00    -0.329 A  
ENDBRANCH   9  10
BRANCH   9  16
HETATM   16  C   UNL     1      -9.993  10.568  64.985  1.00  0.00    -0.388 A  
HETATM   17  C   UNL     1      -8.427   9.148  63.770  1.00  0.00    -0.187 A  
HETATM   18  C   UNL     1      -9.605  10.888  62.593  1.00  0.00    -0.290 A  
HETATM   19  C   UNL     1      -9.079   9.502  64.956  1.00  0.00    -0.281 A  
HETATM   20  C   UNL     1     -10.266  11.233  63.773  1.00  0.00    -0.431 A  
HETATM   21  C   UNL     1      -8.681   9.850  62.592  1.00  0.00    -0.219 A  
ENDBRANCH   9  16
ENDBRANCH   7   9
ENDBRANCH   6   7
ENDBRANCH   2   6
TORSDOF 5
ENDMDL
MODEL      185
REMARK 921   NORMALIZED FREE ENERGY PREDICTED BY IDOCK:   -3.08 KCAL/MOL
REMARK 922        TOTAL FREE ENERGY PREDICTED BY IDOCK:   -5.00 KCAL/MOL
REMARK 923 INTER-LIGAND FREE ENERGY PREDICTED BY IDOCK:   -5.36 KCAL/MOL
REMARK 924 INTRA-LIGAND FREE ENERGY PREDICTED BY IDOCK:    0.36 KCAL/MOL
REMARK 927      BINDING AFFINITY PREDICTED BY RF-SCORE:    0.00 PKD
ROOT
HETATM    1  N   UNL     1     -10.075  18.608  68.117  1.00  0.00    -0.360 N  
HETATM    2  C   UNL     1     -10.386  18.070  66.897  1.00  0.00    -0.370 C  
HETATM    3  H1  UNL     1     -10.000  18.019  68.946  1.00  0.00     0.000 HD 
HETATM    4  H2  UNL     1      -9.916  19.613  68.198  1.00  0.00     0.000 HD 
HETATM    5  O   UNL     1     -10.477  18.780  65.899  1.00  0.00    -0.508 OA 
ENDROOT
BRANCH   2   6
HETATM    6  C   UNL     1     -10.636  16.576  66.881  1.00  0.00    -0.238 C  
BRANCH   6   7
HETATM    7  S   UNL     1      -9.100  15.734  66.424  1.00  0.00    -0.348 S  
HETATM    8  O   UNL     1      -8.052  16.799  66.246  1.00  0.00    -0.299 OA 
BRANCH   7   9
HETATM    9  C   UNL     1      -8.753  14.855  68.021  1.00  0.00    -0.165 C  
BRANCH   9  10
HETATM   10  C   UNL     1      -7.614  15.493  68.805  1.00  0.00    -0.152 A  
HETATM   11  C   UNL     1      -7.369  16.874  68.698  1.00  0.00    -0.222 A  
HETATM   12  C   UNL     1      -6.787  14.734  69.651  1.00  0.00    -0.173 A  
HETATM   13  C   UNL     1      -6.341  17.479  69.429  1.00  0.00    -0.246 A  
HETATM   14  C   UNL     1      -5.537  16.712  70.267  1.00  0.00    -0.193 A  
HETATM   15  C   UNL     1      -5.757  15.341  70.375  1.00  0.00    -0.132 A  
ENDBRANCH   9  10
BRANCH   9  16
HETATM   16  C   UNL     1     -10.030  14.681  68.856  1.00  0.00    -0.228 A  
HETATM   17  C   UNL     1     -12.114  13.487  69.271  1.00  0.00    -0.335 A  
HETATM   18  C   UNL     1     -11.546  15.387  70.637  1.00  0.00    -0.363 A  
HETATM   19  C   UNL     1     -10.923  13.640  68.554  1.00  0.00    -0.289 A  
HETATM   20  C   UNL     1     -10.351  15.532  69.932  1.00  0.00    -0.322 A  
HETATM   21  C   UNL     1     -12.432  14.369  70.303  1.00  0.00    -0.413 A  
ENDBRANCH   9  16
ENDBRANCH   7   9
ENDBRANCH   6   7
ENDBRANCH   2   6
TORSDOF 5
ENDMDL
MODEL      186
REMARK 921   NORMALIZED FREE ENERGY PREDICTED BY IDOCK:   -2.97 KCAL/MOL
REMARK 922        TOTAL FREE ENERGY PREDICTED BY IDOCK:   -4.86 KCAL/MOL
REMARK 923 INTER-LIGAND FREE ENERGY PREDICTED BY IDOCK:   -3.78 KCAL/MOL
REMARK 924 INTRA-LIGAND FREE ENERGY PREDICTED BY IDOCK:   -1.08 KCAL/MOL
REMARK 927      BINDING AFFINITY PREDICTED BY RF-SCORE:    0.00 PKD
ROOT
HETATM    1  N   UNL     1      -7.026   9.995  67.531  1.00  0.00    -0.085 N  
HETATM    2  C   UNL     1      -7.442   9.644  68.787  1.00  0.00    -0.075 C  
HETATM    3  H1  UNL     1      -7.628  10.535  66.911  1.00  0.00     0.000 HD 
HETATM    4  H2  UNL     1      -6.099   9.712  67.211  1.00  0.00     0.000 HD 
HETATM    5  O   UNL     1      -6.717   8.993  69.534  1.00  0.00    -0.046 OA 
ENDROOT
BRANCH   2   6
HETATM    6  C   UNL     1      -8.844  10.081  69.162  1.00  0.00    -0.168 C  
BRANCH   6   7
HETATM    7  S   UNL     1     -10.034   9.061  68.258  1.00  0.00    -0.180 S  
HETATM    8  O   UNL     1      -9.703   9.192  66.796  1.00  0.00    -0.176 OA 
BRANCH   7   9
HETATM    9  C   UNL     1      -9.478   7.381  68.819  1.00  0.00    -0.143 C  
BRANCH   9  10
HETATM   10  C   UNL     1     -10.249   6.886  70.035  1.00  0.00    -0.211 A  
HETATM   11  C   UNL     1      -9.693   5.900  70.871  1.00  0.00    -0.211 A  
HETATM   12  C   UNL     1     -11.519   7.394  70.358  1.00  0.00    -0.250 A  
HETATM   13  C   UNL     1     -10.379   5.452  72.005  1.00  0.00    -0.268 A  
HETATM   14  C   UNL     1     -11.633   5.972  72.313  1.00  0.00    -0.359 A  
HETATM   15  C   UNL     1     -12.203   6.938  71.488  1.00  0.00    -0.415 A  
ENDBRANCH   9  10
BRANCH   9  16
HETATM   16  C   UNL     1      -9.476   6.374  67.660  1.00  0.00    -0.120 A  
HETATM   17  C   UNL     1      -8.226   5.013  66.070  1.00  0.00    -0.113 A  
HETATM   18  C   UNL     1     -10.633   5.024  65.984  1.00  0.00    -0.286 A  
HETATM   19  C   UNL     1      -8.256   5.897  67.154  1.00  0.00    -0.105 A  
HETATM   20  C   UNL     1     -10.664   5.895  67.073  1.00  0.00    -0.396 A  
HETATM   21  C   UNL     1      -9.414   4.588  65.477  1.00  0.00    -0.175 A  
ENDBRANCH   9  16
ENDBRANCH   7   9
ENDBRANCH   6   7
ENDBRANCH   2   6
TORSDOF 5
ENDMDL
MODEL      187
REMARK 921   NORMALIZED FREE ENERGY PREDICTED BY IDOCK:   -2.92 KCAL/MOL
REMARK 922        TOTAL FREE ENERGY PREDICTED BY IDOCK:   -4.80 KCAL/MOL
REMARK 923 INTER-LIGAND FREE ENERGY PREDICTED BY IDOCK:   -4.26 KCAL/MOL
REMARK 924 INTRA-LIGAND FREE ENERGY PREDICTED BY IDOCK:   -0.54 KCAL/MOL
REMARK 927      BINDING AFFINITY PREDICTED BY RF-SCORE:    0.00 PKD
ROOT
HETATM    1  N   UNL     1      -9.191  11.438  68.781  1.00  0.00    -0.347 N  
HETATM    2  C   UNL     1     -10.238  10.614  69.098  1.00  0.00    -0.220 C  
HETATM    3  H1  UNL     1      -8.448  11.123  68.157  1.00  0.00     0.000 HD 
HETATM    4  H2  UNL     1      -9.155  12.379  69.173  1.00  0.00     0.000 HD 
HETATM    5  O   UNL     1     -11.133  10.992  69.848  1.00  0.00    -0.259 OA 
ENDROOT
BRANCH   2   6
HETATM    6  C   UNL     1     -10.189   9.225  68.494  1.00  0.00    -0.201 C  
BRANCH   6   7
HETATM    7  S   UNL     1      -8.565   8.501  68.829  1.00  0.00    -0.131 S  
HETATM    8  O   UNL     1      -7.892   9.383  69.845  1.00  0.00    -0.095 OA 
BRANCH   7   9
HETATM    9  C   UNL     1      -9.100   6.946  69.689  1.00  0.00    -0.143 C  
BRANCH   9  10
HETATM   10  C   UNL     1     -10.359   7.143  70.523  1.00  0.00    -0.215 A  
HETATM   11  C   UNL     1     -10.292   7.814  71.758  1.00  0.00    -0.243 A  
HETATM   12  C   UNL     1     -11.610   6.671  70.089  1.00  0.00    -0.446 A  
HETATM   13  C   UNL     1     -11.443   8.022  72.524  1.00  0.00    -0.471 A  
HETATM   14  C   UNL     1     -12.675   7.555  72.075  1.00  0.00    -0.246 A  
HETATM   15  C   UNL     1     -12.757   6.876  70.861  1.00  0.00    -0.196 A  
ENDBRANCH   9  10
BRANCH   9  16
HETATM   16  C   UNL     1      -9.210   5.770  68.708  1.00  0.00    -0.128 A  
HETATM   17  C   UNL     1      -9.352   3.366  68.328  1.00  0.00    -0.239 A  
HETATM   18  C   UNL     1      -9.271   4.860  66.441  1.00  0.00    -0.138 A  
HETATM   19  C   UNL     1      -9.297   4.458  69.202  1.00  0.00    -0.221 A  
HETATM   20  C   UNL     1      -9.229   5.950  67.311  1.00  0.00    -0.113 A  
HETATM   21  C   UNL     1      -9.326   3.567  66.949  1.00  0.00    -0.212 A  
ENDBRANCH   9  16
ENDBRANCH   7   9
ENDBRANCH   6   7
ENDBRANCH   2   6
TORSDOF 5
ENDMDL
MODEL      188
REMARK 921   NORMALIZED FREE ENERGY PREDICTED BY IDOCK:   -2.90 KCAL/MOL
REMARK 922        TOTAL FREE ENERGY PREDICTED BY IDOCK:   -4.77 KCAL/MOL
REMARK 923 INTER-LIGAND FREE ENERGY PREDICTED BY IDOCK:   -4.82 KCAL/MOL
REMARK 924 INTRA-LIGAND FREE ENERGY PREDICTED BY IDOCK:    0.04 KCAL/MOL
REMARK 927      BINDING AFFINITY PREDICTED BY RF-SCORE:    0.00 PKD
ROOT
HETATM    1  N   UNL     1      -7.246  15.237  68.846  1.00  0.00    -0.127 N  
HETATM    2  C   UNL     1      -8.518  15.155  68.346  1.00  0.00    -0.157 C  
HETATM    3  H1  UNL     1      -6.458  14.828  68.343  1.00  0.00     0.000 HD 
HETATM    4  H2  UNL     1      -7.084  15.714  69.733  1.00  0.00     0.000 HD 
HETATM    5  O   UNL     1      -9.466  15.648  68.951  1.00  0.00    -0.199 OA 
ENDROOT
BRANCH   2   6
HETATM    6  C   UNL     1      -8.665  14.401  67.040  1.00  0.00    -0.223 C  
BRANCH   6   7
HETATM    7  S   UNL     1      -8.093  12.701  67.281  1.00  0.00    -0.154 S  
HETATM    8  O   UNL     1      -8.614  12.249  68.619  1.00  0.00    -0.102 OA 
BRANCH   7   9
HETATM    9  C   UNL     1      -9.093  11.858  65.965  1.00  0.00    -0.119 C  
BRANCH   9  10
HETATM   10  C   UNL     1      -9.337  10.385  66.269  1.00  0.00    -0.202 A  
HETATM   11  C   UNL     1     -10.366  10.007  67.151  1.00  0.00    -0.300 A  
HETATM   12  C   UNL     1      -8.557   9.374  65.683  1.00  0.00    -0.159 A  
HETATM   13  C   UNL     1     -10.617   8.658  67.422  1.00  0.00    -0.298 A  
HETATM   14  C   UNL     1      -9.839   7.670  66.827  1.00  0.00    -0.307 A  
HETATM   15  C   UNL     1      -8.808   8.028  65.962  1.00  0.00    -0.196 A  
ENDBRANCH   9  10
BRANCH   9  16
HETATM   16  C   UNL     1     -10.386  12.628  65.661  1.00  0.00    -0.293 A  
HETATM   17  C   UNL     1     -12.458  13.638  66.455  1.00  0.00    -0.377 A  
HETATM   18  C   UNL     1     -11.957  13.660  64.100  1.00  0.00    -0.488 A  
HETATM   19  C   UNL     1     -11.253  12.975  66.711  1.00  0.00    -0.333 A  
HETATM   20  C   UNL     1     -10.749  13.011  64.355  1.00  0.00    -0.414 A  
HETATM   21  C   UNL     1     -12.816  13.968  65.149  1.00  0.00    -0.368 A  
ENDBRANCH   9  16
ENDBRANCH   7   9
ENDBRANCH   6   7
ENDBRANCH   2   6
TORSDOF 5
ENDMDL
MODEL      189
REMARK 921   NORMALIZED FREE ENERGY PREDICTED BY IDOCK:   -2.88 KCAL/MOL
REMARK 922        TOTAL FREE ENERGY PREDICTED BY IDOCK:   -4.75 KCAL/MOL
REMARK 923 INTER-LIGAND FREE ENERGY PREDICTED BY IDOCK:   -3.70 KCAL/MOL
REMARK 924 INTRA-LIGAND FREE ENERGY PREDICTED BY IDOCK:   -1.05 KCAL/MOL
REMARK 927      BINDING AFFINITY PREDICTED BY RF-SCORE:    0.00 PKD
ROOT
HETATM    1  N   UNL     1     -12.604   8.760  71.047  1.00  0.00    -0.489 N  
HETATM    2  C   UNL     1     -13.036   7.533  71.475  1.00  0.00    -0.356 C  
HETATM    3  H1  UNL     1     -11.613   8.999  71.056  1.00  0.00     0.000 HD 
HETATM    4  H2  UNL     1     -13.283   9.445  70.713  1.00  0.00     0.000 HD 
HETATM    5  O   UNL     1     -14.230   7.246  71.463  1.00  0.00    -0.430 OA 
ENDROOT
BRANCH   2   6
HETATM    6  C   UNL     1     -11.959   6.596  71.981  1.00  0.00    -0.319 C  
BRANCH   6   7
HETATM    7  S   UNL     1     -10.916   6.100  70.588  1.00  0.00    -0.317 S  
HETATM    8  O   UNL     1     -11.607   6.566  69.335  1.00  0.00    -0.339 OA 
BRANCH   7   9
HETATM    9  C   UNL     1      -9.464   7.215  70.887  1.00  0.00    -0.160 C  
BRANCH   9  10
HETATM   10  C   UNL     1      -8.539   6.692  71.979  1.00  0.00    -0.123 A  
HETATM   11  C   UNL     1      -8.431   5.309  72.210  1.00  0.00    -0.125 A  
HETATM   12  C   UNL     1      -7.774   7.562  72.775  1.00  0.00    -0.109 A  
HETATM   13  C   UNL     1      -7.569   4.812  73.194  1.00  0.00    -0.092 A  
HETATM   14  C   UNL     1      -6.813   5.688  73.967  1.00  0.00    -0.081 A  
HETATM   15  C   UNL     1      -6.919   7.061  73.760  1.00  0.00    -0.069 A  
ENDBRANCH   9  10
BRANCH   9  16
HETATM   16  C   UNL     1      -8.724   7.538  69.581  1.00  0.00    -0.137 A  
HETATM   17  C   UNL     1      -7.915   9.195  67.987  1.00  0.00    -0.101 A  
HETATM   18  C   UNL     1      -7.588   6.854  67.529  1.00  0.00    -0.109 A  
HETATM   19  C   UNL     1      -8.546   8.876  69.194  1.00  0.00    -0.134 A  
HETATM   20  C   UNL     1      -8.205   6.535  68.739  1.00  0.00    -0.119 A  
HETATM   21  C   UNL     1      -7.448   8.184  67.149  1.00  0.00    -0.089 A  
ENDBRANCH   9  16
ENDBRANCH   7   9
ENDBRANCH   6   7
ENDBRANCH   2   6
TORSDOF 5
ENDMDL
MODEL      190
REMARK 921   NORMALIZED FREE ENERGY PREDICTED BY IDOCK:   -2.88 KCAL/MOL
REMARK 922        TOTAL FREE ENERGY PREDICTED BY IDOCK:   -4.75 KCAL/MOL
REMARK 923 INTER-LIGAND FREE ENERGY PREDICTED BY IDOCK:   -4.63 KCAL/MOL
REMARK 924 INTRA-LIGAND FREE ENERGY PREDICTED BY IDOCK:   -0.11 KCAL/MOL
REMARK 927      BINDING AFFINITY PREDICTED BY RF-SCORE:    0.00 PKD
ROOT
HETATM    1  N   UNL     1      -8.075  16.287  66.471  1.00  0.00    -0.287 N  
HETATM    2  C   UNL     1      -8.810  16.287  67.626  1.00  0.00    -0.190 C  
HETATM    3  H1  UNL     1      -7.603  15.441  66.151  1.00  0.00     0.000 HD 
HETATM    4  H2  UNL     1      -7.999  17.144  65.923  1.00  0.00     0.000 HD 
HETATM    5  O   UNL     1      -9.378  17.305  68.012  1.00  0.00    -0.252 OA 
ENDROOT
BRANCH   2   6
HETATM    6  C   UNL     1      -8.840  14.978  68.388  1.00  0.00    -0.178 C  
BRANCH   6   7
HETATM    7  S   UNL     1      -8.122  13.682  67.348  1.00  0.00    -0.151 S  
HETATM    8  O   UNL     1      -7.423  12.718  68.268  1.00  0.00    -0.106 OA 
BRANCH   7   9
HETATM    9  C   UNL     1      -9.684  12.873  66.755  1.00  0.00    -0.246 C  
BRANCH   9  10
HETATM   10  C   UNL     1      -9.427  11.823  65.682  1.00  0.00    -0.209 A  
HETATM   11  C   UNL     1     -10.179  11.829  64.493  1.00  0.00    -0.327 A  
HETATM   12  C   UNL     1      -8.444  10.832  65.843  1.00  0.00    -0.166 A  
HETATM   13  C   UNL     1      -9.939  10.885  63.488  1.00  0.00    -0.419 A  
HETATM   14  C   UNL     1      -8.956   9.916  63.662  1.00  0.00    -0.278 A  
HETATM   15  C   UNL     1      -8.212   9.887  64.839  1.00  0.00    -0.146 A  
ENDBRANCH   9  10
BRANCH   9  16
HETATM   16  C   UNL     1     -10.521  12.340  67.926  1.00  0.00    -0.227 A  
HETATM   17  C   UNL     1     -11.137  10.489  69.389  1.00  0.00    -0.310 A  
HETATM   18  C   UNL     1     -12.252  12.610  69.630  1.00  0.00    -0.177 A  
HETATM   19  C   UNL     1     -10.355  11.012  68.353  1.00  0.00    -0.200 A  
HETATM   20  C   UNL     1     -11.463  13.136  68.606  1.00  0.00    -0.342 A  
HETATM   21  C   UNL     1     -12.094  11.284  70.017  1.00  0.00    -0.425 A  
ENDBRANCH   9  16
ENDBRANCH   7   9
ENDBRANCH   6   7
ENDBRANCH   2   6
TORSDOF 5
ENDMDL
MODEL      191
REMARK 921   NORMALIZED FREE ENERGY PREDICTED BY IDOCK:   -2.88 KCAL/MOL
REMARK 922        TOTAL FREE ENERGY PREDICTED BY IDOCK:   -4.74 KCAL/MOL
REMARK 923 INTER-LIGAND FREE ENERGY PREDICTED BY IDOCK:   -4.15 KCAL/MOL
REMARK 924 INTRA-LIGAND FREE ENERGY PREDICTED BY IDOCK:   -0.60 KCAL/MOL
REMARK 927      BINDING AFFINITY PREDICTED BY RF-SCORE:    0.00 PKD
ROOT
HETATM    1  N   UNL     1     -13.299  10.423  71.510  1.00  0.00    -0.343 N  
HETATM    2  C   UNL     1     -12.364   9.460  71.243  1.00  0.00    -0.341 C  
HETATM    3  H1  UNL     1     -13.079  11.413  71.399  1.00  0.00     0.000 HD 
HETATM    4  H2  UNL     1     -14.230  10.148  71.825  1.00  0.00     0.000 HD 
HETATM    5  O   UNL     1     -12.629   8.269  71.377  1.00  0.00    -0.305 OA 
ENDROOT
BRANCH   2   6
HETATM    6  C   UNL     1     -11.002   9.965  70.812  1.00  0.00    -0.337 C  
BRANCH   6   7
HETATM    7  S   UNL     1     -11.165  10.780  69.204  1.00  0.00    -0.286 S  
HETATM    8  O   UNL     1     -11.443  12.234  69.475  1.00  0.00    -0.272 OA 
BRANCH   7   9
HETATM    9  C   UNL     1      -9.412  10.635  68.614  1.00  0.00    -0.176 C  
BRANCH   9  10
HETATM   10  C   UNL     1      -8.657   9.500  69.294  1.00  0.00    -0.149 A  
HETATM   11  C   UNL     1      -7.650   9.784  70.235  1.00  0.00    -0.184 A  
HETATM   12  C   UNL     1      -8.942   8.153  69.010  1.00  0.00    -0.144 A  
HETATM   13  C   UNL     1      -6.965   8.752  70.885  1.00  0.00    -0.072 A  
HETATM   14  C   UNL     1      -7.266   7.425  70.596  1.00  0.00    -0.068 A  
HETATM   15  C   UNL     1      -8.250   7.126  69.657  1.00  0.00    -0.131 A  
ENDBRANCH   9  10
BRANCH   9  16
HETATM   16  C   UNL     1      -9.338  10.569  67.082  1.00  0.00    -0.173 A  
HETATM   17  C   UNL     1      -8.000  10.331  65.058  1.00  0.00    -0.144 A  
HETATM   18  C   UNL     1     -10.370  10.713  64.872  1.00  0.00    -0.347 A  
HETATM   19  C   UNL     1      -8.101  10.351  66.453  1.00  0.00    -0.129 A  
HETATM   20  C   UNL     1     -10.474  10.719  66.263  1.00  0.00    -0.287 A  
HETATM   21  C   UNL     1      -9.132  10.525  64.268  1.00  0.00    -0.256 A  
ENDBRANCH   9  16
ENDBRANCH   7   9
ENDBRANCH   6   7
ENDBRANCH   2   6
TORSDOF 5
ENDMDL
MODEL      192
REMARK 921   NORMALIZED FREE ENERGY PREDICTED BY IDOCK:   -2.85 KCAL/MOL
REMARK 922        TOTAL FREE ENERGY PREDICTED BY IDOCK:   -4.71 KCAL/MOL
REMARK 923 INTER-LIGAND FREE ENERGY PREDICTED BY IDOCK:   -4.85 KCAL/MOL
REMARK 924 INTRA-LIGAND FREE ENERGY PREDICTED BY IDOCK:    0.14 KCAL/MOL
REMARK 927      BINDING AFFINITY PREDICTED BY RF-SCORE:    0.00 PKD
ROOT
HETATM    1  N   UNL     1      -5.424   7.722  69.209  1.00  0.00    -0.025 N  
HETATM    2  C   UNL     1      -6.743   8.084  69.255  1.00  0.00    -0.040 C  
HETATM    3  H1  UNL     1      -4.768   8.207  68.596  1.00  0.00     0.000 HD 
HETATM    4  H2  UNL     1      -5.091   6.956  69.795  1.00  0.00     0.000 HD 
HETATM    5  O   UNL     1      -7.532   7.500  69.992  1.00  0.00    -0.079 OA 
ENDROOT
BRANCH   2   6
HETATM    6  C   UNL     1      -7.150   9.210  68.326  1.00  0.00    -0.077 C  
BRANCH   6   7
HETATM    7  S   UNL     1      -8.163  10.390  69.250  1.00  0.00    -0.142 S  
HETATM    8  O   UNL     1      -7.866  11.756  68.692  1.00  0.00    -0.135 OA 
BRANCH   7   9
HETATM    9  C   UNL     1      -9.843   9.881  68.648  1.00  0.00    -0.158 C  
BRANCH   9  10
HETATM   10  C   UNL     1     -10.829   9.653  69.786  1.00  0.00    -0.274 A  
HETATM   11  C   UNL     1     -11.008   8.363  70.318  1.00  0.00    -0.236 A  
HETATM   12  C   UNL     1     -11.576  10.709  70.335  1.00  0.00    -0.441 A  
HETATM   13  C   UNL     1     -11.893   8.141  71.379  1.00  0.00    -0.329 A  
HETATM   14  C   UNL     1     -12.618   9.200  71.915  1.00  0.00    -0.463 A  
HETATM   15  C   UNL     1     -12.463  10.482  71.391  1.00  0.00    -0.516 A  
ENDBRANCH   9  10
BRANCH   9  16
HETATM   16  C   UNL     1     -10.375  10.850  67.581  1.00  0.00    -0.232 A  
HETATM   17  C   UNL     1     -10.260  11.735  65.313  1.00  0.00    -0.307 A  
HETATM   18  C   UNL     1     -11.834  12.677  66.873  1.00  0.00    -0.425 A  
HETATM   19  C   UNL     1      -9.824  10.833  66.289  1.00  0.00    -0.262 A  
HETATM   20  C   UNL     1     -11.410  11.769  67.843  1.00  0.00    -0.362 A  
HETATM   21  C   UNL     1     -11.255  12.665  65.609  1.00  0.00    -0.344 A  
ENDBRANCH   9  16
ENDBRANCH   7   9
ENDBRANCH   6   7
ENDBRANCH   2   6
TORSDOF 5
ENDMDL
MODEL      193
REMARK 921   NORMALIZED FREE ENERGY PREDICTED BY IDOCK:   -2.81 KCAL/MOL
REMARK 922        TOTAL FREE ENERGY PREDICTED BY IDOCK:   -4.66 KCAL/MOL
REMARK 923 INTER-LIGAND FREE ENERGY PREDICTED BY IDOCK:   -4.39 KCAL/MOL
REMARK 924 INTRA-LIGAND FREE ENERGY PREDICTED BY IDOCK:   -0.27 KCAL/MOL
REMARK 927      BINDING AFFINITY PREDICTED BY RF-SCORE:    0.00 PKD
ROOT
HETATM    1  N   UNL     1     -11.741  10.516  68.450  1.00  0.00    -0.487 N  
HETATM    2  C   UNL     1     -10.913  10.243  67.395  1.00  0.00    -0.252 C  
HETATM    3  H1  UNL     1     -11.868   9.841  69.204  1.00  0.00     0.000 HD 
HETATM    4  H2  UNL     1     -12.238  11.406  68.483  1.00  0.00     0.000 HD 
HETATM    5  O   UNL     1     -10.759  11.056  66.487  1.00  0.00    -0.261 OA 
ENDROOT
BRANCH   2   6
HETATM    6  C   UNL     1     -10.243   8.884  67.416  1.00  0.00    -0.249 C  
BRANCH   6   7
HETATM    7  S   UNL     1      -8.619   9.047  68.199  1.00  0.00    -0.130 S  
HETATM    8  O   UNL     1      -8.677  10.266  69.080  1.00  0.00    -0.151 OA 
BRANCH   7   9
HETATM    9  C   UNL     1      -8.661   7.550  69.294  1.00  0.00    -0.136 C  
BRANCH   9  10
HETATM   10  C   UNL     1      -9.687   7.672  70.414  1.00  0.00    -0.179 A  
HETATM   11  C   UNL     1     -11.053   7.466  70.147  1.00  0.00    -0.265 A  
HETATM   12  C   UNL     1      -9.305   7.985  71.730  1.00  0.00    -0.218 A  
HETATM   13  C   UNL     1     -12.004   7.551  71.169  1.00  0.00    -0.334 A  
HETATM   14  C   UNL     1     -11.607   7.856  72.468  1.00  0.00    -0.443 A  
HETATM   15  C   UNL     1     -10.260   8.076  72.746  1.00  0.00    -0.389 A  
ENDBRANCH   9  10
BRANCH   9  16
HETATM   16  C   UNL     1      -8.819   6.260  68.476  1.00  0.00    -0.114 A  
HETATM   17  C   UNL     1      -8.725   5.120  66.323  1.00  0.00    -0.119 A  
HETATM   18  C   UNL     1      -9.423   3.900  68.278  1.00  0.00    -0.212 A  
HETATM   19  C   UNL     1      -8.546   6.271  67.099  1.00  0.00    -0.107 A  
HETATM   20  C   UNL     1      -9.232   5.043  69.055  1.00  0.00    -0.157 A  
HETATM   21  C   UNL     1      -9.176   3.939  66.911  1.00  0.00    -0.190 A  
ENDBRANCH   9  16
ENDBRANCH   7   9
ENDBRANCH   6   7
ENDBRANCH   2   6
TORSDOF 5
ENDMDL
MODEL      194
REMARK 921   NORMALIZED FREE ENERGY PREDICTED BY IDOCK:   -2.73 KCAL/MOL
REMARK 922        TOTAL FREE ENERGY PREDICTED BY IDOCK:   -4.55 KCAL/MOL
REMARK 923 INTER-LIGAND FREE ENERGY PREDICTED BY IDOCK:   -3.85 KCAL/MOL
REMARK 924 INTRA-LIGAND FREE ENERGY PREDICTED BY IDOCK:   -0.70 KCAL/MOL
REMARK 927      BINDING AFFINITY PREDICTED BY RF-SCORE:    0.00 PKD
ROOT
HETATM    1  N   UNL     1      -7.858  15.122  69.667  1.00  0.00    -0.326 N  
HETATM    2  C   UNL     1      -8.866  14.845  68.783  1.00  0.00    -0.183 C  
HETATM    3  H1  UNL     1      -6.880  15.034  69.391  1.00  0.00     0.000 HD 
HETATM    4  H2  UNL     1      -8.087  15.422  70.615  1.00  0.00     0.000 HD 
HETATM    5  O   UNL     1     -10.043  14.952  69.115  1.00  0.00    -0.229 OA 
ENDROOT
BRANCH   2   6
HETATM    6  C   UNL     1      -8.428  14.376  67.410  1.00  0.00    -0.203 C  
BRANCH   6   7
HETATM    7  S   UNL     1      -7.517  12.822  67.588  1.00  0.00    -0.157 S  
HETATM    8  O   UNL     1      -7.224  12.651  69.054  1.00  0.00    -0.081 OA 
BRANCH   7   9
HETATM    9  C   UNL     1      -8.865  11.630  67.134  1.00  0.00    -0.172 C  
BRANCH   9  10
HETATM   10  C   UNL     1      -8.365  10.486  66.261  1.00  0.00    -0.152 A  
HETATM   11  C   UNL     1      -6.984  10.260  66.116  1.00  0.00    -0.116 A  
HETATM   12  C   UNL     1      -9.254   9.632  65.588  1.00  0.00    -0.270 A  
HETATM   13  C   UNL     1      -6.509   9.199  65.337  1.00  0.00    -0.068 A  
HETATM   14  C   UNL     1      -7.405   8.359  64.683  1.00  0.00    -0.093 A  
HETATM   15  C   UNL     1      -8.775   8.577  64.806  1.00  0.00    -0.055 A  
ENDBRANCH   9  10
BRANCH   9  16
HETATM   16  C   UNL     1      -9.629  11.146  68.375  1.00  0.00    -0.192 A  
HETATM   17  C   UNL     1      -9.745   9.692  70.327  1.00  0.00    -0.314 A  
HETATM   18  C   UNL     1     -11.602  11.136  69.816  1.00  0.00    -0.409 A  
HETATM   19  C   UNL     1      -9.051  10.181  69.216  1.00  0.00    -0.208 A  
HETATM   20  C   UNL     1     -10.905  11.635  68.715  1.00  0.00    -0.262 A  
HETATM   21  C   UNL     1     -11.025  10.159  70.619  1.00  0.00    -0.357 A  
ENDBRANCH   9  16
ENDBRANCH   7   9
ENDBRANCH   6   7
ENDBRANCH   2   6
TORSDOF 5
ENDMDL
MODEL      195
REMARK 921   NORMALIZED FREE ENERGY PREDICTED BY IDOCK:   -2.68 KCAL/MOL
REMARK 922        TOTAL FREE ENERGY PREDICTED BY IDOCK:   -4.48 KCAL/MOL
REMARK 923 INTER-LIGAND FREE ENERGY PREDICTED BY IDOCK:   -4.60 KCAL/MOL
REMARK 924 INTRA-LIGAND FREE ENERGY PREDICTED BY IDOCK:    0.12 KCAL/MOL
REMARK 927      BINDING AFFINITY PREDICTED BY RF-SCORE:    0.00 PKD
ROOT
HETATM    1  N   UNL     1     -11.368   9.437  68.474  1.00  0.00    -0.391 N  
HETATM    2  C   UNL     1     -10.435   9.015  67.566  1.00  0.00    -0.272 C  
HETATM    3  H1  UNL     1     -11.569   8.890  69.311  1.00  0.00     0.000 HD 
HETATM    4  H2  UNL     1     -11.870  10.311  68.312  1.00  0.00     0.000 HD 
HETATM    5  O   UNL     1     -10.193   9.674  66.558  1.00  0.00    -0.239 OA 
ENDROOT
BRANCH   2   6
HETATM    6  C   UNL     1      -9.766   7.692  67.876  1.00  0.00    -0.148 C  
BRANCH   6   7
HETATM    7  S   UNL     1     -10.996   6.371  67.739  1.00  0.00    -0.285 S  
HETATM    8  O   UNL     1     -10.446   5.358  66.771  1.00  0.00    -0.244 OA 
BRANCH   7   9
HETATM    9  C   UNL     1     -10.863   5.658  69.447  1.00  0.00    -0.264 C  
BRANCH   9  10
HETATM   10  C   UNL     1      -9.534   4.953  69.685  1.00  0.00    -0.216 A  
HETATM   11  C   UNL     1      -9.481   3.795  70.482  1.00  0.00    -0.254 A  
HETATM   12  C   UNL     1      -8.338   5.427  69.120  1.00  0.00    -0.097 A  
HETATM   13  C   UNL     1      -8.272   3.123  70.691  1.00  0.00    -0.076 A  
HETATM   14  C   UNL     1      -7.099   3.604  70.118  1.00  0.00    -0.041 A  
HETATM   15  C   UNL     1      -7.131   4.756  69.337  1.00  0.00    -0.051 A  
ENDBRANCH   9  10
BRANCH   9  16
HETATM   16  C   UNL     1     -11.184   6.707  70.521  1.00  0.00    -0.388 A  
HETATM   17  C   UNL     1     -10.403   8.284  72.208  1.00  0.00    -0.386 A  
HETATM   18  C   UNL     1     -12.769   7.971  71.886  1.00  0.00    -0.354 A  
HETATM   19  C   UNL     1     -10.137   7.357  71.195  1.00  0.00    -0.189 A  
HETATM   20  C   UNL     1     -12.505   7.056  70.867  1.00  0.00    -0.319 A  
HETATM   21  C   UNL     1     -11.718   8.581  72.562  1.00  0.00    -0.390 A  
ENDBRANCH   9  16
ENDBRANCH   7   9
ENDBRANCH   6   7
ENDBRANCH   2   6
TORSDOF 5
ENDMDL
MODEL      196
REMARK 921   NORMALIZED FREE ENERGY PREDICTED BY IDOCK:   -2.67 KCAL/MOL
REMARK 922        TOTAL FREE ENERGY PREDICTED BY IDOCK:   -4.48 KCAL/MOL
REMARK 923 INTER-LIGAND FREE ENERGY PREDICTED BY IDOCK:   -4.27 KCAL/MOL
REMARK 924 INTRA-LIGAND FREE ENERGY PREDICTED BY IDOCK:   -0.21 KCAL/MOL
REMARK 927      BINDING AFFINITY PREDICTED BY RF-SCORE:    0.00 PKD
ROOT
HETATM    1  N   UNL     1      -6.114   6.434  67.574  1.00  0.00    -0.023 N  
HETATM    2  C   UNL     1      -7.344   6.492  66.976  1.00  0.00    -0.079 C  
HETATM    3  H1  UNL     1      -5.984   6.750  68.535  1.00  0.00     0.000 HD 
HETATM    4  H2  UNL     1      -5.318   6.068  67.053  1.00  0.00     0.000 HD 
HETATM    5  O   UNL     1      -7.502   6.111  65.819  1.00  0.00    -0.078 OA 
ENDROOT
BRANCH   2   6
HETATM    6  C   UNL     1      -8.459   7.079  67.817  1.00  0.00    -0.120 C  
BRANCH   6   7
HETATM    7  S   UNL     1      -9.887   7.397  66.753  1.00  0.00    -0.208 S  
HETATM    8  O   UNL     1     -10.677   6.118  66.685  1.00  0.00    -0.273 OA 
BRANCH   7   9
HETATM    9  C   UNL     1     -10.814   8.583  67.838  1.00  0.00     0.024 C  
BRANCH   9  10
HETATM   10  C   UNL     1     -10.346   8.539  69.287  1.00  0.00    -0.227 A  
HETATM   11  C   UNL     1     -11.029   7.747  70.227  1.00  0.00    -0.252 A  
HETATM   12  C   UNL     1      -9.230   9.275  69.721  1.00  0.00    -0.191 A  
HETATM   13  C   UNL     1     -10.597   7.678  71.556  1.00  0.00    -0.239 A  
HETATM   14  C   UNL     1      -9.485   8.407  71.966  1.00  0.00    -0.339 A  
HETATM   15  C   UNL     1      -8.805   9.207  71.051  1.00  0.00    -0.267 A  
ENDBRANCH   9  10
BRANCH   9  16
HETATM   16  C   UNL     1     -10.812  10.002  67.251  1.00  0.00    -0.284 A  
HETATM   17  C   UNL     1     -11.548  12.322  67.379  1.00  0.00    -0.425 A  
HETATM   18  C   UNL     1     -10.202  11.609  65.514  1.00  0.00    -0.302 A  
HETATM   19  C   UNL     1     -11.497  11.032  67.916  1.00  0.00    -0.358 A  
HETATM   20  C   UNL     1     -10.140  10.325  66.056  1.00  0.00    -0.311 A  
HETATM   21  C   UNL     1     -10.911  12.607  66.172  1.00  0.00    -0.313 A  
ENDBRANCH   9  16
ENDBRANCH   7   9
ENDBRANCH   6   7
ENDBRANCH   2   6
TORSDOF 5
ENDMDL
MODEL      197
REMARK 921   NORMALIZED FREE ENERGY PREDICTED BY IDOCK:   -2.62 KCAL/MOL
REMARK 922        TOTAL FREE ENERGY PREDICTED BY IDOCK:   -4.41 KCAL/MOL
REMARK 923 INTER-LIGAND FREE ENERGY PREDICTED BY IDOCK:   -4.67 KCAL/MOL
REMARK 924 INTRA-LIGAND FREE ENERGY PREDICTED BY IDOCK:    0.26 KCAL/MOL
REMARK 927      BINDING AFFINITY PREDICTED BY RF-SCORE:    0.00 PKD
ROOT
HETATM    1  N   UNL     1     -11.247   9.327  67.994  1.00  0.00    -0.459 N  
HETATM    2  C   UNL     1     -10.270   8.658  67.307  1.00  0.00    -0.268 C  
HETATM    3  H1  UNL     1     -11.296   9.281  69.012  1.00  0.00     0.000 HD 
HETATM    4  H2  UNL     1     -11.936   9.879  67.482  1.00  0.00     0.000 HD 
HETATM    5  O   UNL     1     -10.211   8.713  66.082  1.00  0.00    -0.210 OA 
ENDROOT
BRANCH   2   6
HETATM    6  C   UNL     1      -9.313   7.840  68.150  1.00  0.00    -0.145 C  
BRANCH   6   7
HETATM    7  S   UNL     1     -10.150   6.323  68.674  1.00  0.00    -0.172 S  
HETATM    8  O   UNL     1      -9.278   5.173  68.249  1.00  0.00    -0.110 OA 
BRANCH   7   9
HETATM    9  C   UNL     1      -9.990   6.511  70.513  1.00  0.00    -0.184 C  
BRANCH   9  10
HETATM   10  C   UNL     1     -11.188   7.215  71.136  1.00  0.00    -0.291 A  
HETATM   11  C   UNL     1     -11.006   8.394  71.882  1.00  0.00    -0.375 A  
HETATM   12  C   UNL     1     -12.494   6.719  70.984  1.00  0.00    -0.318 A  
HETATM   13  C   UNL     1     -12.099   9.065  72.440  1.00  0.00    -0.289 A  
HETATM   14  C   UNL     1     -13.385   8.563  72.273  1.00  0.00    -0.357 A  
HETATM   15  C   UNL     1     -13.582   7.390  71.549  1.00  0.00    -0.454 A  
ENDBRANCH   9  10
BRANCH   9  16
HETATM   16  C   UNL     1      -9.666   5.170  71.189  1.00  0.00    -0.235 A  
HETATM   17  C   UNL     1      -8.568   2.996  71.108  1.00  0.00    -0.108 A  
HETATM   18  C   UNL     1      -9.903   3.576  73.025  1.00  0.00    -0.194 A  
HETATM   19  C   UNL     1      -8.841   4.241  70.533  1.00  0.00    -0.132 A  
HETATM   20  C   UNL     1     -10.166   4.824  72.460  1.00  0.00    -0.245 A  
HETATM   21  C   UNL     1      -9.110   2.658  72.347  1.00  0.00    -0.125 A  
ENDBRANCH   9  16
ENDBRANCH   7   9
ENDBRANCH   6   7
ENDBRANCH   2   6
TORSDOF 5
ENDMDL
MODEL      198
REMARK 921   NORMALIZED FREE ENERGY PREDICTED BY IDOCK:   -2.61 KCAL/MOL
REMARK 922        TOTAL FREE ENERGY PREDICTED BY IDOCK:   -4.39 KCAL/MOL
REMARK 923 INTER-LIGAND FREE ENERGY PREDICTED BY IDOCK:   -3.73 KCAL/MOL
REMARK 924 INTRA-LIGAND FREE ENERGY PREDICTED BY IDOCK:   -0.66 KCAL/MOL
REMARK 927      BINDING AFFINITY PREDICTED BY RF-SCORE:    0.00 PKD
ROOT
HETATM    1  N   UNL     1     -11.319   9.941  68.159  1.00  0.00    -0.531 N  
HETATM    2  C   UNL     1     -10.527   9.077  67.451  1.00  0.00    -0.269 C  
HETATM    3  H1  UNL     1     -11.885   9.611  68.941  1.00  0.00     0.000 HD 
HETATM    4  H2  UNL     1     -11.343  10.928  67.901  1.00  0.00     0.000 HD 
HETATM    5  O   UNL     1      -9.845   9.474  66.510  1.00  0.00    -0.203 OA 
ENDROOT
BRANCH   2   6
HETATM    6  C   UNL     1     -10.581   7.627  67.886  1.00  0.00    -0.168 C  
BRANCH   6   7
HETATM    7  S   UNL     1     -10.853   7.566  69.674  1.00  0.00    -0.155 S  
HETATM    8  O   UNL     1     -11.988   6.606  69.912  1.00  0.00    -0.301 OA 
BRANCH   7   9
HETATM    9  C   UNL     1      -9.280   6.727  70.190  1.00  0.00    -0.155 C  
BRANCH   9  10
HETATM   10  C   UNL     1      -8.783   7.200  71.550  1.00  0.00    -0.119 A  
HETATM   11  C   UNL     1      -7.455   6.955  71.942  1.00  0.00    -0.088 A  
HETATM   12  C   UNL     1      -9.623   7.892  72.440  1.00  0.00    -0.270 A  
HETATM   13  C   UNL     1      -6.977   7.403  73.178  1.00  0.00    -0.069 A  
HETATM   14  C   UNL     1      -7.821   8.092  74.043  1.00  0.00    -0.276 A  
HETATM   15  C   UNL     1      -9.143   8.333  73.676  1.00  0.00    -0.138 A  
ENDBRANCH   9  10
BRANCH   9  16
HETATM   16  C   UNL     1      -9.401   5.199  70.096  1.00  0.00    -0.208 A  
HETATM   17  C   UNL     1      -9.474   3.185  68.725  1.00  0.00    -0.191 A  
HETATM   18  C   UNL     1      -9.750   3.004  71.110  1.00  0.00    -0.192 A  
HETATM   19  C   UNL     1      -9.323   4.571  68.842  1.00  0.00    -0.209 A  
HETATM   20  C   UNL     1      -9.586   4.384  71.230  1.00  0.00    -0.242 A  
HETATM   21  C   UNL     1      -9.701   2.404  69.857  1.00  0.00     0.054 A  
ENDBRANCH   9  16
ENDBRANCH   7   9
ENDBRANCH   6   7
ENDBRANCH   2   6
TORSDOF 5
ENDMDL
MODEL      199
REMARK 921   NORMALIZED FREE ENERGY PREDICTED BY IDOCK:   -2.60 KCAL/MOL
REMARK 922        TOTAL FREE ENERGY PREDICTED BY IDOCK:   -4.38 KCAL/MOL
REMARK 923 INTER-LIGAND FREE ENERGY PREDICTED BY IDOCK:   -4.18 KCAL/MOL
REMARK 924 INTRA-LIGAND FREE ENERGY PREDICTED BY IDOCK:   -0.20 KCAL/MOL
REMARK 927      BINDING AFFINITY PREDICTED BY RF-SCORE:    0.00 PKD
ROOT
HETATM    1  N   UNL     1     -10.397  19.484  69.295  1.00  0.00    -0.558 N  
HETATM    2  C   UNL     1     -10.070  18.585  68.315  1.00  0.00    -0.390 C  
HETATM    3  H1  UNL     1      -9.997  19.409  70.230  1.00  0.00     0.000 HD 
HETATM    4  H2  UNL     1     -11.048  20.241  69.086  1.00  0.00     0.000 HD 
HETATM    5  O   UNL     1     -10.551  18.676  67.189  1.00  0.00    -0.407 OA 
ENDROOT
BRANCH   2   6
HETATM    6  C   UNL     1      -9.121  17.479  68.727  1.00  0.00    -0.212 C  
BRANCH   6   7
HETATM    7  S   UNL     1     -10.067  15.952  68.949  1.00  0.00    -0.239 S  
HETATM    8  O   UNL     1     -11.425  16.185  68.343  1.00  0.00    -0.369 OA 
BRANCH   7   9
HETATM    9  C   UNL     1      -9.117  14.840  67.806  1.00  0.00    -0.186 C  
BRANCH   9  10
HETATM   10  C   UNL     1      -7.722  14.519  68.328  1.00  0.00    -0.126 A  
HETATM   11  C   UNL     1      -6.603  14.663  67.488  1.00  0.00    -0.113 A  
HETATM   12  C   UNL     1      -7.514  14.079  69.646  1.00  0.00     0.318 A  
HETATM   13  C   UNL     1      -5.314  14.393  67.960  1.00  0.00    -0.110 A  
HETATM   14  C   UNL     1      -5.125  13.966  69.271  1.00  0.00    -0.081 A  
HETATM   15  C   UNL     1      -6.225  13.805  70.111  1.00  0.00    -0.110 A  
ENDBRANCH   9  10
BRANCH   9  16
HETATM   16  C   UNL     1      -9.924  13.585  67.442  1.00  0.00    -0.234 A  
HETATM   17  C   UNL     1     -10.344  11.204  67.750  1.00  0.00    -0.215 A  
HETATM   18  C   UNL     1     -11.620  12.430  66.117  1.00  0.00    -0.452 A  
HETATM   19  C   UNL     1      -9.654  12.371  68.095  1.00  0.00    -0.218 A  
HETATM   20  C   UNL     1     -10.941  13.597  66.469  1.00  0.00    -0.295 A  
HETATM   21  C   UNL     1     -11.317  11.231  66.752  1.00  0.00    -0.187 A  
ENDBRANCH   9  16
ENDBRANCH   7   9
ENDBRANCH   6   7
ENDBRANCH   2   6
TORSDOF 5
ENDMDL
MODEL      200
REMARK 921   NORMALIZED FREE ENERGY PREDICTED BY IDOCK:   -2.59 KCAL/MOL
REMARK 922        TOTAL FREE ENERGY PREDICTED BY IDOCK:   -4.37 KCAL/MOL
REMARK 923 INTER-LIGAND FREE ENERGY PREDICTED BY IDOCK:   -4.92 KCAL/MOL
REMARK 924 INTRA-LIGAND FREE ENERGY PREDICTED BY IDOCK:    0.55 KCAL/MOL
REMARK 927      BINDING AFFINITY PREDICTED BY RF-SCORE:    0.00 PKD
ROOT
HETATM    1  N   UNL     1      -6.374  14.145  67.608  1.00  0.00    -0.153 N  
HETATM    2  C   UNL     1      -6.997  13.075  68.194  1.00  0.00    -0.105 C  
HETATM    3  H1  UNL     1      -6.730  14.550  66.743  1.00  0.00     0.000 HD 
HETATM    4  H2  UNL     1      -5.541  14.543  68.044  1.00  0.00     0.000 HD 
HETATM    5  O   UNL     1      -6.567  12.588  69.236  1.00  0.00    -0.102 OA 
ENDROOT
BRANCH   2   6
HETATM    6  C   UNL     1      -8.205  12.534  67.458  1.00  0.00    -0.175 C  
BRANCH   6   7
HETATM    7  S   UNL     1      -7.744  10.987  66.639  1.00  0.00    -0.155 S  
HETATM    8  O   UNL     1      -7.007  10.156  67.655  1.00  0.00    -0.083 OA 
BRANCH   7   9
HETATM    9  C   UNL     1      -9.432  10.249  66.416  1.00  0.00    -0.174 C  
BRANCH   9  10
HETATM   10  C   UNL     1     -10.100   9.904  67.740  1.00  0.00    -0.221 A  
HETATM   11  C   UNL     1     -10.185   8.564  68.161  1.00  0.00    -0.254 A  
HETATM   12  C   UNL     1     -10.640  10.899  68.573  1.00  0.00    -0.219 A  
HETATM   13  C   UNL     1     -10.774   8.234  69.386  1.00  0.00    -0.160 A  
HETATM   14  C   UNL     1     -11.297   9.233  70.201  1.00  0.00    -0.193 A  
HETATM   15  C   UNL     1     -11.233  10.563  69.793  1.00  0.00    -0.361 A  
ENDBRANCH   9  10
BRANCH   9  16
HETATM   16  C   UNL     1     -10.313  11.125  65.512  1.00  0.00    -0.326 A  
HETATM   17  C   UNL     1     -12.217  12.626  65.263  1.00  0.00    -0.532 A  
HETATM   18  C   UNL     1     -10.951  11.987  63.317  1.00  0.00    -0.399 A  
HETATM   19  C   UNL     1     -11.373  11.857  66.071  1.00  0.00    -0.375 A  
HETATM   20  C   UNL     1     -10.101  11.230  64.123  1.00  0.00    -0.373 A  
HETATM   21  C   UNL     1     -12.014  12.680  63.885  1.00  0.00    -0.558 A  
ENDBRANCH   9  16
ENDBRANCH   7   9
ENDBRANCH   6   7
ENDBRANCH   2   6
TORSDOF 5
ENDMDL
MODEL      201
REMARK 921   NORMALIZED FREE ENERGY PREDICTED BY IDOCK:   -2.52 KCAL/MOL
REMARK 922        TOTAL FREE ENERGY PREDICTED BY IDOCK:   -4.27 KCAL/MOL
REMARK 923 INTER-LIGAND FREE ENERGY PREDICTED BY IDOCK:   -3.67 KCAL/MOL
REMARK 924 INTRA-LIGAND FREE ENERGY PREDICTED BY IDOCK:   -0.60 KCAL/MOL
REMARK 927      BINDING AFFINITY PREDICTED BY RF-SCORE:    0.00 PKD
ROOT
HETATM    1  N   UNL     1     -10.048   9.112  65.847  1.00  0.00    -0.387 N  
HETATM    2  C   UNL     1     -10.309  10.140  66.713  1.00  0.00    -0.222 C  
HETATM    3  H1  UNL     1      -9.094   8.781  65.699  1.00  0.00     0.000 HD 
HETATM    4  H2  UNL     1     -10.817   8.670  65.344  1.00  0.00     0.000 HD 
HETATM    5  O   UNL     1     -11.457  10.538  66.891  1.00  0.00    -0.175 OA 
ENDROOT
BRANCH   2   6
HETATM    6  C   UNL     1      -9.101  10.754  67.390  1.00  0.00    -0.143 C  
BRANCH   6   7
HETATM    7  S   UNL     1      -9.213  10.449  69.170  1.00  0.00    -0.174 S  
HETATM    8  O   UNL     1     -10.540  10.994  69.625  1.00  0.00    -0.193 OA 
BRANCH   7   9
HETATM    9  C   UNL     1      -9.333   8.597  69.152  1.00  0.00    -0.153 C  
BRANCH   9  10
HETATM   10  C   UNL     1      -7.973   7.924  69.028  1.00  0.00    -0.122 A  
HETATM   11  C   UNL     1      -7.888   6.540  68.792  1.00  0.00    -0.110 A  
HETATM   12  C   UNL     1      -6.777   8.655  69.140  1.00  0.00    -0.047 A  
HETATM   13  C   UNL     1      -6.646   5.911  68.653  1.00  0.00    -0.058 A  
HETATM   14  C   UNL     1      -5.473   6.652  68.759  1.00  0.00    -0.016 A  
HETATM   15  C   UNL     1      -5.539   8.021  69.007  1.00  0.00    -0.034 A  
ENDBRANCH   9  10
BRANCH   9  16
HETATM   16  C   UNL     1     -10.153   8.076  70.341  1.00  0.00    -0.194 A  
HETATM   17  C   UNL     1     -12.027   6.757  71.175  1.00  0.00    -0.421 A  
HETATM   18  C   UNL     1     -10.659   7.986  72.729  1.00  0.00    -0.420 A  
HETATM   19  C   UNL     1     -11.237   7.211  70.113  1.00  0.00    -0.295 A  
HETATM   20  C   UNL     1      -9.863   8.429  71.673  1.00  0.00    -0.290 A  
HETATM   21  C   UNL     1     -11.746   7.156  72.481  1.00  0.00    -0.220 A  
ENDBRANCH   9  16
ENDBRANCH   7   9
ENDBRANCH   6   7
ENDBRANCH   2   6
TORSDOF 5
ENDMDL
MODEL      202
REMARK 921   NORMALIZED FREE ENERGY PREDICTED BY IDOCK:   -2.50 KCAL/MOL
REMARK 922        TOTAL FREE ENERGY PREDICTED BY IDOCK:   -4.26 KCAL/MOL
REMARK 923 INTER-LIGAND FREE ENERGY PREDICTED BY IDOCK:   -4.03 KCAL/MOL
REMARK 924 INTRA-LIGAND FREE ENERGY PREDICTED BY IDOCK:   -0.23 KCAL/MOL
REMARK 927      BINDING AFFINITY PREDICTED BY RF-SCORE:    0.00 PKD
ROOT
HETATM    1  N   UNL     1      -9.206   7.479  65.998  1.00  0.00    -0.359 N  
HETATM    2  C   UNL     1     -10.339   7.669  66.743  1.00  0.00    -0.273 C  
HETATM    3  H1  UNL     1      -8.860   6.541  65.800  1.00  0.00     0.000 HD 
HETATM    4  H2  UNL     1      -8.701   8.288  65.634  1.00  0.00     0.000 HD 
HETATM    5  O   UNL     1     -10.756   8.799  66.980  1.00  0.00    -0.262 OA 
ENDROOT
BRANCH   2   6
HETATM    6  C   UNL     1     -11.002   6.411  67.266  1.00  0.00    -0.392 C  
BRANCH   6   7
HETATM    7  S   UNL     1      -9.925   5.660  68.511  1.00  0.00    -0.170 S  
HETATM    8  O   UNL     1      -8.525   5.695  67.959  1.00  0.00    -0.103 OA 
BRANCH   7   9
HETATM    9  C   UNL     1     -10.048   6.954  69.836  1.00  0.00    -0.188 C  
BRANCH   9  10
HETATM   10  C   UNL     1     -10.271   6.356  71.219  1.00  0.00    -0.232 A  
HETATM   11  C   UNL     1     -10.316   4.960  71.386  1.00  0.00    -0.221 A  
HETATM   12  C   UNL     1     -10.431   7.168  72.354  1.00  0.00    -0.247 A  
HETATM   13  C   UNL     1     -10.497   4.395  72.653  1.00  0.00    -0.249 A  
HETATM   14  C   UNL     1     -10.647   5.215  73.768  1.00  0.00    -0.331 A  
HETATM   15  C   UNL     1     -10.618   6.600  73.617  1.00  0.00    -0.323 A  
ENDBRANCH   9  10
BRANCH   9  16
HETATM   16  C   UNL     1      -8.857   7.922  69.788  1.00  0.00    -0.141 A  
HETATM   17  C   UNL     1      -6.446   8.279  69.796  1.00  0.00    -0.036 A  
HETATM   18  C   UNL     1      -7.923  10.180  69.750  1.00  0.00    -0.172 A  
HETATM   19  C   UNL     1      -7.547   7.416  69.794  1.00  0.00    -0.095 A  
HETATM   20  C   UNL     1      -9.022   9.320  69.734  1.00  0.00    -0.180 A  
HETATM   21  C   UNL     1      -6.634   9.660  69.787  1.00  0.00    -0.055 A  
ENDBRANCH   9  16
ENDBRANCH   7   9
ENDBRANCH   6   7
ENDBRANCH   2   6
TORSDOF 5
ENDMDL
MODEL      203
REMARK 921   NORMALIZED FREE ENERGY PREDICTED BY IDOCK:   -2.43 KCAL/MOL
REMARK 922        TOTAL FREE ENERGY PREDICTED BY IDOCK:   -4.16 KCAL/MOL
REMARK 923 INTER-LIGAND FREE ENERGY PREDICTED BY IDOCK:   -4.19 KCAL/MOL
REMARK 924 INTRA-LIGAND FREE ENERGY PREDICTED BY IDOCK:    0.03 KCAL/MOL
REMARK 927      BINDING AFFINITY PREDICTED BY RF-SCORE:    0.00 PKD
ROOT
HETATM    1  N   UNL     1     -10.415  17.995  68.949  1.00  0.00    -0.404 N  
HETATM    2  C   UNL     1     -10.404  17.604  67.637  1.00  0.00    -0.368 C  
HETATM    3  H1  UNL     1     -10.379  17.306  69.701  1.00  0.00     0.000 HD 
HETATM    4  H2  UNL     1     -10.459  18.988  69.178  1.00  0.00     0.000 HD 
HETATM    5  O   UNL     1     -10.447  18.432  66.732  1.00  0.00    -0.380 OA 
ENDROOT
BRANCH   2   6
HETATM    6  C   UNL     1     -10.370  16.109  67.395  1.00  0.00    -0.294 C  
BRANCH   6   7
HETATM    7  S   UNL     1      -8.964  15.724  66.322  1.00  0.00    -0.342 S  
HETATM    8  O   UNL     1      -7.885  16.725  66.636  1.00  0.00    -0.212 OA 
BRANCH   7   9
HETATM    9  C   UNL     1      -8.462  14.095  67.055  1.00  0.00    -0.156 C  
BRANCH   9  10
HETATM   10  C   UNL     1      -7.525  14.253  68.245  1.00  0.00    -0.125 A  
HETATM   11  C   UNL     1      -7.709  15.310  69.154  1.00  0.00    -0.200 A  
HETATM   12  C   UNL     1      -6.465  13.358  68.470  1.00  0.00    -0.086 A  
HETATM   13  C   UNL     1      -6.871  15.455  70.265  1.00  0.00     0.138 A  
HETATM   14  C   UNL     1      -5.831  14.554  70.476  1.00  0.00    -0.173 A  
HETATM   15  C   UNL     1      -5.627  13.510  69.578  1.00  0.00    -0.092 A  
ENDBRANCH   9  10
BRANCH   9  16
HETATM   16  C   UNL     1      -9.684  13.219  67.368  1.00  0.00    -0.221 A  
HETATM   17  C   UNL     1     -11.624  11.971  66.578  1.00  0.00    -0.384 A  
HETATM   18  C   UNL     1     -11.197  12.123  68.943  1.00  0.00    -0.320 A  
HETATM   19  C   UNL     1     -10.480  12.733  66.317  1.00  0.00    -0.273 A  
HETATM   20  C   UNL     1     -10.049  12.872  68.683  1.00  0.00    -0.136 A  
HETATM   21  C   UNL     1     -11.989  11.677  67.891  1.00  0.00    -0.159 A  
ENDBRANCH   9  16
ENDBRANCH   7   9
ENDBRANCH   6   7
ENDBRANCH   2   6
TORSDOF 5
ENDMDL
MODEL      204
REMARK 921   NORMALIZED FREE ENERGY PREDICTED BY IDOCK:   -2.40 KCAL/MOL
REMARK 922        TOTAL FREE ENERGY PREDICTED BY IDOCK:   -4.12 KCAL/MOL
REMARK 923 INTER-LIGAND FREE ENERGY PREDICTED BY IDOCK:   -4.43 KCAL/MOL
REMARK 924 INTRA-LIGAND FREE ENERGY PREDICTED BY IDOCK:    0.31 KCAL/MOL
REMARK 927      BINDING AFFINITY PREDICTED BY RF-SCORE:    0.00 PKD
ROOT
HETATM    1  N   UNL     1      -7.806   9.268  70.768  1.00  0.00    -0.153 N  
HETATM    2  C   UNL     1      -7.066  10.189  70.076  1.00  0.00    -0.154 C  
HETATM    3  H1  UNL     1      -8.478   8.669  70.288  1.00  0.00     0.000 HD 
HETATM    4  H2  UNL     1      -7.684   9.180  71.777  1.00  0.00     0.000 HD 
HETATM    5  O   UNL     1      -6.257  10.910  70.653  1.00  0.00    -0.289 OA 
ENDROOT
BRANCH   2   6
HETATM    6  C   UNL     1      -7.339  10.269  68.588  1.00  0.00    -0.083 C  
BRANCH   6   7
HETATM    7  S   UNL     1      -7.376  12.010  68.096  1.00  0.00    -0.103 S  
HETATM    8  O   UNL     1      -6.506  12.140  66.875  1.00  0.00    -0.125 OA 
BRANCH   7   9
HETATM    9  C   UNL     1      -9.145  12.132  67.551  1.00  0.00    -0.180 C  
BRANCH   9  10
HETATM   10  C   UNL     1      -9.703  13.543  67.684  1.00  0.00    -0.229 A  
HETATM   11  C   UNL     1      -9.220  14.575  66.858  1.00  0.00    -0.267 A  
HETATM   12  C   UNL     1     -10.707  13.852  68.618  1.00  0.00    -0.272 A  
HETATM   13  C   UNL     1      -9.739  15.870  66.952  1.00  0.00    -0.241 A  
HETATM   14  C   UNL     1     -10.737  16.156  67.878  1.00  0.00    -0.321 A  
HETATM   15  C   UNL     1     -11.217  15.149  68.712  1.00  0.00    -0.293 A  
ENDBRANCH   9  10
BRANCH   9  16
HETATM   16  C   UNL     1      -9.343  11.540  66.148  1.00  0.00    -0.230 A  
HETATM   17  C   UNL     1      -8.537  10.111  64.345  1.00  0.00    -0.199 A  
HETATM   18  C   UNL     1     -10.570  11.365  64.042  1.00  0.00    -0.444 A  
HETATM   19  C   UNL     1      -8.403  10.630  65.637  1.00  0.00    -0.162 A  
HETATM   20  C   UNL     1     -10.445  11.872  65.335  1.00  0.00    -0.312 A  
HETATM   21  C   UNL     1      -9.613  10.489  63.543  1.00  0.00    -0.374 A  
ENDBRANCH   9  16
ENDBRANCH   7   9
ENDBRANCH   6   7
ENDBRANCH   2   6
TORSDOF 5
ENDMDL
MODEL      205
REMARK 921   NORMALIZED FREE ENERGY PREDICTED BY IDOCK:   -2.38 KCAL/MOL
REMARK 922        TOTAL FREE ENERGY PREDICTED BY IDOCK:   -4.09 KCAL/MOL
REMARK 923 INTER-LIGAND FREE ENERGY PREDICTED BY IDOCK:   -3.49 KCAL/MOL
REMARK 924 INTRA-LIGAND FREE ENERGY PREDICTED BY IDOCK:   -0.60 KCAL/MOL
REMARK 927      BINDING AFFINITY PREDICTED BY RF-SCORE:    0.00 PKD
ROOT
HETATM    1  N   UNL     1      -6.290  14.914  69.293  1.00  0.00    -0.108 N  
HETATM    2  C   UNL     1      -7.627  14.909  68.998  1.00  0.00    -0.151 C  
HETATM    3  H1  UNL     1      -5.644  14.293  68.807  1.00  0.00     0.000 HD 
HETATM    4  H2  UNL     1      -5.936  15.548  70.010  1.00  0.00     0.000 HD 
HETATM    5  O   UNL     1      -8.406  15.656  69.583  1.00  0.00    -0.219 OA 
ENDROOT
BRANCH   2   6
HETATM    6  C   UNL     1      -8.064  13.912  67.944  1.00  0.00    -0.158 C  
BRANCH   6   7
HETATM    7  S   UNL     1      -7.580  12.251  68.476  1.00  0.00    -0.098 S  
HETATM    8  O   UNL     1      -7.073  12.373  69.887  1.00  0.00     0.327 OA 
BRANCH   7   9
HETATM    9  C   UNL     1      -9.256  11.455  68.540  1.00  0.00    -0.174 C  
BRANCH   9  10
HETATM   10  C   UNL     1     -10.115  11.804  67.332  1.00  0.00    -0.212 A  
HETATM   11  C   UNL     1     -11.291  12.560  67.496  1.00  0.00    -0.368 A  
HETATM   12  C   UNL     1      -9.764  11.392  66.035  1.00  0.00    -0.253 A  
HETATM   13  C   UNL     1     -12.079  12.908  66.394  1.00  0.00    -0.400 A  
HETATM   14  C   UNL     1     -11.711  12.498  65.116  1.00  0.00    -0.422 A  
HETATM   15  C   UNL     1     -10.558  11.737  64.938  1.00  0.00    -0.344 A  
ENDBRANCH   9  10
BRANCH   9  16
HETATM   16  C   UNL     1      -9.150   9.943  68.782  1.00  0.00    -0.147 A  
HETATM   17  C   UNL     1      -8.221   7.780  68.148  1.00  0.00    -0.124 A  
HETATM   18  C   UNL     1      -9.808   7.903  69.955  1.00  0.00    -0.181 A  
HETATM   19  C   UNL     1      -8.301   9.166  67.977  1.00  0.00    -0.120 A  
HETATM   20  C   UNL     1      -9.878   9.287  69.794  1.00  0.00    -0.202 A  
HETATM   21  C   UNL     1      -8.984   7.147  69.128  1.00  0.00    -0.138 A  
ENDBRANCH   9  16
ENDBRANCH   7   9
ENDBRANCH   6   7
ENDBRANCH   2   6
TORSDOF 5
ENDMDL
MODEL      206
REMARK 921   NORMALIZED FREE ENERGY PREDICTED BY IDOCK:   -2.35 KCAL/MOL
REMARK 922        TOTAL FREE ENERGY PREDICTED BY IDOCK:   -4.07 KCAL/MOL
REMARK 923 INTER-LIGAND FREE ENERGY PREDICTED BY IDOCK:   -3.71 KCAL/MOL
REMARK 924 INTRA-LIGAND FREE ENERGY PREDICTED BY IDOCK:   -0.36 KCAL/MOL
REMARK 927      BINDING AFFINITY PREDICTED BY RF-SCORE:    0.00 PKD
ROOT
HETATM    1  N   UNL     1     -13.752  10.328  71.988  1.00  0.00    -0.324 N  
HETATM    2  C   UNL     1     -13.207   9.077  72.099  1.00  0.00    -0.446 C  
HETATM    3  H1  UNL     1     -13.161  11.146  71.837  1.00  0.00     0.000 HD 
HETATM    4  H2  UNL     1     -14.763  10.445  72.057  1.00  0.00     0.000 HD 
HETATM    5  O   UNL     1     -13.918   8.093  72.281  1.00  0.00    -0.277 OA 
ENDROOT
BRANCH   2   6
HETATM    6  C   UNL     1     -11.696   9.007  72.015  1.00  0.00    -0.347 C  
BRANCH   6   7
HETATM    7  S   UNL     1     -11.190   9.358  70.314  1.00  0.00    -0.226 S  
HETATM    8  O   UNL     1     -11.263  10.851  70.133  1.00  0.00    -0.288 OA 
BRANCH   7   9
HETATM    9  C   UNL     1      -9.399   8.886  70.428  1.00  0.00    -0.193 C  
BRANCH   9  10
HETATM   10  C   UNL     1      -9.162   7.714  71.372  1.00  0.00    -0.152 A  
HETATM   11  C   UNL     1      -8.308   7.861  72.480  1.00  0.00    -0.191 A  
HETATM   12  C   UNL     1      -9.784   6.470  71.171  1.00  0.00    -0.188 A  
HETATM   13  C   UNL     1      -8.098   6.801  73.369  1.00  0.00    -0.111 A  
HETATM   14  C   UNL     1      -8.728   5.578  73.158  1.00  0.00    -0.120 A  
HETATM   15  C   UNL     1      -9.567   5.412  72.058  1.00  0.00    -0.186 A  
ENDBRANCH   9  10
BRANCH   9  16
HETATM   16  C   UNL     1      -8.785   8.668  69.038  1.00  0.00    -0.134 A  
HETATM   17  C   UNL     1      -8.484   7.245  67.081  1.00  0.00    -0.118 A  
HETATM   18  C   UNL     1      -7.348   9.366  67.189  1.00  0.00    -0.087 A  
HETATM   19  C   UNL     1      -9.066   7.488  68.330  1.00  0.00    -0.132 A  
HETATM   20  C   UNL     1      -7.939   9.615  68.428  1.00  0.00    -0.096 A  
HETATM   21  C   UNL     1      -7.615   8.178  66.517  1.00  0.00    -0.092 A  
ENDBRANCH   9  16
ENDBRANCH   7   9
ENDBRANCH   6   7
ENDBRANCH   2   6
TORSDOF 5
ENDMDL
MODEL      207
REMARK 921   NORMALIZED FREE ENERGY PREDICTED BY IDOCK:   -2.34 KCAL/MOL
REMARK 922        TOTAL FREE ENERGY PREDICTED BY IDOCK:   -4.04 KCAL/MOL
REMARK 923 INTER-LIGAND FREE ENERGY PREDICTED BY IDOCK:   -3.26 KCAL/MOL
REMARK 924 INTRA-LIGAND FREE ENERGY PREDICTED BY IDOCK:   -0.78 KCAL/MOL
REMARK 927      BINDING AFFINITY PREDICTED BY RF-SCORE:    0.00 PKD
ROOT
HETATM    1  N   UNL     1      -5.665   5.833  69.932  1.00  0.00    -0.015 N  
HETATM    2  C   UNL     1      -6.874   5.697  70.560  1.00  0.00    -0.052 C  
HETATM    3  H1  UNL     1      -4.989   6.531  70.243  1.00  0.00     0.000 HD 
HETATM    4  H2  UNL     1      -5.437   5.227  69.143  1.00  0.00     0.000 HD 
HETATM    5  O   UNL     1      -7.688   4.857  70.187  1.00  0.00    -0.060 OA 
ENDROOT
BRANCH   2   6
HETATM    6  C   UNL     1      -7.136   6.661  71.700  1.00  0.00    -0.080 C  
BRANCH   6   7
HETATM    7  S   UNL     1      -7.097   8.351  71.053  1.00  0.00    -0.069 S  
HETATM    8  O   UNL     1      -5.788   8.515  70.330  1.00  0.00    -0.028 OA 
BRANCH   7   9
HETATM    9  C   UNL     1      -8.440   8.217  69.779  1.00  0.00    -0.128 C  
BRANCH   9  10
HETATM   10  C   UNL     1      -9.785   7.840  70.384  1.00  0.00    -0.179 A  
HETATM   11  C   UNL     1     -10.379   8.664  71.358  1.00  0.00    -0.331 A  
HETATM   12  C   UNL     1     -10.468   6.676  69.990  1.00  0.00    -0.250 A  
HETATM   13  C   UNL     1     -11.625   8.342  71.906  1.00  0.00    -0.395 A  
HETATM   14  C   UNL     1     -12.290   7.190  71.498  1.00  0.00    -0.406 A  
HETATM   15  C   UNL     1     -11.710   6.356  70.545  1.00  0.00    -0.385 A  
ENDBRANCH   9  10
BRANCH   9  16
HETATM   16  C   UNL     1      -8.510   9.476  68.902  1.00  0.00    -0.123 A  
HETATM   17  C   UNL     1      -9.414  10.620  66.948  1.00  0.00    -0.189 A  
HETATM   18  C   UNL     1      -7.783  11.736  68.323  1.00  0.00    -0.130 A  
HETATM   19  C   UNL     1      -9.365   9.502  67.788  1.00  0.00    -0.143 A  
HETATM   20  C   UNL     1      -7.743  10.627  69.169  1.00  0.00    -0.138 A  
HETATM   21  C   UNL     1      -8.613  11.730  67.208  1.00  0.00    -0.162 A  
ENDBRANCH   9  16
ENDBRANCH   7   9
ENDBRANCH   6   7
ENDBRANCH   2   6
TORSDOF 5
ENDMDL
MODEL      208
REMARK 921   NORMALIZED FREE ENERGY PREDICTED BY IDOCK:   -2.29 KCAL/MOL
REMARK 922        TOTAL FREE ENERGY PREDICTED BY IDOCK:   -3.99 KCAL/MOL
REMARK 923 INTER-LIGAND FREE ENERGY PREDICTED BY IDOCK:   -3.12 KCAL/MOL
REMARK 924 INTRA-LIGAND FREE ENERGY PREDICTED BY IDOCK:   -0.87 KCAL/MOL
REMARK 927      BINDING AFFINITY PREDICTED BY RF-SCORE:    0.00 PKD
ROOT
HETATM    1  N   UNL     1      -6.322   5.482  69.509  1.00  0.00    -0.032 N  
HETATM    2  C   UNL     1      -6.829   4.754  68.466  1.00  0.00    -0.051 C  
HETATM    3  H1  UNL     1      -6.889   5.684  70.332  1.00  0.00     0.000 HD 
HETATM    4  H2  UNL     1      -5.362   5.826  69.463  1.00  0.00     0.000 HD 
HETATM    5  O   UNL     1      -6.146   4.510  67.476  1.00  0.00    -0.029 OA 
ENDROOT
BRANCH   2   6
HETATM    6  C   UNL     1      -8.271   4.314  68.611  1.00  0.00    -0.083 C  
BRANCH   6   7
HETATM    7  S   UNL     1      -9.337   5.774  68.534  1.00  0.00    -0.124 S  
HETATM    8  O   UNL     1      -8.839   6.736  69.579  1.00  0.00    -0.138 OA 
BRANCH   7   9
HETATM    9  C   UNL     1      -8.833   6.428  66.872  1.00  0.00    -0.119 C  
BRANCH   9  10
HETATM   10  C   UNL     1      -9.240   5.504  65.732  1.00  0.00    -0.132 A  
HETATM   11  C   UNL     1      -8.368   5.293  64.648  1.00  0.00    -0.141 A  
HETATM   12  C   UNL     1     -10.479   4.840  65.729  1.00  0.00    -0.275 A  
HETATM   13  C   UNL     1      -8.718   4.429  63.605  1.00  0.00    -0.129 A  
HETATM   14  C   UNL     1      -9.946   3.774  63.623  1.00  0.00    -0.181 A  
HETATM   15  C   UNL     1     -10.826   3.983  64.682  1.00  0.00    -0.122 A  
ENDBRANCH   9  10
BRANCH   9  16
HETATM   16  C   UNL     1      -9.308   7.874  66.669  1.00  0.00    -0.244 A  
HETATM   17  C   UNL     1     -10.859   9.668  67.235  1.00  0.00    -0.212 A  
HETATM   18  C   UNL     1      -9.198  10.034  65.531  1.00  0.00    -0.247 A  
HETATM   19  C   UNL     1     -10.379   8.369  67.432  1.00  0.00    -0.355 A  
HETATM   20  C   UNL     1      -8.709   8.743  65.737  1.00  0.00    -0.209 A  
HETATM   21  C   UNL     1     -10.277  10.495  66.276  1.00  0.00    -0.296 A  
ENDBRANCH   9  16
ENDBRANCH   7   9
ENDBRANCH   6   7
ENDBRANCH   2   6
TORSDOF 5
ENDMDL
MODEL      209
REMARK 921   NORMALIZED FREE ENERGY PREDICTED BY IDOCK:   -2.29 KCAL/MOL
REMARK 922        TOTAL FREE ENERGY PREDICTED BY IDOCK:   -3.99 KCAL/MOL
REMARK 923 INTER-LIGAND FREE ENERGY PREDICTED BY IDOCK:   -3.61 KCAL/MOL
REMARK 924 INTRA-LIGAND FREE ENERGY PREDICTED BY IDOCK:   -0.37 KCAL/MOL
REMARK 927      BINDING AFFINITY PREDICTED BY RF-SCORE:    0.00 PKD
ROOT
HETATM    1  N   UNL     1     -11.169   9.747  68.446  1.00  0.00    -0.512 N  
HETATM    2  C   UNL     1     -10.672  10.125  67.228  1.00  0.00    -0.254 C  
HETATM    3  H1  UNL     1     -11.066   8.788  68.780  1.00  0.00     0.000 HD 
HETATM    4  H2  UNL     1     -11.649  10.433  69.029  1.00  0.00     0.000 HD 
HETATM    5  O   UNL     1     -10.795  11.278  66.827  1.00  0.00    -0.264 OA 
ENDROOT
BRANCH   2   6
HETATM    6  C   UNL     1     -10.004   9.030  66.421  1.00  0.00    -0.300 C  
BRANCH   6   7
HETATM    7  S   UNL     1      -8.237   9.011  66.815  1.00  0.00    -0.116 S  
HETATM    8  O   UNL     1      -8.056   9.842  68.057  1.00  0.00    -0.107 OA 
BRANCH   7   9
HETATM    9  C   UNL     1      -8.054   7.227  67.292  1.00  0.00    -0.112 C  
BRANCH   9  10
HETATM   10  C   UNL     1      -8.991   6.824  68.422  1.00  0.00    -0.124 A  
HETATM   11  C   UNL     1     -10.309   6.420  68.138  1.00  0.00    -0.231 A  
HETATM   12  C   UNL     1      -8.575   6.839  69.764  1.00  0.00    -0.141 A  
HETATM   13  C   UNL     1     -11.174   6.025  69.164  1.00  0.00    -0.337 A  
HETATM   14  C   UNL     1     -10.742   6.039  70.486  1.00  0.00    -0.349 A  
HETATM   15  C   UNL     1      -9.445   6.449  70.786  1.00  0.00    -0.179 A  
ENDBRANCH   9  10
BRANCH   9  16
HETATM   16  C   UNL     1      -8.161   6.305  66.068  1.00  0.00    -0.119 A  
HETATM   17  C   UNL     1      -8.279   6.042  63.648  1.00  0.00    -0.025 A  
HETATM   18  C   UNL     1      -8.435   4.097  65.058  1.00  0.00    -0.115 A  
HETATM   19  C   UNL     1      -8.138   6.856  64.777  1.00  0.00    -0.095 A  
HETATM   20  C   UNL     1      -8.281   4.906  66.184  1.00  0.00    -0.108 A  
HETATM   21  C   UNL     1      -8.440   4.665  63.789  1.00  0.00    -0.126 A  
ENDBRANCH   9  16
ENDBRANCH   7   9
ENDBRANCH   6   7
ENDBRANCH   2   6
TORSDOF 5
ENDMDL
MODEL      210
REMARK 921   NORMALIZED FREE ENERGY PREDICTED BY IDOCK:   -2.23 KCAL/MOL
REMARK 922        TOTAL FREE ENERGY PREDICTED BY IDOCK:   -3.91 KCAL/MOL
REMARK 923 INTER-LIGAND FREE ENERGY PREDICTED BY IDOCK:   -3.24 KCAL/MOL
REMARK 924 INTRA-LIGAND FREE ENERGY PREDICTED BY IDOCK:   -0.66 KCAL/MOL
REMARK 927      BINDING AFFINITY PREDICTED BY RF-SCORE:    0.00 PKD
ROOT
HETATM    1  N   UNL     1      -5.170   6.831  70.429  1.00  0.00    -0.018 N  
HETATM    2  C   UNL     1      -5.759   6.320  71.555  1.00  0.00    -0.027 C  
HETATM    3  H1  UNL     1      -5.330   7.797  70.146  1.00  0.00     0.000 HD 
HETATM    4  H2  UNL     1      -4.561   6.236  69.866  1.00  0.00     0.000 HD 
HETATM    5  O   UNL     1      -5.566   5.157  71.896  1.00  0.00    -0.011 OA 
ENDROOT
BRANCH   2   6
HETATM    6  C   UNL     1      -6.671   7.268  72.308  1.00  0.00    -0.059 C  
BRANCH   6   7
HETATM    7  S   UNL     1      -8.003   7.796  71.203  1.00  0.00    -0.093 S  
HETATM    8  O   UNL     1      -7.353   8.427  70.001  1.00  0.00    -0.057 OA 
BRANCH   7   9
HETATM    9  C   UNL     1      -8.650   6.132  70.694  1.00  0.00    -0.135 C  
BRANCH   9  10
HETATM   10  C   UNL     1      -9.434   5.445  71.804  1.00  0.00    -0.177 A  
HETATM   11  C   UNL     1     -10.785   5.772  72.021  1.00  0.00    -0.285 A  
HETATM   12  C   UNL     1      -8.844   4.474  72.630  1.00  0.00    -0.120 A  
HETATM   13  C   UNL     1     -11.526   5.133  73.021  1.00  0.00    -0.349 A  
HETATM   14  C   UNL     1     -10.926   4.169  73.825  1.00  0.00    -0.331 A  
HETATM   15  C   UNL     1      -9.586   3.842  73.632  1.00  0.00    -0.129 A  
ENDBRANCH   9  10
BRANCH   9  16
HETATM   16  C   UNL     1      -9.427   6.212  69.372  1.00  0.00    -0.153 A  
HETATM   17  C   UNL     1     -10.291   5.102  67.381  1.00  0.00    -0.209 A  
HETATM   18  C   UNL     1     -10.614   7.473  67.649  1.00  0.00    -0.303 A  
HETATM   19  C   UNL     1      -9.625   5.048  68.610  1.00  0.00    -0.204 A  
HETATM   20  C   UNL     1      -9.962   7.419  68.881  1.00  0.00    -0.169 A  
HETATM   21  C   UNL     1     -10.773   6.316  66.895  1.00  0.00    -0.411 A  
ENDBRANCH   9  16
ENDBRANCH   7   9
ENDBRANCH   6   7
ENDBRANCH   2   6
TORSDOF 5
ENDMDL
MODEL      211
REMARK 921   NORMALIZED FREE ENERGY PREDICTED BY IDOCK:   -2.21 KCAL/MOL
REMARK 922        TOTAL FREE ENERGY PREDICTED BY IDOCK:   -3.88 KCAL/MOL
REMARK 923 INTER-LIGAND FREE ENERGY PREDICTED BY IDOCK:   -3.85 KCAL/MOL
REMARK 924 INTRA-LIGAND FREE ENERGY PREDICTED BY IDOCK:   -0.03 KCAL/MOL
REMARK 927      BINDING AFFINITY PREDICTED BY RF-SCORE:    0.00 PKD
ROOT
HETATM    1  N   UNL     1     -11.270   6.493  68.537  1.00  0.00    -0.555 N  
HETATM    2  C   UNL     1     -10.221   5.614  68.565  1.00  0.00    -0.193 C  
HETATM    3  H1  UNL     1     -11.116   7.486  68.363  1.00  0.00     0.000 HD 
HETATM    4  H2  UNL     1     -12.219   6.151  68.691  1.00  0.00     0.000 HD 
HETATM    5  O   UNL     1     -10.406   4.418  68.774  1.00  0.00     0.102 OA 
ENDROOT
BRANCH   2   6
HETATM    6  C   UNL     1      -8.848   6.219  68.358  1.00  0.00    -0.114 C  
BRANCH   6   7
HETATM    7  S   UNL     1      -9.044   7.906  67.731  1.00  0.00    -0.134 S  
HETATM    8  O   UNL     1     -10.162   7.872  66.724  1.00  0.00    -0.277 OA 
BRANCH   7   9
HETATM    9  C   UNL     1      -9.685   8.726  69.267  1.00  0.00    -0.172 C  
BRANCH   9  10
HETATM   10  C   UNL     1      -8.720   8.607  70.440  1.00  0.00    -0.165 A  
HETATM   11  C   UNL     1      -7.347   8.849  70.252  1.00  0.00    -0.067 A  
HETATM   12  C   UNL     1      -9.165   8.262  71.727  1.00  0.00    -0.261 A  
HETATM   13  C   UNL     1      -6.452   8.767  71.324  1.00  0.00    -0.071 A  
HETATM   14  C   UNL     1      -6.912   8.431  72.594  1.00  0.00    -0.100 A  
HETATM   15  C   UNL     1      -8.267   8.175  72.794  1.00  0.00    -0.231 A  
ENDBRANCH   9  10
BRANCH   9  16
HETATM   16  C   UNL     1     -10.118  10.173  68.993  1.00  0.00    -0.216 A  
HETATM   17  C   UNL     1      -9.704  12.311  67.898  1.00  0.00    -0.202 A  
HETATM   18  C   UNL     1     -11.606  12.077  69.355  1.00  0.00    -0.393 A  
HETATM   19  C   UNL     1      -9.355  10.976  68.130  1.00  0.00    -0.173 A  
HETATM   20  C   UNL     1     -11.268  10.742  69.576  1.00  0.00    -0.342 A  
HETATM   21  C   UNL     1     -10.821  12.865  68.522  1.00  0.00    -0.283 A  
ENDBRANCH   9  16
ENDBRANCH   7   9
ENDBRANCH   6   7
ENDBRANCH   2   6
TORSDOF 5
ENDMDL
MODEL      212
REMARK 921   NORMALIZED FREE ENERGY PREDICTED BY IDOCK:   -2.16 KCAL/MOL
REMARK 922        TOTAL FREE ENERGY PREDICTED BY IDOCK:   -3.82 KCAL/MOL
REMARK 923 INTER-LIGAND FREE ENERGY PREDICTED BY IDOCK:   -3.10 KCAL/MOL
REMARK 924 INTRA-LIGAND FREE ENERGY PREDICTED BY IDOCK:   -0.72 KCAL/MOL
REMARK 927      BINDING AFFINITY PREDICTED BY RF-SCORE:    0.00 PKD
ROOT
HETATM    1  N   UNL     1     -10.847  10.961  69.687  1.00  0.00    -0.362 N  
HETATM    2  C   UNL     1     -10.648   9.750  70.293  1.00  0.00    -0.292 C  
HETATM    3  H1  UNL     1     -10.711  11.073  68.682  1.00  0.00     0.000 HD 
HETATM    4  H2  UNL     1     -11.135  11.764  70.247  1.00  0.00     0.000 HD 
HETATM    5  O   UNL     1     -10.812   9.617  71.503  1.00  0.00    -0.329 OA 
ENDROOT
BRANCH   2   6
HETATM    6  C   UNL     1     -10.192   8.626  69.386  1.00  0.00    -0.210 C  
BRANCH   6   7
HETATM    7  S   UNL     1      -8.438   8.861  69.005  1.00  0.00    -0.135 S  
HETATM    8  O   UNL     1      -7.953  10.002  69.858  1.00  0.00    -0.165 OA 
BRANCH   7   9
HETATM    9  C   UNL     1      -7.762   7.287  69.719  1.00  0.00    -0.107 C  
BRANCH   9  10
HETATM   10  C   UNL     1      -8.507   6.845  70.971  1.00  0.00    -0.131 A  
HETATM   11  C   UNL     1      -8.058   7.249  72.242  1.00  0.00    -0.109 A  
HETATM   12  C   UNL     1      -9.653   6.034  70.897  1.00  0.00    -0.196 A  
HETATM   13  C   UNL     1      -8.746   6.869  73.399  1.00  0.00    -0.148 A  
HETATM   14  C   UNL     1      -9.883   6.073  73.306  1.00  0.00    -0.168 A  
HETATM   15  C   UNL     1     -10.333   5.653  72.056  1.00  0.00    -0.261 A  
ENDBRANCH   9  10
BRANCH   9  16
HETATM   16  C   UNL     1      -7.668   6.183  68.656  1.00  0.00    -0.100 A  
HETATM   17  C   UNL     1      -6.579   4.169  67.819  1.00  0.00    -0.042 A  
HETATM   18  C   UNL     1      -8.366   5.163  66.549  1.00  0.00    -0.108 A  
HETATM   19  C   UNL     1      -6.714   5.161  68.796  1.00  0.00    -0.050 A  
HETATM   20  C   UNL     1      -8.511   6.145  67.528  1.00  0.00    -0.108 A  
HETATM   21  C   UNL     1      -7.395   4.178  66.690  1.00  0.00    -0.076 A  
ENDBRANCH   9  16
ENDBRANCH   7   9
ENDBRANCH   6   7
ENDBRANCH   2   6
TORSDOF 5
ENDMDL
MODEL      213
REMARK 921   NORMALIZED FREE ENERGY PREDICTED BY IDOCK:   -2.07 KCAL/MOL
REMARK 922        TOTAL FREE ENERGY PREDICTED BY IDOCK:   -3.70 KCAL/MOL
REMARK 923 INTER-LIGAND FREE ENERGY PREDICTED BY IDOCK:   -2.74 KCAL/MOL
REMARK 924 INTRA-LIGAND FREE ENERGY PREDICTED BY IDOCK:   -0.97 KCAL/MOL
REMARK 927      BINDING AFFINITY PREDICTED BY RF-SCORE:    0.00 PKD
ROOT
HETATM    1  N   UNL     1      -7.042   4.806  66.222  1.00  0.00    -0.073 N  
HETATM    2  C   UNL     1      -8.033   3.874  66.376  1.00  0.00    -0.097 C  
HETATM    3  H1  UNL     1      -6.225   4.807  66.832  1.00  0.00     0.000 HD 
HETATM    4  H2  UNL     1      -7.121   5.508  65.486  1.00  0.00     0.000 HD 
HETATM    5  O   UNL     1      -9.016   3.872  65.641  1.00  0.00    -0.123 OA 
ENDROOT
BRANCH   2   6
HETATM    6  C   UNL     1      -7.843   2.893  67.514  1.00  0.00    -0.069 C  
BRANCH   6   7
HETATM    7  S   UNL     1      -9.233   3.057  68.663  1.00  0.00    -0.172 S  
HETATM    8  O   UNL     1      -9.190   1.862  69.576  1.00  0.00    -0.096 OA 
BRANCH   7   9
HETATM    9  C   UNL     1      -8.653   4.533  69.627  1.00  0.00    -0.076 C  
BRANCH   9  10
HETATM   10  C   UNL     1      -9.251   5.837  69.117  1.00  0.00    -0.135 A  
HETATM   11  C   UNL     1      -8.624   7.063  69.406  1.00  0.00    -0.134 A  
HETATM   12  C   UNL     1     -10.429   5.856  68.350  1.00  0.00    -0.294 A  
HETATM   13  C   UNL     1      -9.149   8.267  68.925  1.00  0.00    -0.147 A  
HETATM   14  C   UNL     1     -10.312   8.266  68.161  1.00  0.00    -0.253 A  
HETATM   15  C   UNL     1     -10.953   7.062  67.877  1.00  0.00    -0.202 A  
ENDBRANCH   9  10
BRANCH   9  16
HETATM   16  C   UNL     1      -8.854   4.332  71.136  1.00  0.00    -0.151 A  
HETATM   17  C   UNL     1      -7.933   3.716  73.308  1.00  0.00    -0.079 A  
HETATM   18  C   UNL     1     -10.268   4.275  73.128  1.00  0.00    -0.219 A  
HETATM   19  C   UNL     1      -7.766   3.948  71.938  1.00  0.00    -0.066 A  
HETATM   20  C   UNL     1     -10.100   4.520  71.765  1.00  0.00    -0.254 A  
HETATM   21  C   UNL     1      -9.186   3.866  73.899  1.00  0.00    -0.098 A  
ENDBRANCH   9  16
ENDBRANCH   7   9
ENDBRANCH   6   7
ENDBRANCH   2   6
TORSDOF 5
ENDMDL
MODEL      214
REMARK 921   NORMALIZED FREE ENERGY PREDICTED BY IDOCK:   -2.03 KCAL/MOL
REMARK 922        TOTAL FREE ENERGY PREDICTED BY IDOCK:   -3.65 KCAL/MOL
REMARK 923 INTER-LIGAND FREE ENERGY PREDICTED BY IDOCK:   -3.53 KCAL/MOL
REMARK 924 INTRA-LIGAND FREE ENERGY PREDICTED BY IDOCK:   -0.12 KCAL/MOL
REMARK 927      BINDING AFFINITY PREDICTED BY RF-SCORE:    0.00 PKD
ROOT
HETATM    1  N   UNL     1      -6.070   5.666  67.662  1.00  0.00    -0.025 N  
HETATM    2  C   UNL     1      -7.435   5.714  67.564  1.00  0.00    -0.081 C  
HETATM    3  H1  UNL     1      -5.590   6.046  68.478  1.00  0.00     0.000 HD 
HETATM    4  H2  UNL     1      -5.526   5.245  66.909  1.00  0.00     0.000 HD 
HETATM    5  O   UNL     1      -8.013   5.257  66.582  1.00  0.00    -0.103 OA 
ENDROOT
BRANCH   2   6
HETATM    6  C   UNL     1      -8.155   6.386  68.716  1.00  0.00    -0.114 C  
BRANCH   6   7
HETATM    7  S   UNL     1      -9.876   5.828  68.731  1.00  0.00    -0.150 S  
HETATM    8  O   UNL     1      -9.862   4.351  68.446  1.00  0.00    -0.137 OA 
BRANCH   7   9
HETATM    9  C   UNL     1     -10.251   6.057  70.535  1.00  0.00    -0.206 C  
BRANCH   9  10
HETATM   10  C   UNL     1      -9.052   5.752  71.424  1.00  0.00    -0.150 A  
HETATM   11  C   UNL     1      -8.690   4.418  71.689  1.00  0.00    -0.138 A  
HETATM   12  C   UNL     1      -8.280   6.778  71.996  1.00  0.00    -0.104 A  
HETATM   13  C   UNL     1      -7.578   4.122  72.485  1.00  0.00    -0.074 A  
HETATM   14  C   UNL     1      -6.821   5.151  73.036  1.00  0.00    -0.074 A  
HETATM   15  C   UNL     1      -7.174   6.477  72.795  1.00  0.00    -0.081 A  
ENDBRANCH   9  10
BRANCH   9  16
HETATM   16  C   UNL     1     -10.865   7.437  70.811  1.00  0.00    -0.257 A  
HETATM   17  C   UNL     1     -12.326   8.847  72.160  1.00  0.00    -0.449 A  
HETATM   18  C   UNL     1     -11.222   9.785  70.236  1.00  0.00    -0.347 A  
HETATM   19  C   UNL     1     -11.718   7.611  71.912  1.00  0.00    -0.328 A  
HETATM   20  C   UNL     1     -10.605   8.557  69.997  1.00  0.00    -0.230 A  
HETATM   21  C   UNL     1     -12.088   9.929  71.314  1.00  0.00    -0.485 A  
ENDBRANCH   9  16
ENDBRANCH   7   9
ENDBRANCH   6   7
ENDBRANCH   2   6
TORSDOF 5
ENDMDL
MODEL      215
REMARK 921   NORMALIZED FREE ENERGY PREDICTED BY IDOCK:   -1.94 KCAL/MOL
REMARK 922        TOTAL FREE ENERGY PREDICTED BY IDOCK:   -3.53 KCAL/MOL
REMARK 923 INTER-LIGAND FREE ENERGY PREDICTED BY IDOCK:   -3.58 KCAL/MOL
REMARK 924 INTRA-LIGAND FREE ENERGY PREDICTED BY IDOCK:    0.05 KCAL/MOL
REMARK 927      BINDING AFFINITY PREDICTED BY RF-SCORE:    0.00 PKD
ROOT
HETATM    1  N   UNL     1     -11.550   6.133  68.764  1.00  0.00    -0.190 N  
HETATM    2  C   UNL     1     -10.683   6.466  67.759  1.00  0.00    -0.303 C  
HETATM    3  H1  UNL     1     -12.221   6.812  69.124  1.00  0.00     0.000 HD 
HETATM    4  H2  UNL     1     -11.527   5.192  69.159  1.00  0.00     0.000 HD 
HETATM    5  O   UNL     1      -9.877   5.648  67.325  1.00  0.00    -0.127 OA 
ENDROOT
BRANCH   2   6
HETATM    6  C   UNL     1     -10.771   7.894  67.259  1.00  0.00    -0.229 C  
BRANCH   6   7
HETATM    7  S   UNL     1      -9.186   8.348  66.513  1.00  0.00    -0.203 S  
HETATM    8  O   UNL     1      -8.861   7.290  65.494  1.00  0.00    -0.087 OA 
BRANCH   7   9
HETATM    9  C   UNL     1      -9.710   9.877  65.600  1.00  0.00    -0.279 C  
BRANCH   9  10
HETATM   10  C   UNL     1     -10.099  11.013  66.537  1.00  0.00    -0.270 A  
HETATM   11  C   UNL     1      -9.142  11.969  66.924  1.00  0.00    -0.196 A  
HETATM   12  C   UNL     1     -11.408  11.143  67.032  1.00  0.00    -0.216 A  
HETATM   13  C   UNL     1      -9.490  13.031  67.765  1.00  0.00    -0.209 A  
HETATM   14  C   UNL     1     -10.793  13.148  68.240  1.00  0.00    -0.274 A  
HETATM   15  C   UNL     1     -11.749  12.203  67.877  1.00  0.00    -0.403 A  
ENDBRANCH   9  10
BRANCH   9  16
HETATM   16  C   UNL     1      -8.665  10.294  64.556  1.00  0.00    -0.205 A  
HETATM   17  C   UNL     1      -8.149  11.293  62.393  1.00  0.00    -0.080 A  
HETATM   18  C   UNL     1      -6.365  10.390  63.735  1.00  0.00    -0.048 A  
HETATM   19  C   UNL     1      -9.076  10.943  63.380  1.00  0.00    -0.232 A  
HETATM   20  C   UNL     1      -7.287  10.052  64.726  1.00  0.00    -0.143 A  
HETATM   21  C   UNL     1      -6.796  11.004  62.565  1.00  0.00     0.109 A  
ENDBRANCH   9  16
ENDBRANCH   7   9
ENDBRANCH   6   7
ENDBRANCH   2   6
TORSDOF 5
ENDMDL
MODEL      216
REMARK 921   NORMALIZED FREE ENERGY PREDICTED BY IDOCK:   -1.83 KCAL/MOL
REMARK 922        TOTAL FREE ENERGY PREDICTED BY IDOCK:   -3.39 KCAL/MOL
REMARK 923 INTER-LIGAND FREE ENERGY PREDICTED BY IDOCK:   -2.72 KCAL/MOL
REMARK 924 INTRA-LIGAND FREE ENERGY PREDICTED BY IDOCK:   -0.67 KCAL/MOL
REMARK 927      BINDING AFFINITY PREDICTED BY RF-SCORE:    0.00 PKD
ROOT
HETATM    1  N   UNL     1     -11.550   6.439  69.355  1.00  0.00    -0.618 N  
HETATM    2  C   UNL     1     -10.629   6.934  68.471  1.00  0.00    -0.212 C  
HETATM    3  H1  UNL     1     -12.269   7.041  69.755  1.00  0.00     0.000 HD 
HETATM    4  H2  UNL     1     -11.517   5.453  69.616  1.00  0.00     0.000 HD 
HETATM    5  O   UNL     1      -9.763   6.209  67.989  1.00  0.00    -0.118 OA 
ENDROOT
BRANCH   2   6
HETATM    6  C   UNL     1     -10.737   8.415  68.169  1.00  0.00    -0.034 C  
BRANCH   6   7
HETATM    7  S   UNL     1      -9.240   8.942  67.299  1.00  0.00    -0.141 S  
HETATM    8  O   UNL     1      -9.675   9.877  66.203  1.00  0.00    -0.201 OA 
BRANCH   7   9
HETATM    9  C   UNL     1      -8.457   9.960  68.639  1.00  0.00    -0.114 C  
BRANCH   9  10
HETATM   10  C   UNL     1      -8.063   9.128  69.853  1.00  0.00    -0.122 A  
HETATM   11  C   UNL     1      -8.896   9.094  70.986  1.00  0.00    -0.267 A  
HETATM   12  C   UNL     1      -6.876   8.376  69.875  1.00  0.00    -0.043 A  
HETATM   13  C   UNL     1      -8.560   8.316  72.099  1.00  0.00    -0.249 A  
HETATM   14  C   UNL     1      -7.384   7.572  72.101  1.00  0.00    -0.070 A  
HETATM   15  C   UNL     1      -6.542   7.605  70.992  1.00  0.00    -0.038 A  
ENDBRANCH   9  10
BRANCH   9  16
HETATM   16  C   UNL     1      -7.299  10.810  68.096  1.00  0.00    -0.088 A  
HETATM   17  C   UNL     1      -5.974  12.854  68.196  1.00  0.00    -0.087 A  
HETATM   18  C   UNL     1      -5.503  11.221  66.490  1.00  0.00    -0.135 A  
HETATM   19  C   UNL     1      -6.995  12.041  68.700  1.00  0.00    -0.096 A  
HETATM   20  C   UNL     1      -6.512  10.403  67.000  1.00  0.00    -0.074 A  
HETATM   21  C   UNL     1      -5.238  12.450  67.083  1.00  0.00    -0.009 A  
ENDBRANCH   9  16
ENDBRANCH   7   9
ENDBRANCH   6   7
ENDBRANCH   2   6
TORSDOF 5
ENDMDL
MODEL      217
REMARK 921   NORMALIZED FREE ENERGY PREDICTED BY IDOCK:   -1.51 KCAL/MOL
REMARK 922        TOTAL FREE ENERGY PREDICTED BY IDOCK:   -2.97 KCAL/MOL
REMARK 923 INTER-LIGAND FREE ENERGY PREDICTED BY IDOCK:   -3.15 KCAL/MOL
REMARK 924 INTRA-LIGAND FREE ENERGY PREDICTED BY IDOCK:    0.18 KCAL/MOL
REMARK 927      BINDING AFFINITY PREDICTED BY RF-SCORE:    0.00 PKD
ROOT
HETATM    1  N   UNL     1     -11.650  10.020  68.245  1.00  0.00    -0.483 N  
HETATM    2  C   UNL     1     -10.580   9.701  69.037  1.00  0.00    -0.218 C  
HETATM    3  H1  UNL     1     -11.938   9.408  67.481  1.00  0.00     0.000 HD 
HETATM    4  H2  UNL     1     -12.167  10.882  68.421  1.00  0.00     0.000 HD 
HETATM    5  O   UNL     1     -10.233  10.437  69.956  1.00  0.00    -0.219 OA 
ENDROOT
BRANCH   2   6
HETATM    6  C   UNL     1      -9.856   8.419  68.679  1.00  0.00    -0.170 C  
BRANCH   6   7
HETATM    7  S   UNL     1     -11.082   7.132  68.341  1.00  0.00     0.159 S  
HETATM    8  O   UNL     1     -11.195   7.016  66.845  1.00  0.00    -0.302 OA 
BRANCH   7   9
HETATM    9  C   UNL     1     -10.146   5.653  68.958  1.00  0.00    -0.195 C  
BRANCH   9  10
HETATM   10  C   UNL     1      -8.911   5.351  68.119  1.00  0.00    -0.111 A  
HETATM   11  C   UNL     1      -7.733   6.099  68.299  1.00  0.00    -0.103 A  
HETATM   12  C   UNL     1      -8.909   4.327  67.157  1.00  0.00    -0.119 A  
HETATM   13  C   UNL     1      -6.585   5.818  67.552  1.00  0.00    -0.056 A  
HETATM   14  C   UNL     1      -6.599   4.795  66.609  1.00  0.00    -0.050 A  
HETATM   15  C   UNL     1      -7.760   4.053  66.409  1.00  0.00    -0.090 A  
ENDBRANCH   9  10
BRANCH   9  16
HETATM   16  C   UNL     1      -9.836   5.770  70.458  1.00  0.00    -0.240 A  
HETATM   17  C   UNL     1      -8.201   5.756  72.266  1.00  0.00    -0.108 A  
HETATM   18  C   UNL     1     -10.539   5.998  72.787  1.00  0.00    -0.254 A  
HETATM   19  C   UNL     1      -8.505   5.697  70.902  1.00  0.00    -0.125 A  
HETATM   20  C   UNL     1     -10.843   5.953  71.426  1.00  0.00    -0.332 A  
HETATM   21  C   UNL     1      -9.218   5.893  73.208  1.00  0.00    -0.132 A  
ENDBRANCH   9  16
ENDBRANCH   7   9
ENDBRANCH   6   7
ENDBRANCH   2   6
TORSDOF 5
ENDMDL
MODEL      218
REMARK 921   NORMALIZED FREE ENERGY PREDICTED BY IDOCK:   -1.47 KCAL/MOL
REMARK 922        TOTAL FREE ENERGY PREDICTED BY IDOCK:   -2.92 KCAL/MOL
REMARK 923 INTER-LIGAND FREE ENERGY PREDICTED BY IDOCK:   -2.78 KCAL/MOL
REMARK 924 INTRA-LIGAND FREE ENERGY PREDICTED BY IDOCK:   -0.14 KCAL/MOL
REMARK 927      BINDING AFFINITY PREDICTED BY RF-SCORE:    0.00 PKD
ROOT
HETATM    1  N   UNL     1     -11.886  10.248  68.294  1.00  0.00    -0.353 N  
HETATM    2  C   UNL     1     -10.976   9.960  69.275  1.00  0.00    -0.211 C  
HETATM    3  H1  UNL     1     -12.405   9.505  67.826  1.00  0.00     0.000 HD 
HETATM    4  H2  UNL     1     -12.049  11.220  68.028  1.00  0.00     0.000 HD 
HETATM    5  O   UNL     1     -10.352  10.854  69.840  1.00  0.00    -0.062 OA 
ENDROOT
BRANCH   2   6
HETATM    6  C   UNL     1     -10.780   8.489  69.580  1.00  0.00    -0.197 C  
BRANCH   6   7
HETATM    7  S   UNL     1      -9.102   8.244  70.212  1.00  0.00    -0.152 S  
HETATM    8  O   UNL     1      -9.013   8.981  71.521  1.00  0.00    -0.273 OA 
BRANCH   7   9
HETATM    9  C   UNL     1      -9.183   6.427  70.585  1.00  0.00    -0.158 C  
BRANCH   9  10
HETATM   10  C   UNL     1      -8.826   5.566  69.381  1.00  0.00    -0.114 A  
HETATM   11  C   UNL     1      -7.509   5.551  68.888  1.00  0.00    -0.082 A  
HETATM   12  C   UNL     1      -9.787   4.767  68.737  1.00  0.00    -0.218 A  
HETATM   13  C   UNL     1      -7.161   4.747  67.797  1.00  0.00    -0.062 A  
HETATM   14  C   UNL     1      -8.124   3.957  67.177  1.00  0.00    -0.095 A  
HETATM   15  C   UNL     1      -9.436   3.971  67.644  1.00  0.00    -0.231 A  
ENDBRANCH   9  10
BRANCH   9  16
HETATM   16  C   UNL     1      -8.366   6.074  71.837  1.00  0.00    -0.115 A  
HETATM   17  C   UNL     1      -8.097   4.726  73.850  1.00  0.00    -0.105 A  
HETATM   18  C   UNL     1      -6.489   6.449  73.356  1.00  0.00    -0.065 A  
HETATM   19  C   UNL     1      -8.799   5.038  72.680  1.00  0.00    -0.124 A  
HETATM   20  C   UNL     1      -7.181   6.752  72.182  1.00  0.00    -0.080 A  
HETATM   21  C   UNL     1      -6.951   5.440  74.194  1.00  0.00    -0.078 A  
ENDBRANCH   9  16
ENDBRANCH   7   9
ENDBRANCH   6   7
ENDBRANCH   2   6
TORSDOF 5
ENDMDL
MODEL      219
REMARK 921   NORMALIZED FREE ENERGY PREDICTED BY IDOCK:   -1.09 KCAL/MOL
REMARK 922        TOTAL FREE ENERGY PREDICTED BY IDOCK:   -2.43 KCAL/MOL
REMARK 923 INTER-LIGAND FREE ENERGY PREDICTED BY IDOCK:   -3.13 KCAL/MOL
REMARK 924 INTRA-LIGAND FREE ENERGY PREDICTED BY IDOCK:    0.70 KCAL/MOL
REMARK 927      BINDING AFFINITY PREDICTED BY RF-SCORE:    0.00 PKD
ROOT
HETATM    1  N   UNL     1      -8.567  16.840  66.454  1.00  0.00    -0.279 N  
HETATM    2  C   UNL     1      -9.443  16.536  67.461  1.00  0.00    -0.224 C  
HETATM    3  H1  UNL     1      -7.667  16.366  66.381  1.00  0.00     0.000 HD 
HETATM    4  H2  UNL     1      -8.819  17.550  65.765  1.00  0.00     0.000 HD 
HETATM    5  O   UNL     1     -10.527  17.106  67.548  1.00  0.00    -0.337 OA 
ENDROOT
BRANCH   2   6
HETATM    6  C   UNL     1      -8.969  15.493  68.453  1.00  0.00    -0.189 C  
BRANCH   6   7
HETATM    7  S   UNL     1      -7.407  14.795  67.862  1.00  0.00    -0.169 S  
HETATM    8  O   UNL     1      -6.588  14.459  69.080  1.00  0.00    -0.091 OA 
BRANCH   7   9
HETATM    9  C   UNL     1      -8.040  13.205  67.145  1.00  0.00    -0.098 C  
BRANCH   9  10
HETATM   10  C   UNL     1      -7.040  12.064  67.275  1.00  0.00    -0.149 A  
HETATM   11  C   UNL     1      -6.897  11.126  66.236  1.00  0.00    -0.055 A  
HETATM   12  C   UNL     1      -6.236  11.918  68.419  1.00  0.00    -0.050 A  
HETATM   13  C   UNL     1      -5.966  10.087  66.332  1.00  0.00    -0.065 A  
HETATM   14  C   UNL     1      -5.173   9.962  67.468  1.00  0.00    -0.035 A  
HETATM   15  C   UNL     1      -5.311  10.874  68.512  1.00  0.00    -0.040 A  
ENDBRANCH   9  10
BRANCH   9  16
HETATM   16  C   UNL     1      -9.427  12.850  67.701  1.00  0.00    -0.197 A  
HETATM   17  C   UNL     1     -10.790  11.601  69.290  1.00  0.00    -0.203 A  
HETATM   18  C   UNL     1     -11.866  12.991  67.644  1.00  0.00    -0.401 A  
HETATM   19  C   UNL     1      -9.536  11.974  68.793  1.00  0.00     0.004 A  
HETATM   20  C   UNL     1     -10.616  13.374  67.157  1.00  0.00    -0.259 A  
HETATM   21  C   UNL     1     -11.954  12.098  68.707  1.00  0.00    -0.292 A  
ENDBRANCH   9  16
ENDBRANCH   7   9
ENDBRANCH   6   7
ENDBRANCH   2   6
TORSDOF 5
ENDMDL
MODEL      220
REMARK 921   NORMALIZED FREE ENERGY PREDICTED BY IDOCK:   -0.62 KCAL/MOL
REMARK 922        TOTAL FREE ENERGY PREDICTED BY IDOCK:   -1.82 KCAL/MOL
REMARK 923 INTER-LIGAND FREE ENERGY PREDICTED BY IDOCK:   -3.73 KCAL/MOL
REMARK 924 INTRA-LIGAND FREE ENERGY PREDICTED BY IDOCK:    1.91 KCAL/MOL
REMARK 927      BINDING AFFINITY PREDICTED BY RF-SCORE:    0.00 PKD
ROOT
HETATM    1  N   UNL     1     -11.283  15.679  66.726  1.00  0.00    -0.165 N  
HETATM    2  C   UNL     1     -10.238  16.478  67.103  1.00  0.00    -0.284 C  
HETATM    3  H1  UNL     1     -11.125  14.716  66.428  1.00  0.00     0.000 HD 
HETATM    4  H2  UNL     1     -12.233  16.050  66.744  1.00  0.00     0.000 HD 
HETATM    5  O   UNL     1     -10.428  17.637  67.462  1.00  0.00    -0.351 OA 
ENDROOT
BRANCH   2   6
HETATM    6  C   UNL     1      -8.862  15.850  67.014  1.00  0.00    -0.215 C  
BRANCH   6   7
HETATM    7  S   UNL     1      -7.769  16.968  66.103  1.00  0.00    -0.133 S  
HETATM    8  O   UNL     1      -8.386  18.339  66.173  1.00  0.00    -0.441 OA 
BRANCH   7   9
HETATM    9  C   UNL     1      -6.301  16.945  67.238  1.00  0.00    -0.171 C  
BRANCH   9  10
HETATM   10  C   UNL     1      -6.124  18.256  67.992  1.00  0.00    -0.173 A  
HETATM   11  C   UNL     1      -5.475  18.272  69.240  1.00  0.00    -0.204 A  
HETATM   12  C   UNL     1      -6.593  19.474  67.470  1.00  0.00    -0.235 A  
HETATM   13  C   UNL     1      -5.284  19.472  69.934  1.00  0.00    -0.218 A  
HETATM   14  C   UNL     1      -5.749  20.669  69.398  1.00  0.00    -0.394 A  
HETATM   15  C   UNL     1      -6.405  20.669  68.170  1.00  0.00    -0.353 A  
ENDBRANCH   9  10
BRANCH   9  16
HETATM   16  C   UNL     1      -6.326  15.721  68.165  1.00  0.00    -0.133 A  
HETATM   17  C   UNL     1      -7.109  14.664  70.218  1.00  0.00     0.199 A  
HETATM   18  C   UNL     1      -5.589  13.474  68.779  1.00  0.00    -0.075 A  
HETATM   19  C   UNL     1      -7.104  15.749  69.334  1.00  0.00    -0.209 A  
HETATM   20  C   UNL     1      -5.594  14.549  67.890  1.00  0.00    -0.106 A  
HETATM   21  C   UNL     1      -6.342  13.533  69.946  1.00  0.00    -0.071 A  
ENDBRANCH   9  16
ENDBRANCH   7   9
ENDBRANCH   6   7
ENDBRANCH   2   6
TORSDOF 5
ENDMDL
