MODEL        1
REMARK 921   NORMALIZED FREE ENERGY PREDICTED BY IDOCK:   -7.13 KCAL/MOL
REMARK 922        TOTAL FREE ENERGY PREDICTED BY IDOCK:  -13.62 KCAL/MOL
REMARK 923 INTER-LIGAND FREE ENERGY PREDICTED BY IDOCK:  -11.71 KCAL/MOL
REMARK 924 INTRA-LIGAND FREE ENERGY PREDICTED BY IDOCK:   -1.91 KCAL/MOL
REMARK 927      BINDING AFFINITY PREDICTED BY RF-SCORE:    0.00 PKD
ROOT
HETATM    1  C   UNK A   0      -9.860  20.407  67.201  1.00  0.00    -0.601 C  
HETATM    2  C   UNK A   0     -10.434  19.288  66.354  1.00  0.00    -0.474 C  
ENDROOT
BRANCH   2   3
HETATM    3  O   UNK A   0     -10.053  18.035  66.933  1.00  0.00    -0.315 OA 
BRANCH   3   4
HETATM    4  C   UNK A   0     -10.527  16.909  66.327  1.00  0.00    -0.262 C  
HETATM    5  O   UNK A   0     -10.504  16.675  65.122  1.00  0.00    -0.647 OA 
BRANCH   4   6
HETATM    6  C   UNK A   0     -11.028  15.943  67.401  1.00  0.00    -0.257 C  
BRANCH   6   7
HETATM    7  C   UNK A   0     -10.834  16.564  68.786  1.00  0.00    -0.342 C  
BRANCH   7   8
HETATM    8  C   UNK A   0     -10.380  15.694  69.969  1.00  0.00    -0.309 C  
BRANCH   8   9
HETATM    9  C   UNK A   0     -11.576  15.135  70.756  1.00  0.00    -0.361 A  
HETATM   10  C   UNK A   0     -12.043  13.838  70.499  1.00  0.00    -0.416 A  
HETATM   11  C   UNK A   0     -13.058  13.269  71.289  1.00  0.00    -0.299 A  
HETATM   12  C   UNK A   0     -12.200  15.845  71.805  1.00  0.00    -0.551 A  
HETATM   13  C   UNK A   0     -13.618  13.981  72.350  1.00  0.00    -0.658 A  
HETATM   14  C   UNK A   0     -13.194  15.276  72.601  1.00  0.00    -0.554 A  
ENDBRANCH   8   9
ENDBRANCH   7   8
ENDBRANCH   6   7
BRANCH   6  15
ATOM     15  N   ALA A   1     -10.310  14.647  67.302  1.00  0.00    -0.255 NA 
ATOM     16  H   ALA A   1      -9.298  14.630  67.422  1.00  0.00     0.000 HD 
BRANCH  15  17
ATOM     17  CA  ALA A   1     -11.034  13.371  67.031  1.00  0.00    -0.287 C  
ATOM     18  CB  ALA A   1     -12.357  13.367  66.246  1.00  0.00    -0.410 C  
BRANCH  17  19
ATOM     19  C   ALA A   1     -10.136  12.134  66.696  1.00  0.00    -0.199 C  
ATOM     20  O   ALA A   1      -9.169  12.292  65.941  1.00  0.00    -0.158 OA 
HETATM   21  C   UNK A   2     -11.107   9.892  69.426  1.00  0.00    -0.237 A  
HETATM   22  C   UNK A   2     -12.140   9.723  70.357  1.00  0.00    -0.176 A  
HETATM   23  N   UNK A   2     -10.318  10.914  67.327  1.00  0.00    -0.205 N  
HETATM   24  C   UNK A   2     -11.891   9.134  71.584  1.00  0.00    -0.372 A  
HETATM   25  C   UNK A   2     -11.453  10.547  68.135  1.00  0.00    -0.179 C  
HETATM   26  O   UNK A   2      -8.811   7.913  65.874  1.00  0.00    -0.163 OA 
HETATM   27  C   UNK A   2     -10.595   8.727  71.905  1.00  0.00    -0.354 A  
HETATM   28  C   UNK A   2      -9.558   8.889  70.962  1.00  0.00    -0.321 A  
HETATM   29  O   UNK A   2     -10.889   8.063  66.708  1.00  0.00    -0.214 OA 
HETATM   30  C   UNK A   2      -9.767   8.547  66.584  1.00  0.00    -0.249 C  
HETATM   31  C   UNK A   2      -9.817   9.443  69.703  1.00  0.00    -0.205 A  
HETATM   32  C   UNK A   2      -9.286   9.867  67.241  1.00  0.00    -0.145 C  
HETATM   33  C   UNK A   2      -8.733   9.608  68.660  1.00  0.00    -0.124 C  
BRANCH  24  34
HETATM   34  O   UNK A   2     -12.865   8.874  72.514  1.00  0.00    -0.407 OA 
HETATM   35  C   UNK A   2     -14.100   8.469  71.956  1.00  0.00    -0.444 C  
ENDBRANCH  24  34
BRANCH  27  36
HETATM   36  O   UNK A   2     -10.455   8.213  73.158  1.00  0.00    -0.285 OA 
HETATM   37  C   UNK A   2      -9.187   7.699  73.516  1.00  0.00    -0.275 C  
ENDBRANCH  27  36
ENDBRANCH  17  19
ENDBRANCH  15  17
ENDBRANCH   6  15
ENDBRANCH   4   6
ENDBRANCH   3   4
ENDBRANCH   2   3
TORSDOF 11
ENDMDL
MODEL        2
REMARK 921   NORMALIZED FREE ENERGY PREDICTED BY IDOCK:   -7.04 KCAL/MOL
REMARK 922        TOTAL FREE ENERGY PREDICTED BY IDOCK:  -13.47 KCAL/MOL
REMARK 923 INTER-LIGAND FREE ENERGY PREDICTED BY IDOCK:  -10.96 KCAL/MOL
REMARK 924 INTRA-LIGAND FREE ENERGY PREDICTED BY IDOCK:   -2.51 KCAL/MOL
REMARK 927      BINDING AFFINITY PREDICTED BY RF-SCORE:    0.00 PKD
ROOT
HETATM    1  C   UNK A   0      -6.474  12.243  68.181  1.00  0.00    -0.062 C  
HETATM    2  C   UNK A   0      -6.828  13.646  67.726  1.00  0.00    -0.168 C  
ENDROOT
BRANCH   2   3
HETATM    3  O   UNK A   0      -7.822  14.175  68.609  1.00  0.00    -0.135 OA 
BRANCH   3   4
HETATM    4  C   UNK A   0      -7.543  15.371  69.202  1.00  0.00    -0.198 C  
HETATM    5  O   UNK A   0      -6.492  15.672  69.758  1.00  0.00    -0.169 OA 
BRANCH   4   6
HETATM    6  C   UNK A   0      -8.730  16.313  68.997  1.00  0.00    -0.246 C  
BRANCH   6   7
HETATM    7  C   UNK A   0     -10.003  15.668  69.551  1.00  0.00    -0.285 C  
BRANCH   7   8
HETATM    8  C   UNK A   0     -11.028  16.513  70.324  1.00  0.00    -0.178 C  
BRANCH   8   9
HETATM    9  C   UNK A   0     -12.031  15.633  71.087  1.00  0.00    -0.457 A  
HETATM   10  C   UNK A   0     -12.502  14.444  70.512  1.00  0.00    -0.416 A  
HETATM   11  C   UNK A   0     -13.327  13.571  71.244  1.00  0.00    -0.227 A  
HETATM   12  C   UNK A   0     -12.457  15.924  72.401  1.00  0.00    -0.558 A  
HETATM   13  C   UNK A   0     -13.689  13.864  72.558  1.00  0.00    -0.665 A  
HETATM   14  C   UNK A   0     -13.260  15.050  73.134  1.00  0.00    -0.587 A  
ENDBRANCH   8   9
ENDBRANCH   7   8
ENDBRANCH   6   7
BRANCH   6  15
ATOM     15  N   ALA A   1      -8.889  16.635  67.558  1.00  0.00    -0.195 NA 
ATOM     16  H   ALA A   1      -8.076  16.583  66.944  1.00  0.00     0.000 HD 
BRANCH  15  17
ATOM     17  CA  ALA A   1     -10.208  17.033  66.985  1.00  0.00    -0.303 C  
ATOM     18  CB  ALA A   1     -10.648  18.507  66.973  1.00  0.00    -0.421 C  
BRANCH  17  19
ATOM     19  C   ALA A   1     -10.655  16.264  65.699  1.00  0.00    -0.346 C  
ATOM     20  O   ALA A   1     -10.573  16.839  64.607  1.00  0.00    -0.614 OA 
HETATM   21  C   UNK A   2     -10.594  12.826  66.965  1.00  0.00    -0.253 A  
HETATM   22  C   UNK A   2     -10.601  12.134  68.183  1.00  0.00    -0.236 A  
HETATM   23  N   UNK A   2     -11.008  14.925  65.740  1.00  0.00    -0.335 N  
HETATM   24  C   UNK A   2      -9.991  10.896  68.290  1.00  0.00    -0.175 A  
HETATM   25  C   UNK A   2     -11.257  14.159  66.935  1.00  0.00    -0.317 C  
HETATM   26  O   UNK A   2     -12.859  13.480  62.934  1.00  0.00    -0.422 OA 
HETATM   27  C   UNK A   2      -9.345  10.345  67.182  1.00  0.00    -0.157 A  
HETATM   28  C   UNK A   2      -9.348  11.040  65.954  1.00  0.00    -0.229 A  
HETATM   29  O   UNK A   2     -13.285  13.122  65.108  1.00  0.00    -0.683 OA 
HETATM   30  C   UNK A   2     -12.528  13.546  64.240  1.00  0.00    -0.252 C  
HETATM   31  C   UNK A   2     -10.003  12.271  65.832  1.00  0.00    -0.272 A  
HETATM   32  C   UNK A   2     -11.119  14.142  64.499  1.00  0.00    -0.330 C  
HETATM   33  C   UNK A   2     -10.046  13.030  64.523  1.00  0.00    -0.254 C  
BRANCH  24  34
HETATM   34  O   UNK A   2     -10.020  10.131  69.429  1.00  0.00    -0.204 OA 
HETATM   35  C   UNK A   2     -11.273  10.120  70.083  1.00  0.00    -0.310 C  
ENDBRANCH  24  34
BRANCH  27  36
HETATM   36  O   UNK A   2      -8.733   9.152  67.417  1.00  0.00    -0.115 OA 
HETATM   37  C   UNK A   2      -9.197   8.026  66.698  1.00  0.00    -0.180 C  
ENDBRANCH  27  36
ENDBRANCH  17  19
ENDBRANCH  15  17
ENDBRANCH   6  15
ENDBRANCH   4   6
ENDBRANCH   3   4
ENDBRANCH   2   3
TORSDOF 11
ENDMDL
MODEL        3
REMARK 921   NORMALIZED FREE ENERGY PREDICTED BY IDOCK:   -7.02 KCAL/MOL
REMARK 922        TOTAL FREE ENERGY PREDICTED BY IDOCK:  -13.44 KCAL/MOL
REMARK 923 INTER-LIGAND FREE ENERGY PREDICTED BY IDOCK:  -11.68 KCAL/MOL
REMARK 924 INTRA-LIGAND FREE ENERGY PREDICTED BY IDOCK:   -1.75 KCAL/MOL
REMARK 927      BINDING AFFINITY PREDICTED BY RF-SCORE:    0.00 PKD
ROOT
HETATM    1  C   UNK A   0     -10.646  10.875  64.348  1.00  0.00    -0.343 C  
HETATM    2  C   UNK A   0     -10.396  12.005  63.369  1.00  0.00    -0.434 C  
ENDROOT
BRANCH   2   3
HETATM    3  O   UNK A   0     -10.517  13.249  64.067  1.00  0.00    -0.374 OA 
BRANCH   3   4
HETATM    4  C   UNK A   0     -11.759  13.810  64.111  1.00  0.00    -0.364 C  
HETATM    5  O   UNK A   0     -12.661  13.631  63.298  1.00  0.00    -0.816 OA 
BRANCH   4   6
HETATM    6  C   UNK A   0     -11.879  14.646  65.386  1.00  0.00    -0.304 C  
BRANCH   6   7
HETATM    7  C   UNK A   0     -10.664  15.567  65.516  1.00  0.00    -0.395 C  
BRANCH   7   8
HETATM    8  C   UNK A   0     -10.769  17.049  65.122  1.00  0.00    -0.066 C  
BRANCH   8   9
HETATM    9  C   UNK A   0     -10.409  17.976  66.294  1.00  0.00    -0.384 A  
HETATM   10  C   UNK A   0     -10.337  19.363  66.097  1.00  0.00    -0.595 A  
HETATM   11  C   UNK A   0     -10.125  20.232  67.183  1.00  0.00    -0.556 A  
HETATM   12  C   UNK A   0     -10.215  17.504  67.610  1.00  0.00    -0.343 A  
HETATM   13  C   UNK A   0      -9.988  19.735  68.479  1.00  0.00    -0.538 A  
HETATM   14  C   UNK A   0     -10.023  18.367  68.690  1.00  0.00    -0.415 A  
ENDBRANCH   8   9
ENDBRANCH   7   8
ENDBRANCH   6   7
BRANCH   6  15
ATOM     15  N   ALA A   1     -11.995  13.761  66.572  1.00  0.00    -0.411 NA 
ATOM     16  H   ALA A   1     -12.844  13.212  66.701  1.00  0.00     0.000 HD 
BRANCH  15  17
ATOM     17  CA  ALA A   1     -10.900  13.656  67.580  1.00  0.00    -0.264 C  
ATOM     18  CB  ALA A   1     -11.167  13.950  69.066  1.00  0.00    -0.312 C  
BRANCH  17  19
ATOM     19  C   ALA A   1      -9.893  12.477  67.374  1.00  0.00    -0.201 C  
ATOM     20  O   ALA A   1      -8.793  12.720  66.862  1.00  0.00    -0.211 OA 
HETATM   21  C   UNK A   2     -11.327  10.012  69.675  1.00  0.00    -0.253 A  
HETATM   22  C   UNK A   2     -12.529   9.743  70.342  1.00  0.00    -0.031 A  
HETATM   23  N   UNK A   2     -10.149  11.208  67.870  1.00  0.00    -0.173 N  
HETATM   24  C   UNK A   2     -12.525   9.076  71.554  1.00  0.00    -0.331 A  
HETATM   25  C   UNK A   2     -11.414  10.748  68.383  1.00  0.00    -0.288 C  
HETATM   26  O   UNK A   2      -8.221   8.371  66.598  1.00  0.00    -0.102 OA 
HETATM   27  C   UNK A   2     -11.312   8.688  72.126  1.00  0.00    -0.364 A  
HETATM   28  C   UNK A   2     -10.104   8.951  71.448  1.00  0.00    -0.379 A  
HETATM   29  O   UNK A   2     -10.435   8.393  66.961  1.00  0.00    -0.307 OA 
HETATM   30  C   UNK A   2      -9.338   8.920  67.119  1.00  0.00    -0.145 C  
HETATM   31  C   UNK A   2     -10.109   9.586  70.200  1.00  0.00    -0.293 A  
HETATM   32  C   UNK A   2      -9.075  10.204  67.948  1.00  0.00    -0.131 C  
HETATM   33  C   UNK A   2      -8.833   9.862  69.435  1.00  0.00    -0.195 C  
BRANCH  24  34
HETATM   34  O   UNK A   2     -13.666   8.717  72.228  1.00  0.00    -0.391 OA 
HETATM   35  C   UNK A   2     -14.401   7.682  71.605  1.00  0.00    -0.477 C  
ENDBRANCH  24  34
BRANCH  27  36
HETATM   36  O   UNK A   2     -11.424   8.090  73.344  1.00  0.00    -0.149 OA 
HETATM   37  C   UNK A   2     -10.656   6.925  73.574  1.00  0.00    -0.348 C  
ENDBRANCH  27  36
ENDBRANCH  17  19
ENDBRANCH  15  17
ENDBRANCH   6  15
ENDBRANCH   4   6
ENDBRANCH   3   4
ENDBRANCH   2   3
TORSDOF 11
ENDMDL
MODEL        4
REMARK 921   NORMALIZED FREE ENERGY PREDICTED BY IDOCK:   -6.91 KCAL/MOL
REMARK 922        TOTAL FREE ENERGY PREDICTED BY IDOCK:  -13.25 KCAL/MOL
REMARK 923 INTER-LIGAND FREE ENERGY PREDICTED BY IDOCK:  -11.64 KCAL/MOL
REMARK 924 INTRA-LIGAND FREE ENERGY PREDICTED BY IDOCK:   -1.61 KCAL/MOL
REMARK 927      BINDING AFFINITY PREDICTED BY RF-SCORE:    0.00 PKD
ROOT
HETATM    1  C   UNK A   0     -12.833  14.788  73.311  1.00  0.00    -0.621 C  
HETATM    2  C   UNK A   0     -13.786  14.198  72.290  1.00  0.00    -0.544 C  
ENDROOT
BRANCH   2   3
HETATM    3  O   UNK A   0     -13.345  12.876  71.964  1.00  0.00    -0.479 OA 
BRANCH   3   4
HETATM    4  C   UNK A   0     -12.405  12.767  70.981  1.00  0.00    -0.221 C  
HETATM    5  O   UNK A   0     -11.757  13.691  70.498  1.00  0.00    -0.234 OA 
BRANCH   4   6
HETATM    6  C   UNK A   0     -12.229  11.291  70.626  1.00  0.00    -0.393 C  
BRANCH   6   7
HETATM    7  C   UNK A   0     -12.845  10.418  71.722  1.00  0.00    -0.561 C  
BRANCH   7   8
HETATM    8  C   UNK A   0     -13.310   8.988  71.406  1.00  0.00    -0.331 C  
BRANCH   8   9
HETATM    9  C   UNK A   0     -12.185   7.963  71.622  1.00  0.00    -0.339 A  
HETATM   10  C   UNK A   0     -11.397   8.018  72.781  1.00  0.00    -0.439 A  
HETATM   11  C   UNK A   0     -10.444   7.020  73.050  1.00  0.00    -0.307 A  
HETATM   12  C   UNK A   0     -11.943   6.895  70.732  1.00  0.00    -0.424 A  
HETATM   13  C   UNK A   0     -10.265   5.950  72.174  1.00  0.00    -0.231 A  
HETATM   14  C   UNK A   0     -11.010   5.894  71.007  1.00  0.00    -0.335 A  
ENDBRANCH   8   9
ENDBRANCH   7   8
ENDBRANCH   6   7
BRANCH   6  15
ATOM     15  N   ALA A   1     -10.791  10.972  70.448  1.00  0.00    -0.315 NA 
ATOM     16  H   ALA A   1     -10.202  10.856  71.272  1.00  0.00     0.000 HD 
BRANCH  15  17
ATOM     17  CA  ALA A   1     -10.185  10.818  69.093  1.00  0.00    -0.211 C  
ATOM     18  CB  ALA A   1      -9.457   9.522  68.699  1.00  0.00    -0.143 C  
BRANCH  17  19
ATOM     19  C   ALA A   1     -10.999  11.432  67.907  1.00  0.00    -0.240 C  
ATOM     20  O   ALA A   1     -12.033  10.861  67.540  1.00  0.00    -0.442 OA 
HETATM   21  C   UNK A   2      -9.625  14.828  67.888  1.00  0.00    -0.210 A  
HETATM   22  C   UNK A   2      -8.509  15.534  68.357  1.00  0.00    -0.163 A  
HETATM   23  N   UNK A   2     -10.664  12.658  67.355  1.00  0.00    -0.227 N  
HETATM   24  C   UNK A   2      -8.609  16.880  68.665  1.00  0.00    -0.267 A  
HETATM   25  C   UNK A   2      -9.441  13.381  67.594  1.00  0.00    -0.216 C  
HETATM   26  O   UNK A   2     -12.023  13.573  64.083  1.00  0.00    -0.414 OA 
HETATM   27  C   UNK A   2      -9.836  17.532  68.529  1.00  0.00    -0.330 A  
HETATM   28  C   UNK A   2     -10.955  16.821  68.047  1.00  0.00    -0.296 A  
HETATM   29  O   UNK A   2      -9.905  13.885  64.756  1.00  0.00    -0.190 OA 
HETATM   30  C   UNK A   2     -11.070  13.618  65.037  1.00  0.00    -0.332 C  
HETATM   31  C   UNK A   2     -10.845  15.471  67.692  1.00  0.00    -0.306 A  
HETATM   32  C   UNK A   2     -11.606  13.362  66.469  1.00  0.00    -0.357 C  
HETATM   33  C   UNK A   2     -12.020  14.687  67.150  1.00  0.00    -0.310 C  
BRANCH  24  34
HETATM   34  O   UNK A   2      -7.544  17.650  69.061  1.00  0.00    -0.245 OA 
HETATM   35  C   UNK A   2      -6.361  17.421  68.320  1.00  0.00    -0.170 C  
ENDBRANCH  24  34
BRANCH  27  36
HETATM   36  O   UNK A   2      -9.830  18.838  68.912  1.00  0.00    -0.386 OA 
HETATM   37  C   UNK A   2     -10.019  19.816  67.908  1.00  0.00    -0.416 C  
ENDBRANCH  27  36
ENDBRANCH  17  19
ENDBRANCH  15  17
ENDBRANCH   6  15
ENDBRANCH   4   6
ENDBRANCH   3   4
ENDBRANCH   2   3
TORSDOF 11
ENDMDL
MODEL        5
REMARK 921   NORMALIZED FREE ENERGY PREDICTED BY IDOCK:   -6.90 KCAL/MOL
REMARK 922        TOTAL FREE ENERGY PREDICTED BY IDOCK:  -13.24 KCAL/MOL
REMARK 923 INTER-LIGAND FREE ENERGY PREDICTED BY IDOCK:  -11.08 KCAL/MOL
REMARK 924 INTRA-LIGAND FREE ENERGY PREDICTED BY IDOCK:   -2.16 KCAL/MOL
REMARK 927      BINDING AFFINITY PREDICTED BY RF-SCORE:    0.00 PKD
ROOT
HETATM    1  C   UNK A   0     -11.068  11.842  63.813  1.00  0.00    -0.510 C  
HETATM    2  C   UNK A   0     -12.575  11.997  63.879  1.00  0.00    -0.406 C  
ENDROOT
BRANCH   2   3
HETATM    3  O   UNK A   0     -12.903  12.806  65.013  1.00  0.00    -0.743 OA 
BRANCH   3   4
HETATM    4  C   UNK A   0     -12.530  14.117  64.960  1.00  0.00    -0.419 C  
HETATM    5  O   UNK A   0     -12.641  14.859  63.989  1.00  0.00    -0.832 OA 
BRANCH   4   6
HETATM    6  C   UNK A   0     -12.017  14.541  66.337  1.00  0.00    -0.334 C  
BRANCH   6   7
HETATM    7  C   UNK A   0     -10.504  14.759  66.279  1.00  0.00    -0.300 C  
BRANCH   7   8
HETATM    8  C   UNK A   0      -9.926  16.015  65.608  1.00  0.00    -0.346 C  
BRANCH   8   9
HETATM    9  C   UNK A   0     -10.100  17.262  66.490  1.00  0.00    -0.311 A  
HETATM   10  C   UNK A   0      -9.838  17.193  67.866  1.00  0.00    -0.283 A  
HETATM   11  C   UNK A   0      -9.879  18.351  68.664  1.00  0.00    -0.403 A  
HETATM   12  C   UNK A   0     -10.446  18.527  65.965  1.00  0.00    -0.433 A  
HETATM   13  C   UNK A   0     -10.175  19.593  68.104  1.00  0.00    -0.580 A  
HETATM   14  C   UNK A   0     -10.470  19.678  66.753  1.00  0.00    -0.605 A  
ENDBRANCH   8   9
ENDBRANCH   7   8
ENDBRANCH   6   7
BRANCH   6  15
ATOM     15  N   ALA A   1     -12.361  13.515  67.352  1.00  0.00    -0.300 NA 
ATOM     16  H   ALA A   1     -13.066  12.813  67.130  1.00  0.00     0.000 HD 
BRANCH  15  17
ATOM     17  CA  ALA A   1     -11.701  13.485  68.690  1.00  0.00    -0.354 C  
ATOM     18  CB  ALA A   1     -11.947  14.606  69.714  1.00  0.00    -0.378 C  
BRANCH  17  19
ATOM     19  C   ALA A   1     -11.578  12.078  69.360  1.00  0.00    -0.330 C  
ATOM     20  O   ALA A   1     -12.474  11.707  70.128  1.00  0.00    -0.221 OA 
HETATM   21  C   UNK A   2      -9.095  10.539  67.148  1.00  0.00    -0.154 A  
HETATM   22  C   UNK A   2      -8.125  10.908  66.208  1.00  0.00    -0.165 A  
HETATM   23  N   UNK A   2     -10.569  11.194  69.012  1.00  0.00    -0.215 N  
HETATM   24  C   UNK A   2      -7.796  10.056  65.168  1.00  0.00    -0.136 A  
HETATM   25  C   UNK A   2      -9.404  11.516  68.228  1.00  0.00    -0.190 C  
HETATM   26  O   UNK A   2      -9.837   8.365  71.214  1.00  0.00    -0.176 OA 
HETATM   27  C   UNK A   2      -8.453   8.831  65.043  1.00  0.00    -0.175 A  
HETATM   28  C   UNK A   2      -9.423   8.457  65.996  1.00  0.00    -0.224 A  
HETATM   29  O   UNK A   2      -8.314   9.679  70.219  1.00  0.00    -0.181 OA 
HETATM   30  C   UNK A   2      -9.479   9.301  70.311  1.00  0.00    -0.238 C  
HETATM   31  C   UNK A   2      -9.725   9.297  67.075  1.00  0.00    -0.241 A  
HETATM   32  C   UNK A   2     -10.646   9.778  69.408  1.00  0.00    -0.228 C  
HETATM   33  C   UNK A   2     -10.742   8.916  68.128  1.00  0.00    -0.148 C  
BRANCH  24  34
HETATM   34  O   UNK A   2      -6.808  10.320  64.253  1.00  0.00    -0.124 OA 
HETATM   35  C   UNK A   2      -5.516  10.430  64.816  1.00  0.00    -0.139 C  
ENDBRANCH  24  34
BRANCH  27  36
HETATM   36  O   UNK A   2      -8.090   8.100  63.952  1.00  0.00    -0.154 OA 
HETATM   37  C   UNK A   2      -7.844   6.721  64.142  1.00  0.00    -0.106 C  
ENDBRANCH  27  36
ENDBRANCH  17  19
ENDBRANCH  15  17
ENDBRANCH   6  15
ENDBRANCH   4   6
ENDBRANCH   3   4
ENDBRANCH   2   3
TORSDOF 11
ENDMDL
MODEL        6
REMARK 921   NORMALIZED FREE ENERGY PREDICTED BY IDOCK:   -6.82 KCAL/MOL
REMARK 922        TOTAL FREE ENERGY PREDICTED BY IDOCK:  -13.12 KCAL/MOL
REMARK 923 INTER-LIGAND FREE ENERGY PREDICTED BY IDOCK:  -11.02 KCAL/MOL
REMARK 924 INTRA-LIGAND FREE ENERGY PREDICTED BY IDOCK:   -2.10 KCAL/MOL
REMARK 927      BINDING AFFINITY PREDICTED BY RF-SCORE:    0.00 PKD
ROOT
HETATM    1  C   UNK A   0      -9.872   6.425  74.303  1.00  0.00    -0.320 C  
HETATM    2  C   UNK A   0     -10.857   6.504  73.152  1.00  0.00    -0.257 C  
ENDROOT
BRANCH   2   3
HETATM    3  O   UNK A   0     -11.341   7.847  73.056  1.00  0.00    -0.408 OA 
BRANCH   3   4
HETATM    4  C   UNK A   0     -12.168   8.128  72.008  1.00  0.00    -0.339 C  
HETATM    5  O   UNK A   0     -13.280   7.645  71.819  1.00  0.00    -0.335 OA 
BRANCH   4   6
HETATM    6  C   UNK A   0     -11.519   9.206  71.140  1.00  0.00    -0.318 C  
BRANCH   6   7
HETATM    7  C   UNK A   0     -12.269  10.529  71.310  1.00  0.00    -0.472 C  
BRANCH   7   8
HETATM    8  C   UNK A   0     -12.042  11.682  70.321  1.00  0.00    -0.443 C  
BRANCH   8   9
HETATM    9  C   UNK A   0     -12.645  12.999  70.834  1.00  0.00    -0.364 A  
HETATM   10  C   UNK A   0     -13.411  13.011  72.009  1.00  0.00    -0.588 A  
HETATM   11  C   UNK A   0     -13.871  14.223  72.555  1.00  0.00    -0.575 A  
HETATM   12  C   UNK A   0     -12.403  14.244  70.214  1.00  0.00    -0.418 A  
HETATM   13  C   UNK A   0     -13.570  15.440  71.944  1.00  0.00    -0.590 A  
HETATM   14  C   UNK A   0     -12.843  15.448  70.765  1.00  0.00    -0.524 A  
ENDBRANCH   8   9
ENDBRANCH   7   8
ENDBRANCH   6   7
BRANCH   6  15
ATOM     15  N   ALA A   1     -11.514   8.785  69.717  1.00  0.00    -0.430 NA 
ATOM     16  H   ALA A   1     -12.357   8.914  69.158  1.00  0.00     0.000 HD 
BRANCH  15  17
ATOM     17  CA  ALA A   1     -10.307   8.178  69.084  1.00  0.00    -0.220 C  
ATOM     18  CB  ALA A   1      -9.774   6.813  69.552  1.00  0.00    -0.154 C  
BRANCH  17  19
ATOM     19  C   ALA A   1     -10.174   8.374  67.538  1.00  0.00    -0.243 C  
ATOM     20  O   ALA A   1     -10.623   7.497  66.789  1.00  0.00    -0.318 OA 
HETATM   21  C   UNK A   2      -9.530  11.978  67.410  1.00  0.00    -0.177 A  
HETATM   22  C   UNK A   2      -9.105  13.020  68.245  1.00  0.00    -0.179 A  
HETATM   23  N   UNK A   2      -9.693   9.555  66.994  1.00  0.00    -0.167 N  
HETATM   24  C   UNK A   2      -9.533  14.317  68.022  1.00  0.00    -0.204 A  
HETATM   25  C   UNK A   2      -9.038  10.609  67.725  1.00  0.00    -0.143 C  
HETATM   26  O   UNK A   2      -8.593   9.595  63.505  1.00  0.00    -0.178 OA 
HETATM   27  C   UNK A   2     -10.412  14.584  66.971  1.00  0.00    -0.268 A  
HETATM   28  C   UNK A   2     -10.830  13.536  66.126  1.00  0.00    -0.284 A  
HETATM   29  O   UNK A   2      -7.528  10.563  65.227  1.00  0.00    -0.137 OA 
HETATM   30  C   UNK A   2      -8.541  10.032  64.780  1.00  0.00    -0.177 C  
HETATM   31  C   UNK A   2     -10.363  12.230  66.322  1.00  0.00    -0.257 A  
HETATM   32  C   UNK A   2      -9.867   9.843  65.561  1.00  0.00    -0.311 C  
HETATM   33  C   UNK A   2     -10.773  11.087  65.419  1.00  0.00    -0.222 C  
BRANCH  24  34
HETATM   34  O   UNK A   2      -9.103  15.395  68.754  1.00  0.00    -0.183 OA 
HETATM   35  C   UNK A   2      -7.759  15.302  69.182  1.00  0.00    -0.200 C  
ENDBRANCH  24  34
BRANCH  27  36
HETATM   36  O   UNK A   2     -10.810  15.884  66.880  1.00  0.00    -0.314 OA 
HETATM   37  C   UNK A   2     -10.608  16.545  65.646  1.00  0.00    -0.304 C  
ENDBRANCH  27  36
ENDBRANCH  17  19
ENDBRANCH  15  17
ENDBRANCH   6  15
ENDBRANCH   4   6
ENDBRANCH   3   4
ENDBRANCH   2   3
TORSDOF 11
ENDMDL
MODEL        7
REMARK 921   NORMALIZED FREE ENERGY PREDICTED BY IDOCK:   -6.78 KCAL/MOL
REMARK 922        TOTAL FREE ENERGY PREDICTED BY IDOCK:  -13.05 KCAL/MOL
REMARK 923 INTER-LIGAND FREE ENERGY PREDICTED BY IDOCK:  -11.22 KCAL/MOL
REMARK 924 INTRA-LIGAND FREE ENERGY PREDICTED BY IDOCK:   -1.84 KCAL/MOL
REMARK 927      BINDING AFFINITY PREDICTED BY RF-SCORE:    0.00 PKD
ROOT
HETATM    1  C   UNK A   0     -14.250   7.497  71.558  1.00  0.00    -0.580 C  
HETATM    2  C   UNK A   0     -14.179   8.950  71.985  1.00  0.00    -0.369 C  
ENDROOT
BRANCH   2   3
HETATM    3  O   UNK A   0     -12.805   9.301  72.181  1.00  0.00    -0.379 OA 
BRANCH   3   4
HETATM    4  C   UNK A   0     -12.256  10.164  71.278  1.00  0.00    -0.398 C  
HETATM    5  O   UNK A   0     -12.653  11.299  71.031  1.00  0.00    -0.376 OA 
BRANCH   4   6
HETATM    6  C   UNK A   0     -11.013   9.516  70.668  1.00  0.00    -0.306 C  
BRANCH   6   7
HETATM    7  C   UNK A   0     -10.342   8.610  71.703  1.00  0.00    -0.366 C  
BRANCH   7   8
HETATM    8  C   UNK A   0     -10.512   7.084  71.624  1.00  0.00    -0.219 C  
BRANCH   8   9
HETATM    9  C   UNK A   0     -10.213   6.550  70.214  1.00  0.00    -0.227 A  
HETATM   10  C   UNK A   0     -11.254   6.393  69.287  1.00  0.00    -0.440 A  
HETATM   11  C   UNK A   0     -10.982   6.018  67.959  1.00  0.00    -0.340 A  
HETATM   12  C   UNK A   0      -8.904   6.274  69.763  1.00  0.00    -0.140 A  
HETATM   13  C   UNK A   0      -9.671   5.801  67.533  1.00  0.00    -0.128 A  
HETATM   14  C   UNK A   0      -8.632   5.920  68.441  1.00  0.00    -0.113 A  
ENDBRANCH   8   9
ENDBRANCH   7   8
ENDBRANCH   6   7
BRANCH   6  15
ATOM     15  N   ALA A   1     -10.070  10.559  70.194  1.00  0.00    -0.388 NA 
ATOM     16  H   ALA A   1      -9.647  11.192  70.872  1.00  0.00     0.000 HD 
BRANCH  15  17
ATOM     17  CA  ALA A   1      -9.725  10.704  68.749  1.00  0.00    -0.189 C  
ATOM     18  CB  ALA A   1      -8.912   9.620  68.021  1.00  0.00    -0.122 C  
BRANCH  17  19
ATOM     19  C   ALA A   1     -10.834  11.332  67.842  1.00  0.00    -0.228 C  
ATOM     20  O   ALA A   1     -11.902  10.723  67.706  1.00  0.00    -0.538 OA 
HETATM   21  C   UNK A   2      -9.650  14.796  67.703  1.00  0.00    -0.208 A  
HETATM   22  C   UNK A   2      -8.483  15.538  67.927  1.00  0.00    -0.146 A  
HETATM   23  N   UNK A   2     -10.698  12.602  67.304  1.00  0.00    -0.234 N  
HETATM   24  C   UNK A   2      -8.558  16.858  68.335  1.00  0.00    -0.240 A  
HETATM   25  C   UNK A   2      -9.485  13.378  67.281  1.00  0.00    -0.234 C  
HETATM   26  O   UNK A   2     -12.867  13.608  64.534  1.00  0.00    -0.645 OA 
HETATM   27  C   UNK A   2      -9.806  17.447  68.548  1.00  0.00    -0.320 A  
HETATM   28  C   UNK A   2     -10.979  16.701  68.313  1.00  0.00    -0.341 A  
HETATM   29  O   UNK A   2     -10.663  14.003  64.683  1.00  0.00    -0.407 OA 
HETATM   30  C   UNK A   2     -11.709  13.657  65.225  1.00  0.00    -0.334 C  
HETATM   31  C   UNK A   2     -10.906  15.379  67.856  1.00  0.00    -0.300 A  
HETATM   32  C   UNK A   2     -11.860  13.297  66.726  1.00  0.00    -0.394 C  
HETATM   33  C   UNK A   2     -12.146  14.559  67.570  1.00  0.00    -0.284 C  
BRANCH  24  34
HETATM   34  O   UNK A   2      -7.461  17.665  68.505  1.00  0.00    -0.248 OA 
HETATM   35  C   UNK A   2      -6.527  17.176  69.447  1.00  0.00    -0.233 C  
ENDBRANCH  24  34
BRANCH  27  36
HETATM   36  O   UNK A   2      -9.759  18.730  69.001  1.00  0.00    -0.350 OA 
HETATM   37  C   UNK A   2     -10.125  19.756  68.100  1.00  0.00    -0.452 C  
ENDBRANCH  27  36
ENDBRANCH  17  19
ENDBRANCH  15  17
ENDBRANCH   6  15
ENDBRANCH   4   6
ENDBRANCH   3   4
ENDBRANCH   2   3
TORSDOF 11
ENDMDL
MODEL        8
REMARK 921   NORMALIZED FREE ENERGY PREDICTED BY IDOCK:   -6.76 KCAL/MOL
REMARK 922        TOTAL FREE ENERGY PREDICTED BY IDOCK:  -13.02 KCAL/MOL
REMARK 923 INTER-LIGAND FREE ENERGY PREDICTED BY IDOCK:  -11.71 KCAL/MOL
REMARK 924 INTRA-LIGAND FREE ENERGY PREDICTED BY IDOCK:   -1.31 KCAL/MOL
REMARK 927      BINDING AFFINITY PREDICTED BY RF-SCORE:    0.00 PKD
ROOT
HETATM    1  C   UNK A   0      -8.279   7.532  73.113  1.00  0.00    -0.158 C  
HETATM    2  C   UNK A   0      -9.371   8.355  72.457  1.00  0.00    -0.275 C  
ENDROOT
BRANCH   2   3
HETATM    3  O   UNK A   0      -9.497   7.943  71.092  1.00  0.00    -0.156 OA 
BRANCH   3   4
HETATM    4  C   UNK A   0     -10.545   8.460  70.389  1.00  0.00    -0.223 C  
HETATM    5  O   UNK A   0     -11.344   7.819  69.712  1.00  0.00    -0.085 OA 
BRANCH   4   6
HETATM    6  C   UNK A   0     -10.613   9.967  70.637  1.00  0.00    -0.271 C  
BRANCH   6   7
HETATM    7  C   UNK A   0     -12.028  10.474  70.351  1.00  0.00    -0.425 C  
BRANCH   7   8
HETATM    8  C   UNK A   0     -12.910  10.999  71.495  1.00  0.00    -0.555 C  
BRANCH   8   9
HETATM    9  C   UNK A   0     -13.005  12.533  71.482  1.00  0.00    -0.379 A  
HETATM   10  C   UNK A   0     -12.239  13.278  70.574  1.00  0.00    -0.416 A  
HETATM   11  C   UNK A   0     -12.401  14.671  70.469  1.00  0.00    -0.400 A  
HETATM   12  C   UNK A   0     -13.902  13.250  72.304  1.00  0.00    -0.637 A  
HETATM   13  C   UNK A   0     -13.332  15.342  71.262  1.00  0.00    -0.586 A  
HETATM   14  C   UNK A   0     -14.076  14.630  72.188  1.00  0.00    -0.604 A  
ENDBRANCH   8   9
ENDBRANCH   7   8
ENDBRANCH   6   7
BRANCH   6  15
ATOM     15  N   ALA A   1      -9.621  10.673  69.789  1.00  0.00    -0.407 NA 
ATOM     16  H   ALA A   1      -9.036  11.396  70.206  1.00  0.00     0.000 HD 
BRANCH  15  17
ATOM     17  CA  ALA A   1      -9.460  10.352  68.340  1.00  0.00    -0.149 C  
ATOM     18  CB  ALA A   1      -8.848   9.013  67.894  1.00  0.00    -0.129 C  
BRANCH  17  19
ATOM     19  C   ALA A   1     -10.621  10.822  67.403  1.00  0.00    -0.242 C  
ATOM     20  O   ALA A   1     -11.647  10.133  67.341  1.00  0.00    -0.093 OA 
HETATM   21  C   UNK A   2      -9.678  14.332  66.940  1.00  0.00    -0.268 A  
HETATM   22  C   UNK A   2      -8.562  15.167  67.076  1.00  0.00    -0.265 A  
HETATM   23  N   UNK A   2     -10.580  12.046  66.754  1.00  0.00    -0.221 N  
HETATM   24  C   UNK A   2      -8.721  16.510  67.369  1.00  0.00    -0.182 A  
HETATM   25  C   UNK A   2      -9.423  12.896  66.640  1.00  0.00    -0.255 C  
HETATM   26  O   UNK A   2     -12.848  12.656  63.949  1.00  0.00    -0.702 OA 
HETATM   27  C   UNK A   2     -10.004  17.030  67.553  1.00  0.00    -0.274 A  
HETATM   28  C   UNK A   2     -11.126  16.190  67.406  1.00  0.00    -0.134 A  
HETATM   29  O   UNK A   2     -10.674  13.208  64.021  1.00  0.00    -0.399 OA 
HETATM   30  C   UNK A   2     -11.687  12.843  64.610  1.00  0.00    -0.359 C  
HETATM   31  C   UNK A   2     -10.969  14.841  67.065  1.00  0.00    -0.324 A  
HETATM   32  C   UNK A   2     -11.794  12.607  66.139  1.00  0.00    -0.418 C  
HETATM   33  C   UNK A   2     -12.153  13.917  66.876  1.00  0.00    -0.467 C  
BRANCH  24  34
HETATM   34  O   UNK A   2      -7.680  17.400  67.447  1.00  0.00    -0.186 OA 
HETATM   35  C   UNK A   2      -6.835  17.398  66.313  1.00  0.00    -0.272 C  
ENDBRANCH  24  34
BRANCH  27  36
HETATM   36  O   UNK A   2     -10.039  18.349  67.892  1.00  0.00    -0.327 OA 
HETATM   37  C   UNK A   2     -10.725  19.229  67.025  1.00  0.00    -0.464 C  
ENDBRANCH  27  36
ENDBRANCH  17  19
ENDBRANCH  15  17
ENDBRANCH   6  15
ENDBRANCH   4   6
ENDBRANCH   3   4
ENDBRANCH   2   3
TORSDOF 11
ENDMDL
MODEL        9
REMARK 921   NORMALIZED FREE ENERGY PREDICTED BY IDOCK:   -6.72 KCAL/MOL
REMARK 922        TOTAL FREE ENERGY PREDICTED BY IDOCK:  -12.94 KCAL/MOL
REMARK 923 INTER-LIGAND FREE ENERGY PREDICTED BY IDOCK:  -11.35 KCAL/MOL
REMARK 924 INTRA-LIGAND FREE ENERGY PREDICTED BY IDOCK:   -1.59 KCAL/MOL
REMARK 927      BINDING AFFINITY PREDICTED BY RF-SCORE:    0.00 PKD
ROOT
HETATM    1  C   UNK A   0     -11.746  15.102  71.230  1.00  0.00    -0.409 C  
HETATM    2  C   UNK A   0     -12.683  13.968  70.863  1.00  0.00    -0.350 C  
ENDROOT
BRANCH   2   3
HETATM    3  O   UNK A   0     -11.911  12.776  70.686  1.00  0.00    -0.300 OA 
BRANCH   3   4
HETATM    4  C   UNK A   0     -12.421  11.629  71.220  1.00  0.00    -0.266 C  
HETATM    5  O   UNK A   0     -13.317  11.559  72.056  1.00  0.00    -0.476 OA 
BRANCH   4   6
HETATM    6  C   UNK A   0     -11.747  10.430  70.553  1.00  0.00    -0.344 C  
BRANCH   6   7
HETATM    7  C   UNK A   0     -11.766   9.231  71.503  1.00  0.00    -0.450 C  
BRANCH   7   8
HETATM    8  C   UNK A   0     -10.475   8.772  72.199  1.00  0.00    -0.384 C  
BRANCH   8   9
HETATM    9  C   UNK A   0     -10.631   7.379  72.827  1.00  0.00    -0.345 A  
HETATM   10  C   UNK A   0     -11.395   6.397  72.179  1.00  0.00    -0.332 A  
HETATM   11  C   UNK A   0     -11.451   5.084  72.680  1.00  0.00    -0.167 A  
HETATM   12  C   UNK A   0      -9.969   6.997  74.015  1.00  0.00    -0.353 A  
HETATM   13  C   UNK A   0     -10.744   4.727  73.829  1.00  0.00    -0.359 A  
HETATM   14  C   UNK A   0     -10.010   5.690  74.502  1.00  0.00    -0.279 A  
ENDBRANCH   8   9
ENDBRANCH   7   8
ENDBRANCH   6   7
BRANCH   6  15
ATOM     15  N   ALA A   1     -10.356  10.772  70.167  1.00  0.00    -0.358 NA 
ATOM     16  H   ALA A   1      -9.682  11.007  70.895  1.00  0.00     0.000 HD 
BRANCH  15  17
ATOM     17  CA  ALA A   1      -9.919  10.780  68.740  1.00  0.00    -0.193 C  
ATOM     18  CB  ALA A   1      -9.211   9.560  68.126  1.00  0.00    -0.134 C  
BRANCH  17  19
ATOM     19  C   ALA A   1     -10.889  11.480  67.732  1.00  0.00    -0.221 C  
ATOM     20  O   ALA A   1     -11.994  10.965  67.521  1.00  0.00    -0.442 OA 
HETATM   21  C   UNK A   2      -9.386  14.819  67.623  1.00  0.00    -0.195 A  
HETATM   22  C   UNK A   2      -8.178  15.460  67.927  1.00  0.00    -0.150 A  
HETATM   23  N   UNK A   2     -10.596  12.717  67.183  1.00  0.00    -0.236 N  
HETATM   24  C   UNK A   2      -8.165  16.792  68.301  1.00  0.00    -0.204 A  
HETATM   25  C   UNK A   2      -9.319  13.381  67.243  1.00  0.00    -0.233 C  
HETATM   26  O   UNK A   2     -12.434  13.837  64.224  1.00  0.00    -0.629 OA 
HETATM   27  C   UNK A   2      -9.367  17.495  68.398  1.00  0.00    -0.287 A  
HETATM   28  C   UNK A   2     -10.581  16.851  68.082  1.00  0.00    -0.360 A  
HETATM   29  O   UNK A   2     -10.222  14.037  64.546  1.00  0.00    -0.381 OA 
HETATM   30  C   UNK A   2     -11.336  13.801  65.006  1.00  0.00    -0.328 C  
HETATM   31  C   UNK A   2     -10.593  15.516  67.660  1.00  0.00    -0.291 A  
HETATM   32  C   UNK A   2     -11.639  13.497  66.496  1.00  0.00    -0.359 C  
HETATM   33  C   UNK A   2     -11.875  14.803  67.289  1.00  0.00    -0.316 C  
BRANCH  24  34
HETATM   34  O   UNK A   2      -7.016  17.502  68.545  1.00  0.00    -0.196 OA 
HETATM   35  C   UNK A   2      -6.207  16.954  69.566  1.00  0.00    -0.229 C  
ENDBRANCH  24  34
BRANCH  27  36
HETATM   36  O   UNK A   2      -9.240  18.781  68.829  1.00  0.00    -0.337 OA 
HETATM   37  C   UNK A   2     -10.072  19.756  68.231  1.00  0.00    -0.458 C  
ENDBRANCH  27  36
ENDBRANCH  17  19
ENDBRANCH  15  17
ENDBRANCH   6  15
ENDBRANCH   4   6
ENDBRANCH   3   4
ENDBRANCH   2   3
TORSDOF 11
ENDMDL
MODEL       10
REMARK 921   NORMALIZED FREE ENERGY PREDICTED BY IDOCK:   -6.71 KCAL/MOL
REMARK 922        TOTAL FREE ENERGY PREDICTED BY IDOCK:  -12.93 KCAL/MOL
REMARK 923 INTER-LIGAND FREE ENERGY PREDICTED BY IDOCK:  -11.29 KCAL/MOL
REMARK 924 INTRA-LIGAND FREE ENERGY PREDICTED BY IDOCK:   -1.64 KCAL/MOL
REMARK 927      BINDING AFFINITY PREDICTED BY RF-SCORE:    0.00 PKD
ROOT
HETATM    1  C   UNK A   0     -10.319  16.582  66.285  1.00  0.00    -0.327 C  
HETATM    2  C   UNK A   0     -10.995  15.967  65.075  1.00  0.00    -0.412 C  
ENDROOT
BRANCH   2   3
HETATM    3  O   UNK A   0     -10.927  14.542  65.189  1.00  0.00    -0.334 OA 
BRANCH   3   4
HETATM    4  C   UNK A   0     -12.055  13.905  65.618  1.00  0.00    -0.421 C  
HETATM    5  O   UNK A   0     -13.201  14.147  65.253  1.00  0.00    -0.760 OA 
BRANCH   4   6
HETATM    6  C   UNK A   0     -11.656  12.783  66.576  1.00  0.00    -0.376 C  
BRANCH   6   7
HETATM    7  C   UNK A   0     -11.365  13.365  67.961  1.00  0.00    -0.320 C  
BRANCH   7   8
HETATM    8  C   UNK A   0     -11.515  12.491  69.217  1.00  0.00    -0.353 C  
BRANCH   8   9
HETATM    9  C   UNK A   0     -12.283  13.222  70.330  1.00  0.00    -0.391 A  
HETATM   10  C   UNK A   0     -12.501  14.605  70.243  1.00  0.00    -0.401 A  
HETATM   11  C   UNK A   0     -13.300  15.268  71.192  1.00  0.00    -0.568 A  
HETATM   12  C   UNK A   0     -12.862  12.550  71.428  1.00  0.00    -0.359 A  
HETATM   13  C   UNK A   0     -13.899  14.563  72.236  1.00  0.00    -0.587 A  
HETATM   14  C   UNK A   0     -13.670  13.203  72.359  1.00  0.00    -0.640 A  
ENDBRANCH   8   9
ENDBRANCH   7   8
ENDBRANCH   6   7
BRANCH   6  15
ATOM     15  N   ALA A   1     -10.471  12.058  66.053  1.00  0.00    -0.241 NA 
ATOM     16  H   ALA A   1      -9.560  12.220  66.482  1.00  0.00     0.000 HD 
BRANCH  15  17
ATOM     17  CA  ALA A   1     -10.580  11.098  64.916  1.00  0.00    -0.289 C  
ATOM     18  CB  ALA A   1     -10.788  11.602  63.478  1.00  0.00    -0.497 C  
BRANCH  17  19
ATOM     19  C   ALA A   1      -9.640   9.849  64.983  1.00  0.00    -0.297 C  
ATOM     20  O   ALA A   1      -8.785   9.704  64.101  1.00  0.00    -0.188 OA 
HETATM   21  C   UNK A   2     -10.108   8.893  68.489  1.00  0.00    -0.209 A  
HETATM   22  C   UNK A   2     -11.008   9.098  69.543  1.00  0.00    -0.138 A  
HETATM   23  N   UNK A   2      -9.654   8.988  66.068  1.00  0.00    -0.267 N  
HETATM   24  C   UNK A   2     -10.570   9.064  70.856  1.00  0.00    -0.250 A  
HETATM   25  C   UNK A   2     -10.654   8.960  67.105  1.00  0.00    -0.231 C  
HETATM   26  O   UNK A   2      -8.116   5.684  65.743  1.00  0.00    -0.105 OA 
HETATM   27  C   UNK A   2      -9.218   8.846  71.128  1.00  0.00    -0.256 A  
HETATM   28  C   UNK A   2      -8.316   8.630  70.066  1.00  0.00    -0.124 A  
HETATM   29  O   UNK A   2     -10.084   6.122  66.729  1.00  0.00    -0.161 OA 
HETATM   30  C   UNK A   2      -9.024   6.534  66.266  1.00  0.00    -0.156 C  
HETATM   31  C   UNK A   2      -8.765   8.619  68.739  1.00  0.00    -0.135 A  
HETATM   32  C   UNK A   2      -8.566   8.015  66.266  1.00  0.00    -0.143 C  
HETATM   33  C   UNK A   2      -7.829   8.366  67.577  1.00  0.00    -0.099 C  
BRANCH  24  34
HETATM   34  O   UNK A   2     -11.404   9.186  71.938  1.00  0.00    -0.365 OA 
HETATM   35  C   UNK A   2     -12.553   8.366  71.875  1.00  0.00    -0.349 C  
ENDBRANCH  24  34
BRANCH  27  36
HETATM   36  O   UNK A   2      -8.891   8.889  72.450  1.00  0.00    -0.396 OA 
HETATM   37  C   UNK A   2      -7.828   8.066  72.888  1.00  0.00    -0.142 C  
ENDBRANCH  27  36
ENDBRANCH  17  19
ENDBRANCH  15  17
ENDBRANCH   6  15
ENDBRANCH   4   6
ENDBRANCH   3   4
ENDBRANCH   2   3
TORSDOF 11
ENDMDL
MODEL       11
REMARK 921   NORMALIZED FREE ENERGY PREDICTED BY IDOCK:   -6.68 KCAL/MOL
REMARK 922        TOTAL FREE ENERGY PREDICTED BY IDOCK:  -12.88 KCAL/MOL
REMARK 923 INTER-LIGAND FREE ENERGY PREDICTED BY IDOCK:  -10.74 KCAL/MOL
REMARK 924 INTRA-LIGAND FREE ENERGY PREDICTED BY IDOCK:   -2.14 KCAL/MOL
REMARK 927      BINDING AFFINITY PREDICTED BY RF-SCORE:    0.00 PKD
ROOT
HETATM    1  C   UNK A   0     -10.906  19.054  67.313  1.00  0.00    -0.494 C  
HETATM    2  C   UNK A   0     -10.241  17.950  68.112  1.00  0.00    -0.382 C  
ENDROOT
BRANCH   2   3
HETATM    3  O   UNK A   0     -10.888  16.711  67.805  1.00  0.00    -0.340 OA 
BRANCH   3   4
HETATM    4  C   UNK A   0     -10.091  15.691  67.375  1.00  0.00    -0.251 C  
HETATM    5  O   UNK A   0      -8.872  15.626  67.504  1.00  0.00    -0.175 OA 
BRANCH   4   6
HETATM    6  C   UNK A   0     -10.970  14.598  66.768  1.00  0.00    -0.323 C  
BRANCH   6   7
HETATM    7  C   UNK A   0     -12.015  14.147  67.792  1.00  0.00    -0.389 C  
BRANCH   7   8
HETATM    8  C   UNK A   0     -11.597  13.303  69.006  1.00  0.00    -0.359 C  
BRANCH   8   9
HETATM    9  C   UNK A   0     -12.307  13.762  70.290  1.00  0.00    -0.407 A  
HETATM   10  C   UNK A   0     -12.586  15.122  70.491  1.00  0.00    -0.429 A  
HETATM   11  C   UNK A   0     -13.338  15.544  71.602  1.00  0.00    -0.585 A  
HETATM   12  C   UNK A   0     -12.773  12.860  71.270  1.00  0.00    -0.371 A  
HETATM   13  C   UNK A   0     -13.827  14.620  72.525  1.00  0.00    -0.561 A  
HETATM   14  C   UNK A   0     -13.535  13.276  72.363  1.00  0.00    -0.670 A  
ENDBRANCH   8   9
ENDBRANCH   7   8
ENDBRANCH   6   7
BRANCH   6  15
ATOM     15  N   ALA A   1     -10.136  13.451  66.330  1.00  0.00    -0.285 NA 
ATOM     16  H   ALA A   1      -9.139  13.453  66.543  1.00  0.00     0.000 HD 
BRANCH  15  17
ATOM     17  CA  ALA A   1     -10.720  12.297  65.587  1.00  0.00    -0.267 C  
ATOM     18  CB  ALA A   1     -11.569  12.523  64.324  1.00  0.00    -0.435 C  
BRANCH  17  19
ATOM     19  C   ALA A   1      -9.818  11.024  65.482  1.00  0.00    -0.243 C  
ATOM     20  O   ALA A   1      -8.949  10.986  64.602  1.00  0.00    -0.167 OA 
HETATM   21  C   UNK A   2     -10.388   9.571  68.796  1.00  0.00    -0.228 A  
HETATM   22  C   UNK A   2     -11.303   9.644  69.854  1.00  0.00    -0.200 A  
HETATM   23  N   UNK A   2      -9.880  10.011  66.425  1.00  0.00    -0.211 N  
HETATM   24  C   UNK A   2     -10.895   9.401  71.154  1.00  0.00    -0.357 A  
HETATM   25  C   UNK A   2     -10.902   9.861  67.429  1.00  0.00    -0.227 C  
HETATM   26  O   UNK A   2      -8.428   6.747  65.636  1.00  0.00    -0.143 OA 
HETATM   27  C   UNK A   2      -9.555   9.104  71.414  1.00  0.00    -0.246 A  
HETATM   28  C   UNK A   2      -8.638   9.020  70.346  1.00  0.00    -0.215 A  
HETATM   29  O   UNK A   2     -10.404   7.094  66.642  1.00  0.00    -0.229 OA 
HETATM   30  C   UNK A   2      -9.323   7.537  66.264  1.00  0.00    -0.120 C  
HETATM   31  C   UNK A   2      -9.058   9.221  69.026  1.00  0.00    -0.147 A  
HETATM   32  C   UNK A   2      -8.824   8.987  66.493  1.00  0.00    -0.135 C  
HETATM   33  C   UNK A   2      -8.105   9.115  67.855  1.00  0.00    -0.105 C  
BRANCH  24  34
HETATM   34  O   UNK A   2     -11.748   9.386  72.228  1.00  0.00    -0.196 OA 
HETATM   35  C   UNK A   2     -13.075   9.022  71.905  1.00  0.00    -0.400 C  
ENDBRANCH  24  34
BRANCH  27  36
HETATM   36  O   UNK A   2      -9.256   8.938  72.732  1.00  0.00    -0.255 OA 
HETATM   37  C   UNK A   2      -8.944   7.632  73.173  1.00  0.00    -0.191 C  
ENDBRANCH  27  36
ENDBRANCH  17  19
ENDBRANCH  15  17
ENDBRANCH   6  15
ENDBRANCH   4   6
ENDBRANCH   3   4
ENDBRANCH   2   3
TORSDOF 11
ENDMDL
MODEL       12
REMARK 921   NORMALIZED FREE ENERGY PREDICTED BY IDOCK:   -6.66 KCAL/MOL
REMARK 922        TOTAL FREE ENERGY PREDICTED BY IDOCK:  -12.85 KCAL/MOL
REMARK 923 INTER-LIGAND FREE ENERGY PREDICTED BY IDOCK:  -11.09 KCAL/MOL
REMARK 924 INTRA-LIGAND FREE ENERGY PREDICTED BY IDOCK:   -1.76 KCAL/MOL
REMARK 927      BINDING AFFINITY PREDICTED BY RF-SCORE:    0.00 PKD
ROOT
HETATM    1  C   UNK A   0     -13.606  13.317  72.391  1.00  0.00    -0.694 C  
HETATM    2  C   UNK A   0     -13.755  14.545  71.514  1.00  0.00    -0.397 C  
ENDROOT
BRANCH   2   3
HETATM    3  O   UNK A   0     -12.848  14.433  70.413  1.00  0.00    -0.350 OA 
BRANCH   3   4
HETATM    4  C   UNK A   0     -11.726  15.209  70.460  1.00  0.00    -0.302 C  
HETATM    5  O   UNK A   0     -11.466  16.048  71.316  1.00  0.00    -0.407 OA 
BRANCH   4   6
HETATM    6  C   UNK A   0     -10.803  14.812  69.308  1.00  0.00    -0.264 C  
BRANCH   6   7
HETATM    7  C   UNK A   0      -9.541  15.678  69.336  1.00  0.00    -0.287 C  
BRANCH   7   8
HETATM    8  C   UNK A   0      -8.889  16.141  68.023  1.00  0.00    -0.181 C  
BRANCH   8   9
HETATM    9  C   UNK A   0      -9.153  17.631  67.752  1.00  0.00    -0.247 A  
HETATM   10  C   UNK A   0      -8.672  18.228  66.577  1.00  0.00    -0.290 A  
HETATM   11  C   UNK A   0      -9.005  19.557  66.258  1.00  0.00    -0.400 A  
HETATM   12  C   UNK A   0      -9.938  18.436  68.605  1.00  0.00    -0.415 A  
HETATM   13  C   UNK A   0      -9.825  20.308  67.100  1.00  0.00    -0.606 A  
HETATM   14  C   UNK A   0     -10.283  19.749  68.281  1.00  0.00    -0.569 A  
ENDBRANCH   8   9
ENDBRANCH   7   8
ENDBRANCH   6   7
BRANCH   6  15
ATOM     15  N   ALA A   1     -11.508  14.955  68.010  1.00  0.00    -0.326 NA 
ATOM     16  H   ALA A   1     -11.824  15.878  67.716  1.00  0.00     0.000 HD 
BRANCH  15  17
ATOM     17  CA  ALA A   1     -11.767  13.781  67.127  1.00  0.00    -0.385 C  
ATOM     18  CB  ALA A   1     -12.739  13.888  65.939  1.00  0.00    -0.466 C  
BRANCH  17  19
ATOM     19  C   ALA A   1     -10.529  12.880  66.807  1.00  0.00    -0.254 C  
ATOM     20  O   ALA A   1      -9.575  13.379  66.197  1.00  0.00    -0.268 OA 
HETATM   21  C   UNK A   2     -11.095  10.158  69.193  1.00  0.00    -0.257 A  
HETATM   22  C   UNK A   2     -12.126   9.610  69.967  1.00  0.00     0.143 A  
HETATM   23  N   UNK A   2     -10.421  11.591  67.305  1.00  0.00    -0.205 N  
HETATM   24  C   UNK A   2     -11.844   8.972  71.162  1.00  0.00    -0.301 A  
HETATM   25  C   UNK A   2     -11.481  10.841  67.928  1.00  0.00    -0.227 C  
HETATM   26  O   UNK A   2      -7.994   9.298  65.810  1.00  0.00    -0.106 OA 
HETATM   27  C   UNK A   2     -10.524   8.896  71.611  1.00  0.00    -0.338 A  
HETATM   28  C   UNK A   2      -9.487   9.439  70.825  1.00  0.00    -0.307 A  
HETATM   29  O   UNK A   2     -10.102   8.784  66.382  1.00  0.00    -0.284 OA 
HETATM   30  C   UNK A   2      -9.155   9.563  66.443  1.00  0.00    -0.159 C  
HETATM   31  C   UNK A   2      -9.765  10.045  69.594  1.00  0.00    -0.255 A  
HETATM   32  C   UNK A   2      -9.133  10.879  67.264  1.00  0.00    -0.141 C  
HETATM   33  C   UNK A   2      -8.673  10.616  68.716  1.00  0.00    -0.157 C  
BRANCH  24  34
HETATM   34  O   UNK A   2     -12.793   8.352  71.935  1.00  0.00    -0.325 OA 
HETATM   35  C   UNK A   2     -13.898   9.173  72.259  1.00  0.00    -0.463 C  
ENDBRANCH  24  34
BRANCH  27  36
HETATM   36  O   UNK A   2     -10.370   8.297  72.824  1.00  0.00    -0.318 OA 
HETATM   37  C   UNK A   2      -9.052   8.031  73.260  1.00  0.00    -0.282 C  
ENDBRANCH  27  36
ENDBRANCH  17  19
ENDBRANCH  15  17
ENDBRANCH   6  15
ENDBRANCH   4   6
ENDBRANCH   3   4
ENDBRANCH   2   3
TORSDOF 11
ENDMDL
MODEL       13
REMARK 921   NORMALIZED FREE ENERGY PREDICTED BY IDOCK:   -6.61 KCAL/MOL
REMARK 922        TOTAL FREE ENERGY PREDICTED BY IDOCK:  -12.77 KCAL/MOL
REMARK 923 INTER-LIGAND FREE ENERGY PREDICTED BY IDOCK:   -9.62 KCAL/MOL
REMARK 924 INTRA-LIGAND FREE ENERGY PREDICTED BY IDOCK:   -3.15 KCAL/MOL
REMARK 927      BINDING AFFINITY PREDICTED BY RF-SCORE:    0.00 PKD
ROOT
HETATM    1  C   UNK A   0     -12.488  16.039  73.946  1.00  0.00    -0.726 C  
HETATM    2  C   UNK A   0     -13.071  15.827  72.562  1.00  0.00    -0.474 C  
ENDROOT
BRANCH   2   3
HETATM    3  O   UNK A   0     -12.468  14.664  71.985  1.00  0.00    -0.326 OA 
BRANCH   3   4
HETATM    4  C   UNK A   0     -13.243  13.545  71.906  1.00  0.00    -0.422 C  
HETATM    5  O   UNK A   0     -14.240  13.309  72.582  1.00  0.00    -0.724 OA 
BRANCH   4   6
HETATM    6  C   UNK A   0     -12.713  12.655  70.781  1.00  0.00    -0.130 C  
BRANCH   6   7
HETATM    7  C   UNK A   0     -12.416  11.256  71.325  1.00  0.00    -0.441 C  
BRANCH   7   8
HETATM    8  C   UNK A   0     -12.285  10.062  70.366  1.00  0.00    -0.249 C  
BRANCH   8   9
HETATM    9  C   UNK A   0     -11.569   8.875  71.029  1.00  0.00    -0.347 A  
HETATM   10  C   UNK A   0     -10.386   9.082  71.754  1.00  0.00    -0.407 A  
HETATM   11  C   UNK A   0      -9.784   8.028  72.464  1.00  0.00    -0.325 A  
HETATM   12  C   UNK A   0     -12.091   7.563  71.015  1.00  0.00    -0.305 A  
HETATM   13  C   UNK A   0     -10.354   6.755  72.469  1.00  0.00    -0.222 A  
HETATM   14  C   UNK A   0     -11.504   6.521  71.734  1.00  0.00    -0.346 A  
ENDBRANCH   8   9
ENDBRANCH   7   8
ENDBRANCH   6   7
BRANCH   6  15
ATOM     15  N   ALA A   1     -11.495  13.254  70.182  1.00  0.00    -0.515 NA 
ATOM     16  H   ALA A   1     -10.880  13.819  70.767  1.00  0.00     0.000 HD 
BRANCH  15  17
ATOM     17  CA  ALA A   1     -11.148  13.050  68.746  1.00  0.00    -0.270 C  
ATOM     18  CB  ALA A   1     -11.894  13.815  67.639  1.00  0.00    -0.413 C  
BRANCH  17  19
ATOM     19  C   ALA A   1      -9.627  12.872  68.429  1.00  0.00    -0.176 C  
ATOM     20  O   ALA A   1      -8.848  13.784  68.734  1.00  0.00    -0.093 OA 
HETATM   21  C   UNK A   2      -9.500   9.241  67.957  1.00  0.00    -0.152 A  
HETATM   22  C   UNK A   2     -10.359   8.165  67.694  1.00  0.00    -0.313 A  
HETATM   23  N   UNK A   2      -9.122  11.677  67.944  1.00  0.00    -0.164 N  
HETATM   24  C   UNK A   2     -10.055   6.897  68.155  1.00  0.00    -0.166 A  
HETATM   25  C   UNK A   2      -9.905  10.578  67.440  1.00  0.00    -0.174 C  
HETATM   26  O   UNK A   2      -5.798  11.633  66.415  1.00  0.00    -0.179 OA 
HETATM   27  C   UNK A   2      -8.896   6.693  68.907  1.00  0.00    -0.131 A  
HETATM   28  C   UNK A   2      -8.029   7.775  69.162  1.00  0.00    -0.119 A  
HETATM   29  O   UNK A   2      -7.617  10.582  65.626  1.00  0.00    -0.148 OA 
HETATM   30  C   UNK A   2      -7.059  11.174  66.546  1.00  0.00    -0.124 C  
HETATM   31  C   UNK A   2      -8.311   9.051  68.658  1.00  0.00    -0.123 A  
HETATM   32  C   UNK A   2      -7.672  11.420  67.949  1.00  0.00    -0.114 C  
HETATM   33  C   UNK A   2      -7.390  10.228  68.892  1.00  0.00    -0.090 C  
BRANCH  24  34
HETATM   34  O   UNK A   2     -10.811   5.786  67.877  1.00  0.00    -0.248 OA 
HETATM   35  C   UNK A   2     -10.619   5.271  66.574  1.00  0.00    -0.285 C  
ENDBRANCH  24  34
BRANCH  27  36
HETATM   36  O   UNK A   2      -8.727   5.418  69.356  1.00  0.00    -0.104 OA 
HETATM   37  C   UNK A   2      -7.716   5.192  70.318  1.00  0.00    -0.071 C  
ENDBRANCH  27  36
ENDBRANCH  17  19
ENDBRANCH  15  17
ENDBRANCH   6  15
ENDBRANCH   4   6
ENDBRANCH   3   4
ENDBRANCH   2   3
TORSDOF 11
ENDMDL
MODEL       14
REMARK 921   NORMALIZED FREE ENERGY PREDICTED BY IDOCK:   -6.53 KCAL/MOL
REMARK 922        TOTAL FREE ENERGY PREDICTED BY IDOCK:  -12.64 KCAL/MOL
REMARK 923 INTER-LIGAND FREE ENERGY PREDICTED BY IDOCK:  -10.21 KCAL/MOL
REMARK 924 INTRA-LIGAND FREE ENERGY PREDICTED BY IDOCK:   -2.43 KCAL/MOL
REMARK 927      BINDING AFFINITY PREDICTED BY RF-SCORE:    0.00 PKD
ROOT
HETATM    1  C   UNK A   0     -12.074  10.094  70.112  1.00  0.00    -0.224 C  
HETATM    2  C   UNK A   0     -12.092  11.235  69.114  1.00  0.00    -0.279 C  
ENDROOT
BRANCH   2   3
HETATM    3  O   UNK A   0     -11.740  10.721  67.825  1.00  0.00    -0.547 OA 
BRANCH   3   4
HETATM    4  C   UNK A   0     -10.421  10.777  67.481  1.00  0.00    -0.220 C  
HETATM    5  O   UNK A   0      -9.526  11.297  68.139  1.00  0.00    -0.170 OA 
BRANCH   4   6
HETATM    6  C   UNK A   0     -10.220  10.017  66.169  1.00  0.00    -0.213 C  
BRANCH   6   7
HETATM    7  C   UNK A   0      -9.768   8.585  66.465  1.00  0.00    -0.330 C  
BRANCH   7   8
HETATM    8  C   UNK A   0     -10.771   7.551  67.000  1.00  0.00    -0.367 C  
BRANCH   8   9
HETATM    9  C   UNK A   0     -10.436   7.127  68.439  1.00  0.00    -0.228 A  
HETATM   10  C   UNK A   0      -9.270   7.599  69.058  1.00  0.00    -0.140 A  
HETATM   11  C   UNK A   0      -9.009   7.316  70.411  1.00  0.00    -0.151 A  
HETATM   12  C   UNK A   0     -11.299   6.328  69.221  1.00  0.00    -0.411 A  
HETATM   13  C   UNK A   0      -9.909   6.566  71.169  1.00  0.00    -0.198 A  
HETATM   14  C   UNK A   0     -11.051   6.063  70.568  1.00  0.00    -0.385 A  
ENDBRANCH   8   9
ENDBRANCH   7   8
ENDBRANCH   6   7
BRANCH   6  15
ATOM     15  N   ALA A   1      -9.225  10.716  65.318  1.00  0.00    -0.186 NA 
ATOM     16  H   ALA A   1      -8.277  10.849  65.669  1.00  0.00     0.000 HD 
BRANCH  15  17
ATOM     17  CA  ALA A   1      -9.578  11.229  63.962  1.00  0.00    -0.232 C  
ATOM     18  CB  ALA A   1      -9.445  10.331  62.720  1.00  0.00    -0.323 C  
BRANCH  17  19
ATOM     19  C   ALA A   1     -10.828  12.167  63.890  1.00  0.00    -0.406 C  
ATOM     20  O   ALA A   1     -11.824  11.780  63.266  1.00  0.00    -0.401 OA 
HETATM   21  C   UNK A   2     -10.083  14.427  66.677  1.00  0.00    -0.276 A  
HETATM   22  C   UNK A   2      -8.998  14.833  67.465  1.00  0.00    -0.192 A  
HETATM   23  N   UNK A   2     -10.892  13.347  64.614  1.00  0.00    -0.371 N  
HETATM   24  C   UNK A   2      -9.195  15.248  68.770  1.00  0.00    -0.203 A  
HETATM   25  C   UNK A   2      -9.787  13.980  65.288  1.00  0.00    -0.152 C  
HETATM   26  O   UNK A   2     -13.395  15.860  63.713  1.00  0.00     0.248 OA 
HETATM   27  C   UNK A   2     -10.482  15.239  69.312  1.00  0.00    -0.258 A  
HETATM   28  C   UNK A   2     -11.573  14.839  68.514  1.00  0.00    -0.348 A  
HETATM   29  O   UNK A   2     -11.249  16.272  64.225  1.00  0.00    -0.770 OA 
HETATM   30  C   UNK A   2     -12.196  15.491  64.210  1.00  0.00    -0.066 C  
HETATM   31  C   UNK A   2     -11.382  14.462  67.179  1.00  0.00    -0.356 A  
HETATM   32  C   UNK A   2     -12.174  14.051  64.785  1.00  0.00    -0.433 C  
HETATM   33  C   UNK A   2     -12.534  14.051  66.288  1.00  0.00    -0.439 C  
BRANCH  24  34
HETATM   34  O   UNK A   2      -8.192  15.725  69.576  1.00  0.00    -0.239 OA 
HETATM   35  C   UNK A   2      -7.447  16.781  69.003  1.00  0.00    -0.228 C  
ENDBRANCH  24  34
BRANCH  27  36
HETATM   36  O   UNK A   2     -10.550  15.613  70.620  1.00  0.00    -0.293 OA 
HETATM   37  C   UNK A   2     -11.834  15.749  71.195  1.00  0.00    -0.425 C  
ENDBRANCH  27  36
ENDBRANCH  17  19
ENDBRANCH  15  17
ENDBRANCH   6  15
ENDBRANCH   4   6
ENDBRANCH   3   4
ENDBRANCH   2   3
TORSDOF 11
ENDMDL
MODEL       15
REMARK 921   NORMALIZED FREE ENERGY PREDICTED BY IDOCK:   -6.53 KCAL/MOL
REMARK 922        TOTAL FREE ENERGY PREDICTED BY IDOCK:  -12.63 KCAL/MOL
REMARK 923 INTER-LIGAND FREE ENERGY PREDICTED BY IDOCK:  -10.01 KCAL/MOL
REMARK 924 INTRA-LIGAND FREE ENERGY PREDICTED BY IDOCK:   -2.62 KCAL/MOL
REMARK 927      BINDING AFFINITY PREDICTED BY RF-SCORE:    0.00 PKD
ROOT
HETATM    1  C   UNK A   0      -5.453  14.733  68.571  1.00  0.00    -0.102 C  
HETATM    2  C   UNK A   0      -6.474  13.778  69.158  1.00  0.00    -0.109 C  
ENDROOT
BRANCH   2   3
HETATM    3  O   UNK A   0      -6.099  12.440  68.814  1.00  0.00    -0.062 OA 
BRANCH   3   4
HETATM    4  C   UNK A   0      -6.707  11.434  69.507  1.00  0.00    -0.119 C  
HETATM    5  O   UNK A   0      -6.382  11.024  70.617  1.00  0.00    -0.333 OA 
BRANCH   4   6
HETATM    6  C   UNK A   0      -7.914  10.944  68.707  1.00  0.00    -0.139 C  
BRANCH   6   7
HETATM    7  C   UNK A   0      -8.809  10.080  69.600  1.00  0.00    -0.217 C  
BRANCH   7   8
HETATM    8  C   UNK A   0     -10.170   9.584  69.086  1.00  0.00    -0.209 C  
BRANCH   8   9
HETATM    9  C   UNK A   0     -11.269   9.737  70.149  1.00  0.00    -0.324 A  
HETATM   10  C   UNK A   0     -11.621   8.647  70.958  1.00  0.00    -0.325 A  
HETATM   11  C   UNK A   0     -12.540   8.802  72.012  1.00  0.00    -0.447 A  
HETATM   12  C   UNK A   0     -11.909  10.967  70.416  1.00  0.00    -0.460 A  
HETATM   13  C   UNK A   0     -13.116  10.044  72.280  1.00  0.00    -0.385 A  
HETATM   14  C   UNK A   0     -12.806  11.126  71.472  1.00  0.00    -0.542 A  
ENDBRANCH   8   9
ENDBRANCH   7   8
ENDBRANCH   6   7
BRANCH   6  15
ATOM     15  N   ALA A   1      -7.467  10.179  67.517  1.00  0.00    -0.090 NA 
ATOM     16  H   ALA A   1      -6.932   9.321  67.650  1.00  0.00     0.000 HD 
BRANCH  15  17
ATOM     17  CA  ALA A   1      -7.779  10.635  66.131  1.00  0.00    -0.145 C  
ATOM     18  CB  ALA A   1      -6.917  10.182  64.940  1.00  0.00    -0.131 C  
BRANCH  17  19
ATOM     19  C   ALA A   1      -9.297  10.731  65.769  1.00  0.00    -0.203 C  
ATOM     20  O   ALA A   1      -9.896   9.697  65.448  1.00  0.00    -0.315 OA 
HETATM   21  C   UNK A   2     -10.102  13.974  67.272  1.00  0.00    -0.249 A  
HETATM   22  C   UNK A   2      -9.458  15.133  67.726  1.00  0.00    -0.194 A  
HETATM   23  N   UNK A   2     -10.009  11.910  65.929  1.00  0.00    -0.228 N  
HETATM   24  C   UNK A   2     -10.010  15.889  68.745  1.00  0.00    -0.220 A  
HETATM   25  C   UNK A   2      -9.437  13.207  66.183  1.00  0.00    -0.145 C  
HETATM   26  O   UNK A   2     -13.239  12.287  64.253  1.00  0.00    -0.785 OA 
HETATM   27  C   UNK A   2     -11.205  15.480  69.340  1.00  0.00    -0.300 A  
HETATM   28  C   UNK A   2     -11.856  14.319  68.875  1.00  0.00    -0.372 A  
HETATM   29  O   UNK A   2     -11.634  13.850  64.371  1.00  0.00    -0.382 OA 
HETATM   30  C   UNK A   2     -12.092  12.780  64.763  1.00  0.00    -0.432 C  
HETATM   31  C   UNK A   2     -11.323  13.578  67.814  1.00  0.00    -0.327 A  
HETATM   32  C   UNK A   2     -11.480  11.907  65.889  1.00  0.00    -0.278 C  
HETATM   33  C   UNK A   2     -12.009  12.342  67.274  1.00  0.00    -0.201 C  
BRANCH  24  34
HETATM   34  O   UNK A   2      -9.473  17.070  69.192  1.00  0.00    -0.217 OA 
HETATM   35  C   UNK A   2      -8.402  17.550  68.403  1.00  0.00    -0.278 C  
ENDBRANCH  24  34
BRANCH  27  36
HETATM   36  O   UNK A   2     -11.626  16.268  70.369  1.00  0.00    -0.322 OA 
HETATM   37  C   UNK A   2     -12.354  15.650  71.411  1.00  0.00    -0.426 C  
ENDBRANCH  27  36
ENDBRANCH  17  19
ENDBRANCH  15  17
ENDBRANCH   6  15
ENDBRANCH   4   6
ENDBRANCH   3   4
ENDBRANCH   2   3
TORSDOF 11
ENDMDL
MODEL       16
REMARK 921   NORMALIZED FREE ENERGY PREDICTED BY IDOCK:   -6.49 KCAL/MOL
REMARK 922        TOTAL FREE ENERGY PREDICTED BY IDOCK:  -12.57 KCAL/MOL
REMARK 923 INTER-LIGAND FREE ENERGY PREDICTED BY IDOCK:  -10.73 KCAL/MOL
REMARK 924 INTRA-LIGAND FREE ENERGY PREDICTED BY IDOCK:   -1.84 KCAL/MOL
REMARK 927      BINDING AFFINITY PREDICTED BY RF-SCORE:    0.00 PKD
ROOT
HETATM    1  C   UNK A   0      -9.738  11.281  63.211  1.00  0.00    -0.405 C  
HETATM    2  C   UNK A   0     -10.937  12.208  63.240  1.00  0.00    -0.330 C  
ENDROOT
BRANCH   2   3
HETATM    3  O   UNK A   0     -10.849  13.033  64.406  1.00  0.00    -0.344 OA 
BRANCH   3   4
HETATM    4  C   UNK A   0     -11.872  12.942  65.303  1.00  0.00    -0.392 C  
HETATM    5  O   UNK A   0     -13.027  12.615  65.048  1.00  0.00    -0.812 OA 
BRANCH   4   6
HETATM    6  C   UNK A   0     -11.332  13.240  66.702  1.00  0.00    -0.321 C  
BRANCH   6   7
HETATM    7  C   UNK A   0     -12.200  14.307  67.374  1.00  0.00    -0.267 C  
BRANCH   7   8
HETATM    8  C   UNK A   0     -11.630  15.165  68.515  1.00  0.00    -0.354 C  
BRANCH   8   9
HETATM    9  C   UNK A   0     -12.189  14.738  69.881  1.00  0.00    -0.358 A  
HETATM   10  C   UNK A   0     -12.743  15.695  70.745  1.00  0.00    -0.483 A  
HETATM   11  C   UNK A   0     -13.364  15.306  71.945  1.00  0.00    -0.524 A  
HETATM   12  C   UNK A   0     -12.248  13.390  70.296  1.00  0.00    -0.405 A  
HETATM   13  C   UNK A   0     -13.449  13.960  72.300  1.00  0.00    -0.623 A  
HETATM   14  C   UNK A   0     -12.881  13.001  71.477  1.00  0.00    -0.386 A  
ENDBRANCH   8   9
ENDBRANCH   7   8
ENDBRANCH   6   7
BRANCH   6  15
ATOM     15  N   ALA A   1      -9.919  13.687  66.623  1.00  0.00    -0.275 NA 
ATOM     16  H   ALA A   1      -9.678  14.467  66.012  1.00  0.00     0.000 HD 
BRANCH  15  17
ATOM     17  CA  ALA A   1      -8.843  13.022  67.415  1.00  0.00    -0.203 C  
ATOM     18  CB  ALA A   1      -8.710  13.271  68.927  1.00  0.00     0.272 C  
BRANCH  17  19
ATOM     19  C   ALA A   1      -8.519  11.544  67.020  1.00  0.00    -0.164 C  
ATOM     20  O   ALA A   1      -7.540  11.325  66.295  1.00  0.00    -0.125 OA 
HETATM   21  C   UNK A   2     -10.444   9.769  69.583  1.00  0.00    -0.263 A  
HETATM   22  C   UNK A   2     -11.495   9.996  70.481  1.00  0.00    -0.407 A  
HETATM   23  N   UNK A   2      -9.213  10.477  67.569  1.00  0.00    -0.142 N  
HETATM   24  C   UNK A   2     -11.563   9.297  71.673  1.00  0.00    -0.393 A  
HETATM   25  C   UNK A   2     -10.433  10.572  68.330  1.00  0.00    -0.183 C  
HETATM   26  O   UNK A   2      -9.010   7.198  65.959  1.00  0.00    -0.161 OA 
HETATM   27  C   UNK A   2     -10.564   8.375  71.993  1.00  0.00    -0.317 A  
HETATM   28  C   UNK A   2      -9.513   8.141  71.083  1.00  0.00    -0.192 A  
HETATM   29  O   UNK A   2     -10.877   8.151  66.760  1.00  0.00    -0.197 OA 
HETATM   30  C   UNK A   2      -9.651   8.134  66.688  1.00  0.00    -0.229 C  
HETATM   31  C   UNK A   2      -9.466   8.815  69.856  1.00  0.00    -0.174 A  
HETATM   32  C   UNK A   2      -8.701   9.103  67.437  1.00  0.00    -0.115 C  
HETATM   33  C   UNK A   2      -8.365   8.569  68.848  1.00  0.00    -0.118 C  
BRANCH  24  34
HETATM   34  O   UNK A   2     -12.599   9.416  72.566  1.00  0.00    -0.285 OA 
HETATM   35  C   UNK A   2     -13.864   9.092  72.026  1.00  0.00    -0.420 C  
ENDBRANCH  24  34
BRANCH  27  36
HETATM   36  O   UNK A   2     -10.703   7.788  73.214  1.00  0.00    -0.374 OA 
HETATM   37  C   UNK A   2      -9.528   7.344  73.864  1.00  0.00    -0.263 C  
ENDBRANCH  27  36
ENDBRANCH  17  19
ENDBRANCH  15  17
ENDBRANCH   6  15
ENDBRANCH   4   6
ENDBRANCH   3   4
ENDBRANCH   2   3
TORSDOF 11
ENDMDL
MODEL       17
REMARK 921   NORMALIZED FREE ENERGY PREDICTED BY IDOCK:   -6.49 KCAL/MOL
REMARK 922        TOTAL FREE ENERGY PREDICTED BY IDOCK:  -12.56 KCAL/MOL
REMARK 923 INTER-LIGAND FREE ENERGY PREDICTED BY IDOCK:  -11.18 KCAL/MOL
REMARK 924 INTRA-LIGAND FREE ENERGY PREDICTED BY IDOCK:   -1.38 KCAL/MOL
REMARK 927      BINDING AFFINITY PREDICTED BY RF-SCORE:    0.00 PKD
ROOT
HETATM    1  C   UNK A   0     -14.377   7.700  71.455  1.00  0.00    -0.589 C  
HETATM    2  C   UNK A   0     -14.076   8.838  72.411  1.00  0.00    -0.413 C  
ENDROOT
BRANCH   2   3
HETATM    3  O   UNK A   0     -12.671   9.108  72.372  1.00  0.00    -0.382 OA 
BRANCH   3   4
HETATM    4  C   UNK A   0     -12.252  10.052  71.480  1.00  0.00    -0.405 C  
HETATM    5  O   UNK A   0     -12.700  11.189  71.370  1.00  0.00    -0.405 OA 
BRANCH   4   6
HETATM    6  C   UNK A   0     -11.074   9.490  70.683  1.00  0.00    -0.300 C  
BRANCH   6   7
HETATM    7  C   UNK A   0     -10.314   8.470  71.534  1.00  0.00    -0.321 C  
BRANCH   7   8
HETATM    8  C   UNK A   0      -9.816   7.157  70.910  1.00  0.00    -0.182 C  
BRANCH   8   9
HETATM    9  C   UNK A   0     -10.122   5.948  71.809  1.00  0.00    -0.228 A  
HETATM   10  C   UNK A   0      -9.913   4.646  71.332  1.00  0.00    -0.267 A  
HETATM   11  C   UNK A   0     -10.075   3.535  72.179  1.00  0.00    -0.205 A  
HETATM   12  C   UNK A   0     -10.540   6.080  73.151  1.00  0.00    -0.268 A  
HETATM   13  C   UNK A   0     -10.440   3.704  73.515  1.00  0.00    -0.261 A  
HETATM   14  C   UNK A   0     -10.683   4.980  73.997  1.00  0.00    -0.341 A  
ENDBRANCH   8   9
ENDBRANCH   7   8
ENDBRANCH   6   7
BRANCH   6  15
ATOM     15  N   ALA A   1     -10.174  10.588  70.253  1.00  0.00    -0.364 NA 
ATOM     16  H   ALA A   1      -9.827  11.248  70.949  1.00  0.00     0.000 HD 
BRANCH  15  17
ATOM     17  CA  ALA A   1      -9.764  10.752  68.828  1.00  0.00    -0.192 C  
ATOM     18  CB  ALA A   1      -8.817   9.740  68.160  1.00  0.00    -0.119 C  
BRANCH  17  19
ATOM     19  C   ALA A   1     -10.873  11.267  67.853  1.00  0.00    -0.228 C  
ATOM     20  O   ALA A   1     -11.988  10.732  67.888  1.00  0.00    -0.518 OA 
HETATM   21  C   UNK A   2      -9.455  14.522  66.947  1.00  0.00    -0.263 A  
HETATM   22  C   UNK A   2      -8.228  15.197  66.965  1.00  0.00    -0.262 A  
HETATM   23  N   UNK A   2     -10.677  12.384  67.057  1.00  0.00    -0.235 N  
HETATM   24  C   UNK A   2      -8.187  16.575  67.091  1.00  0.00    -0.179 A  
HETATM   25  C   UNK A   2      -9.415  13.039  66.824  1.00  0.00    -0.250 C  
HETATM   26  O   UNK A   2     -12.917  12.971  64.223  1.00  0.00    -0.666 OA 
HETATM   27  C   UNK A   2      -9.376  17.293  67.224  1.00  0.00    -0.237 A  
HETATM   28  C   UNK A   2     -10.611  16.612  67.195  1.00  0.00    -0.264 A  
HETATM   29  O   UNK A   2     -10.685  13.209  64.201  1.00  0.00    -0.402 OA 
HETATM   30  C   UNK A   2     -11.723  13.067  64.843  1.00  0.00    -0.341 C  
HETATM   31  C   UNK A   2     -10.657  15.223  67.022  1.00  0.00    -0.306 A  
HETATM   32  C   UNK A   2     -11.817  13.037  66.390  1.00  0.00    -0.405 C  
HETATM   33  C   UNK A   2     -11.965  14.465  66.963  1.00  0.00    -0.424 C  
BRANCH  24  34
HETATM   34  O   UNK A   2      -7.027  17.308  67.046  1.00  0.00    -0.159 OA 
HETATM   35  C   UNK A   2      -5.853  16.524  66.969  1.00  0.00    -0.105 C  
ENDBRANCH  24  34
BRANCH  27  36
HETATM   36  O   UNK A   2      -9.214  18.634  67.397  1.00  0.00    -0.276 OA 
HETATM   37  C   UNK A   2      -9.663  19.196  68.614  1.00  0.00    -0.417 C  
ENDBRANCH  27  36
ENDBRANCH  17  19
ENDBRANCH  15  17
ENDBRANCH   6  15
ENDBRANCH   4   6
ENDBRANCH   3   4
ENDBRANCH   2   3
TORSDOF 11
ENDMDL
MODEL       18
REMARK 921   NORMALIZED FREE ENERGY PREDICTED BY IDOCK:   -6.46 KCAL/MOL
REMARK 922        TOTAL FREE ENERGY PREDICTED BY IDOCK:  -12.52 KCAL/MOL
REMARK 923 INTER-LIGAND FREE ENERGY PREDICTED BY IDOCK:  -11.45 KCAL/MOL
REMARK 924 INTRA-LIGAND FREE ENERGY PREDICTED BY IDOCK:   -1.07 KCAL/MOL
REMARK 927      BINDING AFFINITY PREDICTED BY RF-SCORE:    0.00 PKD
ROOT
HETATM    1  C   UNK A   0     -10.593  19.255  67.247  1.00  0.00    -0.590 C  
HETATM    2  C   UNK A   0      -9.779  18.130  66.640  1.00  0.00    -0.334 C  
ENDROOT
BRANCH   2   3
HETATM    3  O   UNK A   0     -10.281  16.884  67.134  1.00  0.00    -0.285 OA 
BRANCH   3   4
HETATM    4  C   UNK A   0     -10.604  15.939  66.204  1.00  0.00    -0.305 C  
HETATM    5  O   UNK A   0     -10.235  15.924  65.034  1.00  0.00    -0.484 OA 
BRANCH   4   6
HETATM    6  C   UNK A   0     -11.444  14.852  66.875  1.00  0.00    -0.313 C  
BRANCH   6   7
HETATM    7  C   UNK A   0     -11.609  15.170  68.363  1.00  0.00    -0.356 C  
BRANCH   7   8
HETATM    8  C   UNK A   0     -12.039  14.072  69.347  1.00  0.00    -0.386 C  
BRANCH   8   9
HETATM    9  C   UNK A   0     -12.460  14.658  70.705  1.00  0.00    -0.408 A  
HETATM   10  C   UNK A   0     -11.515  15.302  71.516  1.00  0.00    -0.457 A  
HETATM   11  C   UNK A   0     -11.907  15.946  72.704  1.00  0.00    -0.598 A  
HETATM   12  C   UNK A   0     -13.797  14.650  71.159  1.00  0.00    -0.340 A  
HETATM   13  C   UNK A   0     -13.244  15.962  73.098  1.00  0.00    -0.692 A  
HETATM   14  C   UNK A   0     -14.189  15.304  72.328  1.00  0.00    -0.642 A  
ENDBRANCH   8   9
ENDBRANCH   7   8
ENDBRANCH   6   7
BRANCH   6  15
ATOM     15  N   ALA A   1     -10.808  13.524  66.690  1.00  0.00    -0.282 NA 
ATOM     16  H   ALA A   1     -11.360  12.758  66.305  1.00  0.00     0.000 HD 
BRANCH  15  17
ATOM     17  CA  ALA A   1      -9.381  13.282  67.054  1.00  0.00    -0.242 C  
ATOM     18  CB  ALA A   1      -8.770  13.921  68.313  1.00  0.00    -0.183 C  
BRANCH  17  19
ATOM     19  C   ALA A   1      -8.847  11.834  66.799  1.00  0.00    -0.191 C  
ATOM     20  O   ALA A   1      -7.811  11.694  66.136  1.00  0.00     0.026 OA 
HETATM   21  C   UNK A   2     -10.656  10.021  69.418  1.00  0.00    -0.256 A  
HETATM   22  C   UNK A   2     -11.774  10.174  70.249  1.00  0.00    -0.361 A  
HETATM   23  N   UNK A   2      -9.424  10.730  67.405  1.00  0.00    -0.154 N  
HETATM   24  C   UNK A   2     -11.813   9.565  71.491  1.00  0.00    -0.405 A  
HETATM   25  C   UNK A   2     -10.684  10.719  68.103  1.00  0.00    -0.214 C  
HETATM   26  O   UNK A   2      -8.712   7.393  66.083  1.00  0.00    -0.145 OA 
HETATM   27  C   UNK A   2     -10.721   8.813  71.928  1.00  0.00    -0.359 A  
HETATM   28  C   UNK A   2      -9.601   8.653  71.086  1.00  0.00    -0.281 A  
HETATM   29  O   UNK A   2     -10.726   8.146  66.723  1.00  0.00    -0.278 OA 
HETATM   30  C   UNK A   2      -9.507   8.288  66.705  1.00  0.00    -0.198 C  
HETATM   31  C   UNK A   2      -9.578   9.230  69.810  1.00  0.00    -0.203 A  
HETATM   32  C   UNK A   2      -8.731   9.431  67.409  1.00  0.00    -0.125 C  
HETATM   33  C   UNK A   2      -8.403   9.057  68.872  1.00  0.00    -0.125 C  
BRANCH  24  34
HETATM   34  O   UNK A   2     -12.900   9.613  72.327  1.00  0.00    -0.377 OA 
HETATM   35  C   UNK A   2     -14.027   8.906  71.846  1.00  0.00    -0.419 C  
ENDBRANCH  24  34
BRANCH  27  36
HETATM   36  O   UNK A   2     -10.846   8.308  73.187  1.00  0.00    -0.148 OA 
HETATM   37  C   UNK A   2     -10.654   6.918  73.356  1.00  0.00    -0.344 C  
ENDBRANCH  27  36
ENDBRANCH  17  19
ENDBRANCH  15  17
ENDBRANCH   6  15
ENDBRANCH   4   6
ENDBRANCH   3   4
ENDBRANCH   2   3
TORSDOF 11
ENDMDL
MODEL       19
REMARK 921   NORMALIZED FREE ENERGY PREDICTED BY IDOCK:   -6.43 KCAL/MOL
REMARK 922        TOTAL FREE ENERGY PREDICTED BY IDOCK:  -12.47 KCAL/MOL
REMARK 923 INTER-LIGAND FREE ENERGY PREDICTED BY IDOCK:  -10.74 KCAL/MOL
REMARK 924 INTRA-LIGAND FREE ENERGY PREDICTED BY IDOCK:   -1.73 KCAL/MOL
REMARK 927      BINDING AFFINITY PREDICTED BY RF-SCORE:    0.00 PKD
ROOT
HETATM    1  C   UNK A   0      -9.718  10.633  63.818  1.00  0.00    -0.382 C  
HETATM    2  C   UNK A   0     -10.869  11.532  63.408  1.00  0.00    -0.346 C  
ENDROOT
BRANCH   2   3
HETATM    3  O   UNK A   0     -10.749  12.775  64.106  1.00  0.00    -0.362 OA 
BRANCH   3   4
HETATM    4  C   UNK A   0     -11.569  12.958  65.181  1.00  0.00    -0.332 C  
HETATM    5  O   UNK A   0     -12.696  12.491  65.315  1.00  0.00    -0.654 OA 
BRANCH   4   6
HETATM    6  C   UNK A   0     -10.827  13.780  66.235  1.00  0.00    -0.283 C  
BRANCH   6   7
HETATM    7  C   UNK A   0     -11.327  15.226  66.208  1.00  0.00    -0.155 C  
BRANCH   7   8
HETATM    8  C   UNK A   0     -10.470  16.332  65.572  1.00  0.00    -0.383 C  
BRANCH   8   9
HETATM    9  C   UNK A   0     -10.370  17.568  66.480  1.00  0.00    -0.325 A  
HETATM   10  C   UNK A   0     -10.186  17.412  67.862  1.00  0.00    -0.348 A  
HETATM   11  C   UNK A   0      -9.976  18.530  68.689  1.00  0.00    -0.419 A  
HETATM   12  C   UNK A   0     -10.377  18.888  65.979  1.00  0.00    -0.485 A  
HETATM   13  C   UNK A   0      -9.938  19.817  68.153  1.00  0.00    -0.557 A  
HETATM   14  C   UNK A   0     -10.149  19.995  66.796  1.00  0.00    -0.607 A  
ENDBRANCH   8   9
ENDBRANCH   7   8
ENDBRANCH   6   7
BRANCH   6  15
ATOM     15  N   ALA A   1      -9.364  13.727  65.992  1.00  0.00    -0.503 NA 
ATOM     16  H   ALA A   1      -8.996  14.054  65.099  1.00  0.00     0.000 HD 
BRANCH  15  17
ATOM     17  CA  ALA A   1      -8.418  13.207  67.022  1.00  0.00    -0.132 C  
ATOM     18  CB  ALA A   1      -8.545  13.633  68.495  1.00  0.00    -0.103 C  
BRANCH  17  19
ATOM     19  C   ALA A   1      -7.994  11.710  66.867  1.00  0.00    -0.161 C  
ATOM     20  O   ALA A   1      -6.878  11.456  66.395  1.00  0.00    -0.102 OA 
HETATM   21  C   UNK A   2     -10.401  10.132  69.134  1.00  0.00    -0.237 A  
HETATM   22  C   UNK A   2     -11.625  10.409  69.757  1.00  0.00    -0.339 A  
HETATM   23  N   UNK A   2      -8.774  10.679  67.365  1.00  0.00    -0.126 N  
HETATM   24  C   UNK A   2     -11.939   9.832  70.974  1.00  0.00    -0.352 A  
HETATM   25  C   UNK A   2     -10.131  10.804  67.833  1.00  0.00    -0.172 C  
HETATM   26  O   UNK A   2      -8.178   7.264  66.195  1.00  0.00    -0.117 OA 
HETATM   27  C   UNK A   2     -11.019   8.985  71.596  1.00  0.00    -0.365 A  
HETATM   28  C   UNK A   2      -9.792   8.701  70.963  1.00  0.00    -0.267 A  
HETATM   29  O   UNK A   2     -10.188   8.221  66.472  1.00  0.00    -0.288 OA 
HETATM   30  C   UNK A   2      -8.976   8.243  66.667  1.00  0.00    -0.150 C  
HETATM   31  C   UNK A   2      -9.491   9.248  69.710  1.00  0.00    -0.203 A  
HETATM   32  C   UNK A   2      -8.224   9.319  67.493  1.00  0.00    -0.114 C  
HETATM   33  C   UNK A   2      -8.194   8.943  68.992  1.00  0.00    -0.116 C  
BRANCH  24  34
HETATM   34  O   UNK A   2     -13.145  10.001  71.607  1.00  0.00    -0.381 OA 
HETATM   35  C   UNK A   2     -13.385  11.324  72.043  1.00  0.00    -0.280 C  
ENDBRANCH  24  34
BRANCH  27  36
HETATM   36  O   UNK A   2     -11.410   8.520  72.815  1.00  0.00    -0.286 OA 
HETATM   37  C   UNK A   2     -11.002   7.215  73.178  1.00  0.00    -0.305 C  
ENDBRANCH  27  36
ENDBRANCH  17  19
ENDBRANCH  15  17
ENDBRANCH   6  15
ENDBRANCH   4   6
ENDBRANCH   3   4
ENDBRANCH   2   3
TORSDOF 11
ENDMDL
MODEL       20
REMARK 921   NORMALIZED FREE ENERGY PREDICTED BY IDOCK:   -6.40 KCAL/MOL
REMARK 922        TOTAL FREE ENERGY PREDICTED BY IDOCK:  -12.42 KCAL/MOL
REMARK 923 INTER-LIGAND FREE ENERGY PREDICTED BY IDOCK:  -10.44 KCAL/MOL
REMARK 924 INTRA-LIGAND FREE ENERGY PREDICTED BY IDOCK:   -1.98 KCAL/MOL
REMARK 927      BINDING AFFINITY PREDICTED BY RF-SCORE:    0.00 PKD
ROOT
HETATM    1  C   UNK A   0     -14.035  15.529  72.560  1.00  0.00    -0.646 C  
HETATM    2  C   UNK A   0     -13.500  14.207  72.047  1.00  0.00    -0.431 C  
ENDROOT
BRANCH   2   3
HETATM    3  O   UNK A   0     -12.941  14.414  70.746  1.00  0.00    -0.349 OA 
BRANCH   3   4
HETATM    4  C   UNK A   0     -12.136  13.426  70.258  1.00  0.00    -0.349 C  
HETATM    5  O   UNK A   0     -12.130  12.255  70.624  1.00  0.00    -0.363 OA 
BRANCH   4   6
HETATM    6  C   UNK A   0     -11.287  13.996  69.122  1.00  0.00    -0.281 C  
BRANCH   6   7
HETATM    7  C   UNK A   0     -10.585  15.273  69.592  1.00  0.00    -0.285 C  
BRANCH   7   8
HETATM    8  C   UNK A   0      -9.241  15.691  68.975  1.00  0.00    -0.243 C  
BRANCH   8   9
HETATM    9  C   UNK A   0      -9.259  17.156  68.512  1.00  0.00    -0.264 A  
HETATM   10  C   UNK A   0     -10.429  17.709  67.971  1.00  0.00    -0.395 A  
HETATM   11  C   UNK A   0     -10.497  19.077  67.652  1.00  0.00    -0.523 A  
HETATM   12  C   UNK A   0      -8.156  18.023  68.675  1.00  0.00    -0.293 A  
HETATM   13  C   UNK A   0      -9.405  19.916  67.873  1.00  0.00    -0.448 A  
HETATM   14  C   UNK A   0      -8.229  19.384  68.377  1.00  0.00    -0.382 A  
ENDBRANCH   8   9
ENDBRANCH   7   8
ENDBRANCH   6   7
BRANCH   6  15
ATOM     15  N   ALA A   1     -12.133  14.269  67.934  1.00  0.00    -0.567 NA 
ATOM     16  H   ALA A   1     -12.894  14.944  68.011  1.00  0.00     0.000 HD 
BRANCH  15  17
ATOM     17  CA  ALA A   1     -11.899  13.581  66.631  1.00  0.00    -0.407 C  
ATOM     18  CB  ALA A   1     -12.625  14.042  65.356  1.00  0.00    -0.529 C  
BRANCH  17  19
ATOM     19  C   ALA A   1     -10.428  13.129  66.352  1.00  0.00    -0.282 C  
ATOM     20  O   ALA A   1      -9.643  13.943  65.852  1.00  0.00    -0.245 OA 
HETATM   21  C   UNK A   2     -10.258  10.171  68.508  1.00  0.00    -0.194 A  
HETATM   22  C   UNK A   2     -11.111   9.273  69.162  1.00  0.00    -0.002 A  
HETATM   23  N   UNK A   2      -9.956  11.896  66.773  1.00  0.00    -0.194 N  
HETATM   24  C   UNK A   2     -10.712   8.652  70.332  1.00  0.00    -0.224 A  
HETATM   25  C   UNK A   2     -10.766  10.809  67.263  1.00  0.00    -0.274 C  
HETATM   26  O   UNK A   2      -6.863  10.581  65.328  1.00  0.00    -0.123 OA 
HETATM   27  C   UNK A   2      -9.459   8.940  70.876  1.00  0.00    -0.236 A  
HETATM   28  C   UNK A   2      -8.598   9.837  70.211  1.00  0.00    -0.169 A  
HETATM   29  O   UNK A   2      -8.738   9.406  65.700  1.00  0.00    -0.136 OA 
HETATM   30  C   UNK A   2      -8.082  10.428  65.884  1.00  0.00    -0.149 C  
HETATM   31  C   UNK A   2      -8.982  10.432  69.003  1.00  0.00    -0.184 A  
HETATM   32  C   UNK A   2      -8.511  11.613  66.787  1.00  0.00    -0.177 C  
HETATM   33  C   UNK A   2      -8.073  11.380  68.250  1.00  0.00    -0.143 C  
BRANCH  24  34
HETATM   34  O   UNK A   2     -11.464   7.710  70.988  1.00  0.00    -0.269 OA 
HETATM   35  C   UNK A   2     -11.618   6.498  70.276  1.00  0.00    -0.409 C  
ENDBRANCH  24  34
BRANCH  27  36
HETATM   36  O   UNK A   2      -9.194   8.316  72.057  1.00  0.00    -0.160 OA 
HETATM   37  C   UNK A   2      -7.916   7.734  72.218  1.00  0.00    -0.113 C  
ENDBRANCH  27  36
ENDBRANCH  17  19
ENDBRANCH  15  17
ENDBRANCH   6  15
ENDBRANCH   4   6
ENDBRANCH   3   4
ENDBRANCH   2   3
TORSDOF 11
ENDMDL
MODEL       21
REMARK 921   NORMALIZED FREE ENERGY PREDICTED BY IDOCK:   -6.35 KCAL/MOL
REMARK 922        TOTAL FREE ENERGY PREDICTED BY IDOCK:  -12.34 KCAL/MOL
REMARK 923 INTER-LIGAND FREE ENERGY PREDICTED BY IDOCK:  -10.61 KCAL/MOL
REMARK 924 INTRA-LIGAND FREE ENERGY PREDICTED BY IDOCK:   -1.73 KCAL/MOL
REMARK 927      BINDING AFFINITY PREDICTED BY RF-SCORE:    0.00 PKD
ROOT
HETATM    1  C   UNK A   0      -6.545  16.958  66.695  1.00  0.00    -0.252 C  
HETATM    2  C   UNK A   0      -7.309  16.055  67.643  1.00  0.00    -0.151 C  
ENDROOT
BRANCH   2   3
HETATM    3  O   UNK A   0      -8.528  15.654  67.010  1.00  0.00    -0.187 OA 
BRANCH   3   4
HETATM    4  C   UNK A   0      -9.211  14.624  67.588  1.00  0.00    -0.193 C  
HETATM    5  O   UNK A   0      -8.713  13.650  68.143  1.00  0.00    -0.165 OA 
BRANCH   4   6
HETATM    6  C   UNK A   0     -10.710  14.915  67.501  1.00  0.00    -0.276 C  
BRANCH   6   7
HETATM    7  C   UNK A   0     -11.108  15.910  68.592  1.00  0.00    -0.337 C  
BRANCH   7   8
HETATM    8  C   UNK A   0     -10.614  15.718  70.035  1.00  0.00    -0.333 C  
BRANCH   8   9
HETATM    9  C   UNK A   0     -11.770  15.788  71.046  1.00  0.00    -0.462 A  
HETATM   10  C   UNK A   0     -13.068  15.428  70.656  1.00  0.00    -0.405 A  
HETATM   11  C   UNK A   0     -14.112  15.373  71.597  1.00  0.00    -0.618 A  
HETATM   12  C   UNK A   0     -11.579  16.131  72.402  1.00  0.00    -0.400 A  
HETATM   13  C   UNK A   0     -13.877  15.670  72.940  1.00  0.00    -0.571 A  
HETATM   14  C   UNK A   0     -12.610  16.059  73.340  1.00  0.00    -0.673 A  
ENDBRANCH   8   9
ENDBRANCH   7   8
ENDBRANCH   6   7
BRANCH   6  15
ATOM     15  N   ALA A   1     -11.486  13.656  67.630  1.00  0.00    -0.307 NA 
ATOM     16  H   ALA A   1     -11.849  13.388  68.544  1.00  0.00     0.000 HD 
BRANCH  15  17
ATOM     17  CA  ALA A   1     -11.747  12.773  66.456  1.00  0.00    -0.400 C  
ATOM     18  CB  ALA A   1     -12.494  13.306  65.221  1.00  0.00    -0.543 C  
BRANCH  17  19
ATOM     19  C   ALA A   1     -10.599  11.780  66.079  1.00  0.00    -0.260 C  
ATOM     20  O   ALA A   1      -9.817  12.095  65.173  1.00  0.00    -0.247 OA 
HETATM   21  C   UNK A   2     -10.566   9.683  69.084  1.00  0.00    -0.237 A  
HETATM   22  C   UNK A   2     -11.386   9.360  70.173  1.00  0.00    -0.220 A  
HETATM   23  N   UNK A   2     -10.361  10.632  66.818  1.00  0.00    -0.236 N  
HETATM   24  C   UNK A   2     -10.829   8.997  71.386  1.00  0.00    -0.330 A  
HETATM   25  C   UNK A   2     -11.240  10.079  67.817  1.00  0.00    -0.065 C  
HETATM   26  O   UNK A   2      -8.300   7.976  65.375  1.00  0.00    -0.143 OA 
HETATM   27  C   UNK A   2      -9.441   8.975  71.532  1.00  0.00    -0.246 A  
HETATM   28  C   UNK A   2      -8.618   9.291  70.432  1.00  0.00    -0.250 A  
HETATM   29  O   UNK A   2     -10.215   7.680  66.506  1.00  0.00    -0.221 OA 
HETATM   30  C   UNK A   2      -9.291   8.418  66.175  1.00  0.00    -0.201 C  
HETATM   31  C   UNK A   2      -9.178   9.615  69.190  1.00  0.00    -0.168 A  
HETATM   32  C   UNK A   2      -9.105   9.882  66.651  1.00  0.00    -0.147 C  
HETATM   33  C   UNK A   2      -8.323   9.935  67.983  1.00  0.00    -0.113 C  
BRANCH  24  34
HETATM   34  O   UNK A   2     -11.568   8.600  72.473  1.00  0.00    -0.356 OA 
HETATM   35  C   UNK A   2     -12.944   8.909  72.377  1.00  0.00    -0.404 C  
ENDBRANCH  24  34
BRANCH  27  36
HETATM   36  O   UNK A   2      -9.006   8.657  72.783  1.00  0.00    -0.356 OA 
HETATM   37  C   UNK A   2      -7.718   8.089  72.903  1.00  0.00    -0.134 C  
ENDBRANCH  27  36
ENDBRANCH  17  19
ENDBRANCH  15  17
ENDBRANCH   6  15
ENDBRANCH   4   6
ENDBRANCH   3   4
ENDBRANCH   2   3
TORSDOF 11
ENDMDL
MODEL       22
REMARK 921   NORMALIZED FREE ENERGY PREDICTED BY IDOCK:   -6.32 KCAL/MOL
REMARK 922        TOTAL FREE ENERGY PREDICTED BY IDOCK:  -12.29 KCAL/MOL
REMARK 923 INTER-LIGAND FREE ENERGY PREDICTED BY IDOCK:  -10.66 KCAL/MOL
REMARK 924 INTRA-LIGAND FREE ENERGY PREDICTED BY IDOCK:   -1.63 KCAL/MOL
REMARK 927      BINDING AFFINITY PREDICTED BY RF-SCORE:    0.00 PKD
ROOT
HETATM    1  C   UNK A   0     -12.954  14.346  71.231  1.00  0.00    -0.414 C  
HETATM    2  C   UNK A   0     -13.371  12.977  71.732  1.00  0.00    -0.378 C  
ENDROOT
BRANCH   2   3
HETATM    3  O   UNK A   0     -12.663  11.982  70.987  1.00  0.00    -0.334 OA 
BRANCH   3   4
HETATM    4  C   UNK A   0     -12.761  10.695  71.431  1.00  0.00    -0.440 C  
HETATM    5  O   UNK A   0     -13.615  10.261  72.197  1.00  0.00    -0.345 OA 
BRANCH   4   6
HETATM    6  C   UNK A   0     -11.675   9.856  70.758  1.00  0.00    -0.341 C  
BRANCH   6   7
HETATM    7  C   UNK A   0     -11.216   8.747  71.709  1.00  0.00    -0.410 C  
BRANCH   7   8
HETATM    8  C   UNK A   0     -10.027   7.848  71.335  1.00  0.00    -0.208 C  
BRANCH   8   9
HETATM    9  C   UNK A   0      -8.832   8.064  72.277  1.00  0.00    -0.224 A  
HETATM   10  C   UNK A   0      -8.999   7.941  73.665  1.00  0.00    -0.337 A  
HETATM   11  C   UNK A   0      -7.895   8.019  74.531  1.00  0.00    -0.289 A  
HETATM   12  C   UNK A   0      -7.524   8.311  71.809  1.00  0.00    -0.112 A  
HETATM   13  C   UNK A   0      -6.608   8.214  74.030  1.00  0.00    -0.142 A  
HETATM   14  C   UNK A   0      -6.425   8.370  72.666  1.00  0.00    -0.099 A  
ENDBRANCH   8   9
ENDBRANCH   7   8
ENDBRANCH   6   7
BRANCH   6  15
ATOM     15  N   ALA A   1     -10.531  10.715  70.364  1.00  0.00    -0.323 NA 
ATOM     16  H   ALA A   1     -10.055  11.267  71.078  1.00  0.00     0.000 HD 
BRANCH  15  17
ATOM     17  CA  ALA A   1     -10.060  10.792  68.951  1.00  0.00    -0.205 C  
ATOM     18  CB  ALA A   1      -9.286   9.624  68.314  1.00  0.00    -0.138 C  
BRANCH  17  19
ATOM     19  C   ALA A   1     -11.034  11.485  67.942  1.00  0.00    -0.233 C  
ATOM     20  O   ALA A   1     -12.154  10.989  67.765  1.00  0.00    -0.534 OA 
HETATM   21  C   UNK A   2      -9.464  14.787  67.713  1.00  0.00    -0.204 A  
HETATM   22  C   UNK A   2      -8.237  15.409  67.978  1.00  0.00    -0.146 A  
HETATM   23  N   UNK A   2     -10.725  12.700  67.354  1.00  0.00    -0.227 N  
HETATM   24  C   UNK A   2      -8.188  16.750  68.315  1.00  0.00    -0.204 A  
HETATM   25  C   UNK A   2      -9.434  13.338  67.372  1.00  0.00    -0.218 C  
HETATM   26  O   UNK A   2     -12.596  13.779  64.400  1.00  0.00    -0.638 OA 
HETATM   27  C   UNK A   2      -9.373  17.482  68.415  1.00  0.00    -0.287 A  
HETATM   28  C   UNK A   2     -10.606  16.856  68.139  1.00  0.00    -0.360 A  
HETATM   29  O   UNK A   2     -10.374  13.940  64.675  1.00  0.00    -0.432 OA 
HETATM   30  C   UNK A   2     -11.484  13.741  65.162  1.00  0.00    -0.321 C  
HETATM   31  C   UNK A   2     -10.654  15.510  67.753  1.00  0.00    -0.281 A  
HETATM   32  C   UNK A   2     -11.765  13.484  66.666  1.00  0.00    -0.387 C  
HETATM   33  C   UNK A   2     -11.958  14.815  67.427  1.00  0.00    -0.236 C  
BRANCH  24  34
HETATM   34  O   UNK A   2      -7.020  17.441  68.517  1.00  0.00    -0.196 OA 
HETATM   35  C   UNK A   2      -6.207  16.910  69.544  1.00  0.00    -0.229 C  
ENDBRANCH  24  34
BRANCH  27  36
HETATM   36  O   UNK A   2      -9.211  18.776  68.807  1.00  0.00    -0.337 OA 
HETATM   37  C   UNK A   2     -10.118  19.733  68.298  1.00  0.00    -0.458 C  
ENDBRANCH  27  36
ENDBRANCH  17  19
ENDBRANCH  15  17
ENDBRANCH   6  15
ENDBRANCH   4   6
ENDBRANCH   3   4
ENDBRANCH   2   3
TORSDOF 11
ENDMDL
MODEL       23
REMARK 921   NORMALIZED FREE ENERGY PREDICTED BY IDOCK:   -6.30 KCAL/MOL
REMARK 922        TOTAL FREE ENERGY PREDICTED BY IDOCK:  -12.26 KCAL/MOL
REMARK 923 INTER-LIGAND FREE ENERGY PREDICTED BY IDOCK:  -10.02 KCAL/MOL
REMARK 924 INTRA-LIGAND FREE ENERGY PREDICTED BY IDOCK:   -2.23 KCAL/MOL
REMARK 927      BINDING AFFINITY PREDICTED BY RF-SCORE:    0.00 PKD
ROOT
HETATM    1  C   UNK A   0     -12.050  16.004  71.895  1.00  0.00    -0.590 C  
HETATM    2  C   UNK A   0     -12.821  15.015  71.044  1.00  0.00    -0.387 C  
ENDROOT
BRANCH   2   3
HETATM    3  O   UNK A   0     -12.008  13.854  70.843  1.00  0.00    -0.318 OA 
BRANCH   3   4
HETATM    4  C   UNK A   0     -12.565  12.651  71.165  1.00  0.00    -0.258 C  
HETATM    5  O   UNK A   0     -13.479  12.470  71.964  1.00  0.00    -0.493 OA 
BRANCH   4   6
HETATM    6  C   UNK A   0     -11.917  11.562  70.310  1.00  0.00    -0.368 C  
BRANCH   6   7
HETATM    7  C   UNK A   0     -11.733  12.069  68.878  1.00  0.00    -0.383 C  
BRANCH   7   8
HETATM    8  C   UNK A   0     -11.505  11.076  67.727  1.00  0.00    -0.339 C  
BRANCH   8   9
HETATM    9  C   UNK A   0     -11.522  11.778  66.359  1.00  0.00    -0.309 A  
HETATM   10  C   UNK A   0     -11.091  11.095  65.213  1.00  0.00    -0.076 A  
HETATM   11  C   UNK A   0     -11.210  11.680  63.940  1.00  0.00    -0.479 A  
HETATM   12  C   UNK A   0     -12.032  13.081  66.175  1.00  0.00    -0.488 A  
HETATM   13  C   UNK A   0     -11.765  12.951  63.788  1.00  0.00    -0.557 A  
HETATM   14  C   UNK A   0     -12.167  13.656  64.911  1.00  0.00    -0.447 A  
ENDBRANCH   8   9
ENDBRANCH   7   8
ENDBRANCH   6   7
BRANCH   6  15
ATOM     15  N   ALA A   1     -12.747  10.332  70.328  1.00  0.00    -0.544 NA 
ATOM     16  H   ALA A   1     -13.467  10.208  69.618  1.00  0.00     0.000 HD 
BRANCH  15  17
ATOM     17  CA  ALA A   1     -12.553   9.272  71.361  1.00  0.00    -0.336 C  
ATOM     18  CB  ALA A   1     -13.428   9.236  72.626  1.00  0.00    -0.371 C  
BRANCH  17  19
ATOM     19  C   ALA A   1     -12.224   7.842  70.820  1.00  0.00    -0.032 C  
ATOM     20  O   ALA A   1     -13.088   6.961  70.912  1.00  0.00    -0.215 OA 
HETATM   21  C   UNK A   2      -9.370   8.625  68.660  1.00  0.00    -0.142 A  
HETATM   22  C   UNK A   2      -8.422   9.638  68.464  1.00  0.00    -0.118 A  
HETATM   23  N   UNK A   2     -11.054   7.580  70.126  1.00  0.00    -0.255 N  
HETATM   24  C   UNK A   2      -7.880   9.858  67.210  1.00  0.00    -0.102 A  
HETATM   25  C   UNK A   2      -9.917   8.460  70.035  1.00  0.00    -0.188 C  
HETATM   26  O   UNK A   2      -9.972   4.111  69.697  1.00  0.00    -0.195 OA 
HETATM   27  C   UNK A   2      -8.299   9.080  66.129  1.00  0.00    -0.121 A  
HETATM   28  C   UNK A   2      -9.246   8.054  66.331  1.00  0.00    -0.245 A  
HETATM   29  O   UNK A   2      -8.648   5.839  70.241  1.00  0.00    -0.128 OA 
HETATM   30  C   UNK A   2      -9.729   5.432  69.827  1.00  0.00    -0.184 C  
HETATM   31  C   UNK A   2      -9.762   7.800  67.607  1.00  0.00    -0.193 A  
HETATM   32  C   UNK A   2     -10.902   6.332  69.359  1.00  0.00    -0.340 C  
HETATM   33  C   UNK A   2     -10.760   6.692  67.863  1.00  0.00    -0.341 C  
BRANCH  24  34
HETATM   34  O   UNK A   2      -6.898  10.783  66.958  1.00  0.00    -0.083 OA 
HETATM   35  C   UNK A   2      -7.086  12.017  67.622  1.00  0.00    -0.118 C  
ENDBRANCH  24  34
BRANCH  27  36
HETATM   36  O   UNK A   2      -7.741   9.421  64.934  1.00  0.00    -0.105 OA 
HETATM   37  C   UNK A   2      -8.386   8.971  63.759  1.00  0.00    -0.176 C  
ENDBRANCH  27  36
ENDBRANCH  17  19
ENDBRANCH  15  17
ENDBRANCH   6  15
ENDBRANCH   4   6
ENDBRANCH   3   4
ENDBRANCH   2   3
TORSDOF 11
ENDMDL
MODEL       24
REMARK 921   NORMALIZED FREE ENERGY PREDICTED BY IDOCK:   -6.28 KCAL/MOL
REMARK 922        TOTAL FREE ENERGY PREDICTED BY IDOCK:  -12.22 KCAL/MOL
REMARK 923 INTER-LIGAND FREE ENERGY PREDICTED BY IDOCK:  -10.23 KCAL/MOL
REMARK 924 INTRA-LIGAND FREE ENERGY PREDICTED BY IDOCK:   -1.99 KCAL/MOL
REMARK 927      BINDING AFFINITY PREDICTED BY RF-SCORE:    0.00 PKD
ROOT
HETATM    1  C   UNK A   0     -10.180   5.637  72.579  1.00  0.00    -0.225 C  
HETATM    2  C   UNK A   0     -11.626   5.907  72.213  1.00  0.00    -0.282 C  
ENDROOT
BRANCH   2   3
HETATM    3  O   UNK A   0     -11.980   7.212  72.682  1.00  0.00    -0.144 OA 
BRANCH   3   4
HETATM    4  C   UNK A   0     -12.654   8.017  71.810  1.00  0.00    -0.325 C  
HETATM    5  O   UNK A   0     -13.824   7.886  71.466  1.00  0.00    -0.360 OA 
BRANCH   4   6
HETATM    6  C   UNK A   0     -11.734   9.160  71.381  1.00  0.00    -0.343 C  
BRANCH   6   7
HETATM    7  C   UNK A   0     -12.572  10.330  70.860  1.00  0.00    -0.465 C  
BRANCH   7   8
HETATM    8  C   UNK A   0     -11.887  11.572  70.270  1.00  0.00    -0.431 C  
BRANCH   8   9
HETATM    9  C   UNK A   0     -12.469  12.872  70.849  1.00  0.00    -0.383 A  
HETATM   10  C   UNK A   0     -12.212  14.099  70.221  1.00  0.00    -0.416 A  
HETATM   11  C   UNK A   0     -12.832  15.279  70.669  1.00  0.00    -0.462 A  
HETATM   12  C   UNK A   0     -13.333  12.891  71.965  1.00  0.00    -0.579 A  
HETATM   13  C   UNK A   0     -13.721  15.254  71.743  1.00  0.00    -0.605 A  
HETATM   14  C   UNK A   0     -13.963  14.058  72.399  1.00  0.00    -0.622 A  
ENDBRANCH   8   9
ENDBRANCH   7   8
ENDBRANCH   6   7
BRANCH   6  15
ATOM     15  N   ALA A   1     -10.782   8.693  70.343  1.00  0.00    -0.220 NA 
ATOM     16  H   ALA A   1     -11.127   8.113  69.578  1.00  0.00     0.000 HD 
BRANCH  15  17
ATOM     17  CA  ALA A   1      -9.334   9.049  70.391  1.00  0.00    -0.208 C  
ATOM     18  CB  ALA A   1      -8.503   8.798  71.660  1.00  0.00    -0.209 C  
BRANCH  17  19
ATOM     19  C   ALA A   1      -8.521   8.785  69.081  1.00  0.00    -0.123 C  
ATOM     20  O   ALA A   1      -8.127   7.635  68.851  1.00  0.00    -0.123 OA 
HETATM   21  C   UNK A   2      -9.415  11.780  67.168  1.00  0.00    -0.180 A  
HETATM   22  C   UNK A   2      -9.938  13.063  67.371  1.00  0.00    -0.228 A  
HETATM   23  N   UNK A   2      -8.353   9.770  68.120  1.00  0.00    -0.110 N  
HETATM   24  C   UNK A   2     -10.670  13.688  66.377  1.00  0.00    -0.281 A  
HETATM   25  C   UNK A   2      -8.652  11.169  68.291  1.00  0.00    -0.146 C  
HETATM   26  O   UNK A   2      -5.749   9.360  65.583  1.00  0.00    -0.051 OA 
HETATM   27  C   UNK A   2     -10.908  13.025  65.172  1.00  0.00    -0.300 A  
HETATM   28  C   UNK A   2     -10.373  11.737  64.966  1.00  0.00    -0.325 A  
HETATM   29  O   UNK A   2      -6.209  11.254  66.694  1.00  0.00    -0.120 OA 
HETATM   30  C   UNK A   2      -6.537  10.114  66.376  1.00  0.00    -0.084 C  
HETATM   31  C   UNK A   2      -9.593  11.120  65.953  1.00  0.00    -0.250 A  
HETATM   32  C   UNK A   2      -7.868   9.425  66.774  1.00  0.00    -0.105 C  
HETATM   33  C   UNK A   2      -8.983   9.750  65.754  1.00  0.00    -0.195 C  
BRANCH  24  34
HETATM   34  O   UNK A   2     -11.152  14.969  66.480  1.00  0.00    -0.333 OA 
HETATM   35  C   UNK A   2     -10.540  15.734  67.499  1.00  0.00    -0.309 C  
ENDBRANCH  24  34
BRANCH  27  36
HETATM   36  O   UNK A   2     -11.686  13.711  64.290  1.00  0.00    -0.386 OA 
HETATM   37  C   UNK A   2     -12.429  12.960  63.351  1.00  0.00    -0.303 C  
ENDBRANCH  27  36
ENDBRANCH  17  19
ENDBRANCH  15  17
ENDBRANCH   6  15
ENDBRANCH   4   6
ENDBRANCH   3   4
ENDBRANCH   2   3
TORSDOF 11
ENDMDL
MODEL       25
REMARK 921   NORMALIZED FREE ENERGY PREDICTED BY IDOCK:   -6.27 KCAL/MOL
REMARK 922        TOTAL FREE ENERGY PREDICTED BY IDOCK:  -12.21 KCAL/MOL
REMARK 923 INTER-LIGAND FREE ENERGY PREDICTED BY IDOCK:  -10.48 KCAL/MOL
REMARK 924 INTRA-LIGAND FREE ENERGY PREDICTED BY IDOCK:   -1.73 KCAL/MOL
REMARK 927      BINDING AFFINITY PREDICTED BY RF-SCORE:    0.00 PKD
ROOT
HETATM    1  C   UNK A   0     -12.033  14.269  69.707  1.00  0.00    -0.394 C  
HETATM    2  C   UNK A   0     -11.878  13.349  68.512  1.00  0.00    -0.366 C  
ENDROOT
BRANCH   2   3
HETATM    3  O   UNK A   0     -12.285  14.055  67.336  1.00  0.00    -0.384 OA 
BRANCH   3   4
HETATM    4  C   UNK A   0     -11.634  13.746  66.178  1.00  0.00    -0.352 C  
HETATM    5  O   UNK A   0     -12.156  13.334  65.146  1.00  0.00    -0.366 OA 
BRANCH   4   6
HETATM    6  C   UNK A   0     -10.149  14.066  66.344  1.00  0.00    -0.294 C  
BRANCH   6   7
HETATM    7  C   UNK A   0      -9.792  15.306  65.521  1.00  0.00    -0.362 C  
BRANCH   7   8
HETATM    8  C   UNK A   0     -10.776  16.482  65.424  1.00  0.00    -0.273 C  
BRANCH   8   9
HETATM    9  C   UNK A   0     -10.457  17.577  66.456  1.00  0.00    -0.270 A  
HETATM   10  C   UNK A   0     -10.414  18.922  66.063  1.00  0.00    -0.507 A  
HETATM   11  C   UNK A   0     -10.241  19.943  67.015  1.00  0.00    -0.588 A  
HETATM   12  C   UNK A   0     -10.275  17.303  67.829  1.00  0.00    -0.332 A  
HETATM   13  C   UNK A   0     -10.114  19.641  68.370  1.00  0.00    -0.557 A  
HETATM   14  C   UNK A   0     -10.121  18.316  68.776  1.00  0.00    -0.393 A  
ENDBRANCH   8   9
ENDBRANCH   7   8
ENDBRANCH   6   7
BRANCH   6  15
ATOM     15  N   ALA A   1      -9.323  12.905  65.930  1.00  0.00    -0.462 NA 
ATOM     16  H   ALA A   1      -9.473  12.492  65.010  1.00  0.00     0.000 HD 
BRANCH  15  17
ATOM     17  CA  ALA A   1      -8.277  12.329  66.825  1.00  0.00    -0.058 C  
ATOM     18  CB  ALA A   1      -8.141  12.801  68.283  1.00  0.00    -0.154 C  
BRANCH  17  19
ATOM     19  C   ALA A   1      -8.010  10.796  66.665  1.00  0.00    -0.139 C  
ATOM     20  O   ALA A   1      -7.005  10.433  66.042  1.00  0.00    -0.115 OA 
HETATM   21  C   UNK A   2     -10.170   9.496  69.324  1.00  0.00    -0.212 A  
HETATM   22  C   UNK A   2     -11.257   9.897  70.111  1.00  0.00    -0.347 A  
HETATM   23  N   UNK A   2      -8.790   9.852  67.313  1.00  0.00    -0.132 N  
HETATM   24  C   UNK A   2     -11.430   9.380  71.383  1.00  0.00    -0.379 A  
HETATM   25  C   UNK A   2     -10.045  10.109  67.973  1.00  0.00    -0.157 C  
HETATM   26  O   UNK A   2      -8.670   6.369  66.197  1.00  0.00    -0.138 OA 
HETATM   27  C   UNK A   2     -10.502   8.471  71.893  1.00  0.00    -0.317 A  
HETATM   28  C   UNK A   2      -9.413   8.062  71.095  1.00  0.00    -0.181 A  
HETATM   29  O   UNK A   2     -10.526   7.510  66.735  1.00  0.00    -0.305 OA 
HETATM   30  C   UNK A   2      -9.301   7.428  66.745  1.00  0.00    -0.160 C  
HETATM   31  C   UNK A   2      -9.261   8.549  69.791  1.00  0.00    -0.157 A  
HETATM   32  C   UNK A   2      -8.344   8.452  67.409  1.00  0.00    -0.124 C  
HETATM   33  C   UNK A   2      -8.119   8.112  68.899  1.00  0.00    -0.116 C  
BRANCH  24  34
HETATM   34  O   UNK A   2     -12.507   9.672  72.182  1.00  0.00    -0.350 OA 
HETATM   35  C   UNK A   2     -13.220  10.828  71.788  1.00  0.00    -0.418 C  
ENDBRANCH  24  34
BRANCH  27  36
HETATM   36  O   UNK A   2     -10.741   8.072  73.173  1.00  0.00    -0.332 OA 
HETATM   37  C   UNK A   2     -10.742   6.683  73.436  1.00  0.00    -0.289 C  
ENDBRANCH  27  36
ENDBRANCH  17  19
ENDBRANCH  15  17
ENDBRANCH   6  15
ENDBRANCH   4   6
ENDBRANCH   3   4
ENDBRANCH   2   3
TORSDOF 11
ENDMDL
MODEL       26
REMARK 921   NORMALIZED FREE ENERGY PREDICTED BY IDOCK:   -6.26 KCAL/MOL
REMARK 922        TOTAL FREE ENERGY PREDICTED BY IDOCK:  -12.19 KCAL/MOL
REMARK 923 INTER-LIGAND FREE ENERGY PREDICTED BY IDOCK:  -10.70 KCAL/MOL
REMARK 924 INTRA-LIGAND FREE ENERGY PREDICTED BY IDOCK:   -1.49 KCAL/MOL
REMARK 927      BINDING AFFINITY PREDICTED BY RF-SCORE:    0.00 PKD
ROOT
HETATM    1  C   UNK A   0     -13.156  15.843  73.021  1.00  0.00    -0.639 C  
HETATM    2  C   UNK A   0     -11.882  15.740  72.205  1.00  0.00    -0.496 C  
ENDROOT
BRANCH   2   3
HETATM    3  O   UNK A   0     -12.232  15.485  70.841  1.00  0.00    -0.336 OA 
BRANCH   3   4
HETATM    4  C   UNK A   0     -11.971  14.235  70.363  1.00  0.00    -0.332 C  
HETATM    5  O   UNK A   0     -12.306  13.177  70.888  1.00  0.00    -0.364 OA 
BRANCH   4   6
HETATM    6  C   UNK A   0     -11.253  14.359  69.019  1.00  0.00    -0.264 C  
BRANCH   6   7
HETATM    7  C   UNK A   0     -12.024  13.585  67.947  1.00  0.00    -0.372 C  
BRANCH   7   8
HETATM    8  C   UNK A   0     -12.234  14.194  66.552  1.00  0.00    -0.463 C  
BRANCH   8   9
HETATM    9  C   UNK A   0     -11.803  13.226  65.438  1.00  0.00    -0.392 A  
HETATM   10  C   UNK A   0     -12.756  12.705  64.551  1.00  0.00    -0.439 A  
HETATM   11  C   UNK A   0     -12.363  11.913  63.458  1.00  0.00    -0.603 A  
HETATM   12  C   UNK A   0     -10.454  12.881  65.205  1.00  0.00    -0.326 A  
HETATM   13  C   UNK A   0     -11.016  11.633  63.227  1.00  0.00    -0.361 A  
HETATM   14  C   UNK A   0     -10.061  12.110  64.110  1.00  0.00    -0.335 A  
ENDBRANCH   8   9
ENDBRANCH   7   8
ENDBRANCH   6   7
BRANCH   6  15
ATOM     15  N   ALA A   1      -9.862  13.854  69.131  1.00  0.00    -0.421 NA 
ATOM     16  H   ALA A   1      -9.526  13.519  70.033  1.00  0.00     0.000 HD 
BRANCH  15  17
ATOM     17  CA  ALA A   1      -8.942  13.826  67.956  1.00  0.00    -0.187 C  
ATOM     18  CB  ALA A   1      -8.309  15.122  67.420  1.00  0.00    -0.206 C  
BRANCH  17  19
ATOM     19  C   ALA A   1      -7.966  12.607  67.881  1.00  0.00    -0.156 C  
ATOM     20  O   ALA A   1      -6.774  12.817  67.623  1.00  0.00    -0.116 OA 
HETATM   21  C   UNK A   2      -9.951  10.097  69.666  1.00  0.00    -0.262 A  
HETATM   22  C   UNK A   2     -11.275   9.858  70.053  1.00  0.00    -0.327 A  
HETATM   23  N   UNK A   2      -8.373  11.328  68.227  1.00  0.00    -0.142 N  
HETATM   24  C   UNK A   2     -11.552   9.122  71.193  1.00  0.00    -0.317 A  
HETATM   25  C   UNK A   2      -9.736  10.910  68.438  1.00  0.00    -0.176 C  
HETATM   26  O   UNK A   2      -6.345   8.466  67.187  1.00  0.00    -0.055 OA 
HETATM   27  C   UNK A   2     -10.502   8.636  71.974  1.00  0.00    -0.352 A  
HETATM   28  C   UNK A   2      -9.169   8.870  71.577  1.00  0.00    -0.322 A  
HETATM   29  O   UNK A   2      -8.584   8.590  67.090  1.00  0.00    -0.120 OA 
HETATM   30  C   UNK A   2      -7.521   9.046  67.504  1.00  0.00    -0.081 C  
HETATM   31  C   UNK A   2      -8.887   9.575  70.400  1.00  0.00    -0.279 A  
HETATM   32  C   UNK A   2      -7.383  10.263  68.454  1.00  0.00    -0.084 C  
HETATM   33  C   UNK A   2      -7.469   9.822  69.933  1.00  0.00    -0.142 C  
BRANCH  24  34
HETATM   34  O   UNK A   2     -12.821   8.789  71.593  1.00  0.00    -0.323 OA 
HETATM   35  C   UNK A   2     -13.583   9.884  72.063  1.00  0.00    -0.306 C  
ENDBRANCH  24  34
BRANCH  27  36
HETATM   36  O   UNK A   2     -10.890   7.975  73.099  1.00  0.00    -0.335 OA 
HETATM   37  C   UNK A   2     -10.716   6.572  73.128  1.00  0.00    -0.269 C  
ENDBRANCH  27  36
ENDBRANCH  17  19
ENDBRANCH  15  17
ENDBRANCH   6  15
ENDBRANCH   4   6
ENDBRANCH   3   4
ENDBRANCH   2   3
TORSDOF 11
ENDMDL
MODEL       27
REMARK 921   NORMALIZED FREE ENERGY PREDICTED BY IDOCK:   -6.24 KCAL/MOL
REMARK 922        TOTAL FREE ENERGY PREDICTED BY IDOCK:  -12.16 KCAL/MOL
REMARK 923 INTER-LIGAND FREE ENERGY PREDICTED BY IDOCK:  -10.20 KCAL/MOL
REMARK 924 INTRA-LIGAND FREE ENERGY PREDICTED BY IDOCK:   -1.96 KCAL/MOL
REMARK 927      BINDING AFFINITY PREDICTED BY RF-SCORE:    0.00 PKD
ROOT
HETATM    1  C   UNK A   0      -6.514  10.809  66.347  1.00  0.00    -0.125 C  
HETATM    2  C   UNK A   0      -7.927  10.979  66.871  1.00  0.00    -0.143 C  
ENDROOT
BRANCH   2   3
HETATM    3  O   UNK A   0      -8.725  11.580  65.846  1.00  0.00    -0.162 OA 
BRANCH   3   4
HETATM    4  C   UNK A   0     -10.035  11.203  65.788  1.00  0.00    -0.245 C  
HETATM    5  O   UNK A   0     -10.650  10.598  66.661  1.00  0.00    -0.243 OA 
BRANCH   4   6
HETATM    6  C   UNK A   0     -10.642  11.724  64.485  1.00  0.00    -0.313 C  
BRANCH   6   7
HETATM    7  C   UNK A   0     -10.186  10.847  63.316  1.00  0.00    -0.317 C  
BRANCH   7   8
HETATM    8  C   UNK A   0      -8.909  11.197  62.537  1.00  0.00    -0.331 C  
BRANCH   8   9
HETATM    9  C   UNK A   0      -7.751  10.249  62.888  1.00  0.00    -0.150 A  
HETATM   10  C   UNK A   0      -8.013   9.013  63.497  1.00  0.00    -0.150 A  
HETATM   11  C   UNK A   0      -6.978   8.087  63.718  1.00  0.00    -0.075 A  
HETATM   12  C   UNK A   0      -6.407  10.527  62.555  1.00  0.00    -0.143 A  
HETATM   13  C   UNK A   0      -5.670   8.373  63.330  1.00  0.00    -0.068 A  
HETATM   14  C   UNK A   0      -5.383   9.601  62.756  1.00  0.00    -0.083 A  
ENDBRANCH   8   9
ENDBRANCH   7   8
ENDBRANCH   6   7
BRANCH   6  15
ATOM     15  N   ALA A   1     -10.249  13.138  64.264  1.00  0.00    -0.597 NA 
ATOM     16  H   ALA A   1      -9.367  13.341  63.795  1.00  0.00     0.000 HD 
BRANCH  15  17
ATOM     17  CA  ALA A   1     -11.114  14.269  64.711  1.00  0.00    -0.391 C  
ATOM     18  CB  ALA A   1     -12.567  14.023  65.153  1.00  0.00    -0.453 C  
BRANCH  17  19
ATOM     19  C   ALA A   1     -10.408  15.373  65.564  1.00  0.00    -0.387 C  
ATOM     20  O   ALA A   1     -10.114  16.445  65.019  1.00  0.00    -0.486 OA 
HETATM   21  C   UNK A   2     -11.199  14.173  68.934  1.00  0.00    -0.294 A  
HETATM   22  C   UNK A   2     -11.613  13.003  69.583  1.00  0.00    -0.322 A  
HETATM   23  N   UNK A   2     -10.229  15.231  66.930  1.00  0.00    -0.263 N  
HETATM   24  C   UNK A   2     -12.359  13.072  70.747  1.00  0.00    -0.310 A  
HETATM   25  C   UNK A   2     -10.413  14.015  67.679  1.00  0.00    -0.245 C  
HETATM   26  O   UNK A   2      -7.829  17.392  68.650  1.00  0.00    -0.261 OA 
HETATM   27  C   UNK A   2     -12.721  14.318  71.263  1.00  0.00    -0.357 A  
HETATM   28  C   UNK A   2     -12.296  15.495  70.612  1.00  0.00    -0.462 A  
HETATM   29  O   UNK A   2      -8.077  15.186  68.980  1.00  0.00    -0.163 OA 
HETATM   30  C   UNK A   2      -8.507  16.235  68.507  1.00  0.00    -0.206 C  
HETATM   31  C   UNK A   2     -11.502  15.427  69.461  1.00  0.00    -0.330 A  
HETATM   32  C   UNK A   2      -9.857  16.389  67.760  1.00  0.00    -0.239 C  
HETATM   33  C   UNK A   2     -11.008  16.670  68.752  1.00  0.00    -0.309 C  
BRANCH  24  34
HETATM   34  O   UNK A   2     -12.738  11.972  71.473  1.00  0.00    -0.336 OA 
HETATM   35  C   UNK A   2     -12.452  10.739  70.843  1.00  0.00    -0.402 C  
ENDBRANCH  24  34
BRANCH  27  36
HETATM   36  O   UNK A   2     -13.501  14.266  72.378  1.00  0.00    -0.407 OA 
HETATM   37  C   UNK A   2     -13.770  15.482  73.046  1.00  0.00    -0.431 C  
ENDBRANCH  27  36
ENDBRANCH  17  19
ENDBRANCH  15  17
ENDBRANCH   6  15
ENDBRANCH   4   6
ENDBRANCH   3   4
ENDBRANCH   2   3
TORSDOF 11
ENDMDL
MODEL       28
REMARK 921   NORMALIZED FREE ENERGY PREDICTED BY IDOCK:   -6.24 KCAL/MOL
REMARK 922        TOTAL FREE ENERGY PREDICTED BY IDOCK:  -12.15 KCAL/MOL
REMARK 923 INTER-LIGAND FREE ENERGY PREDICTED BY IDOCK:   -9.83 KCAL/MOL
REMARK 924 INTRA-LIGAND FREE ENERGY PREDICTED BY IDOCK:   -2.32 KCAL/MOL
REMARK 927      BINDING AFFINITY PREDICTED BY RF-SCORE:    0.00 PKD
ROOT
HETATM    1  C   UNK A   0     -12.045  14.367  70.473  1.00  0.00    -0.404 C  
HETATM    2  C   UNK A   0     -11.832  13.286  69.432  1.00  0.00    -0.329 C  
ENDROOT
BRANCH   2   3
HETATM    3  O   UNK A   0     -12.029  12.010  70.051  1.00  0.00    -0.326 OA 
BRANCH   3   4
HETATM    4  C   UNK A   0     -11.857  10.911  69.261  1.00  0.00    -0.324 C  
HETATM    5  O   UNK A   0     -12.098  10.842  68.060  1.00  0.00    -0.563 OA 
BRANCH   4   6
HETATM    6  C   UNK A   0     -11.242   9.791  70.100  1.00  0.00    -0.272 C  
BRANCH   6   7
HETATM    7  C   UNK A   0     -12.157   9.469  71.283  1.00  0.00    -0.443 C  
BRANCH   7   8
HETATM    8  C   UNK A   0     -12.784   8.073  71.421  1.00  0.00    -0.297 C  
BRANCH   8   9
HETATM    9  C   UNK A   0     -11.728   6.962  71.313  1.00  0.00    -0.371 A  
HETATM   10  C   UNK A   0     -11.122   6.452  72.471  1.00  0.00    -0.298 A  
HETATM   11  C   UNK A   0     -10.242   5.357  72.400  1.00  0.00    -0.241 A  
HETATM   12  C   UNK A   0     -11.377   6.356  70.087  1.00  0.00    -0.485 A  
HETATM   13  C   UNK A   0      -9.957   4.750  71.177  1.00  0.00    -0.273 A  
HETATM   14  C   UNK A   0     -10.519   5.258  70.017  1.00  0.00    -0.351 A  
ENDBRANCH   8   9
ENDBRANCH   7   8
ENDBRANCH   6   7
BRANCH   6  15
ATOM     15  N   ALA A   1      -9.892  10.186  70.574  1.00  0.00    -0.313 NA 
ATOM     16  H   ALA A   1      -9.790  11.029  71.138  1.00  0.00     0.000 HD 
BRANCH  15  17
ATOM     17  CA  ALA A   1      -8.680   9.379  70.244  1.00  0.00    -0.230 C  
ATOM     18  CB  ALA A   1      -8.138   8.334  71.234  1.00  0.00    -0.138 C  
BRANCH  17  19
ATOM     19  C   ALA A   1      -8.550   8.919  68.755  1.00  0.00    -0.136 C  
ATOM     20  O   ALA A   1      -8.738   7.726  68.486  1.00  0.00    -0.128 OA 
HETATM   21  C   UNK A   2      -8.829  12.158  67.065  1.00  0.00    -0.203 A  
HETATM   22  C   UNK A   2      -8.709  13.525  67.345  1.00  0.00    -0.220 A  
HETATM   23  N   UNK A   2      -8.364   9.830  67.728  1.00  0.00    -0.114 N  
HETATM   24  C   UNK A   2      -9.442  14.455  66.630  1.00  0.00    -0.283 A  
HETATM   25  C   UNK A   2      -8.019  11.219  67.890  1.00  0.00    -0.118 C  
HETATM   26  O   UNK A   2      -7.194   8.635  64.474  1.00  0.00    -0.089 OA 
HETATM   27  C   UNK A   2     -10.324  14.025  65.637  1.00  0.00    -0.329 A  
HETATM   28  C   UNK A   2     -10.437  12.649  65.350  1.00  0.00    -0.306 A  
HETATM   29  O   UNK A   2      -6.464  10.473  65.534  1.00  0.00    -0.124 OA 
HETATM   30  C   UNK A   2      -7.295   9.574  65.436  1.00  0.00    -0.099 C  
HETATM   31  C   UNK A   2      -9.663  11.709  66.042  1.00  0.00    -0.257 A  
HETATM   32  C   UNK A   2      -8.557   9.425  66.325  1.00  0.00    -0.131 C  
HETATM   33  C   UNK A   2      -9.741  10.228  65.743  1.00  0.00    -0.297 C  
BRANCH  24  34
HETATM   34  O   UNK A   2      -9.322  15.811  66.801  1.00  0.00    -0.218 OA 
HETATM   35  C   UNK A   2      -8.053  16.326  66.451  1.00  0.00    -0.299 C  
ENDBRANCH  24  34
BRANCH  27  36
HETATM   36  O   UNK A   2     -11.033  15.021  65.037  1.00  0.00    -0.373 OA 
HETATM   37  C   UNK A   2     -12.214  14.660  64.348  1.00  0.00    -0.452 C  
ENDBRANCH  27  36
ENDBRANCH  17  19
ENDBRANCH  15  17
ENDBRANCH   6  15
ENDBRANCH   4   6
ENDBRANCH   3   4
ENDBRANCH   2   3
TORSDOF 11
ENDMDL
MODEL       29
REMARK 921   NORMALIZED FREE ENERGY PREDICTED BY IDOCK:   -6.19 KCAL/MOL
REMARK 922        TOTAL FREE ENERGY PREDICTED BY IDOCK:  -12.08 KCAL/MOL
REMARK 923 INTER-LIGAND FREE ENERGY PREDICTED BY IDOCK:  -10.20 KCAL/MOL
REMARK 924 INTRA-LIGAND FREE ENERGY PREDICTED BY IDOCK:   -1.88 KCAL/MOL
REMARK 927      BINDING AFFINITY PREDICTED BY RF-SCORE:    0.00 PKD
ROOT
HETATM    1  C   UNK A   0     -12.137  14.802  64.340  1.00  0.00    -0.457 C  
HETATM    2  C   UNK A   0     -12.838  14.177  65.531  1.00  0.00    -0.376 C  
ENDROOT
BRANCH   2   3
HETATM    3  O   UNK A   0     -11.941  14.189  66.646  1.00  0.00    -0.408 OA 
BRANCH   3   4
HETATM    4  C   UNK A   0     -11.541  12.976  67.126  1.00  0.00    -0.358 C  
HETATM    5  O   UNK A   0     -12.280  12.066  67.489  1.00  0.00    -0.490 OA 
BRANCH   4   6
HETATM    6  C   UNK A   0     -10.015  12.901  67.072  1.00  0.00    -0.244 C  
BRANCH   6   7
HETATM    7  C   UNK A   0      -9.416  14.236  67.521  1.00  0.00    -0.209 C  
BRANCH   7   8
HETATM    8  C   UNK A   0      -8.982  15.280  66.481  1.00  0.00    -0.340 C  
BRANCH   8   9
HETATM    9  C   UNK A   0      -9.451  16.693  66.864  1.00  0.00    -0.248 A  
HETATM   10  C   UNK A   0      -9.960  17.555  65.882  1.00  0.00    -0.155 A  
HETATM   11  C   UNK A   0     -10.501  18.805  66.233  1.00  0.00    -0.489 A  
HETATM   12  C   UNK A   0      -9.469  17.157  68.197  1.00  0.00    -0.269 A  
HETATM   13  C   UNK A   0     -10.549  19.212  67.567  1.00  0.00    -0.567 A  
HETATM   14  C   UNK A   0     -10.022  18.389  68.549  1.00  0.00    -0.415 A  
ENDBRANCH   8   9
ENDBRANCH   7   8
ENDBRANCH   6   7
BRANCH   6  15
ATOM     15  N   ALA A   1      -9.566  12.560  65.699  1.00  0.00    -0.433 NA 
ATOM     16  H   ALA A   1      -8.837  13.122  65.261  1.00  0.00     0.000 HD 
BRANCH  15  17
ATOM     17  CA  ALA A   1     -10.155  11.415  64.945  1.00  0.00    -0.274 C  
ATOM     18  CB  ALA A   1     -10.832  11.635  63.582  1.00  0.00    -0.503 C  
BRANCH  17  19
ATOM     19  C   ALA A   1      -9.355  10.073  65.006  1.00  0.00    -0.256 C  
ATOM     20  O   ALA A   1      -8.499   9.853  64.140  1.00  0.00    -0.148 OA 
HETATM   21  C   UNK A   2     -10.004   9.107  68.480  1.00  0.00    -0.192 A  
HETATM   22  C   UNK A   2     -10.901   9.387  69.519  1.00  0.00    -0.231 A  
HETATM   23  N   UNK A   2      -9.486   9.197  66.073  1.00  0.00    -0.236 N  
HETATM   24  C   UNK A   2     -10.500   9.283  70.840  1.00  0.00    -0.302 A  
HETATM   25  C   UNK A   2     -10.507   9.257  67.087  1.00  0.00    -0.249 C  
HETATM   26  O   UNK A   2      -8.299   5.755  65.712  1.00  0.00    -0.122 OA 
HETATM   27  C   UNK A   2      -9.186   8.917  71.137  1.00  0.00    -0.256 A  
HETATM   28  C   UNK A   2      -8.288   8.626  70.090  1.00  0.00    -0.126 A  
HETATM   29  O   UNK A   2     -10.232   6.382  66.664  1.00  0.00    -0.187 OA 
HETATM   30  C   UNK A   2      -9.124   6.687  66.233  1.00  0.00    -0.145 C  
HETATM   31  C   UNK A   2      -8.704   8.687  68.754  1.00  0.00    -0.135 A  
HETATM   32  C   UNK A   2      -8.512   8.111  66.273  1.00  0.00    -0.131 C  
HETATM   33  C   UNK A   2      -7.773   8.358  67.608  1.00  0.00    -0.099 C  
BRANCH  24  34
HETATM   34  O   UNK A   2     -11.342   9.473  71.907  1.00  0.00    -0.329 OA 
HETATM   35  C   UNK A   2     -12.329  10.462  71.692  1.00  0.00    -0.304 C  
ENDBRANCH  24  34
BRANCH  27  36
HETATM   36  O   UNK A   2      -8.888   8.901  72.466  1.00  0.00    -0.381 OA 
HETATM   37  C   UNK A   2      -8.438   7.680  73.020  1.00  0.00    -0.144 C  
ENDBRANCH  27  36
ENDBRANCH  17  19
ENDBRANCH  15  17
ENDBRANCH   6  15
ENDBRANCH   4   6
ENDBRANCH   3   4
ENDBRANCH   2   3
TORSDOF 11
ENDMDL
MODEL       30
REMARK 921   NORMALIZED FREE ENERGY PREDICTED BY IDOCK:   -6.16 KCAL/MOL
REMARK 922        TOTAL FREE ENERGY PREDICTED BY IDOCK:  -12.02 KCAL/MOL
REMARK 923 INTER-LIGAND FREE ENERGY PREDICTED BY IDOCK:  -11.01 KCAL/MOL
REMARK 924 INTRA-LIGAND FREE ENERGY PREDICTED BY IDOCK:   -1.02 KCAL/MOL
REMARK 927      BINDING AFFINITY PREDICTED BY RF-SCORE:    0.00 PKD
ROOT
HETATM    1  C   UNK A   0     -10.531  19.800  66.068  1.00  0.00    -0.609 C  
HETATM    2  C   UNK A   0      -9.046  19.561  66.261  1.00  0.00    -0.360 C  
ENDROOT
BRANCH   2   3
HETATM    3  O   UNK A   0      -8.801  18.151  66.226  1.00  0.00    -0.405 OA 
BRANCH   3   4
HETATM    4  C   UNK A   0      -8.792  17.499  67.424  1.00  0.00    -0.229 C  
HETATM    5  O   UNK A   0      -8.395  17.957  68.491  1.00  0.00    -0.295 OA 
BRANCH   4   6
HETATM    6  C   UNK A   0      -9.430  16.121  67.242  1.00  0.00    -0.226 C  
BRANCH   6   7
HETATM    7  C   UNK A   0     -10.757  16.261  66.494  1.00  0.00    -0.187 C  
BRANCH   7   8
HETATM    8  C   UNK A   0     -10.843  15.924  64.997  1.00  0.00    -0.444 C  
BRANCH   8   9
HETATM    9  C   UNK A   0     -11.117  14.429  64.765  1.00  0.00    -0.402 A  
HETATM   10  C   UNK A   0     -10.055  13.550  64.509  1.00  0.00    -0.179 A  
HETATM   11  C   UNK A   0     -10.276  12.165  64.412  1.00  0.00    -0.333 A  
HETATM   12  C   UNK A   0     -12.406  13.863  64.873  1.00  0.00    -0.445 A  
HETATM   13  C   UNK A   0     -11.555  11.633  64.574  1.00  0.00    -0.231 A  
HETATM   14  C   UNK A   0     -12.624  12.487  64.795  1.00  0.00    -0.493 A  
ENDBRANCH   8   9
ENDBRANCH   7   8
ENDBRANCH   6   7
BRANCH   6  15
ATOM     15  N   ALA A   1      -9.637  15.473  68.561  1.00  0.00    -0.198 NA 
ATOM     16  H   ALA A   1      -9.288  15.933  69.401  1.00  0.00     0.000 HD 
BRANCH  15  17
ATOM     17  CA  ALA A   1     -10.343  14.164  68.687  1.00  0.00    -0.243 C  
ATOM     18  CB  ALA A   1     -11.865  14.068  68.482  1.00  0.00    -0.399 C  
BRANCH  17  19
ATOM     19  C   ALA A   1      -9.583  12.920  68.122  1.00  0.00    -0.223 C  
ATOM     20  O   ALA A   1      -8.539  13.104  67.483  1.00  0.00    -0.173 OA 
HETATM   21  C   UNK A   2     -11.074  10.280  70.178  1.00  0.00    -0.385 A  
HETATM   22  C   UNK A   2     -12.201  10.055  70.980  1.00  0.00    -0.462 A  
HETATM   23  N   UNK A   2      -9.974  11.627  68.432  1.00  0.00    -0.197 N  
HETATM   24  C   UNK A   2     -12.141   9.173  72.044  1.00  0.00    -0.361 A  
HETATM   25  C   UNK A   2     -11.215  11.255  69.062  1.00  0.00    -0.258 C  
HETATM   26  O   UNK A   2      -8.734   8.850  66.399  1.00  0.00    -0.120 OA 
HETATM   27  C   UNK A   2     -10.941   8.521  72.335  1.00  0.00    -0.320 A  
HETATM   28  C   UNK A   2      -9.811   8.741  71.521  1.00  0.00    -0.371 A  
HETATM   29  O   UNK A   2     -10.844   9.106  67.121  1.00  0.00    -0.212 OA 
HETATM   30  C   UNK A   2      -9.663   9.437  67.182  1.00  0.00    -0.173 C  
HETATM   31  C   UNK A   2      -9.882   9.598  70.416  1.00  0.00    -0.315 A  
HETATM   32  C   UNK A   2      -9.081  10.489  68.161  1.00  0.00    -0.141 C  
HETATM   33  C   UNK A   2      -8.696   9.837  69.508  1.00  0.00    -0.193 C  
BRANCH  24  34
HETATM   34  O   UNK A   2     -13.221   8.852  72.827  1.00  0.00    -0.389 OA 
HETATM   35  C   UNK A   2     -14.296   8.272  72.115  1.00  0.00    -0.404 C  
ENDBRANCH  24  34
BRANCH  27  36
HETATM   36  O   UNK A   2     -10.982   7.720  73.436  1.00  0.00    -0.327 OA 
HETATM   37  C   UNK A   2      -9.818   6.984  73.753  1.00  0.00    -0.303 C  
ENDBRANCH  27  36
ENDBRANCH  17  19
ENDBRANCH  15  17
ENDBRANCH   6  15
ENDBRANCH   4   6
ENDBRANCH   3   4
ENDBRANCH   2   3
TORSDOF 11
ENDMDL
MODEL       31
REMARK 921   NORMALIZED FREE ENERGY PREDICTED BY IDOCK:   -6.14 KCAL/MOL
REMARK 922        TOTAL FREE ENERGY PREDICTED BY IDOCK:  -12.00 KCAL/MOL
REMARK 923 INTER-LIGAND FREE ENERGY PREDICTED BY IDOCK:  -11.39 KCAL/MOL
REMARK 924 INTRA-LIGAND FREE ENERGY PREDICTED BY IDOCK:   -0.60 KCAL/MOL
REMARK 927      BINDING AFFINITY PREDICTED BY RF-SCORE:    0.00 PKD
ROOT
HETATM    1  C   UNK A   0     -13.889  13.116  72.429  1.00  0.00    -0.583 C  
HETATM    2  C   UNK A   0     -13.792  14.257  71.435  1.00  0.00    -0.292 C  
ENDROOT
BRANCH   2   3
HETATM    3  O   UNK A   0     -12.560  14.133  70.717  1.00  0.00    -0.324 OA 
BRANCH   3   4
HETATM    4  C   UNK A   0     -11.550  14.975  71.081  1.00  0.00    -0.330 C  
HETATM    5  O   UNK A   0     -11.308  15.359  72.221  1.00  0.00    -0.440 OA 
BRANCH   4   6
HETATM    6  C   UNK A   0     -10.713  15.307  69.845  1.00  0.00    -0.285 C  
BRANCH   6   7
HETATM    7  C   UNK A   0     -11.566  16.082  68.837  1.00  0.00    -0.354 C  
BRANCH   7   8
HETATM    8  C   UNK A   0     -11.010  16.409  67.442  1.00  0.00    -0.145 C  
BRANCH   8   9
HETATM    9  C   UNK A   0     -10.540  17.870  67.346  1.00  0.00    -0.370 A  
HETATM   10  C   UNK A   0      -9.996  18.509  68.470  1.00  0.00    -0.419 A  
HETATM   11  C   UNK A   0      -9.455  19.803  68.369  1.00  0.00    -0.423 A  
HETATM   12  C   UNK A   0     -10.555  18.599  66.138  1.00  0.00    -0.409 A  
HETATM   13  C   UNK A   0      -9.440  20.476  67.147  1.00  0.00    -0.544 A  
HETATM   14  C   UNK A   0     -10.001  19.876  66.032  1.00  0.00    -0.560 A  
ENDBRANCH   8   9
ENDBRANCH   7   8
ENDBRANCH   6   7
BRANCH   6  15
ATOM     15  N   ALA A   1     -10.180  14.064  69.236  1.00  0.00    -0.433 NA 
ATOM     16  H   ALA A   1     -10.688  13.189  69.365  1.00  0.00     0.000 HD 
BRANCH  15  17
ATOM     17  CA  ALA A   1      -8.919  14.062  68.438  1.00  0.00    -0.189 C  
ATOM     18  CB  ALA A   1      -7.737  14.965  68.830  1.00  0.00    -0.148 C  
BRANCH  17  19
ATOM     19  C   ALA A   1      -8.454  12.669  67.898  1.00  0.00    -0.173 C  
ATOM     20  O   ALA A   1      -7.361  12.592  67.325  1.00  0.00    -0.144 OA 
HETATM   21  C   UNK A   2     -10.670  10.474  69.820  1.00  0.00    -0.314 A  
HETATM   22  C   UNK A   2     -11.864  10.533  70.550  1.00  0.00    -0.442 A  
HETATM   23  N   UNK A   2      -9.169  11.512  68.164  1.00  0.00    -0.175 N  
HETATM   24  C   UNK A   2     -12.087   9.661  71.602  1.00  0.00    -0.402 A  
HETATM   25  C   UNK A   2     -10.500  11.456  68.713  1.00  0.00    -0.204 C  
HETATM   26  O   UNK A   2      -8.528   8.518  66.161  1.00  0.00    -0.118 OA 
HETATM   27  C   UNK A   2     -11.104   8.733  71.951  1.00  0.00    -0.364 A  
HETATM   28  C   UNK A   2      -9.908   8.670  71.208  1.00  0.00    -0.307 A  
HETATM   29  O   UNK A   2     -10.550   9.284  66.763  1.00  0.00    -0.221 OA 
HETATM   30  C   UNK A   2      -9.329   9.315  66.898  1.00  0.00    -0.151 C  
HETATM   31  C   UNK A   2      -9.699   9.520  70.115  1.00  0.00    -0.289 A  
HETATM   32  C   UNK A   2      -8.567  10.190  67.926  1.00  0.00    -0.118 C  
HETATM   33  C   UNK A   2      -8.437   9.461  69.283  1.00  0.00    -0.141 C  
BRANCH  24  34
HETATM   34  O   UNK A   2     -13.259   9.614  72.315  1.00  0.00    -0.433 OA 
HETATM   35  C   UNK A   2     -14.253   8.793  71.734  1.00  0.00    -0.365 C  
ENDBRANCH  24  34
BRANCH  27  36
HETATM   36  O   UNK A   2     -11.408   7.966  73.035  1.00  0.00    -0.408 OA 
HETATM   37  C   UNK A   2     -10.443   7.023  73.459  1.00  0.00    -0.375 C  
ENDBRANCH  27  36
ENDBRANCH  17  19
ENDBRANCH  15  17
ENDBRANCH   6  15
ENDBRANCH   4   6
ENDBRANCH   3   4
ENDBRANCH   2   3
TORSDOF 11
ENDMDL
MODEL       32
REMARK 921   NORMALIZED FREE ENERGY PREDICTED BY IDOCK:   -6.09 KCAL/MOL
REMARK 922        TOTAL FREE ENERGY PREDICTED BY IDOCK:  -11.91 KCAL/MOL
REMARK 923 INTER-LIGAND FREE ENERGY PREDICTED BY IDOCK:   -9.79 KCAL/MOL
REMARK 924 INTRA-LIGAND FREE ENERGY PREDICTED BY IDOCK:   -2.12 KCAL/MOL
REMARK 927      BINDING AFFINITY PREDICTED BY RF-SCORE:    0.00 PKD
ROOT
HETATM    1  C   UNK A   0     -10.821  19.351  67.059  1.00  0.00    -0.540 C  
HETATM    2  C   UNK A   0      -9.992  19.471  68.323  1.00  0.00    -0.433 C  
ENDROOT
BRANCH   2   3
HETATM    3  O   UNK A   0      -9.906  18.181  68.937  1.00  0.00    -0.350 OA 
BRANCH   3   4
HETATM    4  C   UNK A   0      -8.732  17.504  68.783  1.00  0.00    -0.214 C  
HETATM    5  O   UNK A   0      -7.610  18.001  68.767  1.00  0.00    -0.289 OA 
BRANCH   4   6
HETATM    6  C   UNK A   0      -9.030  16.006  68.707  1.00  0.00    -0.226 C  
BRANCH   6   7
HETATM    7  C   UNK A   0     -10.540  15.775  68.799  1.00  0.00    -0.239 C  
BRANCH   7   8
HETATM    8  C   UNK A   0     -11.090  14.469  69.394  1.00  0.00    -0.297 C  
BRANCH   8   9
HETATM    9  C   UNK A   0     -11.858  14.720  70.702  1.00  0.00    -0.364 A  
HETATM   10  C   UNK A   0     -12.753  13.755  71.187  1.00  0.00    -0.438 A  
HETATM   11  C   UNK A   0     -13.373  13.916  72.439  1.00  0.00    -0.629 A  
HETATM   12  C   UNK A   0     -11.651  15.863  71.503  1.00  0.00    -0.537 A  
HETATM   13  C   UNK A   0     -13.107  15.035  73.229  1.00  0.00    -0.607 A  
HETATM   14  C   UNK A   0     -12.251  16.015  72.753  1.00  0.00    -0.617 A  
ENDBRANCH   8   9
ENDBRANCH   7   8
ENDBRANCH   6   7
BRANCH   6  15
ATOM     15  N   ALA A   1      -8.322  15.286  69.794  1.00  0.00    -0.355 NA 
ATOM     16  H   ALA A   1      -8.753  15.231  70.717  1.00  0.00     0.000 HD 
BRANCH  15  17
ATOM     17  CA  ALA A   1      -6.996  14.639  69.571  1.00  0.00    -0.165 C  
ATOM     18  CB  ALA A   1      -5.768  15.057  70.396  1.00  0.00    -0.143 C  
BRANCH  17  19
ATOM     19  C   ALA A   1      -7.026  13.104  69.276  1.00  0.00     0.027 C  
ATOM     20  O   ALA A   1      -6.629  12.325  70.152  1.00  0.00     0.041 OA 
HETATM   21  C   UNK A   2      -9.358  13.047  66.451  1.00  0.00    -0.189 A  
HETATM   22  C   UNK A   2      -9.898  13.913  65.491  1.00  0.00    -0.213 A  
HETATM   23  N   UNK A   2      -7.605  12.597  68.123  1.00  0.00    -0.121 N  
HETATM   24  C   UNK A   2     -11.159  13.684  64.970  1.00  0.00    -0.332 A  
HETATM   25  C   UNK A   2      -8.002  13.369  66.974  1.00  0.00     0.042 C  
HETATM   26  O   UNK A   2      -6.847   9.165  67.106  1.00  0.00    -0.078 OA 
HETATM   27  C   UNK A   2     -11.908  12.595  65.421  1.00  0.00    -0.427 A  
HETATM   28  C   UNK A   2     -11.358  11.720  66.381  1.00  0.00    -0.361 A  
HETATM   29  O   UNK A   2      -6.937  10.946  65.744  1.00  0.00    -0.093 OA 
HETATM   30  C   UNK A   2      -7.175  10.446  66.840  1.00  0.00    -0.099 C  
HETATM   31  C   UNK A   2     -10.065  11.923  66.876  1.00  0.00    -0.229 A  
HETATM   32  C   UNK A   2      -7.905  11.160  68.006  1.00  0.00    -0.114 C  
HETATM   33  C   UNK A   2      -9.436  10.989  67.887  1.00  0.00    -0.170 C  
BRANCH  24  34
HETATM   34  O   UNK A   2     -11.722  14.447  63.978  1.00  0.00    -0.274 OA 
HETATM   35  C   UNK A   2     -11.703  15.836  64.240  1.00  0.00    -0.162 C  
ENDBRANCH  24  34
BRANCH  27  36
HETATM   36  O   UNK A   2     -13.154  12.500  64.881  1.00  0.00    -0.833 OA 
HETATM   37  C   UNK A   2     -13.280  11.836  63.640  1.00  0.00     0.236 C  
ENDBRANCH  27  36
ENDBRANCH  17  19
ENDBRANCH  15  17
ENDBRANCH   6  15
ENDBRANCH   4   6
ENDBRANCH   3   4
ENDBRANCH   2   3
TORSDOF 11
ENDMDL
MODEL       33
REMARK 921   NORMALIZED FREE ENERGY PREDICTED BY IDOCK:   -6.07 KCAL/MOL
REMARK 922        TOTAL FREE ENERGY PREDICTED BY IDOCK:  -11.89 KCAL/MOL
REMARK 923 INTER-LIGAND FREE ENERGY PREDICTED BY IDOCK:  -10.00 KCAL/MOL
REMARK 924 INTRA-LIGAND FREE ENERGY PREDICTED BY IDOCK:   -1.88 KCAL/MOL
REMARK 927      BINDING AFFINITY PREDICTED BY RF-SCORE:    0.00 PKD
ROOT
HETATM    1  C   UNK A   0     -13.089  14.496  71.370  1.00  0.00    -0.423 C  
HETATM    2  C   UNK A   0     -11.922  15.455  71.234  1.00  0.00    -0.374 C  
ENDROOT
BRANCH   2   3
HETATM    3  O   UNK A   0     -11.512  15.484  69.863  1.00  0.00    -0.275 OA 
BRANCH   3   4
HETATM    4  C   UNK A   0     -10.465  16.301  69.553  1.00  0.00    -0.299 C  
HETATM    5  O   UNK A   0     -10.377  17.495  69.825  1.00  0.00    -0.029 OA 
BRANCH   4   6
HETATM    6  C   UNK A   0      -9.376  15.472  68.871  1.00  0.00    -0.222 C  
BRANCH   6   7
HETATM    7  C   UNK A   0      -8.086  15.540  69.691  1.00  0.00    -0.114 C  
BRANCH   7   8
HETATM    8  C   UNK A   0      -6.778  16.016  69.041  1.00  0.00    -0.157 C  
BRANCH   8   9
HETATM    9  C   UNK A   0      -6.480  17.487  69.373  1.00  0.00    -0.230 A  
HETATM   10  C   UNK A   0      -7.138  18.512  68.678  1.00  0.00    -0.298 A  
HETATM   11  C   UNK A   0      -6.965  19.858  69.049  1.00  0.00    -0.327 A  
HETATM   12  C   UNK A   0      -5.614  17.874  70.419  1.00  0.00    -0.216 A  
HETATM   13  C   UNK A   0      -6.141  20.202  70.120  1.00  0.00    -0.387 A  
HETATM   14  C   UNK A   0      -5.457  19.207  70.799  1.00  0.00    -0.242 A  
ENDBRANCH   8   9
ENDBRANCH   7   8
ENDBRANCH   6   7
BRANCH   6  15
ATOM     15  N   ALA A   1      -9.146  15.963  67.490  1.00  0.00    -0.198 NA 
ATOM     16  H   ALA A   1      -8.192  16.009  67.131  1.00  0.00     0.000 HD 
BRANCH  15  17
ATOM     17  CA  ALA A   1     -10.274  16.392  66.613  1.00  0.00    -0.294 C  
ATOM     18  CB  ALA A   1     -10.447  17.868  66.216  1.00  0.00    -0.320 C  
BRANCH  17  19
ATOM     19  C   ALA A   1     -10.647  15.412  65.451  1.00  0.00    -0.410 C  
ATOM     20  O   ALA A   1     -10.304  15.703  64.299  1.00  0.00     0.182 OA 
HETATM   21  C   UNK A   2     -11.365  12.384  67.384  1.00  0.00    -0.381 A  
HETATM   22  C   UNK A   2     -11.673  11.999  68.695  1.00  0.00    -0.380 A  
HETATM   23  N   UNK A   2     -11.225  14.178  65.700  1.00  0.00    -0.303 N  
HETATM   24  C   UNK A   2     -11.307  10.749  69.164  1.00  0.00    -0.282 A  
HETATM   25  C   UNK A   2     -11.779  13.749  66.959  1.00  0.00    -0.390 C  
HETATM   26  O   UNK A   2     -12.850  12.383  62.957  1.00  0.00    -0.502 OA 
HETATM   27  C   UNK A   2     -10.605   9.876  68.332  1.00  0.00    -0.222 A  
HETATM   28  C   UNK A   2     -10.304  10.262  67.009  1.00  0.00    -0.299 A  
HETATM   29  O   UNK A   2     -13.655  12.597  65.041  1.00  0.00    -0.272 OA 
HETATM   30  C   UNK A   2     -12.713  12.705  64.260  1.00  0.00    -0.305 C  
HETATM   31  C   UNK A   2     -10.713  11.508  66.518  1.00  0.00    -0.318 A  
HETATM   32  C   UNK A   2     -11.280  13.151  64.646  1.00  0.00    -0.340 C  
HETATM   33  C   UNK A   2     -10.428  11.943  65.097  1.00  0.00    -0.330 C  
BRANCH  24  34
HETATM   34  O   UNK A   2     -11.637  10.279  70.411  1.00  0.00    -0.280 OA 
HETATM   35  C   UNK A   2     -12.905  10.703  70.868  1.00  0.00    -0.382 C  
ENDBRANCH  24  34
BRANCH  27  36
HETATM   36  O   UNK A   2     -10.248   8.699  68.915  1.00  0.00    -0.198 OA 
HETATM   37  C   UNK A   2     -10.510   7.508  68.199  1.00  0.00    -0.183 C  
ENDBRANCH  27  36
ENDBRANCH  17  19
ENDBRANCH  15  17
ENDBRANCH   6  15
ENDBRANCH   4   6
ENDBRANCH   3   4
ENDBRANCH   2   3
TORSDOF 11
ENDMDL
MODEL       34
REMARK 921   NORMALIZED FREE ENERGY PREDICTED BY IDOCK:   -6.06 KCAL/MOL
REMARK 922        TOTAL FREE ENERGY PREDICTED BY IDOCK:  -11.86 KCAL/MOL
REMARK 923 INTER-LIGAND FREE ENERGY PREDICTED BY IDOCK:  -10.59 KCAL/MOL
REMARK 924 INTRA-LIGAND FREE ENERGY PREDICTED BY IDOCK:   -1.27 KCAL/MOL
REMARK 927      BINDING AFFINITY PREDICTED BY RF-SCORE:    0.00 PKD
ROOT
HETATM    1  C   UNK A   0     -11.680  12.371  63.952  1.00  0.00    -0.529 C  
HETATM    2  C   UNK A   0     -12.171  13.744  64.370  1.00  0.00    -0.399 C  
ENDROOT
BRANCH   2   3
HETATM    3  O   UNK A   0     -11.045  14.526  64.781  1.00  0.00    -0.382 OA 
BRANCH   3   4
HETATM    4  C   UNK A   0     -11.220  15.878  64.825  1.00  0.00    -0.355 C  
HETATM    5  O   UNK A   0     -11.586  16.588  63.894  1.00  0.00    -1.175 OA 
BRANCH   4   6
HETATM    6  C   UNK A   0     -10.958  16.364  66.251  1.00  0.00     0.052 C  
BRANCH   6   7
HETATM    7  C   UNK A   0      -9.598  17.063  66.317  1.00  0.00    -0.289 C  
BRANCH   7   8
HETATM    8  C   UNK A   0      -9.510  18.596  66.256  1.00  0.00    -0.267 C  
BRANCH   8   9
HETATM    9  C   UNK A   0      -8.345  19.133  67.103  1.00  0.00    -0.300 A  
HETATM   10  C   UNK A   0      -7.888  20.446  66.918  1.00  0.00    -0.342 A  
HETATM   11  C   UNK A   0      -6.904  20.990  67.763  1.00  0.00    -0.315 A  
HETATM   12  C   UNK A   0      -7.743  18.384  68.137  1.00  0.00    -0.304 A  
HETATM   13  C   UNK A   0      -6.366  20.238  68.808  1.00  0.00    -0.347 A  
HETATM   14  C   UNK A   0      -6.780  18.929  68.987  1.00  0.00    -0.324 A  
ENDBRANCH   8   9
ENDBRANCH   7   8
ENDBRANCH   6   7
BRANCH   6  15
ATOM     15  N   ALA A   1     -11.009  15.225  67.200  1.00  0.00    -0.330 NA 
ATOM     16  H   ALA A   1     -11.880  14.707  67.309  1.00  0.00     0.000 HD 
BRANCH  15  17
ATOM     17  CA  ALA A   1      -9.817  14.819  68.000  1.00  0.00    -0.218 C  
ATOM     18  CB  ALA A   1      -9.794  15.000  69.528  1.00  0.00    -0.136 C  
BRANCH  17  19
ATOM     19  C   ALA A   1      -9.102  13.505  67.543  1.00  0.00    -0.214 C  
ATOM     20  O   ALA A   1      -7.978  13.589  67.031  1.00  0.00    -0.101 OA 
HETATM   21  C   UNK A   2     -11.041  11.039  69.435  1.00  0.00    -0.320 A  
HETATM   22  C   UNK A   2     -12.269  10.924  70.100  1.00  0.00    -0.423 A  
HETATM   23  N   UNK A   2      -9.634  12.256  67.819  1.00  0.00    -0.194 N  
HETATM   24  C   UNK A   2     -12.409  10.062  71.173  1.00  0.00    -0.377 A  
HETATM   25  C   UNK A   2     -10.968  11.999  68.300  1.00  0.00    -0.234 C  
HETATM   26  O   UNK A   2      -8.401   9.345  65.977  1.00  0.00    -0.116 OA 
HETATM   27  C   UNK A   2     -11.311   9.319  71.611  1.00  0.00    -0.397 A  
HETATM   28  C   UNK A   2     -10.078   9.429  70.935  1.00  0.00    -0.366 A  
HETATM   29  O   UNK A   2     -10.551   9.787  66.440  1.00  0.00    -0.159 OA 
HETATM   30  C   UNK A   2      -9.362  10.022  66.637  1.00  0.00    -0.166 C  
HETATM   31  C   UNK A   2      -9.947  10.267  69.820  1.00  0.00    -0.222 A  
HETATM   32  C   UNK A   2      -8.813  11.043  67.667  1.00  0.00    -0.131 C  
HETATM   33  C   UNK A   2      -8.646  10.389  69.058  1.00  0.00    -0.158 C  
BRANCH  24  34
HETATM   34  O   UNK A   2     -13.597   9.846  71.825  1.00  0.00    -0.347 OA 
HETATM   35  C   UNK A   2     -14.366   8.790  71.285  1.00  0.00    -0.104 C  
ENDBRANCH  24  34
BRANCH  27  36
HETATM   36  O   UNK A   2     -11.548   8.548  72.708  1.00  0.00    -0.312 OA 
HETATM   37  C   UNK A   2     -11.274   7.164  72.606  1.00  0.00    -0.293 C  
ENDBRANCH  27  36
ENDBRANCH  17  19
ENDBRANCH  15  17
ENDBRANCH   6  15
ENDBRANCH   4   6
ENDBRANCH   3   4
ENDBRANCH   2   3
TORSDOF 11
ENDMDL
MODEL       35
REMARK 921   NORMALIZED FREE ENERGY PREDICTED BY IDOCK:   -6.05 KCAL/MOL
REMARK 922        TOTAL FREE ENERGY PREDICTED BY IDOCK:  -11.84 KCAL/MOL
REMARK 923 INTER-LIGAND FREE ENERGY PREDICTED BY IDOCK:  -10.32 KCAL/MOL
REMARK 924 INTRA-LIGAND FREE ENERGY PREDICTED BY IDOCK:   -1.52 KCAL/MOL
REMARK 927      BINDING AFFINITY PREDICTED BY RF-SCORE:    0.00 PKD
ROOT
HETATM    1  C   UNK A   0     -12.002  13.316  63.793  1.00  0.00    -0.551 C  
HETATM    2  C   UNK A   0     -12.766  13.812  65.005  1.00  0.00    -0.336 C  
ENDROOT
BRANCH   2   3
HETATM    3  O   UNK A   0     -11.825  14.259  65.987  1.00  0.00    -0.369 OA 
BRANCH   3   4
HETATM    4  C   UNK A   0     -11.354  13.322  66.858  1.00  0.00    -0.318 C  
HETATM    5  O   UNK A   0     -11.993  12.381  67.319  1.00  0.00    -0.516 OA 
BRANCH   4   6
HETATM    6  C   UNK A   0      -9.870  13.586  67.115  1.00  0.00    -0.245 C  
BRANCH   6   7
HETATM    7  C   UNK A   0      -9.515  15.008  66.674  1.00  0.00    -0.288 C  
BRANCH   7   8
HETATM    8  C   UNK A   0      -8.917  16.005  67.679  1.00  0.00    -0.193 C  
BRANCH   8   9
HETATM    9  C   UNK A   0      -9.320  17.452  67.353  1.00  0.00    -0.237 A  
HETATM   10  C   UNK A   0     -10.172  17.718  66.271  1.00  0.00    -0.364 A  
HETATM   11  C   UNK A   0     -10.644  19.021  66.031  1.00  0.00    -0.499 A  
HETATM   12  C   UNK A   0      -8.931  18.551  68.149  1.00  0.00    -0.326 A  
HETATM   13  C   UNK A   0     -10.280  20.076  66.868  1.00  0.00    -0.595 A  
HETATM   14  C   UNK A   0      -9.413  19.841  67.923  1.00  0.00    -0.458 A  
ENDBRANCH   8   9
ENDBRANCH   7   8
ENDBRANCH   6   7
BRANCH   6  15
ATOM     15  N   ALA A   1      -9.038  12.590  66.394  1.00  0.00    -0.378 NA 
ATOM     16  H   ALA A   1      -9.221  12.411  65.408  1.00  0.00     0.000 HD 
BRANCH  15  17
ATOM     17  CA  ALA A   1      -7.942  11.845  67.079  1.00  0.00    -0.158 C  
ATOM     18  CB  ALA A   1      -7.506  12.220  68.506  1.00  0.00    -0.113 C  
BRANCH  17  19
ATOM     19  C   ALA A   1      -7.904  10.302  66.827  1.00  0.00    -0.114 C  
ATOM     20  O   ALA A   1      -6.966   9.831  66.173  1.00  0.00    -0.089 OA 
HETATM   21  C   UNK A   2     -10.224   9.180  69.432  1.00  0.00    -0.212 A  
HETATM   22  C   UNK A   2     -11.237   9.689  70.254  1.00  0.00    -0.324 A  
HETATM   23  N   UNK A   2      -8.813   9.446  67.429  1.00  0.00    -0.128 N  
HETATM   24  C   UNK A   2     -11.481   9.129  71.496  1.00  0.00    -0.367 A  
HETATM   25  C   UNK A   2     -10.014   9.846  68.117  1.00  0.00    -0.151 C  
HETATM   26  O   UNK A   2      -9.212   6.055  66.113  1.00  0.00    -0.157 OA 
HETATM   27  C   UNK A   2     -10.695   8.065  71.942  1.00  0.00    -0.251 A  
HETATM   28  C   UNK A   2      -9.681   7.548  71.108  1.00  0.00    -0.168 A  
HETATM   29  O   UNK A   2     -10.878   7.423  66.737  1.00  0.00    -0.303 OA 
HETATM   30  C   UNK A   2      -9.678   7.161  66.729  1.00  0.00    -0.192 C  
HETATM   31  C   UNK A   2      -9.463   8.083  69.833  1.00  0.00    -0.160 A  
HETATM   32  C   UNK A   2      -8.579   7.992  67.439  1.00  0.00    -0.125 C  
HETATM   33  C   UNK A   2      -8.401   7.536  68.904  1.00  0.00    -0.129 C  
BRANCH  24  34
HETATM   34  O   UNK A   2     -12.500   9.529  72.323  1.00  0.00    -0.322 OA 
HETATM   35  C   UNK A   2     -13.161  10.704  71.896  1.00  0.00    -0.458 C  
ENDBRANCH  24  34
BRANCH  27  36
HETATM   36  O   UNK A   2     -10.986   7.631  73.199  1.00  0.00    -0.392 OA 
HETATM   37  C   UNK A   2      -9.955   6.991  73.926  1.00  0.00    -0.332 C  
ENDBRANCH  27  36
ENDBRANCH  17  19
ENDBRANCH  15  17
ENDBRANCH   6  15
ENDBRANCH   4   6
ENDBRANCH   3   4
ENDBRANCH   2   3
TORSDOF 11
ENDMDL
MODEL       36
REMARK 921   NORMALIZED FREE ENERGY PREDICTED BY IDOCK:   -6.04 KCAL/MOL
REMARK 922        TOTAL FREE ENERGY PREDICTED BY IDOCK:  -11.83 KCAL/MOL
REMARK 923 INTER-LIGAND FREE ENERGY PREDICTED BY IDOCK:  -10.02 KCAL/MOL
REMARK 924 INTRA-LIGAND FREE ENERGY PREDICTED BY IDOCK:   -1.82 KCAL/MOL
REMARK 927      BINDING AFFINITY PREDICTED BY RF-SCORE:    0.00 PKD
ROOT
HETATM    1  C   UNK A   0      -7.099  15.910  67.392  1.00  0.00    -0.230 C  
HETATM    2  C   UNK A   0      -7.860  16.736  66.374  1.00  0.00    -0.318 C  
ENDROOT
BRANCH   2   3
HETATM    3  O   UNK A   0      -9.063  17.217  66.983  1.00  0.00    -0.220 OA 
BRANCH   3   4
HETATM    4  C   UNK A   0     -10.239  16.800  66.433  1.00  0.00    -0.323 C  
HETATM    5  O   UNK A   0     -10.603  16.995  65.277  1.00  0.00    -0.647 OA 
BRANCH   4   6
HETATM    6  C   UNK A   0     -11.008  15.980  67.470  1.00  0.00    -0.261 C  
BRANCH   6   7
HETATM    7  C   UNK A   0     -10.805  16.586  68.861  1.00  0.00    -0.336 C  
BRANCH   7   8
HETATM    8  C   UNK A   0     -10.455  15.684  70.055  1.00  0.00    -0.333 C  
BRANCH   8   9
HETATM    9  C   UNK A   0     -11.687  15.393  70.928  1.00  0.00    -0.395 A  
HETATM   10  C   UNK A   0     -11.553  15.285  72.320  1.00  0.00    -0.530 A  
HETATM   11  C   UNK A   0     -12.685  15.137  73.141  1.00  0.00    -0.592 A  
HETATM   12  C   UNK A   0     -12.993  15.302  70.400  1.00  0.00    -0.307 A  
HETATM   13  C   UNK A   0     -13.966  15.101  72.590  1.00  0.00    -0.521 A  
HETATM   14  C   UNK A   0     -14.118  15.173  71.215  1.00  0.00    -0.537 A  
ENDBRANCH   8   9
ENDBRANCH   7   8
ENDBRANCH   6   7
BRANCH   6  15
ATOM     15  N   ALA A   1     -10.558  14.566  67.443  1.00  0.00    -0.268 NA 
ATOM     16  H   ALA A   1      -9.561  14.361  67.496  1.00  0.00     0.000 HD 
BRANCH  15  17
ATOM     17  CA  ALA A   1     -11.530  13.438  67.338  1.00  0.00    -0.333 C  
ATOM     18  CB  ALA A   1     -12.024  12.949  65.966  1.00  0.00    -0.505 C  
BRANCH  17  19
ATOM     19  C   ALA A   1     -11.328  12.267  68.354  1.00  0.00    -0.292 C  
ATOM     20  O   ALA A   1     -12.183  12.089  69.231  1.00  0.00    -0.215 OA 
HETATM   21  C   UNK A   2      -8.859  10.266  66.530  1.00  0.00    -0.150 A  
HETATM   22  C   UNK A   2      -7.936  10.398  65.485  1.00  0.00    -0.153 A  
HETATM   23  N   UNK A   2     -10.297  11.352  68.212  1.00  0.00    -0.186 N  
HETATM   24  C   UNK A   2      -7.607   9.309  64.697  1.00  0.00    -0.106 A  
HETATM   25  C   UNK A   2      -9.172  11.487  67.322  1.00  0.00    -0.167 C  
HETATM   26  O   UNK A   2      -9.379   9.241  71.056  1.00  0.00    -0.259 OA 
HETATM   27  C   UNK A   2      -8.218   8.076  64.932  1.00  0.00    -0.134 A  
HETATM   28  C   UNK A   2      -9.140   7.943  65.990  1.00  0.00    -0.181 A  
HETATM   29  O   UNK A   2      -7.944  10.286  69.683  1.00  0.00    -0.160 OA 
HETATM   30  C   UNK A   2      -9.089   9.911  69.922  1.00  0.00    -0.210 C  
HETATM   31  C   UNK A   2      -9.440   9.032  66.818  1.00  0.00    -0.238 A  
HETATM   32  C   UNK A   2     -10.303  10.093  68.975  1.00  0.00    -0.212 C  
HETATM   33  C   UNK A   2     -10.406   8.917  67.977  1.00  0.00    -0.271 C  
BRANCH  24  34
HETATM   34  O   UNK A   2      -6.661   9.348  63.704  1.00  0.00    -0.091 OA 
HETATM   35  C   UNK A   2      -6.968  10.240  62.651  1.00  0.00    -0.135 C  
ENDBRANCH  24  34
BRANCH  27  36
HETATM   36  O   UNK A   2      -7.861   7.091  64.062  1.00  0.00    -0.118 OA 
HETATM   37  C   UNK A   2      -7.422   5.863  64.608  1.00  0.00    -0.079 C  
ENDBRANCH  27  36
ENDBRANCH  17  19
ENDBRANCH  15  17
ENDBRANCH   6  15
ENDBRANCH   4   6
ENDBRANCH   3   4
ENDBRANCH   2   3
TORSDOF 11
ENDMDL
MODEL       37
REMARK 921   NORMALIZED FREE ENERGY PREDICTED BY IDOCK:   -6.03 KCAL/MOL
REMARK 922        TOTAL FREE ENERGY PREDICTED BY IDOCK:  -11.82 KCAL/MOL
REMARK 923 INTER-LIGAND FREE ENERGY PREDICTED BY IDOCK:  -10.04 KCAL/MOL
REMARK 924 INTRA-LIGAND FREE ENERGY PREDICTED BY IDOCK:   -1.78 KCAL/MOL
REMARK 927      BINDING AFFINITY PREDICTED BY RF-SCORE:    0.00 PKD
ROOT
HETATM    1  C   UNK A   0      -7.071  17.019  66.291  1.00  0.00    -0.236 C  
HETATM    2  C   UNK A   0      -7.254  15.827  67.210  1.00  0.00    -0.219 C  
ENDROOT
BRANCH   2   3
HETATM    3  O   UNK A   0      -8.422  15.109  66.801  1.00  0.00    -0.242 OA 
BRANCH   3   4
HETATM    4  C   UNK A   0      -9.212  14.605  67.792  1.00  0.00    -0.196 C  
HETATM    5  O   UNK A   0      -8.821  14.029  68.803  1.00  0.00    -0.140 OA 
BRANCH   4   6
HETATM    6  C   UNK A   0     -10.671  14.938  67.479  1.00  0.00    -0.276 C  
BRANCH   6   7
HETATM    7  C   UNK A   0     -11.175  16.010  68.447  1.00  0.00    -0.364 C  
BRANCH   7   8
HETATM    8  C   UNK A   0     -10.190  16.996  69.095  1.00  0.00    -0.288 C  
BRANCH   8   9
HETATM    9  C   UNK A   0      -9.945  18.224  68.204  1.00  0.00    -0.377 A  
HETATM   10  C   UNK A   0     -10.621  18.352  66.981  1.00  0.00    -0.400 A  
HETATM   11  C   UNK A   0     -10.498  19.522  66.212  1.00  0.00    -0.609 A  
HETATM   12  C   UNK A   0      -9.114  19.297  68.592  1.00  0.00    -0.428 A  
HETATM   13  C   UNK A   0      -9.707  20.584  66.650  1.00  0.00    -0.407 A  
HETATM   14  C   UNK A   0      -9.005  20.466  67.838  1.00  0.00    -0.206 A  
ENDBRANCH   8   9
ENDBRANCH   7   8
ENDBRANCH   6   7
BRANCH   6  15
ATOM     15  N   ALA A   1     -11.508  13.715  67.568  1.00  0.00    -0.311 NA 
ATOM     16  H   ALA A   1     -11.916  13.457  68.467  1.00  0.00     0.000 HD 
BRANCH  15  17
ATOM     17  CA  ALA A   1     -11.767  12.855  66.377  1.00  0.00    -0.395 C  
ATOM     18  CB  ALA A   1     -12.496  13.416  65.144  1.00  0.00    -0.509 C  
BRANCH  17  19
ATOM     19  C   ALA A   1     -10.626  11.856  65.995  1.00  0.00    -0.265 C  
ATOM     20  O   ALA A   1      -9.851  12.163  65.080  1.00  0.00    -0.239 OA 
HETATM   21  C   UNK A   2     -10.570   9.776  69.010  1.00  0.00    -0.238 A  
HETATM   22  C   UNK A   2     -11.380   9.462  70.109  1.00  0.00    -0.220 A  
HETATM   23  N   UNK A   2     -10.384  10.712  66.738  1.00  0.00    -0.236 N  
HETATM   24  C   UNK A   2     -10.813   9.103  71.319  1.00  0.00    -0.332 A  
HETATM   25  C   UNK A   2     -11.255  10.167  67.748  1.00  0.00    -0.133 C  
HETATM   26  O   UNK A   2      -8.345   8.041  65.290  1.00  0.00    -0.144 OA 
HETATM   27  C   UNK A   2      -9.424   9.078  71.452  1.00  0.00    -0.264 A  
HETATM   28  C   UNK A   2      -8.610   9.385  70.342  1.00  0.00    -0.266 A  
HETATM   29  O   UNK A   2     -10.250   7.757  66.441  1.00  0.00    -0.176 OA 
HETATM   30  C   UNK A   2      -9.327   8.491  66.097  1.00  0.00    -0.214 C  
HETATM   31  C   UNK A   2      -9.181   9.704  69.104  1.00  0.00    -0.168 A  
HETATM   32  C   UNK A   2      -9.132   9.957  66.563  1.00  0.00    -0.152 C  
HETATM   33  C   UNK A   2      -8.337  10.015  67.887  1.00  0.00    -0.117 C  
BRANCH  24  34
HETATM   34  O   UNK A   2     -11.543   8.715  72.415  1.00  0.00    -0.369 OA 
HETATM   35  C   UNK A   2     -12.942   8.745  72.215  1.00  0.00    -0.408 C  
ENDBRANCH  24  34
BRANCH  27  36
HETATM   36  O   UNK A   2      -8.978   8.766  72.701  1.00  0.00    -0.380 OA 
HETATM   37  C   UNK A   2      -7.822   7.958  72.800  1.00  0.00    -0.118 C  
ENDBRANCH  27  36
ENDBRANCH  17  19
ENDBRANCH  15  17
ENDBRANCH   6  15
ENDBRANCH   4   6
ENDBRANCH   3   4
ENDBRANCH   2   3
TORSDOF 11
ENDMDL
MODEL       38
REMARK 921   NORMALIZED FREE ENERGY PREDICTED BY IDOCK:   -6.02 KCAL/MOL
REMARK 922        TOTAL FREE ENERGY PREDICTED BY IDOCK:  -11.79 KCAL/MOL
REMARK 923 INTER-LIGAND FREE ENERGY PREDICTED BY IDOCK:   -9.62 KCAL/MOL
REMARK 924 INTRA-LIGAND FREE ENERGY PREDICTED BY IDOCK:   -2.18 KCAL/MOL
REMARK 927      BINDING AFFINITY PREDICTED BY RF-SCORE:    0.00 PKD
ROOT
HETATM    1  C   UNK A   0     -10.535  15.755  69.913  1.00  0.00    -0.324 C  
HETATM    2  C   UNK A   0     -11.783  15.169  69.282  1.00  0.00    -0.329 C  
ENDROOT
BRANCH   2   3
HETATM    3  O   UNK A   0     -11.774  13.752  69.482  1.00  0.00    -0.284 OA 
BRANCH   3   4
HETATM    4  C   UNK A   0     -11.830  12.974  68.364  1.00  0.00    -0.334 C  
HETATM    5  O   UNK A   0     -12.003  13.372  67.216  1.00  0.00    -0.362 OA 
BRANCH   4   6
HETATM    6  C   UNK A   0     -11.566  11.520  68.759  1.00  0.00    -0.316 C  
BRANCH   6   7
HETATM    7  C   UNK A   0     -11.269  10.690  67.508  1.00  0.00    -0.326 C  
BRANCH   7   8
HETATM    8  C   UNK A   0      -9.833  10.577  66.974  1.00  0.00    -0.223 C  
BRANCH   8   9
HETATM    9  C   UNK A   0      -9.794  10.585  65.438  1.00  0.00    -0.335 A  
HETATM   10  C   UNK A   0     -10.430  11.611  64.724  1.00  0.00    -0.346 A  
HETATM   11  C   UNK A   0     -10.305  11.698  63.325  1.00  0.00    -0.444 A  
HETATM   12  C   UNK A   0      -9.070   9.634  64.686  1.00  0.00    -0.286 A  
HETATM   13  C   UNK A   0      -9.541  10.769  62.619  1.00  0.00    -0.296 A  
HETATM   14  C   UNK A   0      -8.931   9.730  63.301  1.00  0.00    -0.274 A  
ENDBRANCH   8   9
ENDBRANCH   7   8
ENDBRANCH   6   7
BRANCH   6  15
ATOM     15  N   ALA A   1     -12.732  10.967  69.491  1.00  0.00    -0.498 NA 
ATOM     16  H   ALA A   1     -13.597  10.787  68.984  1.00  0.00     0.000 HD 
BRANCH  15  17
ATOM     17  CA  ALA A   1     -12.668  10.667  70.952  1.00  0.00    -0.404 C  
ATOM     18  CB  ALA A   1     -13.350  11.591  71.975  1.00  0.00    -0.397 C  
BRANCH  17  19
ATOM     19  C   ALA A   1     -12.772   9.157  71.345  1.00  0.00    -0.318 C  
ATOM     20  O   ALA A   1     -13.878   8.705  71.668  1.00  0.00    -0.382 OA 
HETATM   21  C   UNK A   2      -9.652   7.907  69.888  1.00  0.00    -0.168 A  
HETATM   22  C   UNK A   2      -8.416   8.386  69.432  1.00  0.00    -0.125 A  
HETATM   23  N   UNK A   2     -11.695   8.296  71.209  1.00  0.00    -0.279 N  
HETATM   24  C   UNK A   2      -7.732   7.719  68.431  1.00  0.00    -0.119 A  
HETATM   25  C   UNK A   2     -10.333   8.689  70.956  1.00  0.00    -0.217 C  
HETATM   26  O   UNK A   2     -11.753   5.080  72.953  1.00  0.00    -0.256 OA 
HETATM   27  C   UNK A   2      -8.288   6.575  67.856  1.00  0.00    -0.115 A  
HETATM   28  C   UNK A   2      -9.527   6.090  68.324  1.00  0.00    -0.117 A  
HETATM   29  O   UNK A   2      -9.993   6.466  72.818  1.00  0.00    -0.170 OA 
HETATM   30  C   UNK A   2     -11.111   6.142  72.425  1.00  0.00    -0.275 C  
HETATM   31  C   UNK A   2     -10.200   6.737  69.367  1.00  0.00    -0.204 A  
HETATM   32  C   UNK A   2     -11.890   6.838  71.280  1.00  0.00    -0.348 C  
HETATM   33  C   UNK A   2     -11.518   6.229  69.909  1.00  0.00    -0.459 C  
BRANCH  24  34
HETATM   34  O   UNK A   2      -6.488   8.088  67.985  1.00  0.00    -0.053 OA 
HETATM   35  C   UNK A   2      -6.353   9.474  67.737  1.00  0.00    -0.057 C  
ENDBRANCH  24  34
BRANCH  27  36
HETATM   36  O   UNK A   2      -7.555   6.034  66.844  1.00  0.00    -0.093 OA 
HETATM   37  C   UNK A   2      -7.389   4.629  66.835  1.00  0.00    -0.081 C  
ENDBRANCH  27  36
ENDBRANCH  17  19
ENDBRANCH  15  17
ENDBRANCH   6  15
ENDBRANCH   4   6
ENDBRANCH   3   4
ENDBRANCH   2   3
TORSDOF 11
ENDMDL
MODEL       39
REMARK 921   NORMALIZED FREE ENERGY PREDICTED BY IDOCK:   -5.98 KCAL/MOL
REMARK 922        TOTAL FREE ENERGY PREDICTED BY IDOCK:  -11.74 KCAL/MOL
REMARK 923 INTER-LIGAND FREE ENERGY PREDICTED BY IDOCK:   -9.89 KCAL/MOL
REMARK 924 INTRA-LIGAND FREE ENERGY PREDICTED BY IDOCK:   -1.85 KCAL/MOL
REMARK 927      BINDING AFFINITY PREDICTED BY RF-SCORE:    0.00 PKD
ROOT
HETATM    1  C   UNK A   0     -12.146  14.776  69.992  1.00  0.00    -0.380 C  
HETATM    2  C   UNK A   0     -11.321  16.009  70.310  1.00  0.00    -0.382 C  
ENDROOT
BRANCH   2   3
HETATM    3  O   UNK A   0     -10.028  15.858  69.717  1.00  0.00    -0.267 OA 
BRANCH   3   4
HETATM    4  C   UNK A   0      -9.759  16.630  68.624  1.00  0.00    -0.248 C  
HETATM    5  O   UNK A   0      -9.854  17.852  68.563  1.00  0.00    -0.329 OA 
BRANCH   4   6
HETATM    6  C   UNK A   0      -9.245  15.731  67.499  1.00  0.00    -0.204 C  
BRANCH   6   7
HETATM    7  C   UNK A   0     -10.290  15.649  66.385  1.00  0.00    -0.303 C  
BRANCH   7   8
HETATM    8  C   UNK A   0     -11.479  14.682  66.506  1.00  0.00    -0.354 C  
BRANCH   8   9
HETATM    9  C   UNK A   0     -11.501  13.662  65.357  1.00  0.00    -0.322 A  
HETATM   10  C   UNK A   0     -10.319  13.347  64.671  1.00  0.00    -0.400 A  
HETATM   11  C   UNK A   0     -10.300  12.332  63.698  1.00  0.00    -0.463 A  
HETATM   12  C   UNK A   0     -12.663  12.947  64.992  1.00  0.00    -0.474 A  
HETATM   13  C   UNK A   0     -11.455  11.611  63.398  1.00  0.00    -0.360 A  
HETATM   14  C   UNK A   0     -12.641  11.927  64.040  1.00  0.00    -0.388 A  
ENDBRANCH   8   9
ENDBRANCH   7   8
ENDBRANCH   6   7
BRANCH   6  15
ATOM     15  N   ALA A   1      -8.930  14.379  68.024  1.00  0.00    -0.176 NA 
ATOM     16  H   ALA A   1      -9.671  13.832  68.462  1.00  0.00     0.000 HD 
BRANCH  15  17
ATOM     17  CA  ALA A   1      -7.558  13.802  67.927  1.00  0.00    -0.156 C  
ATOM     18  CB  ALA A   1      -6.503  14.091  69.009  1.00  0.00    -0.101 C  
BRANCH  17  19
ATOM     19  C   ALA A   1      -7.469  12.339  67.381  1.00  0.00    -0.160 C  
ATOM     20  O   ALA A   1      -6.408  11.962  66.868  1.00  0.00    -0.153 OA 
HETATM   21  C   UNK A   2     -10.322  10.839  69.123  1.00  0.00    -0.238 A  
HETATM   22  C   UNK A   2     -11.494  11.225  69.787  1.00  0.00    -0.386 A  
HETATM   23  N   UNK A   2      -8.494  11.427  67.579  1.00  0.00    -0.133 N  
HETATM   24  C   UNK A   2     -12.014  10.443  70.804  1.00  0.00    -0.363 A  
HETATM   25  C   UNK A   2      -9.817  11.741  68.052  1.00  0.00    -0.183 C  
HETATM   26  O   UNK A   2      -8.595   8.387  65.544  1.00  0.00    -0.165 OA 
HETATM   27  C   UNK A   2     -11.353   9.274  71.185  1.00  0.00    -0.342 A  
HETATM   28  C   UNK A   2     -10.179   8.883  70.509  1.00  0.00    -0.247 A  
HETATM   29  O   UNK A   2     -10.354   9.684  66.050  1.00  0.00    -0.218 OA 
HETATM   30  C   UNK A   2      -9.185   9.371  66.254  1.00  0.00    -0.180 C  
HETATM   31  C   UNK A   2      -9.675   9.648  69.450  1.00  0.00    -0.203 A  
HETATM   32  C   UNK A   2      -8.272   9.990  67.344  1.00  0.00    -0.118 C  
HETATM   33  C   UNK A   2      -8.432   9.244  68.688  1.00  0.00    -0.123 C  
BRANCH  24  34
HETATM   34  O   UNK A   2     -13.193  10.721  71.449  1.00  0.00    -0.364 OA 
HETATM   35  C   UNK A   2     -13.252  12.019  72.005  1.00  0.00    -0.375 C  
ENDBRANCH  24  34
BRANCH  27  36
HETATM   36  O   UNK A   2     -11.923   8.615  72.232  1.00  0.00    -0.364 OA 
HETATM   37  C   UNK A   2     -12.380   7.297  72.003  1.00  0.00    -0.263 C  
ENDBRANCH  27  36
ENDBRANCH  17  19
ENDBRANCH  15  17
ENDBRANCH   6  15
ENDBRANCH   4   6
ENDBRANCH   3   4
ENDBRANCH   2   3
TORSDOF 11
ENDMDL
MODEL       40
REMARK 921   NORMALIZED FREE ENERGY PREDICTED BY IDOCK:   -5.97 KCAL/MOL
REMARK 922        TOTAL FREE ENERGY PREDICTED BY IDOCK:  -11.72 KCAL/MOL
REMARK 923 INTER-LIGAND FREE ENERGY PREDICTED BY IDOCK:   -8.37 KCAL/MOL
REMARK 924 INTRA-LIGAND FREE ENERGY PREDICTED BY IDOCK:   -3.35 KCAL/MOL
REMARK 927      BINDING AFFINITY PREDICTED BY RF-SCORE:    0.00 PKD
ROOT
HETATM    1  C   UNK A   0      -5.919  10.698  65.246  1.00  0.00    -0.090 C  
HETATM    2  C   UNK A   0      -5.880   9.259  64.770  1.00  0.00    -0.064 C  
ENDROOT
BRANCH   2   3
HETATM    3  O   UNK A   0      -6.820   9.105  63.701  1.00  0.00    -0.089 OA 
BRANCH   3   4
HETATM    4  C   UNK A   0      -7.874   8.269  63.926  1.00  0.00    -0.147 C  
HETATM    5  O   UNK A   0      -8.166   7.282  63.257  1.00  0.00    -0.058 OA 
BRANCH   4   6
HETATM    6  C   UNK A   0      -8.597   8.714  65.197  1.00  0.00    -0.173 C  
BRANCH   6   7
HETATM    7  C   UNK A   0      -8.937   7.492  66.054  1.00  0.00    -0.164 C  
BRANCH   7   8
HETATM    8  C   UNK A   0     -10.207   7.480  66.919  1.00  0.00    -0.359 C  
BRANCH   8   9
HETATM    9  C   UNK A   0      -9.987   6.728  68.241  1.00  0.00    -0.153 A  
HETATM   10  C   UNK A   0     -11.088   6.280  68.986  1.00  0.00    -0.446 A  
HETATM   11  C   UNK A   0     -10.904   5.489  70.135  1.00  0.00    -0.299 A  
HETATM   12  C   UNK A   0      -8.705   6.387  68.723  1.00  0.00    -0.122 A  
HETATM   13  C   UNK A   0      -9.623   5.129  70.555  1.00  0.00    -0.244 A  
HETATM   14  C   UNK A   0      -8.522   5.588  69.852  1.00  0.00    -0.116 A  
ENDBRANCH   8   9
ENDBRANCH   7   8
ENDBRANCH   6   7
BRANCH   6  15
ATOM     15  N   ALA A   1      -9.826   9.470  64.852  1.00  0.00    -0.396 NA 
ATOM     16  H   ALA A   1     -10.708   8.968  64.754  1.00  0.00     0.000 HD 
BRANCH  15  17
ATOM     17  CA  ALA A   1      -9.803  10.948  64.643  1.00  0.00    -0.294 C  
ATOM     18  CB  ALA A   1      -9.729  11.542  63.226  1.00  0.00    -0.405 C  
BRANCH  17  19
ATOM     19  C   ALA A   1     -10.716  11.786  65.597  1.00  0.00    -0.280 C  
ATOM     20  O   ALA A   1     -11.760  12.271  65.142  1.00  0.00    -0.362 OA 
HETATM   21  C   UNK A   2      -9.433  10.671  68.843  1.00  0.00    -0.199 A  
HETATM   22  C   UNK A   2      -8.305  10.047  69.391  1.00  0.00    -0.169 A  
HETATM   23  N   UNK A   2     -10.454  11.883  66.954  1.00  0.00    -0.217 N  
HETATM   24  C   UNK A   2      -8.416   9.274  70.533  1.00  0.00    -0.216 A  
HETATM   25  C   UNK A   2      -9.235  11.473  67.604  1.00  0.00    -0.171 C  
HETATM   26  O   UNK A   2     -12.069  14.526  68.902  1.00  0.00    -0.301 OA 
HETATM   27  C   UNK A   2      -9.666   9.097  71.129  1.00  0.00    -0.290 A  
HETATM   28  C   UNK A   2     -10.798   9.733  70.582  1.00  0.00    -0.396 A  
HETATM   29  O   UNK A   2      -9.916  13.911  69.059  1.00  0.00    -0.124 OA 
HETATM   30  C   UNK A   2     -11.051  13.676  68.652  1.00  0.00    -0.272 C  
HETATM   31  C   UNK A   2     -10.681  10.553  69.452  1.00  0.00    -0.277 A  
HETATM   32  C   UNK A   2     -11.475  12.401  67.879  1.00  0.00    -0.328 C  
HETATM   33  C   UNK A   2     -11.872  11.270  68.854  1.00  0.00    -0.413 C  
BRANCH  24  34
HETATM   34  O   UNK A   2      -7.345   8.693  71.164  1.00  0.00    -0.070 OA 
HETATM   35  C   UNK A   2      -6.139   8.757  70.429  1.00  0.00    -0.034 C  
ENDBRANCH  24  34
BRANCH  27  36
HETATM   36  O   UNK A   2      -9.665   8.273  72.214  1.00  0.00    -0.233 OA 
HETATM   37  C   UNK A   2     -10.914   7.960  72.798  1.00  0.00    -0.393 C  
ENDBRANCH  27  36
ENDBRANCH  17  19
ENDBRANCH  15  17
ENDBRANCH   6  15
ENDBRANCH   4   6
ENDBRANCH   3   4
ENDBRANCH   2   3
TORSDOF 11
ENDMDL
MODEL       41
REMARK 921   NORMALIZED FREE ENERGY PREDICTED BY IDOCK:   -5.94 KCAL/MOL
REMARK 922        TOTAL FREE ENERGY PREDICTED BY IDOCK:  -11.66 KCAL/MOL
REMARK 923 INTER-LIGAND FREE ENERGY PREDICTED BY IDOCK:  -10.07 KCAL/MOL
REMARK 924 INTRA-LIGAND FREE ENERGY PREDICTED BY IDOCK:   -1.59 KCAL/MOL
REMARK 927      BINDING AFFINITY PREDICTED BY RF-SCORE:    0.00 PKD
ROOT
HETATM    1  C   UNK A   0     -12.311  14.535  64.216  1.00  0.00    -0.396 C  
HETATM    2  C   UNK A   0     -12.239  13.208  63.487  1.00  0.00    -0.476 C  
ENDROOT
BRANCH   2   3
HETATM    3  O   UNK A   0     -12.110  12.161  64.455  1.00  0.00    -0.376 OA 
BRANCH   3   4
HETATM    4  C   UNK A   0     -10.935  11.469  64.458  1.00  0.00    -0.302 C  
HETATM    5  O   UNK A   0     -10.346  11.043  63.469  1.00  0.00    -0.352 OA 
BRANCH   4   6
HETATM    6  C   UNK A   0     -10.422  11.370  65.895  1.00  0.00    -0.258 C  
BRANCH   6   7
HETATM    7  C   UNK A   0     -11.114  12.423  66.764  1.00  0.00    -0.333 C  
BRANCH   7   8
HETATM    8  C   UNK A   0     -11.683  12.042  68.140  1.00  0.00    -0.398 C  
BRANCH   8   9
HETATM    9  C   UNK A   0     -11.909  13.278  69.024  1.00  0.00    -0.365 A  
HETATM   10  C   UNK A   0     -12.307  13.124  70.361  1.00  0.00    -0.351 A  
HETATM   11  C   UNK A   0     -12.403  14.237  71.215  1.00  0.00    -0.439 A  
HETATM   12  C   UNK A   0     -11.658  14.594  68.578  1.00  0.00    -0.346 A  
HETATM   13  C   UNK A   0     -12.099  15.518  70.754  1.00  0.00    -0.435 A  
HETATM   14  C   UNK A   0     -11.736  15.697  69.429  1.00  0.00    -0.395 A  
ENDBRANCH   8   9
ENDBRANCH   7   8
ENDBRANCH   6   7
BRANCH   6  15
ATOM     15  N   ALA A   1      -8.949  11.548  65.930  1.00  0.00    -0.320 NA 
ATOM     16  H   ALA A   1      -8.513  12.207  65.285  1.00  0.00     0.000 HD 
BRANCH  15  17
ATOM     17  CA  ALA A   1      -8.091  10.785  66.882  1.00  0.00    -0.132 C  
ATOM     18  CB  ALA A   1      -7.940  11.241  68.344  1.00  0.00    -0.140 C  
BRANCH  17  19
ATOM     19  C   ALA A   1      -8.131   9.228  66.742  1.00  0.00    -0.112 C  
ATOM     20  O   ALA A   1      -7.260   8.672  66.062  1.00  0.00    -0.082 OA 
HETATM   21  C   UNK A   2     -10.305   8.394  69.572  1.00  0.00    -0.219 A  
HETATM   22  C   UNK A   2     -11.238   9.003  70.420  1.00  0.00    -0.275 A  
HETATM   23  N   UNK A   2      -9.028   8.457  67.464  1.00  0.00    -0.134 N  
HETATM   24  C   UNK A   2     -11.415   8.543  71.713  1.00  0.00    -0.310 A  
HETATM   25  C   UNK A   2     -10.161   8.956  68.201  1.00  0.00    -0.201 C  
HETATM   26  O   UNK A   2      -9.649   5.003  66.429  1.00  0.00    -0.140 OA 
HETATM   27  C   UNK A   2     -10.642   7.479  72.182  1.00  0.00    -0.221 A  
HETATM   28  C   UNK A   2      -9.710   6.861  71.322  1.00  0.00    -0.175 A  
HETATM   29  O   UNK A   2     -11.213   6.482  67.062  1.00  0.00    -0.397 OA 
HETATM   30  C   UNK A   2     -10.028   6.168  66.992  1.00  0.00    -0.162 C  
HETATM   31  C   UNK A   2      -9.561   7.296  69.999  1.00  0.00    -0.167 A  
HETATM   32  C   UNK A   2      -8.850   6.999  67.564  1.00  0.00    -0.119 C  
HETATM   33  C   UNK A   2      -8.588   6.639  69.044  1.00  0.00    -0.130 C  
BRANCH  24  34
HETATM   34  O   UNK A   2     -12.358   9.045  72.575  1.00  0.00    -0.320 OA 
HETATM   35  C   UNK A   2     -13.690   8.738  72.213  1.00  0.00    -0.440 C  
ENDBRANCH  24  34
BRANCH  27  36
HETATM   36  O   UNK A   2     -10.861   7.148  73.484  1.00  0.00    -0.361 OA 
HETATM   37  C   UNK A   2     -10.193   6.010  73.991  1.00  0.00    -0.288 C  
ENDBRANCH  27  36
ENDBRANCH  17  19
ENDBRANCH  15  17
ENDBRANCH   6  15
ENDBRANCH   4   6
ENDBRANCH   3   4
ENDBRANCH   2   3
TORSDOF 11
ENDMDL
MODEL       42
REMARK 921   NORMALIZED FREE ENERGY PREDICTED BY IDOCK:   -5.93 KCAL/MOL
REMARK 922        TOTAL FREE ENERGY PREDICTED BY IDOCK:  -11.65 KCAL/MOL
REMARK 923 INTER-LIGAND FREE ENERGY PREDICTED BY IDOCK:   -9.83 KCAL/MOL
REMARK 924 INTRA-LIGAND FREE ENERGY PREDICTED BY IDOCK:   -1.82 KCAL/MOL
REMARK 927      BINDING AFFINITY PREDICTED BY RF-SCORE:    0.00 PKD
ROOT
HETATM    1  C   UNK A   0     -12.382  12.516  64.431  1.00  0.00    -0.537 C  
HETATM    2  C   UNK A   0     -12.168  13.979  64.096  1.00  0.00    -0.396 C  
ENDROOT
BRANCH   2   3
HETATM    3  O   UNK A   0     -11.736  14.661  65.278  1.00  0.00    -0.353 OA 
BRANCH   3   4
HETATM    4  C   UNK A   0     -11.267  15.932  65.118  1.00  0.00    -0.224 C  
HETATM    5  O   UNK A   0     -11.407  16.631  64.119  1.00  0.00    -1.141 OA 
BRANCH   4   6
HETATM    6  C   UNK A   0     -10.600  16.380  66.418  1.00  0.00    -0.236 C  
BRANCH   6   7
HETATM    7  C   UNK A   0      -9.787  17.653  66.169  1.00  0.00    -0.253 C  
BRANCH   7   8
HETATM    8  C   UNK A   0      -8.252  17.615  66.220  1.00  0.00    -0.264 C  
BRANCH   8   9
HETATM    9  C   UNK A   0      -7.683  18.745  67.092  1.00  0.00    -0.241 A  
HETATM   10  C   UNK A   0      -7.375  18.507  68.440  1.00  0.00    -0.301 A  
HETATM   11  C   UNK A   0      -6.746  19.494  69.219  1.00  0.00    -0.376 A  
HETATM   12  C   UNK A   0      -7.373  20.024  66.580  1.00  0.00    -0.287 A  
HETATM   13  C   UNK A   0      -6.408  20.730  68.667  1.00  0.00    -0.257 A  
HETATM   14  C   UNK A   0      -6.732  20.997  67.347  1.00  0.00    -0.446 A  
ENDBRANCH   8   9
ENDBRANCH   7   8
ENDBRANCH   6   7
BRANCH   6  15
ATOM     15  N   ALA A   1      -9.733  15.300  66.950  1.00  0.00    -0.228 NA 
ATOM     16  H   ALA A   1      -9.114  14.800  66.312  1.00  0.00     0.000 HD 
BRANCH  15  17
ATOM     17  CA  ALA A   1      -9.744  14.927  68.394  1.00  0.00    -0.209 C  
ATOM     18  CB  ALA A   1      -9.761  16.010  69.487  1.00  0.00    -0.216 C  
BRANCH  17  19
ATOM     19  C   ALA A   1     -10.612  13.682  68.772  1.00  0.00    -0.231 C  
ATOM     20  O   ALA A   1     -11.775  13.864  69.153  1.00  0.00    -0.289 OA 
HETATM   21  C   UNK A   2      -8.683  11.042  67.120  1.00  0.00    -0.135 A  
HETATM   22  C   UNK A   2      -7.401  10.819  66.599  1.00  0.00    -0.134 A  
HETATM   23  N   UNK A   2     -10.157  12.390  68.563  1.00  0.00    -0.212 N  
HETATM   24  C   UNK A   2      -7.214   9.935  65.551  1.00  0.00    -0.122 A  
HETATM   25  C   UNK A   2      -8.804  12.019  68.236  1.00  0.00    -0.182 C  
HETATM   26  O   UNK A   2     -11.827   9.613  70.263  1.00  0.00    -0.212 OA 
HETATM   27  C   UNK A   2      -8.313   9.279  64.994  1.00  0.00    -0.154 A  
HETATM   28  C   UNK A   2      -9.601   9.498  65.526  1.00  0.00    -0.349 A  
HETATM   29  O   UNK A   2      -9.608   9.872  70.044  1.00  0.00    -0.234 OA 
HETATM   30  C   UNK A   2     -10.744  10.201  69.713  1.00  0.00    -0.279 C  
HETATM   31  C   UNK A   2      -9.787  10.357  66.616  1.00  0.00    -0.251 A  
HETATM   32  C   UNK A   2     -11.087  11.250  68.624  1.00  0.00    -0.232 C  
HETATM   33  C   UNK A   2     -11.151  10.595  67.226  1.00  0.00    -0.313 C  
BRANCH  24  34
HETATM   34  O   UNK A   2      -5.982   9.614  65.039  1.00  0.00    -0.067 OA 
HETATM   35  C   UNK A   2      -5.323  10.693  64.407  1.00  0.00    -0.119 C  
ENDBRANCH  24  34
BRANCH  27  36
HETATM   36  O   UNK A   2      -8.018   8.477  63.934  1.00  0.00    -0.146 OA 
HETATM   37  C   UNK A   2      -8.484   8.878  62.660  1.00  0.00    -0.200 C  
ENDBRANCH  27  36
ENDBRANCH  17  19
ENDBRANCH  15  17
ENDBRANCH   6  15
ENDBRANCH   4   6
ENDBRANCH   3   4
ENDBRANCH   2   3
TORSDOF 11
ENDMDL
MODEL       43
REMARK 921   NORMALIZED FREE ENERGY PREDICTED BY IDOCK:   -5.91 KCAL/MOL
REMARK 922        TOTAL FREE ENERGY PREDICTED BY IDOCK:  -11.61 KCAL/MOL
REMARK 923 INTER-LIGAND FREE ENERGY PREDICTED BY IDOCK:  -10.09 KCAL/MOL
REMARK 924 INTRA-LIGAND FREE ENERGY PREDICTED BY IDOCK:   -1.52 KCAL/MOL
REMARK 927      BINDING AFFINITY PREDICTED BY RF-SCORE:    0.00 PKD
ROOT
HETATM    1  C   UNK A   0      -9.366   2.857  68.275  1.00  0.00    -0.253 C  
HETATM    2  C   UNK A   0      -8.673   3.868  69.169  1.00  0.00    -0.085 C  
ENDROOT
BRANCH   2   3
HETATM    3  O   UNK A   0      -9.574   4.245  70.215  1.00  0.00    -0.164 OA 
BRANCH   3   4
HETATM    4  C   UNK A   0     -10.144   5.481  70.119  1.00  0.00    -0.239 C  
HETATM    5  O   UNK A   0     -11.337   5.736  70.250  1.00  0.00    -0.262 OA 
BRANCH   4   6
HETATM    6  C   UNK A   0      -9.043   6.517  69.895  1.00  0.00    -0.143 C  
BRANCH   6   7
HETATM    7  C   UNK A   0      -8.855   7.355  71.162  1.00  0.00    -0.142 C  
BRANCH   7   8
HETATM    8  C   UNK A   0      -9.088   8.874  71.130  1.00  0.00    -0.315 C  
BRANCH   8   9
HETATM    9  C   UNK A   0     -10.565   9.228  71.368  1.00  0.00    -0.417 A  
HETATM   10  C   UNK A   0     -11.172  10.249  70.623  1.00  0.00    -0.406 A  
HETATM   11  C   UNK A   0     -12.550  10.506  70.746  1.00  0.00    -0.474 A  
HETATM   12  C   UNK A   0     -11.387   8.513  72.266  1.00  0.00    -0.441 A  
HETATM   13  C   UNK A   0     -13.343   9.747  71.606  1.00  0.00    -0.487 A  
HETATM   14  C   UNK A   0     -12.757   8.755  72.375  1.00  0.00    -0.433 A  
ENDBRANCH   8   9
ENDBRANCH   7   8
ENDBRANCH   6   7
BRANCH   6  15
ATOM     15  N   ALA A   1      -9.381   7.384  68.739  1.00  0.00    -0.144 NA 
ATOM     16  H   ALA A   1      -9.430   8.394  68.872  1.00  0.00     0.000 HD 
BRANCH  15  17
ATOM     17  CA  ALA A   1      -9.650   6.815  67.386  1.00  0.00    -0.134 C  
ATOM     18  CB  ALA A   1     -11.074   6.403  66.975  1.00  0.00    -0.405 C  
BRANCH  17  19
ATOM     19  C   ALA A   1      -8.846   7.450  66.205  1.00  0.00    -0.160 C  
ATOM     20  O   ALA A   1      -8.300   6.698  65.388  1.00  0.00    -0.139 OA 
HETATM   21  C   UNK A   2     -10.209  10.851  66.269  1.00  0.00    -0.300 A  
HETATM   22  C   UNK A   2     -10.902  11.710  67.131  1.00  0.00    -0.306 A  
HETATM   23  N   UNK A   2      -8.846   8.818  65.979  1.00  0.00    -0.164 N  
HETATM   24  C   UNK A   2     -11.744  12.684  66.624  1.00  0.00    -0.398 A  
HETATM   25  C   UNK A   2      -9.335   9.819  66.892  1.00  0.00    -0.149 C  
HETATM   26  O   UNK A   2      -6.285  10.268  63.806  1.00  0.00    -0.137 OA 
HETATM   27  C   UNK A   2     -11.920  12.796  65.243  1.00  0.00    -0.429 A  
HETATM   28  C   UNK A   2     -11.214  11.936  64.377  1.00  0.00    -0.401 A  
HETATM   29  O   UNK A   2      -6.976  11.118  65.765  1.00  0.00     0.018 OA 
HETATM   30  C   UNK A   2      -7.148  10.327  64.841  1.00  0.00    -0.099 C  
HETATM   31  C   UNK A   2     -10.327  10.980  64.886  1.00  0.00    -0.378 A  
HETATM   32  C   UNK A   2      -8.356   9.365  64.703  1.00  0.00    -0.157 C  
HETATM   33  C   UNK A   2      -9.535  10.058  63.984  1.00  0.00    -0.299 C  
BRANCH  24  34
HETATM   34  O   UNK A   2     -12.398  13.604  67.404  1.00  0.00    -0.297 OA 
HETATM   35  C   UNK A   2     -11.542  14.529  68.044  1.00  0.00    -0.336 C  
ENDBRANCH  24  34
BRANCH  27  36
HETATM   36  O   UNK A   2     -12.812  13.751  64.860  1.00  0.00    -0.690 OA 
HETATM   37  C   UNK A   2     -12.293  14.962  64.346  1.00  0.00    -0.323 C  
ENDBRANCH  27  36
ENDBRANCH  17  19
ENDBRANCH  15  17
ENDBRANCH   6  15
ENDBRANCH   4   6
ENDBRANCH   3   4
ENDBRANCH   2   3
TORSDOF 11
ENDMDL
MODEL       44
REMARK 921   NORMALIZED FREE ENERGY PREDICTED BY IDOCK:   -5.88 KCAL/MOL
REMARK 922        TOTAL FREE ENERGY PREDICTED BY IDOCK:  -11.56 KCAL/MOL
REMARK 923 INTER-LIGAND FREE ENERGY PREDICTED BY IDOCK:  -10.06 KCAL/MOL
REMARK 924 INTRA-LIGAND FREE ENERGY PREDICTED BY IDOCK:   -1.50 KCAL/MOL
REMARK 927      BINDING AFFINITY PREDICTED BY RF-SCORE:    0.00 PKD
ROOT
HETATM    1  C   UNK A   0     -12.796  15.335  73.535  1.00  0.00    -0.681 C  
HETATM    2  C   UNK A   0     -12.014  16.217  72.581  1.00  0.00    -0.551 C  
ENDROOT
BRANCH   2   3
HETATM    3  O   UNK A   0     -11.264  15.379  71.695  1.00  0.00    -0.388 OA 
BRANCH   3   4
HETATM    4  C   UNK A   0     -11.429  15.595  70.358  1.00  0.00    -0.354 C  
HETATM    5  O   UNK A   0     -12.477  15.473  69.732  1.00  0.00    -0.303 OA 
BRANCH   4   6
HETATM    6  C   UNK A   0     -10.106  16.088  69.771  1.00  0.00    -0.212 C  
BRANCH   6   7
HETATM    7  C   UNK A   0     -10.368  16.824  68.454  1.00  0.00    -0.319 C  
BRANCH   7   8
HETATM    8  C   UNK A   0     -10.137  18.340  68.354  1.00  0.00    -0.412 C  
BRANCH   8   9
HETATM    9  C   UNK A   0      -8.696  18.669  67.933  1.00  0.00    -0.309 A  
HETATM   10  C   UNK A   0      -7.832  19.316  68.829  1.00  0.00    -0.388 A  
HETATM   11  C   UNK A   0      -6.479  19.518  68.503  1.00  0.00    -0.296 A  
HETATM   12  C   UNK A   0      -8.155  18.278  66.689  1.00  0.00    -0.281 A  
HETATM   13  C   UNK A   0      -5.965  19.074  67.284  1.00  0.00    -0.164 A  
HETATM   14  C   UNK A   0      -6.809  18.462  66.372  1.00  0.00    -0.252 A  
ENDBRANCH   8   9
ENDBRANCH   7   8
ENDBRANCH   6   7
BRANCH   6  15
ATOM     15  N   ALA A   1      -9.180  14.948  69.560  1.00  0.00    -0.428 NA 
ATOM     16  H   ALA A   1      -9.299  14.102  70.115  1.00  0.00     0.000 HD 
BRANCH  15  17
ATOM     17  CA  ALA A   1      -8.079  15.010  68.554  1.00  0.00    -0.148 C  
ATOM     18  CB  ALA A   1      -6.734  15.670  68.900  1.00  0.00    -0.123 C  
BRANCH  17  19
ATOM     19  C   ALA A   1      -7.911  13.747  67.647  1.00  0.00    -0.174 C  
ATOM     20  O   ALA A   1      -6.852  13.603  67.024  1.00  0.00    -0.023 OA 
HETATM   21  C   UNK A   2     -10.559  11.622  69.023  1.00  0.00    -0.188 A  
HETATM   22  C   UNK A   2     -11.722  11.727  69.797  1.00  0.00    -0.408 A  
HETATM   23  N   UNK A   2      -8.856  12.733  67.631  1.00  0.00    -0.178 N  
HETATM   24  C   UNK A   2     -12.134  10.672  70.591  1.00  0.00    -0.365 A  
HETATM   25  C   UNK A   2     -10.174  12.806  68.207  1.00  0.00    -0.244 C  
HETATM   26  O   UNK A   2      -8.834  10.316  64.885  1.00  0.00    -0.168 OA 
HETATM   27  C   UNK A   2     -11.372   9.503  70.639  1.00  0.00    -0.301 A  
HETATM   28  C   UNK A   2     -10.207   9.396  69.852  1.00  0.00    -0.247 A  
HETATM   29  O   UNK A   2     -10.657  11.291  65.758  1.00  0.00    -0.258 OA 
HETATM   30  C   UNK A   2      -9.459  11.034  65.841  1.00  0.00    -0.214 C  
HETATM   31  C   UNK A   2      -9.813  10.445  69.013  1.00  0.00    -0.222 A  
HETATM   32  C   UNK A   2      -8.542  11.428  67.027  1.00  0.00    -0.157 C  
HETATM   33  C   UNK A   2      -8.582  10.353  68.137  1.00  0.00    -0.125 C  
BRANCH  24  34
HETATM   34  O   UNK A   2     -13.298  10.677  71.319  1.00  0.00    -0.304 OA 
HETATM   35  C   UNK A   2     -13.529  11.880  72.026  1.00  0.00    -0.231 C  
ENDBRANCH  24  34
BRANCH  27  36
HETATM   36  O   UNK A   2     -11.841   8.554  71.496  1.00  0.00    -0.273 OA 
HETATM   37  C   UNK A   2     -11.030   8.213  72.602  1.00  0.00    -0.370 C  
ENDBRANCH  27  36
ENDBRANCH  17  19
ENDBRANCH  15  17
ENDBRANCH   6  15
ENDBRANCH   4   6
ENDBRANCH   3   4
ENDBRANCH   2   3
TORSDOF 11
ENDMDL
MODEL       45
REMARK 921   NORMALIZED FREE ENERGY PREDICTED BY IDOCK:   -5.84 KCAL/MOL
REMARK 922        TOTAL FREE ENERGY PREDICTED BY IDOCK:  -11.50 KCAL/MOL
REMARK 923 INTER-LIGAND FREE ENERGY PREDICTED BY IDOCK:   -9.05 KCAL/MOL
REMARK 924 INTRA-LIGAND FREE ENERGY PREDICTED BY IDOCK:   -2.45 KCAL/MOL
REMARK 927      BINDING AFFINITY PREDICTED BY RF-SCORE:    0.00 PKD
ROOT
HETATM    1  C   UNK A   0     -10.988  11.611  63.641  1.00  0.00    -0.507 C  
HETATM    2  C   UNK A   0     -12.438  12.055  63.601  1.00  0.00    -0.525 C  
ENDROOT
BRANCH   2   3
HETATM    3  O   UNK A   0     -12.802  12.542  64.897  1.00  0.00    -0.758 OA 
BRANCH   3   4
HETATM    4  C   UNK A   0     -12.553  13.859  65.151  1.00  0.00    -0.434 C  
HETATM    5  O   UNK A   0     -12.818  14.799  64.408  1.00  0.00    -0.534 OA 
BRANCH   4   6
HETATM    6  C   UNK A   0     -11.953  13.987  66.552  1.00  0.00    -0.444 C  
BRANCH   6   7
HETATM    7  C   UNK A   0     -10.526  14.533  66.455  1.00  0.00    -0.295 C  
BRANCH   7   8
HETATM    8  C   UNK A   0     -10.019  15.563  67.477  1.00  0.00    -0.230 C  
BRANCH   8   9
HETATM    9  C   UNK A   0      -8.634  15.185  68.025  1.00  0.00    -0.156 A  
HETATM   10  C   UNK A   0      -8.099  15.876  69.122  1.00  0.00    -0.239 A  
HETATM   11  C   UNK A   0      -6.888  15.467  69.709  1.00  0.00    -0.162 A  
HETATM   12  C   UNK A   0      -7.882  14.101  67.522  1.00  0.00    -0.207 A  
HETATM   13  C   UNK A   0      -6.196  14.360  69.217  1.00  0.00    -0.110 A  
HETATM   14  C   UNK A   0      -6.690  13.683  68.114  1.00  0.00    -0.122 A  
ENDBRANCH   8   9
ENDBRANCH   7   8
ENDBRANCH   6   7
BRANCH   6  15
ATOM     15  N   ALA A   1     -11.965  12.672  67.239  1.00  0.00    -0.467 NA 
ATOM     16  H   ALA A   1     -12.217  11.838  66.710  1.00  0.00     0.000 HD 
BRANCH  15  17
ATOM     17  CA  ALA A   1     -11.620  12.541  68.684  1.00  0.00    -0.314 C  
ATOM     18  CB  ALA A   1     -12.187  13.525  69.722  1.00  0.00    -0.330 C  
BRANCH  17  19
ATOM     19  C   ALA A   1     -11.524  11.080  69.234  1.00  0.00    -0.300 C  
ATOM     20  O   ALA A   1     -12.489  10.616  69.854  1.00  0.00    -0.300 OA 
HETATM   21  C   UNK A   2      -8.749   9.820  67.201  1.00  0.00    -0.137 A  
HETATM   22  C   UNK A   2      -7.690  10.301  66.419  1.00  0.00    -0.116 A  
HETATM   23  N   UNK A   2     -10.451  10.259  68.929  1.00  0.00    -0.198 N  
HETATM   24  C   UNK A   2      -7.213   9.560  65.353  1.00  0.00    -0.095 A  
HETATM   25  C   UNK A   2      -9.215  10.683  68.321  1.00  0.00    -0.153 C  
HETATM   26  O   UNK A   2      -9.875   7.254  70.937  1.00  0.00    -0.184 OA 
HETATM   27  C   UNK A   2      -7.806   8.335  65.040  1.00  0.00    -0.126 A  
HETATM   28  C   UNK A   2      -8.865   7.849  65.835  1.00  0.00    -0.183 A  
HETATM   29  O   UNK A   2      -8.296   8.695  70.252  1.00  0.00    -0.115 OA 
HETATM   30  C   UNK A   2      -9.450   8.280  70.171  1.00  0.00    -0.167 C  
HETATM   31  C   UNK A   2      -9.320   8.576  66.942  1.00  0.00    -0.219 A  
HETATM   32  C   UNK A   2     -10.521   8.810  69.183  1.00  0.00    -0.217 C  
HETATM   33  C   UNK A   2     -10.437   8.071  67.829  1.00  0.00    -0.280 C  
BRANCH  24  34
HETATM   34  O   UNK A   2      -6.136   9.934  64.589  1.00  0.00    -0.091 OA 
HETATM   35  C   UNK A   2      -5.218  10.774  65.260  1.00  0.00    -0.144 C  
ENDBRANCH  24  34
BRANCH  27  36
HETATM   36  O   UNK A   2      -7.293   7.720  63.939  1.00  0.00    -0.083 OA 
HETATM   37  C   UNK A   2      -8.079   7.719  62.764  1.00  0.00    -0.112 C  
ENDBRANCH  27  36
ENDBRANCH  17  19
ENDBRANCH  15  17
ENDBRANCH   6  15
ENDBRANCH   4   6
ENDBRANCH   3   4
ENDBRANCH   2   3
TORSDOF 11
ENDMDL
MODEL       46
REMARK 921   NORMALIZED FREE ENERGY PREDICTED BY IDOCK:   -5.78 KCAL/MOL
REMARK 922        TOTAL FREE ENERGY PREDICTED BY IDOCK:  -11.41 KCAL/MOL
REMARK 923 INTER-LIGAND FREE ENERGY PREDICTED BY IDOCK:   -9.42 KCAL/MOL
REMARK 924 INTRA-LIGAND FREE ENERGY PREDICTED BY IDOCK:   -1.99 KCAL/MOL
REMARK 927      BINDING AFFINITY PREDICTED BY RF-SCORE:    0.00 PKD
ROOT
HETATM    1  C   UNK A   0      -5.768  13.760  69.679  1.00  0.00    -0.100 C  
HETATM    2  C   UNK A   0      -6.907  13.187  68.859  1.00  0.00    -0.103 C  
ENDROOT
BRANCH   2   3
HETATM    3  O   UNK A   0      -6.658  11.794  68.642  1.00  0.00    -0.056 OA 
BRANCH   3   4
HETATM    4  C   UNK A   0      -7.251  10.922  69.508  1.00  0.00    -0.113 C  
HETATM    5  O   UNK A   0      -6.761  10.496  70.550  1.00  0.00    -0.292 OA 
BRANCH   4   6
HETATM    6  C   UNK A   0      -8.663  10.614  69.011  1.00  0.00    -0.146 C  
BRANCH   6   7
HETATM    7  C   UNK A   0      -9.352   9.647  69.977  1.00  0.00    -0.276 C  
BRANCH   7   8
HETATM    8  C   UNK A   0     -10.848   9.332  69.823  1.00  0.00    -0.239 C  
BRANCH   8   9
HETATM    9  C   UNK A   0     -11.727  10.413  70.473  1.00  0.00    -0.434 A  
HETATM   10  C   UNK A   0     -12.566  10.085  71.547  1.00  0.00    -0.525 A  
HETATM   11  C   UNK A   0     -13.287  11.083  72.227  1.00  0.00    -0.097 A  
HETATM   12  C   UNK A   0     -11.679  11.770  70.087  1.00  0.00    -0.354 A  
HETATM   13  C   UNK A   0     -13.177  12.422  71.852  1.00  0.00    -0.486 A  
HETATM   14  C   UNK A   0     -12.379  12.763  70.773  1.00  0.00    -0.375 A  
ENDBRANCH   8   9
ENDBRANCH   7   8
ENDBRANCH   6   7
BRANCH   6  15
ATOM     15  N   ALA A   1      -8.613  10.041  67.643  1.00  0.00    -0.118 NA 
ATOM     16  H   ALA A   1      -8.351   9.064  67.523  1.00  0.00     0.000 HD 
BRANCH  15  17
ATOM     17  CA  ALA A   1      -8.936  10.862  66.439  1.00  0.00    -0.175 C  
ATOM     18  CB  ALA A   1      -8.442  10.442  65.044  1.00  0.00    -0.180 C  
BRANCH  17  19
ATOM     19  C   ALA A   1     -10.369  11.487  66.403  1.00  0.00    -0.237 C  
ATOM     20  O   ALA A   1     -11.339  10.759  66.646  1.00  0.00    -0.192 OA 
HETATM   21  C   UNK A   2      -9.515  15.041  66.658  1.00  0.00    -0.288 A  
HETATM   22  C   UNK A   2      -8.418  15.894  66.476  1.00  0.00    -0.348 A  
HETATM   23  N   UNK A   2     -10.563  12.850  66.240  1.00  0.00    -0.263 N  
HETATM   24  C   UNK A   2      -8.306  17.060  67.212  1.00  0.00    -0.186 A  
HETATM   25  C   UNK A   2      -9.555  13.798  65.839  1.00  0.00    -0.128 C  
HETATM   26  O   UNK A   2     -13.873  14.081  65.284  1.00  0.00     0.026 OA 
HETATM   27  C   UNK A   2      -9.281  17.375  68.161  1.00  0.00    -0.270 A  
HETATM   28  C   UNK A   2     -10.388  16.520  68.336  1.00  0.00    -0.294 A  
HETATM   29  O   UNK A   2     -11.918  14.785  64.437  1.00  0.00    -0.451 OA 
HETATM   30  C   UNK A   2     -12.527  14.162  65.303  1.00  0.00    -0.461 C  
HETATM   31  C   UNK A   2     -10.527  15.363  67.560  1.00  0.00    -0.275 A  
HETATM   32  C   UNK A   2     -11.874  13.458  66.520  1.00  0.00    -0.396 C  
HETATM   33  C   UNK A   2     -11.715  14.437  67.705  1.00  0.00    -0.407 C  
BRANCH  24  34
HETATM   34  O   UNK A   2      -7.299  17.976  67.037  1.00  0.00    -0.193 OA 
HETATM   35  C   UNK A   2      -7.509  18.861  65.955  1.00  0.00    -0.244 C  
ENDBRANCH  24  34
BRANCH  27  36
HETATM   36  O   UNK A   2      -9.040  18.516  68.865  1.00  0.00    -0.278 OA 
HETATM   37  C   UNK A   2      -9.973  19.571  68.741  1.00  0.00    -0.463 C  
ENDBRANCH  27  36
ENDBRANCH  17  19
ENDBRANCH  15  17
ENDBRANCH   6  15
ENDBRANCH   4   6
ENDBRANCH   3   4
ENDBRANCH   2   3
TORSDOF 11
ENDMDL
MODEL       47
REMARK 921   NORMALIZED FREE ENERGY PREDICTED BY IDOCK:   -5.77 KCAL/MOL
REMARK 922        TOTAL FREE ENERGY PREDICTED BY IDOCK:  -11.38 KCAL/MOL
REMARK 923 INTER-LIGAND FREE ENERGY PREDICTED BY IDOCK:  -10.57 KCAL/MOL
REMARK 924 INTRA-LIGAND FREE ENERGY PREDICTED BY IDOCK:   -0.81 KCAL/MOL
REMARK 927      BINDING AFFINITY PREDICTED BY RF-SCORE:    0.00 PKD
ROOT
HETATM    1  C   UNK A   0      -8.766  17.293  67.599  1.00  0.00    -0.219 C  
HETATM    2  C   UNK A   0      -9.516  17.313  68.916  1.00  0.00    -0.210 C  
ENDROOT
BRANCH   2   3
HETATM    3  O   UNK A   0      -9.468  16.002  69.489  1.00  0.00    -0.248 OA 
BRANCH   3   4
HETATM    4  C   UNK A   0     -10.640  15.502  69.976  1.00  0.00    -0.324 C  
HETATM    5  O   UNK A   0     -11.370  16.046  70.799  1.00  0.00    -0.369 OA 
BRANCH   4   6
HETATM    6  C   UNK A   0     -10.942  14.178  69.274  1.00  0.00    -0.220 C  
BRANCH   6   7
HETATM    7  C   UNK A   0     -11.907  14.418  68.111  1.00  0.00    -0.362 C  
BRANCH   7   8
HETATM    8  C   UNK A   0     -11.402  15.043  66.801  1.00  0.00    -0.293 C  
BRANCH   8   9
HETATM    9  C   UNK A   0     -11.481  14.051  65.630  1.00  0.00    -0.319 A  
HETATM   10  C   UNK A   0     -10.313  13.667  64.953  1.00  0.00    -0.408 A  
HETATM   11  C   UNK A   0     -10.352  12.673  63.959  1.00  0.00    -0.414 A  
HETATM   12  C   UNK A   0     -12.685  13.428  65.234  1.00  0.00    -0.481 A  
HETATM   13  C   UNK A   0     -11.551  12.042  63.628  1.00  0.00    -0.578 A  
HETATM   14  C   UNK A   0     -12.721  12.429  64.261  1.00  0.00    -0.437 A  
ENDBRANCH   8   9
ENDBRANCH   7   8
ENDBRANCH   6   7
BRANCH   6  15
ATOM     15  N   ALA A   1     -11.514  13.204  70.237  1.00  0.00    -0.503 NA 
ATOM     16  H   ALA A   1     -11.475  13.410  71.234  1.00  0.00     0.000 HD 
BRANCH  15  17
ATOM     17  CA  ALA A   1     -12.143  11.930  69.781  1.00  0.00    -0.252 C  
ATOM     18  CB  ALA A   1     -11.895  11.393  68.361  1.00  0.00    -0.344 C  
BRANCH  17  19
ATOM     19  C   ALA A   1     -12.223  10.788  70.847  1.00  0.00    -0.384 C  
ATOM     20  O   ALA A   1     -13.152  10.805  71.664  1.00  0.00    -0.432 OA 
HETATM   21  C   UNK A   2     -10.040   8.300  69.273  1.00  0.00    -0.199 A  
HETATM   22  C   UNK A   2      -9.041   8.220  68.295  1.00  0.00    -0.135 A  
HETATM   23  N   UNK A   2     -11.366   9.699  70.810  1.00  0.00    -0.311 N  
HETATM   24  C   UNK A   2      -8.863   7.055  67.569  1.00  0.00    -0.119 A  
HETATM   25  C   UNK A   2     -10.179   9.592  70.000  1.00  0.00    -0.255 C  
HETATM   26  O   UNK A   2     -11.033   7.589  73.780  1.00  0.00    -0.266 OA 
HETATM   27  C   UNK A   2      -9.700   5.962  67.798  1.00  0.00    -0.118 A  
HETATM   28  C   UNK A   2     -10.699   6.042  68.791  1.00  0.00    -0.375 A  
HETATM   29  O   UNK A   2      -9.346   8.300  72.482  1.00  0.00    -0.229 OA 
HETATM   30  C   UNK A   2     -10.553   8.145  72.649  1.00  0.00    -0.344 C  
HETATM   31  C   UNK A   2     -10.852   7.204  69.558  1.00  0.00    -0.244 A  
HETATM   32  C   UNK A   2     -11.649   8.497  71.611  1.00  0.00    -0.299 C  
HETATM   33  C   UNK A   2     -11.896   7.314  70.647  1.00  0.00    -0.290 C  
BRANCH  24  34
HETATM   34  O   UNK A   2      -7.862   6.880  66.646  1.00  0.00    -0.103 OA 
HETATM   35  C   UNK A   2      -6.913   7.928  66.622  1.00  0.00    -0.072 C  
ENDBRANCH  24  34
BRANCH  27  36
HETATM   36  O   UNK A   2      -9.470   4.891  66.989  1.00  0.00    -0.131 OA 
HETATM   37  C   UNK A   2     -10.364   4.679  65.914  1.00  0.00    -0.283 C  
ENDBRANCH  27  36
ENDBRANCH  17  19
ENDBRANCH  15  17
ENDBRANCH   6  15
ENDBRANCH   4   6
ENDBRANCH   3   4
ENDBRANCH   2   3
TORSDOF 11
ENDMDL
MODEL       48
REMARK 921   NORMALIZED FREE ENERGY PREDICTED BY IDOCK:   -5.75 KCAL/MOL
REMARK 922        TOTAL FREE ENERGY PREDICTED BY IDOCK:  -11.36 KCAL/MOL
REMARK 923 INTER-LIGAND FREE ENERGY PREDICTED BY IDOCK:   -9.25 KCAL/MOL
REMARK 924 INTRA-LIGAND FREE ENERGY PREDICTED BY IDOCK:   -2.11 KCAL/MOL
REMARK 927      BINDING AFFINITY PREDICTED BY RF-SCORE:    0.00 PKD
ROOT
HETATM    1  C   UNK A   0      -9.139   8.578  69.227  1.00  0.00    -0.153 C  
HETATM    2  C   UNK A   0     -10.006   9.736  68.774  1.00  0.00    -0.169 C  
ENDROOT
BRANCH   2   3
HETATM    3  O   UNK A   0     -10.192   9.640  67.358  1.00  0.00    -0.197 OA 
BRANCH   3   4
HETATM    4  C   UNK A   0     -10.936  10.620  66.768  1.00  0.00    -0.115 C  
HETATM    5  O   UNK A   0     -11.895  11.197  67.271  1.00  0.00    -0.525 OA 
BRANCH   4   6
HETATM    6  C   UNK A   0     -10.337  10.940  65.399  1.00  0.00    -0.261 C  
BRANCH   6   7
HETATM    7  C   UNK A   0      -9.341   9.848  65.002  1.00  0.00    -0.323 C  
BRANCH   7   8
HETATM    8  C   UNK A   0      -7.850  10.181  64.832  1.00  0.00    -0.147 C  
BRANCH   8   9
HETATM    9  C   UNK A   0      -7.052   9.886  66.111  1.00  0.00    -0.103 A  
HETATM   10  C   UNK A   0      -6.481   8.621  66.308  1.00  0.00    -0.061 A  
HETATM   11  C   UNK A   0      -5.650   8.371  67.415  1.00  0.00    -0.039 A  
HETATM   12  C   UNK A   0      -6.789  10.868  67.092  1.00  0.00    -0.093 A  
HETATM   13  C   UNK A   0      -5.371   9.378  68.338  1.00  0.00    -0.037 A  
HETATM   14  C   UNK A   0      -5.951  10.626  68.181  1.00  0.00    -0.046 A  
ENDBRANCH   8   9
ENDBRANCH   7   8
ENDBRANCH   6   7
BRANCH   6  15
ATOM     15  N   ALA A   1      -9.675  12.268  65.425  1.00  0.00    -0.399 NA 
ATOM     16  H   ALA A   1      -8.704  12.334  65.730  1.00  0.00     0.000 HD 
BRANCH  15  17
ATOM     17  CA  ALA A   1     -10.395  13.509  65.016  1.00  0.00    -0.362 C  
ATOM     18  CB  ALA A   1     -11.905  13.484  64.724  1.00  0.00    -0.412 C  
BRANCH  17  19
ATOM     19  C   ALA A   1      -9.945  14.826  65.730  1.00  0.00    -0.347 C  
ATOM     20  O   ALA A   1      -9.669  15.812  65.034  1.00  0.00    -0.274 OA 
HETATM   21  C   UNK A   2     -11.162  14.156  69.120  1.00  0.00    -0.307 A  
HETATM   22  C   UNK A   2     -11.565  13.078  69.919  1.00  0.00    -0.249 A  
HETATM   23  N   UNK A   2      -9.981  14.953  67.109  1.00  0.00    -0.230 N  
HETATM   24  C   UNK A   2     -12.495  13.260  70.927  1.00  0.00    -0.342 A  
HETATM   25  C   UNK A   2     -10.170  13.875  68.046  1.00  0.00    -0.246 C  
HETATM   26  O   UNK A   2      -8.110  17.665  68.701  1.00  0.00    -0.278 OA 
HETATM   27  C   UNK A   2     -13.053  14.524  71.134  1.00  0.00    -0.359 A  
HETATM   28  C   UNK A   2     -12.639  15.609  70.334  1.00  0.00    -0.376 A  
HETATM   29  O   UNK A   2      -8.200  15.539  69.416  1.00  0.00    -0.239 OA 
HETATM   30  C   UNK A   2      -8.643  16.426  68.691  1.00  0.00    -0.237 C  
HETATM   31  C   UNK A   2     -11.665  15.437  69.344  1.00  0.00    -0.369 A  
HETATM   32  C   UNK A   2      -9.861  16.277  67.742  1.00  0.00    -0.237 C  
HETATM   33  C   UNK A   2     -11.181  16.585  68.485  1.00  0.00    -0.296 C  
BRANCH  24  34
HETATM   34  O   UNK A   2     -12.882  12.268  71.793  1.00  0.00    -0.331 OA 
HETATM   35  C   UNK A   2     -12.616  10.961  71.325  1.00  0.00    -0.421 C  
ENDBRANCH  24  34
BRANCH  27  36
HETATM   36  O   UNK A   2     -13.996  14.574  72.114  1.00  0.00    -0.419 OA 
HETATM   37  C   UNK A   2     -13.924  15.643  73.037  1.00  0.00    -0.253 C  
ENDBRANCH  27  36
ENDBRANCH  17  19
ENDBRANCH  15  17
ENDBRANCH   6  15
ENDBRANCH   4   6
ENDBRANCH   3   4
ENDBRANCH   2   3
TORSDOF 11
ENDMDL
MODEL       49
REMARK 921   NORMALIZED FREE ENERGY PREDICTED BY IDOCK:   -5.75 KCAL/MOL
REMARK 922        TOTAL FREE ENERGY PREDICTED BY IDOCK:  -11.34 KCAL/MOL
REMARK 923 INTER-LIGAND FREE ENERGY PREDICTED BY IDOCK:  -10.46 KCAL/MOL
REMARK 924 INTRA-LIGAND FREE ENERGY PREDICTED BY IDOCK:   -0.88 KCAL/MOL
REMARK 927      BINDING AFFINITY PREDICTED BY RF-SCORE:    0.00 PKD
ROOT
HETATM    1  C   UNK A   0      -7.734   7.910  73.318  1.00  0.00    -0.186 C  
HETATM    2  C   UNK A   0      -9.239   7.994  73.154  1.00  0.00    -0.279 C  
ENDROOT
BRANCH   2   3
HETATM    3  O   UNK A   0      -9.537   9.001  72.182  1.00  0.00    -0.312 OA 
BRANCH   3   4
HETATM    4  C   UNK A   0     -10.774   8.955  71.608  1.00  0.00    -0.347 C  
HETATM    5  O   UNK A   0     -11.837   8.803  72.201  1.00  0.00    -0.355 OA 
BRANCH   4   6
HETATM    6  C   UNK A   0     -10.632   9.200  70.106  1.00  0.00    -0.228 C  
BRANCH   6   7
HETATM    7  C   UNK A   0     -10.325   7.880  69.394  1.00  0.00    -0.220 C  
BRANCH   7   8
HETATM    8  C   UNK A   0     -11.280   6.684  69.533  1.00  0.00    -0.383 C  
BRANCH   8   9
HETATM    9  C   UNK A   0     -10.535   5.408  69.957  1.00  0.00    -0.373 A  
HETATM   10  C   UNK A   0     -10.497   5.031  71.307  1.00  0.00    -0.213 A  
HETATM   11  C   UNK A   0      -9.922   3.808  71.697  1.00  0.00    -0.211 A  
HETATM   12  C   UNK A   0      -9.935   4.529  69.029  1.00  0.00    -0.151 A  
HETATM   13  C   UNK A   0      -9.383   2.940  70.748  1.00  0.00    -0.222 A  
HETATM   14  C   UNK A   0      -9.381   3.307  69.412  1.00  0.00    -0.232 A  
ENDBRANCH   8   9
ENDBRANCH   7   8
ENDBRANCH   6   7
BRANCH   6  15
ATOM     15  N   ALA A   1      -9.563  10.196  69.846  1.00  0.00    -0.384 NA 
ATOM     16  H   ALA A   1      -8.956  10.485  70.612  1.00  0.00     0.000 HD 
BRANCH  15  17
ATOM     17  CA  ALA A   1      -9.356  10.786  68.491  1.00  0.00    -0.174 C  
ATOM     18  CB  ALA A   1      -8.429  10.106  67.469  1.00  0.00    -0.118 C  
BRANCH  17  19
ATOM     19  C   ALA A   1     -10.619  11.423  67.823  1.00  0.00    -0.195 C  
ATOM     20  O   ALA A   1     -11.697  10.821  67.902  1.00  0.00    -0.543 OA 
HETATM   21  C   UNK A   2      -9.463  14.880  67.452  1.00  0.00    -0.206 A  
HETATM   22  C   UNK A   2      -8.270  15.614  67.440  1.00  0.00    -0.198 A  
HETATM   23  N   UNK A   2     -10.585  12.693  67.269  1.00  0.00    -0.227 N  
HETATM   24  C   UNK A   2      -8.254  16.934  67.855  1.00  0.00    -0.197 A  
HETATM   25  C   UNK A   2      -9.395  13.461  67.005  1.00  0.00    -0.243 C  
HETATM   26  O   UNK A   2     -13.254  13.717  64.987  1.00  0.00    -0.733 OA 
HETATM   27  C   UNK A   2      -9.431  17.530  68.312  1.00  0.00    -0.296 A  
HETATM   28  C   UNK A   2     -10.632  16.792  68.314  1.00  0.00    -0.352 A  
HETATM   29  O   UNK A   2     -11.062  14.097  64.694  1.00  0.00    -0.374 OA 
HETATM   30  C   UNK A   2     -11.982  13.758  65.433  1.00  0.00    -0.379 C  
HETATM   31  C   UNK A   2     -10.660  15.471  67.852  1.00  0.00    -0.274 A  
HETATM   32  C   UNK A   2     -11.834  13.396  66.934  1.00  0.00    -0.403 C  
HETATM   33  C   UNK A   2     -11.937  14.659  67.818  1.00  0.00    -0.302 C  
BRANCH  24  34
HETATM   34  O   UNK A   2      -7.139  17.733  67.803  1.00  0.00    -0.189 OA 
HETATM   35  C   UNK A   2      -6.079  17.194  67.039  1.00  0.00    -0.178 C  
ENDBRANCH  24  34
BRANCH  27  36
HETATM   36  O   UNK A   2      -9.286  18.812  68.747  1.00  0.00    -0.338 OA 
HETATM   37  C   UNK A   2     -10.262  19.754  68.346  1.00  0.00    -0.449 C  
ENDBRANCH  27  36
ENDBRANCH  17  19
ENDBRANCH  15  17
ENDBRANCH   6  15
ENDBRANCH   4   6
ENDBRANCH   3   4
ENDBRANCH   2   3
TORSDOF 11
ENDMDL
MODEL       50
REMARK 921   NORMALIZED FREE ENERGY PREDICTED BY IDOCK:   -5.71 KCAL/MOL
REMARK 922        TOTAL FREE ENERGY PREDICTED BY IDOCK:  -11.29 KCAL/MOL
REMARK 923 INTER-LIGAND FREE ENERGY PREDICTED BY IDOCK:   -9.77 KCAL/MOL
REMARK 924 INTRA-LIGAND FREE ENERGY PREDICTED BY IDOCK:   -1.52 KCAL/MOL
REMARK 927      BINDING AFFINITY PREDICTED BY RF-SCORE:    0.00 PKD
ROOT
HETATM    1  C   UNK A   0     -10.243  10.980  64.040  1.00  0.00    -0.420 C  
HETATM    2  C   UNK A   0     -11.656  11.490  63.835  1.00  0.00    -0.212 C  
ENDROOT
BRANCH   2   3
HETATM    3  O   UNK A   0     -11.974  12.395  64.897  1.00  0.00    -0.382 OA 
BRANCH   3   4
HETATM    4  C   UNK A   0     -11.989  13.724  64.587  1.00  0.00    -0.416 C  
HETATM    5  O   UNK A   0     -12.679  14.254  63.722  1.00  0.00    -0.779 OA 
BRANCH   4   6
HETATM    6  C   UNK A   0     -11.058  14.466  65.547  1.00  0.00    -0.326 C  
BRANCH   6   7
HETATM    7  C   UNK A   0     -10.946  15.933  65.127  1.00  0.00    -0.389 C  
BRANCH   7   8
HETATM    8  C   UNK A   0      -9.684  16.743  65.465  1.00  0.00     0.125 C  
BRANCH   8   9
HETATM    9  C   UNK A   0      -9.976  17.848  66.493  1.00  0.00    -0.357 A  
HETATM   10  C   UNK A   0      -9.874  17.577  67.865  1.00  0.00    -0.293 A  
HETATM   11  C   UNK A   0     -10.022  18.604  68.814  1.00  0.00    -0.427 A  
HETATM   12  C   UNK A   0     -10.275  19.177  66.122  1.00  0.00    -0.535 A  
HETATM   13  C   UNK A   0     -10.267  19.917  68.411  1.00  0.00    -0.557 A  
HETATM   14  C   UNK A   0     -10.404  20.200  67.062  1.00  0.00    -0.502 A  
ENDBRANCH   8   9
ENDBRANCH   7   8
ENDBRANCH   6   7
BRANCH   6  15
ATOM     15  N   ALA A   1      -9.721  13.823  65.567  1.00  0.00    -0.521 NA 
ATOM     16  H   ALA A   1      -9.237  13.657  64.685  1.00  0.00     0.000 HD 
BRANCH  15  17
ATOM     17  CA  ALA A   1      -9.069  13.413  66.845  1.00  0.00    -0.231 C  
ATOM     18  CB  ALA A   1      -8.063  14.340  67.548  1.00  0.00    -0.200 C  
BRANCH  17  19
ATOM     19  C   ALA A   1      -9.974  12.635  67.855  1.00  0.00    -0.228 C  
ATOM     20  O   ALA A   1     -11.007  13.179  68.265  1.00  0.00    -0.234 OA 
HETATM   21  C   UNK A   2      -8.731   9.229  67.328  1.00  0.00    -0.132 A  
HETATM   22  C   UNK A   2      -7.616   8.567  66.797  1.00  0.00    -0.090 A  
HETATM   23  N   UNK A   2      -9.719  11.315  68.192  1.00  0.00    -0.179 N  
HETATM   24  C   UNK A   2      -7.746   7.305  66.246  1.00  0.00    -0.097 A  
HETATM   25  C   UNK A   2      -8.511  10.591  67.890  1.00  0.00    -0.119 C  
HETATM   26  O   UNK A   2     -11.305   9.893  71.167  1.00  0.00    -0.357 OA 
HETATM   27  C   UNK A   2      -9.003   6.698  66.197  1.00  0.00    -0.139 A  
HETATM   28  C   UNK A   2     -10.122   7.362  66.740  1.00  0.00    -0.305 A  
HETATM   29  O   UNK A   2      -9.163   9.608  70.560  1.00  0.00    -0.249 OA 
HETATM   30  C   UNK A   2     -10.299   9.975  70.272  1.00  0.00    -0.242 C  
HETATM   31  C   UNK A   2      -9.984   8.620  67.340  1.00  0.00    -0.270 A  
HETATM   32  C   UNK A   2     -10.738  10.509  68.884  1.00  0.00    -0.220 C  
HETATM   33  C   UNK A   2     -11.159   9.349  67.954  1.00  0.00     0.011 C  
BRANCH  24  34
HETATM   34  O   UNK A   2      -6.689   6.569  65.773  1.00  0.00    -0.046 OA 
HETATM   35  C   UNK A   2      -5.923   7.231  64.786  1.00  0.00    -0.037 C  
ENDBRANCH  24  34
BRANCH  27  36
HETATM   36  O   UNK A   2      -9.022   5.482  65.583  1.00  0.00    -0.159 OA 
HETATM   37  C   UNK A   2     -10.092   4.610  65.892  1.00  0.00    -0.258 C  
ENDBRANCH  27  36
ENDBRANCH  17  19
ENDBRANCH  15  17
ENDBRANCH   6  15
ENDBRANCH   4   6
ENDBRANCH   3   4
ENDBRANCH   2   3
TORSDOF 11
ENDMDL
MODEL       51
REMARK 921   NORMALIZED FREE ENERGY PREDICTED BY IDOCK:   -5.70 KCAL/MOL
REMARK 922        TOTAL FREE ENERGY PREDICTED BY IDOCK:  -11.27 KCAL/MOL
REMARK 923 INTER-LIGAND FREE ENERGY PREDICTED BY IDOCK:  -10.22 KCAL/MOL
REMARK 924 INTRA-LIGAND FREE ENERGY PREDICTED BY IDOCK:   -1.05 KCAL/MOL
REMARK 927      BINDING AFFINITY PREDICTED BY RF-SCORE:    0.00 PKD
ROOT
HETATM    1  C   UNK A   0     -12.137  12.032  63.641  1.00  0.00    -0.627 C  
HETATM    2  C   UNK A   0     -11.931  13.458  64.115  1.00  0.00    -0.450 C  
ENDROOT
BRANCH   2   3
HETATM    3  O   UNK A   0     -12.090  13.494  65.537  1.00  0.00    -0.370 OA 
BRANCH   3   4
HETATM    4  C   UNK A   0     -11.024  13.940  66.263  1.00  0.00    -0.298 C  
HETATM    5  O   UNK A   0     -10.006  14.452  65.808  1.00  0.00    -0.312 OA 
BRANCH   4   6
HETATM    6  C   UNK A   0     -11.332  13.766  67.750  1.00  0.00    -0.303 C  
BRANCH   6   7
HETATM    7  C   UNK A   0     -10.819  14.980  68.529  1.00  0.00    -0.250 C  
BRANCH   7   8
HETATM    8  C   UNK A   0     -11.807  15.920  69.238  1.00  0.00    -0.328 C  
BRANCH   8   9
HETATM    9  C   UNK A   0     -12.165  15.412  70.644  1.00  0.00    -0.431 A  
HETATM   10  C   UNK A   0     -11.789  16.151  71.776  1.00  0.00    -0.581 A  
HETATM   11  C   UNK A   0     -12.211  15.762  73.060  1.00  0.00    -0.593 A  
HETATM   12  C   UNK A   0     -12.939  14.252  70.864  1.00  0.00    -0.395 A  
HETATM   13  C   UNK A   0     -13.017  14.638  73.236  1.00  0.00    -0.569 A  
HETATM   14  C   UNK A   0     -13.372  13.876  72.135  1.00  0.00    -0.555 A  
ENDBRANCH   8   9
ENDBRANCH   7   8
ENDBRANCH   6   7
BRANCH   6  15
ATOM     15  N   ALA A   1     -10.715  12.517  68.260  1.00  0.00    -0.220 NA 
ATOM     16  H   ALA A   1      -9.827  12.568  68.758  1.00  0.00     0.000 HD 
BRANCH  15  17
ATOM     17  CA  ALA A   1     -11.362  11.187  68.063  1.00  0.00    -0.312 C  
ATOM     18  CB  ALA A   1     -10.980  10.295  66.869  1.00  0.00    -0.140 C  
BRANCH  17  19
ATOM     19  C   ALA A   1     -11.639  10.362  69.362  1.00  0.00    -0.202 C  
ATOM     20  O   ALA A   1     -12.687  10.572  69.985  1.00  0.00    -0.256 OA 
HETATM   21  C   UNK A   2      -9.289   7.594  68.866  1.00  0.00    -0.145 A  
HETATM   22  C   UNK A   2      -8.148   7.281  68.117  1.00  0.00    -0.124 A  
HETATM   23  N   UNK A   2     -10.813   9.319  69.750  1.00  0.00    -0.232 N  
HETATM   24  C   UNK A   2      -7.882   5.971  67.759  1.00  0.00    -0.105 A  
HETATM   25  C   UNK A   2      -9.514   9.028  69.199  1.00  0.00    -0.153 C  
HETATM   26  O   UNK A   2     -11.012   8.065  73.181  1.00  0.00    -0.337 OA 
HETATM   27  C   UNK A   2      -8.770   4.959  68.128  1.00  0.00    -0.102 A  
HETATM   28  C   UNK A   2      -9.913   5.276  68.890  1.00  0.00    -0.250 A  
HETATM   29  O   UNK A   2      -9.122   8.446  72.033  1.00  0.00    -0.183 OA 
HETATM   30  C   UNK A   2     -10.343   8.316  72.037  1.00  0.00    -0.279 C  
HETATM   31  C   UNK A   2     -10.161   6.594  69.292  1.00  0.00    -0.187 A  
HETATM   32  C   UNK A   2     -11.249   8.362  70.780  1.00  0.00    -0.263 C  
HETATM   33  C   UNK A   2     -11.365   6.964  70.131  1.00  0.00    -0.364 C  
BRANCH  24  34
HETATM   34  O   UNK A   2      -6.749   5.582  67.089  1.00  0.00    -0.055 OA 
HETATM   35  C   UNK A   2      -5.545   5.912  67.752  1.00  0.00    -0.009 C  
ENDBRANCH  24  34
BRANCH  27  36
HETATM   36  O   UNK A   2      -8.437   3.718  67.674  1.00  0.00    -0.093 OA 
HETATM   37  C   UNK A   2      -9.276   3.131  66.700  1.00  0.00    -0.146 C  
ENDBRANCH  27  36
ENDBRANCH  17  19
ENDBRANCH  15  17
ENDBRANCH   6  15
ENDBRANCH   4   6
ENDBRANCH   3   4
ENDBRANCH   2   3
TORSDOF 11
ENDMDL
MODEL       52
REMARK 921   NORMALIZED FREE ENERGY PREDICTED BY IDOCK:   -5.67 KCAL/MOL
REMARK 922        TOTAL FREE ENERGY PREDICTED BY IDOCK:  -11.22 KCAL/MOL
REMARK 923 INTER-LIGAND FREE ENERGY PREDICTED BY IDOCK:   -9.56 KCAL/MOL
REMARK 924 INTRA-LIGAND FREE ENERGY PREDICTED BY IDOCK:   -1.66 KCAL/MOL
REMARK 927      BINDING AFFINITY PREDICTED BY RF-SCORE:    0.00 PKD
ROOT
HETATM    1  C   UNK A   0     -12.278  14.031  66.316  1.00  0.00    -0.493 C  
HETATM    2  C   UNK A   0     -11.947  12.760  65.558  1.00  0.00    -0.449 C  
ENDROOT
BRANCH   2   3
HETATM    3  O   UNK A   0     -11.843  11.683  66.495  1.00  0.00    -0.500 OA 
BRANCH   3   4
HETATM    4  C   UNK A   0     -10.627  11.496  67.083  1.00  0.00    -0.237 C  
HETATM    5  O   UNK A   0      -9.545  11.864  66.636  1.00  0.00    -0.199 OA 
BRANCH   4   6
HETATM    6  C   UNK A   0     -10.832  10.813  68.436  1.00  0.00    -0.232 C  
BRANCH   6   7
HETATM    7  C   UNK A   0     -12.138  11.299  69.068  1.00  0.00    -0.325 C  
BRANCH   7   8
HETATM    8  C   UNK A   0     -12.284  11.364  70.596  1.00  0.00    -0.484 C  
BRANCH   8   9
HETATM    9  C   UNK A   0     -12.644  12.780  71.073  1.00  0.00    -0.362 A  
HETATM   10  C   UNK A   0     -12.246  13.897  70.325  1.00  0.00    -0.428 A  
HETATM   11  C   UNK A   0     -12.667  15.190  70.684  1.00  0.00    -0.451 A  
HETATM   12  C   UNK A   0     -13.441  13.023  72.213  1.00  0.00    -0.645 A  
HETATM   13  C   UNK A   0     -13.496  15.389  71.788  1.00  0.00    -0.581 A  
HETATM   14  C   UNK A   0     -13.875  14.303  72.559  1.00  0.00    -0.575 A  
ENDBRANCH   8   9
ENDBRANCH   7   8
ENDBRANCH   6   7
BRANCH   6  15
ATOM     15  N   ALA A   1      -9.681  11.091  69.332  1.00  0.00    -0.427 NA 
ATOM     16  H   ALA A   1      -9.587  12.018  69.746  1.00  0.00     0.000 HD 
BRANCH  15  17
ATOM     17  CA  ALA A   1      -8.660  10.048  69.640  1.00  0.00    -0.184 C  
ATOM     18  CB  ALA A   1      -7.217  10.441  70.002  1.00  0.00    -0.143 C  
BRANCH  17  19
ATOM     19  C   ALA A   1      -9.167   8.815  70.457  1.00  0.00    -0.188 C  
ATOM     20  O   ALA A   1      -9.916   9.012  71.422  1.00  0.00    -0.276 OA 
HETATM   21  C   UNK A   2      -8.498   6.139  68.045  1.00  0.00    -0.116 A  
HETATM   22  C   UNK A   2      -7.729   5.899  66.899  1.00  0.00    -0.100 A  
HETATM   23  N   UNK A   2      -8.908   7.517  70.047  1.00  0.00    -0.143 N  
HETATM   24  C   UNK A   2      -8.162   5.001  65.939  1.00  0.00    -0.114 A  
HETATM   25  C   UNK A   2      -7.971   7.130  69.024  1.00  0.00    -0.120 C  
HETATM   26  O   UNK A   2      -9.339   4.774  72.431  1.00  0.00    -0.128 OA 
HETATM   27  C   UNK A   2      -9.385   4.348  66.104  1.00  0.00    -0.159 A  
HETATM   28  C   UNK A   2     -10.152   4.584  67.263  1.00  0.00    -0.138 A  
HETATM   29  O   UNK A   2      -7.624   5.012  71.002  1.00  0.00    -0.077 OA 
HETATM   30  C   UNK A   2      -8.751   5.346  71.360  1.00  0.00    -0.131 C  
HETATM   31  C   UNK A   2      -9.695   5.458  68.257  1.00  0.00    -0.175 A  
HETATM   32  C   UNK A   2      -9.645   6.386  70.636  1.00  0.00    -0.172 C  
HETATM   33  C   UNK A   2     -10.482   5.715  69.524  1.00  0.00    -0.372 C  
BRANCH  24  34
HETATM   34  O   UNK A   2      -7.429   4.664  64.829  1.00  0.00    -0.070 OA 
HETATM   35  C   UNK A   2      -7.314   5.704  63.878  1.00  0.00    -0.058 C  
ENDBRANCH  24  34
BRANCH  27  36
HETATM   36  O   UNK A   2      -9.736   3.531  65.072  1.00  0.00    -0.166 OA 
HETATM   37  C   UNK A   2     -10.831   3.925  64.269  1.00  0.00    -0.143 C  
ENDBRANCH  27  36
ENDBRANCH  17  19
ENDBRANCH  15  17
ENDBRANCH   6  15
ENDBRANCH   4   6
ENDBRANCH   3   4
ENDBRANCH   2   3
TORSDOF 11
ENDMDL
MODEL       53
REMARK 921   NORMALIZED FREE ENERGY PREDICTED BY IDOCK:   -5.67 KCAL/MOL
REMARK 922        TOTAL FREE ENERGY PREDICTED BY IDOCK:  -11.21 KCAL/MOL
REMARK 923 INTER-LIGAND FREE ENERGY PREDICTED BY IDOCK:   -9.69 KCAL/MOL
REMARK 924 INTRA-LIGAND FREE ENERGY PREDICTED BY IDOCK:   -1.53 KCAL/MOL
REMARK 927      BINDING AFFINITY PREDICTED BY RF-SCORE:    0.00 PKD
ROOT
HETATM    1  C   UNK A   0      -5.629  14.351  68.325  1.00  0.00    -0.118 C  
HETATM    2  C   UNK A   0      -6.692  13.672  69.166  1.00  0.00    -0.109 C  
ENDROOT
BRANCH   2   3
HETATM    3  O   UNK A   0      -7.966  14.229  68.830  1.00  0.00    -0.136 OA 
BRANCH   3   4
HETATM    4  C   UNK A   0      -8.754  13.500  67.989  1.00  0.00    -0.181 C  
HETATM    5  O   UNK A   0      -8.361  12.787  67.070  1.00  0.00    -0.178 OA 
BRANCH   4   6
HETATM    6  C   UNK A   0     -10.213  13.651  68.421  1.00  0.00    -0.245 C  
BRANCH   6   7
HETATM    7  C   UNK A   0     -10.461  15.079  68.913  1.00  0.00    -0.241 C  
BRANCH   7   8
HETATM    8  C   UNK A   0     -11.896  15.595  69.102  1.00  0.00    -0.378 C  
BRANCH   8   9
HETATM    9  C   UNK A   0     -12.340  15.516  70.571  1.00  0.00    -0.461 A  
HETATM   10  C   UNK A   0     -13.392  14.666  70.943  1.00  0.00    -0.350 A  
HETATM   11  C   UNK A   0     -13.733  14.493  72.296  1.00  0.00    -0.559 A  
HETATM   12  C   UNK A   0     -11.681  16.212  71.608  1.00  0.00    -0.558 A  
HETATM   13  C   UNK A   0     -13.028  15.158  73.299  1.00  0.00    -0.645 A  
HETATM   14  C   UNK A   0     -12.007  16.027  72.952  1.00  0.00    -0.611 A  
ENDBRANCH   8   9
ENDBRANCH   7   8
ENDBRANCH   6   7
BRANCH   6  15
ATOM     15  N   ALA A   1     -10.539  12.666  69.482  1.00  0.00    -0.303 NA 
ATOM     16  H   ALA A   1      -9.981  12.652  70.336  1.00  0.00     0.000 HD 
BRANCH  15  17
ATOM     17  CA  ALA A   1     -11.663  11.696  69.332  1.00  0.00    -0.340 C  
ATOM     18  CB  ALA A   1     -11.991  11.079  67.962  1.00  0.00     0.007 C  
BRANCH  17  19
ATOM     19  C   ALA A   1     -11.852  10.682  70.507  1.00  0.00    -0.357 C  
ATOM     20  O   ALA A   1     -12.777  10.869  71.307  1.00  0.00    -0.380 OA 
HETATM   21  C   UNK A   2      -9.912   7.853  69.220  1.00  0.00    -0.190 A  
HETATM   22  C   UNK A   2      -8.923   7.580  68.266  1.00  0.00    -0.130 A  
HETATM   23  N   UNK A   2     -11.102   9.520  70.591  1.00  0.00    -0.275 N  
HETATM   24  C   UNK A   2      -8.854   6.335  67.664  1.00  0.00    -0.111 A  
HETATM   25  C   UNK A   2      -9.929   9.220  69.810  1.00  0.00    -0.199 C  
HETATM   26  O   UNK A   2     -10.975   7.703  73.764  1.00  0.00    -0.220 OA 
HETATM   27  C   UNK A   2      -9.791   5.354  67.994  1.00  0.00    -0.144 A  
HETATM   28  C   UNK A   2     -10.779   5.629  68.962  1.00  0.00    -0.307 A  
HETATM   29  O   UNK A   2      -9.226   8.116  72.420  1.00  0.00    -0.178 OA 
HETATM   30  C   UNK A   2     -10.443   8.093  72.588  1.00  0.00    -0.330 C  
HETATM   31  C   UNK A   2     -10.823   6.872  69.605  1.00  0.00    -0.294 A  
HETATM   32  C   UNK A   2     -11.499   8.438  71.507  1.00  0.00    -0.278 C  
HETATM   33  C   UNK A   2     -11.855   7.191  70.665  1.00  0.00    -0.334 C  
BRANCH  24  34
HETATM   34  O   UNK A   2      -7.872   5.974  66.776  1.00  0.00    -0.099 OA 
HETATM   35  C   UNK A   2      -6.597   6.503  67.081  1.00  0.00    -0.055 C  
ENDBRANCH  24  34
BRANCH  27  36
HETATM   36  O   UNK A   2      -9.662   4.189  67.301  1.00  0.00    -0.197 OA 
HETATM   37  C   UNK A   2      -9.363   3.020  68.036  1.00  0.00    -0.201 C  
ENDBRANCH  27  36
ENDBRANCH  17  19
ENDBRANCH  15  17
ENDBRANCH   6  15
ENDBRANCH   4   6
ENDBRANCH   3   4
ENDBRANCH   2   3
TORSDOF 11
ENDMDL
MODEL       54
REMARK 921   NORMALIZED FREE ENERGY PREDICTED BY IDOCK:   -5.65 KCAL/MOL
REMARK 922        TOTAL FREE ENERGY PREDICTED BY IDOCK:  -11.19 KCAL/MOL
REMARK 923 INTER-LIGAND FREE ENERGY PREDICTED BY IDOCK:  -10.33 KCAL/MOL
REMARK 924 INTRA-LIGAND FREE ENERGY PREDICTED BY IDOCK:   -0.86 KCAL/MOL
REMARK 927      BINDING AFFINITY PREDICTED BY RF-SCORE:    0.00 PKD
ROOT
HETATM    1  C   UNK A   0     -11.015   6.516  67.334  1.00  0.00    -0.458 C  
HETATM    2  C   UNK A   0     -11.021   6.340  68.840  1.00  0.00    -0.368 C  
ENDROOT
BRANCH   2   3
HETATM    3  O   UNK A   0     -10.739   7.604  69.449  1.00  0.00    -0.230 OA 
BRANCH   3   4
HETATM    4  C   UNK A   0      -9.471   7.794  69.913  1.00  0.00    -0.160 C  
HETATM    5  O   UNK A   0      -8.498   7.089  69.661  1.00  0.00    -0.131 OA 
BRANCH   4   6
HETATM    6  C   UNK A   0      -9.435   9.076  70.744  1.00  0.00    -0.251 C  
BRANCH   6   7
HETATM    7  C   UNK A   0     -10.075   8.824  72.111  1.00  0.00    -0.362 C  
BRANCH   7   8
HETATM    8  C   UNK A   0      -9.314   8.040  73.191  1.00  0.00    -0.346 C  
BRANCH   8   9
HETATM    9  C   UNK A   0      -9.868   6.615  73.356  1.00  0.00    -0.215 A  
HETATM   10  C   UNK A   0      -9.210   5.697  74.187  1.00  0.00    -0.127 A  
HETATM   11  C   UNK A   0      -9.767   4.430  74.440  1.00  0.00    -0.160 A  
HETATM   12  C   UNK A   0     -11.076   6.191  72.761  1.00  0.00    -0.294 A  
HETATM   13  C   UNK A   0     -10.988   4.062  73.876  1.00  0.00    -0.289 A  
HETATM   14  C   UNK A   0     -11.638   4.942  73.027  1.00  0.00    -0.284 A  
ENDBRANCH   8   9
ENDBRANCH   7   8
ENDBRANCH   6   7
BRANCH   6  15
ATOM     15  N   ALA A   1     -10.137  10.171  70.030  1.00  0.00    -0.379 NA 
ATOM     16  H   ALA A   1     -11.035  10.499  70.383  1.00  0.00     0.000 HD 
BRANCH  15  17
ATOM     17  CA  ALA A   1      -9.560  10.805  68.808  1.00  0.00    -0.189 C  
ATOM     18  CB  ALA A   1      -8.326  10.201  68.116  1.00  0.00    -0.117 C  
BRANCH  17  19
ATOM     19  C   ALA A   1     -10.593  11.388  67.788  1.00  0.00    -0.195 C  
ATOM     20  O   ALA A   1     -11.623  10.743  67.555  1.00  0.00    -0.510 OA 
HETATM   21  C   UNK A   2      -9.513  14.888  67.727  1.00  0.00    -0.203 A  
HETATM   22  C   UNK A   2      -8.398  15.670  68.056  1.00  0.00    -0.146 A  
HETATM   23  N   UNK A   2     -10.446  12.657  67.252  1.00  0.00    -0.227 N  
HETATM   24  C   UNK A   2      -8.556  16.991  68.440  1.00  0.00    -0.243 A  
HETATM   25  C   UNK A   2      -9.262  13.473  67.339  1.00  0.00    -0.223 C  
HETATM   26  O   UNK A   2     -12.360  13.567  64.270  1.00  0.00    -0.549 OA 
HETATM   27  C   UNK A   2      -9.837  17.539  68.521  1.00  0.00    -0.330 A  
HETATM   28  C   UNK A   2     -10.957  16.753  68.180  1.00  0.00    -0.309 A  
HETATM   29  O   UNK A   2     -10.196  14.036  64.631  1.00  0.00    -0.420 OA 
HETATM   30  C   UNK A   2     -11.279  13.660  65.071  1.00  0.00    -0.321 C  
HETATM   31  C   UNK A   2     -10.797  15.430  67.748  1.00  0.00    -0.302 A  
HETATM   32  C   UNK A   2     -11.566  13.308  66.553  1.00  0.00    -0.350 C  
HETATM   33  C   UNK A   2     -11.974  14.567  67.351  1.00  0.00    -0.367 C  
BRANCH  24  34
HETATM   34  O   UNK A   2      -7.508  17.835  68.708  1.00  0.00    -0.265 OA 
HETATM   35  C   UNK A   2      -6.995  18.495  67.568  1.00  0.00    -0.205 C  
ENDBRANCH  24  34
BRANCH  27  36
HETATM   36  O   UNK A   2      -9.877  18.827  68.962  1.00  0.00    -0.370 OA 
HETATM   37  C   UNK A   2     -10.410  19.802  68.087  1.00  0.00    -0.431 C  
ENDBRANCH  27  36
ENDBRANCH  17  19
ENDBRANCH  15  17
ENDBRANCH   6  15
ENDBRANCH   4   6
ENDBRANCH   3   4
ENDBRANCH   2   3
TORSDOF 11
ENDMDL
MODEL       55
REMARK 921   NORMALIZED FREE ENERGY PREDICTED BY IDOCK:   -5.65 KCAL/MOL
REMARK 922        TOTAL FREE ENERGY PREDICTED BY IDOCK:  -11.18 KCAL/MOL
REMARK 923 INTER-LIGAND FREE ENERGY PREDICTED BY IDOCK:   -9.80 KCAL/MOL
REMARK 924 INTRA-LIGAND FREE ENERGY PREDICTED BY IDOCK:   -1.38 KCAL/MOL
REMARK 927      BINDING AFFINITY PREDICTED BY RF-SCORE:    0.00 PKD
ROOT
HETATM    1  C   UNK A   0     -11.327   5.468  72.272  1.00  0.00    -0.257 C  
HETATM    2  C   UNK A   0     -12.232   6.636  71.934  1.00  0.00    -0.335 C  
ENDROOT
BRANCH   2   3
HETATM    3  O   UNK A   0     -11.566   7.850  72.294  1.00  0.00    -0.305 OA 
BRANCH   3   4
HETATM    4  C   UNK A   0     -12.246   9.012  72.078  1.00  0.00    -0.375 C  
HETATM    5  O   UNK A   0     -13.234   9.395  72.696  1.00  0.00    -0.378 OA 
BRANCH   4   6
HETATM    6  C   UNK A   0     -11.532   9.806  70.983  1.00  0.00    -0.383 C  
BRANCH   6   7
HETATM    7  C   UNK A   0     -10.049   9.429  70.954  1.00  0.00    -0.366 C  
BRANCH   7   8
HETATM    8  C   UNK A   0      -9.290   9.368  69.619  1.00  0.00    -0.199 C  
BRANCH   8   9
HETATM    9  C   UNK A   0      -9.692   8.136  68.792  1.00  0.00    -0.155 A  
HETATM   10  C   UNK A   0      -9.651   6.858  69.369  1.00  0.00    -0.147 A  
HETATM   11  C   UNK A   0     -10.127   5.737  68.666  1.00  0.00    -0.227 A  
HETATM   12  C   UNK A   0     -10.186   8.229  67.473  1.00  0.00    -0.309 A  
HETATM   13  C   UNK A   0     -10.655   5.871  67.382  1.00  0.00    -0.356 A  
HETATM   14  C   UNK A   0     -10.675   7.120  66.782  1.00  0.00    -0.259 A  
ENDBRANCH   8   9
ENDBRANCH   7   8
ENDBRANCH   6   7
BRANCH   6  15
ATOM     15  N   ALA A   1     -11.699  11.263  71.212  1.00  0.00     0.050 NA 
ATOM     16  H   ALA A   1     -11.492  11.648  72.133  1.00  0.00     0.000 HD 
BRANCH  15  17
ATOM     17  CA  ALA A   1     -12.164  12.177  70.128  1.00  0.00    -0.231 C  
ATOM     18  CB  ALA A   1     -12.256  13.694  70.364  1.00  0.00    -0.434 C  
BRANCH  17  19
ATOM     19  C   ALA A   1     -11.682  11.824  68.683  1.00  0.00    -0.330 C  
ATOM     20  O   ALA A   1     -12.286  10.945  68.055  1.00  0.00    -0.422 OA 
HETATM   21  C   UNK A   2      -9.690  14.807  67.935  1.00  0.00    -0.211 A  
HETATM   22  C   UNK A   2      -9.061  15.868  68.599  1.00  0.00    -0.206 A  
HETATM   23  N   UNK A   2     -10.693  12.559  68.048  1.00  0.00    -0.214 N  
HETATM   24  C   UNK A   2      -8.909  17.094  67.975  1.00  0.00    -0.229 A  
HETATM   25  C   UNK A   2      -9.830  13.525  68.678  1.00  0.00    -0.125 C  
HETATM   26  O   UNK A   2      -9.034  11.150  65.106  1.00  0.00    -0.179 OA 
HETATM   27  C   UNK A   2      -9.406  17.281  66.684  1.00  0.00    -0.260 A  
HETATM   28  C   UNK A   2     -10.030  16.209  66.014  1.00  0.00    -0.373 A  
HETATM   29  O   UNK A   2      -8.018  12.222  66.796  1.00  0.00    -0.108 OA 
HETATM   30  C   UNK A   2      -9.056  11.926  66.210  1.00  0.00    -0.188 C  
HETATM   31  C   UNK A   2     -10.146  14.954  66.626  1.00  0.00    -0.264 A  
HETATM   32  C   UNK A   2     -10.473  12.421  66.599  1.00  0.00    -0.229 C  
HETATM   33  C   UNK A   2     -10.788  13.776  65.926  1.00  0.00    -0.283 C  
BRANCH  24  34
HETATM   34  O   UNK A   2      -8.242  18.154  68.536  1.00  0.00    -0.301 OA 
HETATM   35  C   UNK A   2      -6.923  17.852  68.948  1.00  0.00    -0.260 C  
ENDBRANCH  24  34
BRANCH  27  36
HETATM   36  O   UNK A   2      -9.250  18.541  66.192  1.00  0.00    -0.461 OA 
HETATM   37  C   UNK A   2     -10.413  19.329  66.031  1.00  0.00    -0.487 C  
ENDBRANCH  27  36
ENDBRANCH  17  19
ENDBRANCH  15  17
ENDBRANCH   6  15
ENDBRANCH   4   6
ENDBRANCH   3   4
ENDBRANCH   2   3
TORSDOF 11
ENDMDL
MODEL       56
REMARK 921   NORMALIZED FREE ENERGY PREDICTED BY IDOCK:   -5.63 KCAL/MOL
REMARK 922        TOTAL FREE ENERGY PREDICTED BY IDOCK:  -11.16 KCAL/MOL
REMARK 923 INTER-LIGAND FREE ENERGY PREDICTED BY IDOCK:  -10.33 KCAL/MOL
REMARK 924 INTRA-LIGAND FREE ENERGY PREDICTED BY IDOCK:   -0.83 KCAL/MOL
REMARK 927      BINDING AFFINITY PREDICTED BY RF-SCORE:    0.00 PKD
ROOT
HETATM    1  C   UNK A   0     -11.712  11.871  63.589  1.00  0.00    -0.572 C  
HETATM    2  C   UNK A   0     -12.244  12.726  64.723  1.00  0.00    -0.459 C  
ENDROOT
BRANCH   2   3
HETATM    3  O   UNK A   0     -12.056  12.022  65.954  1.00  0.00    -0.546 OA 
BRANCH   3   4
HETATM    4  C   UNK A   0     -11.000  12.408  66.727  1.00  0.00    -0.263 C  
HETATM    5  O   UNK A   0      -9.921  12.822  66.318  1.00  0.00    -0.254 OA 
BRANCH   4   6
HETATM    6  C   UNK A   0     -11.404  12.312  68.199  1.00  0.00    -0.295 C  
BRANCH   6   7
HETATM    7  C   UNK A   0     -12.119  13.597  68.624  1.00  0.00    -0.325 C  
BRANCH   7   8
HETATM    8  C   UNK A   0     -11.360  14.686  69.398  1.00  0.00    -0.314 C  
BRANCH   8   9
HETATM    9  C   UNK A   0     -11.989  14.946  70.777  1.00  0.00    -0.372 A  
HETATM   10  C   UNK A   0     -12.851  13.998  71.347  1.00  0.00    -0.434 A  
HETATM   11  C   UNK A   0     -13.340  14.166  72.654  1.00  0.00    -0.638 A  
HETATM   12  C   UNK A   0     -11.679  16.082  71.556  1.00  0.00    -0.554 A  
HETATM   13  C   UNK A   0     -12.974  15.276  73.416  1.00  0.00    -0.656 A  
HETATM   14  C   UNK A   0     -12.150  16.240  72.860  1.00  0.00    -0.625 A  
ENDBRANCH   8   9
ENDBRANCH   7   8
ENDBRANCH   6   7
BRANCH   6  15
ATOM     15  N   ALA A   1     -10.209  12.072  69.045  1.00  0.00    -0.420 NA 
ATOM     16  H   ALA A   1      -9.868  12.821  69.647  1.00  0.00     0.000 HD 
BRANCH  15  17
ATOM     17  CA  ALA A   1      -9.495  10.762  69.038  1.00  0.00    -0.166 C  
ATOM     18  CB  ALA A   1      -7.974  10.693  69.252  1.00  0.00    -0.139 C  
BRANCH  17  19
ATOM     19  C   ALA A   1     -10.249   9.568  69.712  1.00  0.00    -0.228 C  
ATOM     20  O   ALA A   1     -11.223   9.815  70.434  1.00  0.00    -0.258 OA 
HETATM   21  C   UNK A   2      -9.055   6.805  67.623  1.00  0.00    -0.117 A  
HETATM   22  C   UNK A   2      -8.015   6.509  66.732  1.00  0.00    -0.108 A  
HETATM   23  N   UNK A   2      -9.938   8.252  69.412  1.00  0.00    -0.184 N  
HETATM   24  C   UNK A   2      -8.206   5.598  65.709  1.00  0.00    -0.122 A  
HETATM   25  C   UNK A   2      -8.775   7.808  68.688  1.00  0.00    -0.128 C  
HETATM   26  O   UNK A   2     -11.096   5.593  71.644  1.00  0.00    -0.251 OA 
HETATM   27  C   UNK A   2      -9.451   4.987  65.550  1.00  0.00    -0.117 A  
HETATM   28  C   UNK A   2     -10.493   5.280  66.453  1.00  0.00    -0.347 A  
HETATM   29  O   UNK A   2      -9.053   5.737  70.727  1.00  0.00    -0.145 OA 
HETATM   30  C   UNK A   2     -10.220   6.116  70.761  1.00  0.00    -0.198 C  
HETATM   31  C   UNK A   2     -10.289   6.167  67.517  1.00  0.00    -0.259 A  
HETATM   32  C   UNK A   2     -10.847   7.161  69.802  1.00  0.00    -0.240 C  
HETATM   33  C   UNK A   2     -11.378   6.484  68.518  1.00  0.00    -0.179 C  
BRANCH  24  34
HETATM   34  O   UNK A   2      -7.214   5.207  64.844  1.00  0.00    -0.061 OA 
HETATM   35  C   UNK A   2      -6.620   6.272  64.130  1.00  0.00    -0.034 C  
ENDBRANCH  24  34
BRANCH  27  36
HETATM   36  O   UNK A   2      -9.542   4.152  64.478  1.00  0.00    -0.158 OA 
HETATM   37  C   UNK A   2     -10.832   3.721  64.091  1.00  0.00    -0.161 C  
ENDBRANCH  27  36
ENDBRANCH  17  19
ENDBRANCH  15  17
ENDBRANCH   6  15
ENDBRANCH   4   6
ENDBRANCH   3   4
ENDBRANCH   2   3
TORSDOF 11
ENDMDL
MODEL       57
REMARK 921   NORMALIZED FREE ENERGY PREDICTED BY IDOCK:   -5.54 KCAL/MOL
REMARK 922        TOTAL FREE ENERGY PREDICTED BY IDOCK:  -11.01 KCAL/MOL
REMARK 923 INTER-LIGAND FREE ENERGY PREDICTED BY IDOCK:   -8.41 KCAL/MOL
REMARK 924 INTRA-LIGAND FREE ENERGY PREDICTED BY IDOCK:   -2.60 KCAL/MOL
REMARK 927      BINDING AFFINITY PREDICTED BY RF-SCORE:    0.00 PKD
ROOT
HETATM    1  C   UNK A   0      -9.413   9.600  70.487  1.00  0.00    -0.243 C  
HETATM    2  C   UNK A   0      -7.922   9.613  70.210  1.00  0.00    -0.179 C  
ENDROOT
BRANCH   2   3
HETATM    3  O   UNK A   0      -7.618  10.751  69.397  1.00  0.00    -0.133 OA 
BRANCH   3   4
HETATM    4  C   UNK A   0      -7.388  10.517  68.074  1.00  0.00    -0.089 C  
HETATM    5  O   UNK A   0      -6.560   9.736  67.613  1.00  0.00    -0.067 OA 
BRANCH   4   6
HETATM    6  C   UNK A   0      -8.383  11.331  67.247  1.00  0.00    -0.145 C  
BRANCH   6   7
HETATM    7  C   UNK A   0      -8.656  12.669  67.937  1.00  0.00    -0.181 C  
BRANCH   7   8
HETATM    8  C   UNK A   0     -10.098  13.108  68.235  1.00  0.00    -0.247 C  
BRANCH   8   9
HETATM    9  C   UNK A   0     -10.789  13.678  66.986  1.00  0.00    -0.291 A  
HETATM   10  C   UNK A   0     -10.062  14.455  66.073  1.00  0.00    -0.338 A  
HETATM   11  C   UNK A   0     -10.647  14.885  64.868  1.00  0.00    -0.417 A  
HETATM   12  C   UNK A   0     -12.132  13.392  66.658  1.00  0.00    -0.429 A  
HETATM   13  C   UNK A   0     -11.962  14.542  64.552  1.00  0.00    -0.482 A  
HETATM   14  C   UNK A   0     -12.708  13.802  65.454  1.00  0.00    -0.513 A  
ENDBRANCH   8   9
ENDBRANCH   7   8
ENDBRANCH   6   7
BRANCH   6  15
ATOM     15  N   ALA A   1      -9.643  10.569  67.063  1.00  0.00    -0.170 NA 
ATOM     16  H   ALA A   1     -10.311  10.520  67.832  1.00  0.00     0.000 HD 
BRANCH  15  17
ATOM     17  CA  ALA A   1      -9.957   9.872  65.781  1.00  0.00    -0.277 C  
ATOM     18  CB  ALA A   1     -10.106  10.664  64.470  1.00  0.00    -0.421 C  
BRANCH  17  19
ATOM     19  C   ALA A   1      -9.262   8.487  65.568  1.00  0.00    -0.041 C  
ATOM     20  O   ALA A   1      -8.307   8.418  64.784  1.00  0.00    -0.163 OA 
HETATM   21  C   UNK A   2     -10.463   6.714  68.541  1.00  0.00    -0.246 A  
HETATM   22  C   UNK A   2     -11.479   6.801  69.502  1.00  0.00    -0.247 A  
HETATM   23  N   UNK A   2      -9.600   7.381  66.331  1.00  0.00    -0.153 N  
HETATM   24  C   UNK A   2     -11.279   6.313  70.781  1.00  0.00    -0.324 A  
HETATM   25  C   UNK A   2     -10.750   7.275  67.192  1.00  0.00    -0.343 C  
HETATM   26  O   UNK A   2      -8.599   4.052  65.188  1.00  0.00    -0.111 OA 
HETATM   27  C   UNK A   2     -10.047   5.753  71.123  1.00  0.00    -0.203 A  
HETATM   28  C   UNK A   2      -9.029   5.658  70.152  1.00  0.00    -0.151 A  
HETATM   29  O   UNK A   2     -10.604   4.599  66.035  1.00  0.00    -0.302 OA 
HETATM   30  C   UNK A   2      -9.427   4.893  65.840  1.00  0.00    -0.164 C  
HETATM   31  C   UNK A   2      -9.244   6.109  68.844  1.00  0.00    -0.125 A  
HETATM   32  C   UNK A   2      -8.737   6.188  66.342  1.00  0.00    -0.138 C  
HETATM   33  C   UNK A   2      -8.182   5.999  67.772  1.00  0.00    -0.112 C  
BRANCH  24  34
HETATM   34  O   UNK A   2     -12.251   6.301  71.750  1.00  0.00    -0.312 OA 
HETATM   35  C   UNK A   2     -13.356   7.136  71.468  1.00  0.00    -0.344 C  
ENDBRANCH  24  34
BRANCH  27  36
HETATM   36  O   UNK A   2      -9.944   5.358  72.422  1.00  0.00    -0.164 OA 
HETATM   37  C   UNK A   2      -9.685   3.990  72.672  1.00  0.00    -0.145 C  
ENDBRANCH  27  36
ENDBRANCH  17  19
ENDBRANCH  15  17
ENDBRANCH   6  15
ENDBRANCH   4   6
ENDBRANCH   3   4
ENDBRANCH   2   3
TORSDOF 11
ENDMDL
MODEL       58
REMARK 921   NORMALIZED FREE ENERGY PREDICTED BY IDOCK:   -5.47 KCAL/MOL
REMARK 922        TOTAL FREE ENERGY PREDICTED BY IDOCK:  -10.89 KCAL/MOL
REMARK 923 INTER-LIGAND FREE ENERGY PREDICTED BY IDOCK:   -9.15 KCAL/MOL
REMARK 924 INTRA-LIGAND FREE ENERGY PREDICTED BY IDOCK:   -1.74 KCAL/MOL
REMARK 927      BINDING AFFINITY PREDICTED BY RF-SCORE:    0.00 PKD
ROOT
HETATM    1  C   UNK A   0      -6.888  16.601  67.328  1.00  0.00    -0.212 C  
HETATM    2  C   UNK A   0      -6.720  15.427  68.272  1.00  0.00    -0.119 C  
ENDROOT
BRANCH   2   3
HETATM    3  O   UNK A   0      -8.007  15.054  68.773  1.00  0.00    -0.142 OA 
BRANCH   3   4
HETATM    4  C   UNK A   0      -8.494  13.843  68.377  1.00  0.00    -0.159 C  
HETATM    5  O   UNK A   0      -7.833  12.825  68.195  1.00  0.00    -0.127 OA 
BRANCH   4   6
HETATM    6  C   UNK A   0     -10.016  13.933  68.267  1.00  0.00    -0.238 C  
BRANCH   6   7
HETATM    7  C   UNK A   0     -10.458  15.392  68.399  1.00  0.00    -0.239 C  
BRANCH   7   8
HETATM    8  C   UNK A   0     -10.887  16.188  67.155  1.00  0.00    -0.216 C  
BRANCH   8   9
HETATM    9  C   UNK A   0     -10.452  17.659  67.243  1.00  0.00    -0.338 A  
HETATM   10  C   UNK A   0     -10.438  18.458  66.091  1.00  0.00    -0.422 A  
HETATM   11  C   UNK A   0     -10.156  19.834  66.174  1.00  0.00    -0.600 A  
HETATM   12  C   UNK A   0     -10.128  18.289  68.465  1.00  0.00    -0.419 A  
HETATM   13  C   UNK A   0      -9.890  20.434  67.404  1.00  0.00    -0.587 A  
HETATM   14  C   UNK A   0      -9.866  19.657  68.550  1.00  0.00    -0.519 A  
ENDBRANCH   8   9
ENDBRANCH   7   8
ENDBRANCH   6   7
BRANCH   6  15
ATOM     15  N   ALA A   1     -10.658  13.095  69.310  1.00  0.00    -0.436 NA 
ATOM     16  H   ALA A   1     -10.422  13.254  70.290  1.00  0.00     0.000 HD 
BRANCH  15  17
ATOM     17  CA  ALA A   1     -11.637  12.025  68.962  1.00  0.00    -0.313 C  
ATOM     18  CB  ALA A   1     -11.778  11.528  67.513  1.00  0.00    -0.262 C  
BRANCH  17  19
ATOM     19  C   ALA A   1     -11.792  10.872  70.008  1.00  0.00    -0.347 C  
ATOM     20  O   ALA A   1     -12.872  10.749  70.598  1.00  0.00    -0.340 OA 
HETATM   21  C   UNK A   2      -8.987   8.736  69.012  1.00  0.00    -0.137 A  
HETATM   22  C   UNK A   2      -7.794   8.807  68.282  1.00  0.00    -0.101 A  
HETATM   23  N   UNK A   2     -10.804   9.917  70.186  1.00  0.00    -0.281 N  
HETATM   24  C   UNK A   2      -7.296   7.687  67.639  1.00  0.00    -0.095 A  
HETATM   25  C   UNK A   2      -9.464   9.987  69.662  1.00  0.00    -0.223 C  
HETATM   26  O   UNK A   2     -10.848   7.845  73.201  1.00  0.00    -0.375 OA 
HETATM   27  C   UNK A   2      -8.002   6.484  67.701  1.00  0.00    -0.114 A  
HETATM   28  C   UNK A   2      -9.197   6.412  68.445  1.00  0.00    -0.120 A  
HETATM   29  O   UNK A   2      -9.031   8.801  72.294  1.00  0.00    -0.360 OA 
HETATM   30  C   UNK A   2     -10.211   8.475  72.193  1.00  0.00    -0.333 C  
HETATM   31  C   UNK A   2      -9.679   7.532  69.133  1.00  0.00    -0.166 A  
HETATM   32  C   UNK A   2     -11.087   8.678  70.930  1.00  0.00    -0.264 C  
HETATM   33  C   UNK A   2     -10.945   7.483  69.961  1.00  0.00    -0.252 C  
BRANCH  24  34
HETATM   34  O   UNK A   2      -6.101   7.665  66.966  1.00  0.00    -0.048 OA 
HETATM   35  C   UNK A   2      -6.021   8.594  65.903  1.00  0.00    -0.048 C  
ENDBRANCH  24  34
BRANCH  27  36
HETATM   36  O   UNK A   2      -7.449   5.464  66.986  1.00  0.00    -0.085 OA 
HETATM   37  C   UNK A   2      -8.166   4.989  65.864  1.00  0.00    -0.114 C  
ENDBRANCH  27  36
ENDBRANCH  17  19
ENDBRANCH  15  17
ENDBRANCH   6  15
ENDBRANCH   4   6
ENDBRANCH   3   4
ENDBRANCH   2   3
TORSDOF 11
ENDMDL
MODEL       59
REMARK 921   NORMALIZED FREE ENERGY PREDICTED BY IDOCK:   -5.44 KCAL/MOL
REMARK 922        TOTAL FREE ENERGY PREDICTED BY IDOCK:  -10.84 KCAL/MOL
REMARK 923 INTER-LIGAND FREE ENERGY PREDICTED BY IDOCK:   -9.80 KCAL/MOL
REMARK 924 INTRA-LIGAND FREE ENERGY PREDICTED BY IDOCK:   -1.04 KCAL/MOL
REMARK 927      BINDING AFFINITY PREDICTED BY RF-SCORE:    0.00 PKD
ROOT
HETATM    1  C   UNK A   0     -11.090   6.568  66.803  1.00  0.00    -0.229 C  
HETATM    2  C   UNK A   0      -9.714   6.371  67.409  1.00  0.00    -0.121 C  
ENDROOT
BRANCH   2   3
HETATM    3  O   UNK A   0      -9.716   6.912  68.734  1.00  0.00    -0.137 OA 
BRANCH   3   4
HETATM    4  C   UNK A   0      -8.566   7.512  69.155  1.00  0.00    -0.136 C  
HETATM    5  O   UNK A   0      -7.426   7.097  68.967  1.00  0.00    -0.090 OA 
BRANCH   4   6
HETATM    6  C   UNK A   0      -8.918   8.833  69.839  1.00  0.00    -0.152 C  
BRANCH   6   7
HETATM    7  C   UNK A   0      -9.457   8.559  71.245  1.00  0.00    -0.265 C  
BRANCH   7   8
HETATM    8  C   UNK A   0     -10.580   9.431  71.828  1.00  0.00    -0.133 C  
BRANCH   8   9
HETATM    9  C   UNK A   0     -11.906   8.659  71.929  1.00  0.00    -0.420 A  
HETATM   10  C   UNK A   0     -13.100   9.344  72.195  1.00  0.00    -0.526 A  
HETATM   11  C   UNK A   0     -14.335   8.671  72.174  1.00  0.00    -0.518 A  
HETATM   12  C   UNK A   0     -12.003   7.272  71.687  1.00  0.00    -0.341 A  
HETATM   13  C   UNK A   0     -14.400   7.309  71.882  1.00  0.00    -0.507 A  
HETATM   14  C   UNK A   0     -13.229   6.607  71.648  1.00  0.00    -0.104 A  
ENDBRANCH   8   9
ENDBRANCH   7   8
ENDBRANCH   6   7
BRANCH   6  15
ATOM     15  N   ALA A   1      -9.914   9.581  69.032  1.00  0.00    -0.174 NA 
ATOM     16  H   ALA A   1     -10.905   9.366  69.143  1.00  0.00     0.000 HD 
BRANCH  15  17
ATOM     17  CA  ALA A   1      -9.501  10.637  68.063  1.00  0.00    -0.158 C  
ATOM     18  CB  ALA A   1      -8.232  10.471  67.210  1.00  0.00    -0.119 C  
BRANCH  17  19
ATOM     19  C   ALA A   1     -10.661  11.337  67.280  1.00  0.00    -0.233 C  
ATOM     20  O   ALA A   1     -11.746  10.751  67.180  1.00  0.00    -0.312 OA 
HETATM   21  C   UNK A   2      -9.435  14.790  67.290  1.00  0.00    -0.217 A  
HETATM   22  C   UNK A   2      -8.243  15.502  67.480  1.00  0.00    -0.182 A  
HETATM   23  N   UNK A   2     -10.543  12.639  66.821  1.00  0.00    -0.236 N  
HETATM   24  C   UNK A   2      -8.269  16.792  67.980  1.00  0.00    -0.192 A  
HETATM   25  C   UNK A   2      -9.323  13.402  66.763  1.00  0.00    -0.256 C  
HETATM   26  O   UNK A   2     -12.885  13.855  64.285  1.00  0.00    -0.618 OA 
HETATM   27  C   UNK A   2      -9.490  17.379  68.319  1.00  0.00    -0.290 A  
HETATM   28  C   UNK A   2     -10.688  16.663  68.119  1.00  0.00    -0.349 A  
HETATM   29  O   UNK A   2     -10.669  14.214  64.303  1.00  0.00    -0.259 OA 
HETATM   30  C   UNK A   2     -11.681  13.844  64.894  1.00  0.00    -0.368 C  
HETATM   31  C   UNK A   2     -10.668  15.375  67.570  1.00  0.00    -0.295 A  
HETATM   32  C   UNK A   2     -11.732  13.385  66.374  1.00  0.00    -0.368 C  
HETATM   33  C   UNK A   2     -11.937  14.590  67.319  1.00  0.00    -0.375 C  
BRANCH  24  34
HETATM   34  O   UNK A   2      -7.150  17.574  68.125  1.00  0.00    -0.193 OA 
HETATM   35  C   UNK A   2      -6.447  17.801  66.920  1.00  0.00    -0.170 C  
ENDBRANCH  24  34
BRANCH  27  36
HETATM   36  O   UNK A   2      -9.391  18.627  68.853  1.00  0.00    -0.312 OA 
HETATM   37  C   UNK A   2     -10.122  19.665  68.230  1.00  0.00    -0.449 C  
ENDBRANCH  27  36
ENDBRANCH  17  19
ENDBRANCH  15  17
ENDBRANCH   6  15
ENDBRANCH   4   6
ENDBRANCH   3   4
ENDBRANCH   2   3
TORSDOF 11
ENDMDL
MODEL       60
REMARK 921   NORMALIZED FREE ENERGY PREDICTED BY IDOCK:   -5.44 KCAL/MOL
REMARK 922        TOTAL FREE ENERGY PREDICTED BY IDOCK:  -10.84 KCAL/MOL
REMARK 923 INTER-LIGAND FREE ENERGY PREDICTED BY IDOCK:   -8.61 KCAL/MOL
REMARK 924 INTRA-LIGAND FREE ENERGY PREDICTED BY IDOCK:   -2.23 KCAL/MOL
REMARK 927      BINDING AFFINITY PREDICTED BY RF-SCORE:    0.00 PKD
ROOT
HETATM    1  C   UNK A   0     -11.350  11.777  63.999  1.00  0.00    -0.461 C  
HETATM    2  C   UNK A   0     -11.949  12.783  64.963  1.00  0.00    -0.412 C  
ENDROOT
BRANCH   2   3
HETATM    3  O   UNK A   0     -12.099  12.157  66.241  1.00  0.00    -0.626 OA 
BRANCH   3   4
HETATM    4  C   UNK A   0     -11.738  12.894  67.331  1.00  0.00    -0.372 C  
HETATM    5  O   UNK A   0     -11.953  14.091  67.495  1.00  0.00    -0.386 OA 
BRANCH   4   6
HETATM    6  C   UNK A   0     -11.086  11.970  68.359  1.00  0.00    -0.245 C  
BRANCH   6   7
HETATM    7  C   UNK A   0     -10.026  11.103  67.676  1.00  0.00    -0.195 C  
BRANCH   7   8
HETATM    8  C   UNK A   0      -8.821  11.755  66.980  1.00  0.00    -0.182 C  
BRANCH   8   9
HETATM    9  C   UNK A   0      -7.737  12.168  67.989  1.00  0.00    -0.134 A  
HETATM   10  C   UNK A   0      -7.370  13.515  68.116  1.00  0.00    -0.121 A  
HETATM   11  C   UNK A   0      -6.466  13.923  69.113  1.00  0.00    -0.111 A  
HETATM   12  C   UNK A   0      -7.127  11.251  68.873  1.00  0.00    -0.104 A  
HETATM   13  C   UNK A   0      -5.921  12.998  70.003  1.00  0.00    -0.140 A  
HETATM   14  C   UNK A   0      -6.245  11.658  69.875  1.00  0.00    -0.144 A  
ENDBRANCH   8   9
ENDBRANCH   7   8
ENDBRANCH   6   7
BRANCH   6  15
ATOM     15  N   ALA A   1     -12.113  11.123  69.015  1.00  0.00    -0.523 NA 
ATOM     16  H   ALA A   1     -12.778  10.611  68.436  1.00  0.00     0.000 HD 
BRANCH  15  17
ATOM     17  CA  ALA A   1     -12.197  11.002  70.499  1.00  0.00    -0.381 C  
ATOM     18  CB  ALA A   1     -12.884  12.091  71.341  1.00  0.00    -0.391 C  
BRANCH  17  19
ATOM     19  C   ALA A   1     -12.457   9.563  71.054  1.00  0.00    -0.267 C  
ATOM     20  O   ALA A   1     -13.590   9.284  71.468  1.00  0.00    -0.371 OA 
HETATM   21  C   UNK A   2      -9.586   7.801  69.614  1.00  0.00    -0.163 A  
HETATM   22  C   UNK A   2      -8.329   8.076  69.061  1.00  0.00    -0.129 A  
HETATM   23  N   UNK A   2     -11.498   8.567  70.968  1.00  0.00    -0.269 N  
HETATM   24  C   UNK A   2      -7.781   7.233  68.110  1.00  0.00    -0.117 A  
HETATM   25  C   UNK A   2     -10.113   8.763  70.620  1.00  0.00    -0.204 C  
HETATM   26  O   UNK A   2     -11.841   5.573  73.043  1.00  0.00    -0.200 OA 
HETATM   27  C   UNK A   2      -8.497   6.114  67.683  1.00  0.00    -0.108 A  
HETATM   28  C   UNK A   2      -9.758   5.833  68.248  1.00  0.00    -0.153 A  
HETATM   29  O   UNK A   2      -9.940   6.713  72.692  1.00  0.00    -0.169 OA 
HETATM   30  C   UNK A   2     -11.107   6.491  72.381  1.00  0.00    -0.259 C  
HETATM   31  C   UNK A   2     -10.295   6.659  69.243  1.00  0.00    -0.228 A  
HETATM   32  C   UNK A   2     -11.858   7.158  71.200  1.00  0.00    -0.325 C  
HETATM   33  C   UNK A   2     -11.633   6.374  69.888  1.00  0.00    -0.422 C  
BRANCH  24  34
HETATM   34  O   UNK A   2      -6.527   7.401  67.578  1.00  0.00    -0.055 OA 
HETATM   35  C   UNK A   2      -5.570   7.882  68.500  1.00  0.00    -0.028 C  
ENDBRANCH  24  34
BRANCH  27  36
HETATM   36  O   UNK A   2      -7.887   5.388  66.705  1.00  0.00    -0.099 OA 
HETATM   37  C   UNK A   2      -8.584   4.273  66.186  1.00  0.00    -0.113 C  
ENDBRANCH  27  36
ENDBRANCH  17  19
ENDBRANCH  15  17
ENDBRANCH   6  15
ENDBRANCH   4   6
ENDBRANCH   3   4
ENDBRANCH   2   3
TORSDOF 11
ENDMDL
MODEL       61
REMARK 921   NORMALIZED FREE ENERGY PREDICTED BY IDOCK:   -5.43 KCAL/MOL
REMARK 922        TOTAL FREE ENERGY PREDICTED BY IDOCK:  -10.83 KCAL/MOL
REMARK 923 INTER-LIGAND FREE ENERGY PREDICTED BY IDOCK:  -10.05 KCAL/MOL
REMARK 924 INTRA-LIGAND FREE ENERGY PREDICTED BY IDOCK:   -0.78 KCAL/MOL
REMARK 927      BINDING AFFINITY PREDICTED BY RF-SCORE:    0.00 PKD
ROOT
HETATM    1  C   UNK A   0      -5.194   8.572  71.465  1.00  0.00    -0.034 C  
HETATM    2  C   UNK A   0      -6.169   9.600  70.926  1.00  0.00    -0.087 C  
ENDROOT
BRANCH   2   3
HETATM    3  O   UNK A   0      -6.835   9.044  69.788  1.00  0.00    -0.047 OA 
BRANCH   3   4
HETATM    4  C   UNK A   0      -8.088   8.544  69.992  1.00  0.00    -0.111 C  
HETATM    5  O   UNK A   0      -8.395   7.356  70.019  1.00  0.00    -0.132 OA 
BRANCH   4   6
HETATM    6  C   UNK A   0      -9.046   9.705  70.259  1.00  0.00    -0.225 C  
BRANCH   6   7
HETATM    7  C   UNK A   0     -10.491   9.205  70.212  1.00  0.00    -0.257 C  
BRANCH   7   8
HETATM    8  C   UNK A   0     -11.353   9.203  71.485  1.00  0.00    -0.439 C  
BRANCH   8   9
HETATM    9  C   UNK A   0     -11.223   7.881  72.258  1.00  0.00    -0.389 A  
HETATM   10  C   UNK A   0     -12.013   6.778  71.903  1.00  0.00    -0.374 A  
HETATM   11  C   UNK A   0     -11.823   5.529  72.522  1.00  0.00    -0.158 A  
HETATM   12  C   UNK A   0     -10.273   7.686  73.284  1.00  0.00    -0.398 A  
HETATM   13  C   UNK A   0     -10.841   5.359  73.498  1.00  0.00    -0.342 A  
HETATM   14  C   UNK A   0     -10.072   6.443  73.886  1.00  0.00    -0.305 A  
ENDBRANCH   8   9
ENDBRANCH   7   8
ENDBRANCH   6   7
BRANCH   6  15
ATOM     15  N   ALA A   1      -8.833  10.786  69.265  1.00  0.00    -0.359 NA 
ATOM     16  H   ALA A   1      -8.358  11.641  69.554  1.00  0.00     0.000 HD 
BRANCH  15  17
ATOM     17  CA  ALA A   1      -9.297  10.654  67.853  1.00  0.00    -0.148 C  
ATOM     18  CB  ALA A   1      -9.140   9.325  67.094  1.00  0.00    -0.149 C  
BRANCH  17  19
ATOM     19  C   ALA A   1     -10.631  11.391  67.500  1.00  0.00    -0.213 C  
ATOM     20  O   ALA A   1     -11.703  10.831  67.759  1.00  0.00    -0.547 OA 
HETATM   21  C   UNK A   2      -9.381  14.815  67.127  1.00  0.00    -0.233 A  
HETATM   22  C   UNK A   2      -8.175  15.497  66.918  1.00  0.00    -0.287 A  
HETATM   23  N   UNK A   2     -10.637  12.697  67.036  1.00  0.00    -0.238 N  
HETATM   24  C   UNK A   2      -8.001  16.780  67.406  1.00  0.00    -0.170 A  
HETATM   25  C   UNK A   2      -9.484  13.432  66.584  1.00  0.00    -0.260 C  
HETATM   26  O   UNK A   2     -13.650  14.000  65.419  1.00  0.00    -0.593 OA 
HETATM   27  C   UNK A   2      -9.027  17.389  68.131  1.00  0.00    -0.260 A  
HETATM   28  C   UNK A   2     -10.243  16.704  68.332  1.00  0.00    -0.284 A  
HETATM   29  O   UNK A   2     -11.543  14.309  64.709  1.00  0.00    -0.363 OA 
HETATM   30  C   UNK A   2     -12.314  13.954  65.597  1.00  0.00    -0.482 C  
HETATM   31  C   UNK A   2     -10.438  15.424  67.800  1.00  0.00    -0.266 A  
HETATM   32  C   UNK A   2     -11.887  13.475  67.009  1.00  0.00    -0.402 C  
HETATM   33  C   UNK A   2     -11.739  14.671  67.976  1.00  0.00    -0.371 C  
BRANCH  24  34
HETATM   34  O   UNK A   2      -6.877  17.534  67.179  1.00  0.00    -0.154 OA 
HETATM   35  C   UNK A   2      -6.736  17.969  65.841  1.00  0.00    -0.288 C  
ENDBRANCH  24  34
BRANCH  27  36
HETATM   36  O   UNK A   2      -8.726  18.628  68.610  1.00  0.00    -0.324 OA 
HETATM   37  C   UNK A   2      -9.474  19.721  68.116  1.00  0.00    -0.357 C  
ENDBRANCH  27  36
ENDBRANCH  17  19
ENDBRANCH  15  17
ENDBRANCH   6  15
ENDBRANCH   4   6
ENDBRANCH   3   4
ENDBRANCH   2   3
TORSDOF 11
ENDMDL
MODEL       62
REMARK 921   NORMALIZED FREE ENERGY PREDICTED BY IDOCK:   -5.42 KCAL/MOL
REMARK 922        TOTAL FREE ENERGY PREDICTED BY IDOCK:  -10.81 KCAL/MOL
REMARK 923 INTER-LIGAND FREE ENERGY PREDICTED BY IDOCK:   -9.39 KCAL/MOL
REMARK 924 INTRA-LIGAND FREE ENERGY PREDICTED BY IDOCK:   -1.42 KCAL/MOL
REMARK 927      BINDING AFFINITY PREDICTED BY RF-SCORE:    0.00 PKD
ROOT
HETATM    1  C   UNK A   0      -9.752  20.393  66.765  1.00  0.00    -0.528 C  
HETATM    2  C   UNK A   0     -10.885  19.535  66.236  1.00  0.00    -0.327 C  
ENDROOT
BRANCH   2   3
HETATM    3  O   UNK A   0     -10.356  18.260  65.860  1.00  0.00    -0.540 OA 
BRANCH   3   4
HETATM    4  C   UNK A   0     -10.282  17.313  66.840  1.00  0.00    -0.322 C  
HETATM    5  O   UNK A   0     -10.900  17.322  67.899  1.00  0.00    -0.369 OA 
BRANCH   4   6
HETATM    6  C   UNK A   0      -9.355  16.190  66.372  1.00  0.00    -0.298 C  
BRANCH   6   7
HETATM    7  C   UNK A   0      -7.928  16.724  66.227  1.00  0.00    -0.352 C  
BRANCH   7   8
HETATM    8  C   UNK A   0      -7.088  17.041  67.474  1.00  0.00    -0.173 C  
BRANCH   8   9
HETATM    9  C   UNK A   0      -6.589  18.495  67.470  1.00  0.00    -0.198 A  
HETATM   10  C   UNK A   0      -6.184  19.096  66.269  1.00  0.00    -0.193 A  
HETATM   11  C   UNK A   0      -5.837  20.458  66.228  1.00  0.00    -0.208 A  
HETATM   12  C   UNK A   0      -6.588  19.306  68.625  1.00  0.00    -0.302 A  
HETATM   13  C   UNK A   0      -5.896  21.243  67.380  1.00  0.00    -0.421 A  
HETATM   14  C   UNK A   0      -6.263  20.662  68.582  1.00  0.00    -0.341 A  
ENDBRANCH   8   9
ENDBRANCH   7   8
ENDBRANCH   6   7
BRANCH   6  15
ATOM     15  N   ALA A   1      -9.838  15.626  65.087  1.00  0.00    -0.329 NA 
ATOM     16  H   ALA A   1      -9.557  16.071  64.213  1.00  0.00     0.000 HD 
BRANCH  15  17
ATOM     17  CA  ALA A   1     -10.723  14.426  65.042  1.00  0.00    -0.423 C  
ATOM     18  CB  ALA A   1     -10.221  13.099  64.449  1.00  0.00    -0.319 C  
BRANCH  17  19
ATOM     19  C   ALA A   1     -11.650  14.215  66.284  1.00  0.00    -0.370 C  
ATOM     20  O   ALA A   1     -12.867  14.396  66.152  1.00  0.00    -0.251 OA 
HETATM   21  C   UNK A   2      -9.419  12.231  68.408  1.00  0.00    -0.175 A  
HETATM   22  C   UNK A   2      -8.057  11.931  68.543  1.00  0.00    -0.130 A  
HETATM   23  N   UNK A   2     -11.162  13.704  67.476  1.00  0.00    -0.284 N  
HETATM   24  C   UNK A   2      -7.656  10.717  69.072  1.00  0.00    -0.122 A  
HETATM   25  C   UNK A   2      -9.770  13.551  67.816  1.00  0.00    -0.226 C  
HETATM   26  O   UNK A   2     -13.148  14.079  70.526  1.00  0.00    -0.234 OA 
HETATM   27  C   UNK A   2      -8.615   9.776  69.452  1.00  0.00    -0.165 A  
HETATM   28  C   UNK A   2      -9.985  10.085  69.324  1.00  0.00    -0.226 A  
HETATM   29  O   UNK A   2     -10.932  14.396  70.357  1.00  0.00    -0.017 OA 
HETATM   30  C   UNK A   2     -11.975  13.968  69.869  1.00  0.00    -0.336 C  
HETATM   31  C   UNK A   2     -10.394  11.330  68.831  1.00  0.00    -0.214 A  
HETATM   32  C   UNK A   2     -12.084  13.219  68.516  1.00  0.00    -0.221 C  
HETATM   33  C   UNK A   2     -11.855  11.702  68.704  1.00  0.00    -0.370 C  
BRANCH  24  34
HETATM   34  O   UNK A   2      -6.344  10.383  69.299  1.00  0.00    -0.044 OA 
HETATM   35  C   UNK A   2      -5.712  11.172  70.288  1.00  0.00    -0.128 C  
ENDBRANCH  24  34
BRANCH  27  36
HETATM   36  O   UNK A   2      -8.106   8.598  69.906  1.00  0.00    -0.104 OA 
HETATM   37  C   UNK A   2      -8.296   8.287  71.273  1.00  0.00    -0.131 C  
ENDBRANCH  27  36
ENDBRANCH  17  19
ENDBRANCH  15  17
ENDBRANCH   6  15
ENDBRANCH   4   6
ENDBRANCH   3   4
ENDBRANCH   2   3
TORSDOF 11
ENDMDL
MODEL       63
REMARK 921   NORMALIZED FREE ENERGY PREDICTED BY IDOCK:   -5.38 KCAL/MOL
REMARK 922        TOTAL FREE ENERGY PREDICTED BY IDOCK:  -10.75 KCAL/MOL
REMARK 923 INTER-LIGAND FREE ENERGY PREDICTED BY IDOCK:  -10.21 KCAL/MOL
REMARK 924 INTRA-LIGAND FREE ENERGY PREDICTED BY IDOCK:   -0.54 KCAL/MOL
REMARK 927      BINDING AFFINITY PREDICTED BY RF-SCORE:    0.00 PKD
ROOT
HETATM    1  C   UNK A   0     -13.336  15.887  73.361  1.00  0.00    -0.609 C  
HETATM    2  C   UNK A   0     -13.955  15.341  72.089  1.00  0.00    -0.549 C  
ENDROOT
BRANCH   2   3
HETATM    3  O   UNK A   0     -13.178  15.789  70.974  1.00  0.00    -0.547 OA 
BRANCH   3   4
HETATM    4  C   UNK A   0     -12.039  15.090  70.698  1.00  0.00    -0.321 C  
HETATM    5  O   UNK A   0     -10.934  15.291  71.192  1.00  0.00    -0.325 OA 
BRANCH   4   6
HETATM    6  C   UNK A   0     -12.376  13.959  69.726  1.00  0.00    -0.275 C  
BRANCH   6   7
HETATM    7  C   UNK A   0     -12.008  12.612  70.353  1.00  0.00    -0.331 C  
BRANCH   7   8
HETATM    8  C   UNK A   0     -12.904  11.991  71.436  1.00  0.00    -0.391 C  
BRANCH   8   9
HETATM    9  C   UNK A   0     -12.724  10.466  71.516  1.00  0.00    -0.564 A  
HETATM   10  C   UNK A   0     -13.748   9.664  72.042  1.00  0.00    -0.396 A  
HETATM   11  C   UNK A   0     -13.648   8.262  72.015  1.00  0.00    -0.360 A  
HETATM   12  C   UNK A   0     -11.587   9.802  71.007  1.00  0.00    -0.455 A  
HETATM   13  C   UNK A   0     -12.532   7.637  71.458  1.00  0.00    -0.361 A  
HETATM   14  C   UNK A   0     -11.495   8.411  70.962  1.00  0.00    -0.302 A  
ENDBRANCH   8   9
ENDBRANCH   7   8
ENDBRANCH   6   7
BRANCH   6  15
ATOM     15  N   ALA A   1     -11.657  14.154  68.443  1.00  0.00    -0.299 NA 
ATOM     16  H   ALA A   1     -11.644  15.080  68.016  1.00  0.00     0.000 HD 
BRANCH  15  17
ATOM     17  CA  ALA A   1     -10.953  13.029  67.761  1.00  0.00    -0.251 C  
ATOM     18  CB  ALA A   1     -11.304  12.640  66.315  1.00  0.00    -0.376 C  
BRANCH  17  19
ATOM     19  C   ALA A   1      -9.423  12.898  68.061  1.00  0.00    -0.213 C  
ATOM     20  O   ALA A   1      -8.881  11.797  67.906  1.00  0.00    -0.152 OA 
HETATM   21  C   UNK A   2      -8.458  16.432  67.973  1.00  0.00    -0.183 A  
HETATM   22  C   UNK A   2      -9.040  17.703  68.060  1.00  0.00    -0.267 A  
HETATM   23  N   UNK A   2      -8.645  14.005  68.362  1.00  0.00    -0.174 N  
HETATM   24  C   UNK A   2      -8.467  18.783  67.413  1.00  0.00    -0.272 A  
HETATM   25  C   UNK A   2      -9.143  15.318  68.685  1.00  0.00    -0.193 C  
HETATM   26  O   UNK A   2      -5.360  13.514  69.896  1.00  0.00    -0.084 OA 
HETATM   27  C   UNK A   2      -7.313  18.599  66.649  1.00  0.00    -0.229 A  
HETATM   28  C   UNK A   2      -6.723  17.321  66.571  1.00  0.00    -0.286 A  
HETATM   29  O   UNK A   2      -6.870  15.062  70.499  1.00  0.00     0.004 OA 
HETATM   30  C   UNK A   2      -6.487  14.226  69.685  1.00  0.00    -0.140 C  
HETATM   31  C   UNK A   2      -7.276  16.236  67.262  1.00  0.00    -0.223 A  
HETATM   32  C   UNK A   2      -7.176  13.918  68.330  1.00  0.00    -0.110 C  
HETATM   33  C   UNK A   2      -6.654  14.857  67.219  1.00  0.00     0.119 C  
BRANCH  24  34
HETATM   34  O   UNK A   2      -8.941  20.067  67.511  1.00  0.00    -0.326 OA 
HETATM   35  C   UNK A   2     -10.329  20.150  67.765  1.00  0.00    -0.320 C  
ENDBRANCH  24  34
BRANCH  27  36
HETATM   36  O   UNK A   2      -6.869  19.718  66.012  1.00  0.00    -0.223 OA 
HETATM   37  C   UNK A   2      -5.897  19.552  64.999  1.00  0.00    -0.226 C  
ENDBRANCH  27  36
ENDBRANCH  17  19
ENDBRANCH  15  17
ENDBRANCH   6  15
ENDBRANCH   4   6
ENDBRANCH   3   4
ENDBRANCH   2   3
TORSDOF 11
ENDMDL
MODEL       64
REMARK 921   NORMALIZED FREE ENERGY PREDICTED BY IDOCK:   -5.37 KCAL/MOL
REMARK 922        TOTAL FREE ENERGY PREDICTED BY IDOCK:  -10.73 KCAL/MOL
REMARK 923 INTER-LIGAND FREE ENERGY PREDICTED BY IDOCK:   -8.80 KCAL/MOL
REMARK 924 INTRA-LIGAND FREE ENERGY PREDICTED BY IDOCK:   -1.93 KCAL/MOL
REMARK 927      BINDING AFFINITY PREDICTED BY RF-SCORE:    0.00 PKD
ROOT
HETATM    1  C   UNK A   0     -10.895   9.959  67.994  1.00  0.00    -0.294 C  
HETATM    2  C   UNK A   0     -10.498   8.560  68.423  1.00  0.00    -0.171 C  
ENDROOT
BRANCH   2   3
HETATM    3  O   UNK A   0     -10.614   8.469  69.847  1.00  0.00    -0.223 OA 
BRANCH   3   4
HETATM    4  C   UNK A   0     -11.464   7.519  70.334  1.00  0.00    -0.198 C  
HETATM    5  O   UNK A   0     -11.626   6.393  69.875  1.00  0.00    -0.429 OA 
BRANCH   4   6
HETATM    6  C   UNK A   0     -12.135   8.058  71.598  1.00  0.00    -0.303 C  
BRANCH   6   7
HETATM    7  C   UNK A   0     -12.014   9.583  71.638  1.00  0.00    -0.474 C  
BRANCH   7   8
HETATM    8  C   UNK A   0     -13.261  10.454  71.856  1.00  0.00    -0.535 C  
BRANCH   8   9
HETATM    9  C   UNK A   0     -12.987  11.931  71.531  1.00  0.00    -0.427 A  
HETATM   10  C   UNK A   0     -12.231  12.273  70.400  1.00  0.00    -0.371 A  
HETATM   11  C   UNK A   0     -12.070  13.619  70.023  1.00  0.00    -0.417 A  
HETATM   12  C   UNK A   0     -13.532  12.994  72.283  1.00  0.00    -0.645 A  
HETATM   13  C   UNK A   0     -12.665  14.642  70.761  1.00  0.00    -0.422 A  
HETATM   14  C   UNK A   0     -13.389  14.328  71.900  1.00  0.00    -0.470 A  
ENDBRANCH   8   9
ENDBRANCH   7   8
ENDBRANCH   6   7
BRANCH   6  15
ATOM     15  N   ALA A   1     -11.520   7.451  72.805  1.00  0.00    -0.515 NA 
ATOM     16  H   ALA A   1     -12.103   7.270  73.622  1.00  0.00     0.000 HD 
BRANCH  15  17
ATOM     17  CA  ALA A   1     -10.071   7.100  72.852  1.00  0.00    -0.210 C  
ATOM     18  CB  ALA A   1      -9.082   7.946  73.671  1.00  0.00    -0.337 C  
BRANCH  17  19
ATOM     19  C   ALA A   1      -9.740   5.572  72.906  1.00  0.00    -0.154 C  
ATOM     20  O   ALA A   1     -10.239   4.890  73.810  1.00  0.00    -0.170 OA 
HETATM   21  C   UNK A   2      -8.516   5.069  69.490  1.00  0.00    -0.091 A  
HETATM   22  C   UNK A   2      -8.024   5.812  68.409  1.00  0.00    -0.104 A  
HETATM   23  N   UNK A   2      -9.020   4.949  71.899  1.00  0.00    -0.134 N  
HETATM   24  C   UNK A   2      -8.212   5.370  67.111  1.00  0.00    -0.104 A  
HETATM   25  C   UNK A   2      -8.287   5.618  70.854  1.00  0.00    -0.124 C  
HETATM   26  O   UNK A   2      -7.551   1.658  72.529  1.00  0.00    -0.040 OA 
HETATM   27  C   UNK A   2      -8.916   4.188  66.877  1.00  0.00    -0.127 A  
HETATM   28  C   UNK A   2      -9.402   3.437  67.967  1.00  0.00    -0.241 A  
HETATM   29  O   UNK A   2      -6.539   3.366  71.482  1.00  0.00    -0.021 OA 
HETATM   30  C   UNK A   2      -7.569   2.863  71.923  1.00  0.00    -0.052 C  
HETATM   31  C   UNK A   2      -9.174   3.858  69.283  1.00  0.00    -0.224 A  
HETATM   32  C   UNK A   2      -8.986   3.481  71.802  1.00  0.00    -0.105 C  
HETATM   33  C   UNK A   2      -9.660   3.063  70.475  1.00  0.00    -0.187 C  
BRANCH  24  34
HETATM   34  O   UNK A   2      -7.698   6.008  66.009  1.00  0.00    -0.091 OA 
HETATM   35  C   UNK A   2      -7.617   7.413  66.144  1.00  0.00    -0.088 C  
ENDBRANCH  24  34
BRANCH  27  36
HETATM   36  O   UNK A   2      -9.088   3.880  65.562  1.00  0.00    -0.130 OA 
HETATM   37  C   UNK A   2     -10.279   4.316  64.938  1.00  0.00    -0.175 C  
ENDBRANCH  27  36
ENDBRANCH  17  19
ENDBRANCH  15  17
ENDBRANCH   6  15
ENDBRANCH   4   6
ENDBRANCH   3   4
ENDBRANCH   2   3
TORSDOF 11
ENDMDL
MODEL       65
REMARK 921   NORMALIZED FREE ENERGY PREDICTED BY IDOCK:   -5.37 KCAL/MOL
REMARK 922        TOTAL FREE ENERGY PREDICTED BY IDOCK:  -10.73 KCAL/MOL
REMARK 923 INTER-LIGAND FREE ENERGY PREDICTED BY IDOCK:   -9.73 KCAL/MOL
REMARK 924 INTRA-LIGAND FREE ENERGY PREDICTED BY IDOCK:   -1.00 KCAL/MOL
REMARK 927      BINDING AFFINITY PREDICTED BY RF-SCORE:    0.00 PKD
ROOT
HETATM    1  C   UNK A   0     -14.367  14.132  72.169  1.00  0.00    -0.606 C  
HETATM    2  C   UNK A   0     -13.156  13.400  71.623  1.00  0.00    -0.375 C  
ENDROOT
BRANCH   2   3
HETATM    3  O   UNK A   0     -12.096  14.344  71.442  1.00  0.00    -0.344 OA 
BRANCH   3   4
HETATM    4  C   UNK A   0     -12.094  15.049  70.274  1.00  0.00    -0.329 C  
HETATM    5  O   UNK A   0     -12.627  16.139  70.089  1.00  0.00    -0.168 OA 
BRANCH   4   6
HETATM    6  C   UNK A   0     -11.253  14.296  69.243  1.00  0.00    -0.273 C  
BRANCH   6   7
HETATM    7  C   UNK A   0     -10.009  15.115  68.892  1.00  0.00    -0.227 C  
BRANCH   7   8
HETATM    8  C   UNK A   0      -9.875  15.766  67.506  1.00  0.00    -0.229 C  
BRANCH   8   9
HETATM    9  C   UNK A   0     -10.046  17.292  67.576  1.00  0.00    -0.315 A  
HETATM   10  C   UNK A   0      -9.789  17.975  68.773  1.00  0.00    -0.360 A  
HETATM   11  C   UNK A   0      -9.827  19.380  68.822  1.00  0.00    -0.530 A  
HETATM   12  C   UNK A   0     -10.384  18.076  66.451  1.00  0.00    -0.382 A  
HETATM   13  C   UNK A   0     -10.115  20.126  67.679  1.00  0.00    -0.542 A  
HETATM   14  C   UNK A   0     -10.404  19.470  66.494  1.00  0.00    -0.583 A  
ENDBRANCH   8   9
ENDBRANCH   7   8
ENDBRANCH   6   7
BRANCH   6  15
ATOM     15  N   ALA A   1     -12.058  14.017  68.027  1.00  0.00    -0.515 NA 
ATOM     16  H   ALA A   1     -12.641  14.757  67.638  1.00  0.00     0.000 HD 
BRANCH  15  17
ATOM     17  CA  ALA A   1     -12.035  12.682  67.362  1.00  0.00    -0.242 C  
ATOM     18  CB  ALA A   1     -11.412  12.508  65.966  1.00  0.00    -0.423 C  
BRANCH  17  19
ATOM     19  C   ALA A   1     -11.762  11.458  68.296  1.00  0.00    -0.288 C  
ATOM     20  O   ALA A   1     -12.654  11.094  69.072  1.00  0.00    -0.370 OA 
HETATM   21  C   UNK A   2      -8.904   9.962  66.559  1.00  0.00    -0.154 A  
HETATM   22  C   UNK A   2      -7.923  10.305  65.619  1.00  0.00    -0.150 A  
HETATM   23  N   UNK A   2     -10.608  10.699  68.179  1.00  0.00    -0.187 N  
HETATM   24  C   UNK A   2      -7.387   9.343  64.781  1.00  0.00    -0.107 A  
HETATM   25  C   UNK A   2      -9.442  11.056  67.412  1.00  0.00    -0.160 C  
HETATM   26  O   UNK A   2      -9.652   8.471  70.920  1.00  0.00    -0.167 OA 
HETATM   27  C   UNK A   2      -7.843   8.026  64.859  1.00  0.00    -0.129 A  
HETATM   28  C   UNK A   2      -8.823   7.681  65.812  1.00  0.00    -0.134 A  
HETATM   29  O   UNK A   2      -8.263   9.811  69.775  1.00  0.00    -0.139 OA 
HETATM   30  C   UNK A   2      -9.363   9.273  69.875  1.00  0.00    -0.198 C  
HETATM   31  C   UNK A   2      -9.335   8.643  66.691  1.00  0.00    -0.246 A  
HETATM   32  C   UNK A   2     -10.508   9.385  68.836  1.00  0.00    -0.216 C  
HETATM   33  C   UNK A   2     -10.368   8.301  67.742  1.00  0.00    -0.296 C  
BRANCH  24  34
HETATM   34  O   UNK A   2      -6.376   9.592  63.887  1.00  0.00    -0.099 OA 
HETATM   35  C   UNK A   2      -6.778  10.340  62.757  1.00  0.00    -0.139 C  
ENDBRANCH  24  34
BRANCH  27  36
HETATM   36  O   UNK A   2      -7.286   7.178  63.951  1.00  0.00    -0.074 OA 
HETATM   37  C   UNK A   2      -6.608   6.041  64.448  1.00  0.00    -0.034 C  
ENDBRANCH  27  36
ENDBRANCH  17  19
ENDBRANCH  15  17
ENDBRANCH   6  15
ENDBRANCH   4   6
ENDBRANCH   3   4
ENDBRANCH   2   3
TORSDOF 11
ENDMDL
MODEL       66
REMARK 921   NORMALIZED FREE ENERGY PREDICTED BY IDOCK:   -5.35 KCAL/MOL
REMARK 922        TOTAL FREE ENERGY PREDICTED BY IDOCK:  -10.69 KCAL/MOL
REMARK 923 INTER-LIGAND FREE ENERGY PREDICTED BY IDOCK:   -9.68 KCAL/MOL
REMARK 924 INTRA-LIGAND FREE ENERGY PREDICTED BY IDOCK:   -1.01 KCAL/MOL
REMARK 927      BINDING AFFINITY PREDICTED BY RF-SCORE:    0.00 PKD
ROOT
HETATM    1  C   UNK A   0     -12.803  12.234  71.331  1.00  0.00    -0.373 C  
HETATM    2  C   UNK A   0     -13.100  10.840  71.847  1.00  0.00    -0.451 C  
ENDROOT
BRANCH   2   3
HETATM    3  O   UNK A   0     -11.991   9.991  71.535  1.00  0.00    -0.377 OA 
BRANCH   3   4
HETATM    4  C   UNK A   0     -12.240   8.651  71.475  1.00  0.00    -0.318 C  
HETATM    5  O   UNK A   0     -13.348   8.126  71.429  1.00  0.00    -0.292 OA 
BRANCH   4   6
HETATM    6  C   UNK A   0     -10.909   7.904  71.396  1.00  0.00    -0.226 C  
BRANCH   6   7
HETATM    7  C   UNK A   0     -10.031   8.284  72.591  1.00  0.00    -0.357 C  
BRANCH   7   8
HETATM    8  C   UNK A   0      -9.771   7.271  73.716  1.00  0.00    -0.344 C  
BRANCH   8   9
HETATM    9  C   UNK A   0      -9.935   5.823  73.227  1.00  0.00    -0.190 A  
HETATM   10  C   UNK A   0      -8.962   5.247  72.397  1.00  0.00    -0.137 A  
HETATM   11  C   UNK A   0      -9.037   3.889  72.036  1.00  0.00    -0.160 A  
HETATM   12  C   UNK A   0     -11.000   4.993  73.638  1.00  0.00    -0.379 A  
HETATM   13  C   UNK A   0     -10.077   3.084  72.502  1.00  0.00    -0.232 A  
HETATM   14  C   UNK A   0     -11.066   3.641  73.296  1.00  0.00    -0.252 A  
ENDBRANCH   8   9
ENDBRANCH   7   8
ENDBRANCH   6   7
BRANCH   6  15
ATOM     15  N   ALA A   1     -10.219   8.214  70.119  1.00  0.00    -0.196 NA 
ATOM     16  H   ALA A   1      -9.907   9.168  69.942  1.00  0.00     0.000 HD 
BRANCH  15  17
ATOM     17  CA  ALA A   1      -9.973   7.164  69.088  1.00  0.00    -0.168 C  
ATOM     18  CB  ALA A   1     -11.073   6.158  68.709  1.00  0.00    -0.398 C  
BRANCH  17  19
ATOM     19  C   ALA A   1      -9.114   7.604  67.857  1.00  0.00    -0.134 C  
ATOM     20  O   ALA A   1      -8.591   6.728  67.156  1.00  0.00    -0.119 OA 
HETATM   21  C   UNK A   2     -10.302  11.047  67.456  1.00  0.00    -0.233 A  
HETATM   22  C   UNK A   2     -10.967  12.041  68.184  1.00  0.00    -0.273 A  
HETATM   23  N   UNK A   2      -9.040   8.930  67.460  1.00  0.00    -0.133 N  
HETATM   24  C   UNK A   2     -11.747  12.983  67.537  1.00  0.00    -0.370 A  
HETATM   25  C   UNK A   2      -9.494  10.062  68.226  1.00  0.00    -0.140 C  
HETATM   26  O   UNK A   2      -6.365   9.965  65.188  1.00  0.00    -0.087 OA 
HETATM   27  C   UNK A   2     -11.890  12.926  66.149  1.00  0.00    -0.429 A  
HETATM   28  C   UNK A   2     -11.212  11.930  65.417  1.00  0.00    -0.351 A  
HETATM   29  O   UNK A   2      -7.050  11.090  67.005  1.00  0.00    -0.103 OA 
HETATM   30  C   UNK A   2      -7.244  10.198  66.184  1.00  0.00    -0.115 C  
HETATM   31  C   UNK A   2     -10.386  11.004  66.065  1.00  0.00    -0.311 A  
HETATM   32  C   UNK A   2      -8.498   9.286  66.138  1.00  0.00    -0.128 C  
HETATM   33  C   UNK A   2      -9.625   9.938  65.307  1.00  0.00    -0.361 C  
BRANCH  24  34
HETATM   34  O   UNK A   2     -12.369  14.025  68.177  1.00  0.00    -0.248 OA 
HETATM   35  C   UNK A   2     -11.478  14.965  68.744  1.00  0.00    -0.307 C  
ENDBRANCH  24  34
BRANCH  27  36
HETATM   36  O   UNK A   2     -12.725  13.866  65.625  1.00  0.00    -0.521 OA 
HETATM   37  C   UNK A   2     -12.271  14.589  64.498  1.00  0.00    -0.465 C  
ENDBRANCH  27  36
ENDBRANCH  17  19
ENDBRANCH  15  17
ENDBRANCH   6  15
ENDBRANCH   4   6
ENDBRANCH   3   4
ENDBRANCH   2   3
TORSDOF 11
ENDMDL
MODEL       67
REMARK 921   NORMALIZED FREE ENERGY PREDICTED BY IDOCK:   -5.34 KCAL/MOL
REMARK 922        TOTAL FREE ENERGY PREDICTED BY IDOCK:  -10.67 KCAL/MOL
REMARK 923 INTER-LIGAND FREE ENERGY PREDICTED BY IDOCK:   -9.74 KCAL/MOL
REMARK 924 INTRA-LIGAND FREE ENERGY PREDICTED BY IDOCK:   -0.94 KCAL/MOL
REMARK 927      BINDING AFFINITY PREDICTED BY RF-SCORE:    0.00 PKD
ROOT
HETATM    1  C   UNK A   0     -14.401  15.204  72.104  1.00  0.00    -0.647 C  
HETATM    2  C   UNK A   0     -12.945  14.862  71.851  1.00  0.00    -0.333 C  
ENDROOT
BRANCH   2   3
HETATM    3  O   UNK A   0     -12.799  14.473  70.482  1.00  0.00    -0.350 OA 
BRANCH   3   4
HETATM    4  C   UNK A   0     -11.868  15.148  69.747  1.00  0.00    -0.333 C  
HETATM    5  O   UNK A   0     -11.517  16.311  69.923  1.00  0.00    -0.301 OA 
BRANCH   4   6
HETATM    6  C   UNK A   0     -11.272  14.198  68.709  1.00  0.00    -0.268 C  
BRANCH   6   7
HETATM    7  C   UNK A   0     -11.493  14.762  67.304  1.00  0.00    -0.378 C  
BRANCH   7   8
HETATM    8  C   UNK A   0     -12.507  14.105  66.355  1.00  0.00    -0.353 C  
BRANCH   8   9
HETATM    9  C   UNK A   0     -11.816  13.201  65.321  1.00  0.00    -0.400 A  
HETATM   10  C   UNK A   0     -12.583  12.448  64.420  1.00  0.00    -0.489 A  
HETATM   11  C   UNK A   0     -11.967  11.709  63.394  1.00  0.00    -0.310 A  
HETATM   12  C   UNK A   0     -10.413  13.142  65.174  1.00  0.00    -0.339 A  
HETATM   13  C   UNK A   0     -10.580  11.713  63.247  1.00  0.00    -0.420 A  
HETATM   14  C   UNK A   0      -9.802  12.424  64.146  1.00  0.00    -0.145 A  
ENDBRANCH   8   9
ENDBRANCH   7   8
ENDBRANCH   6   7
BRANCH   6  15
ATOM     15  N   ALA A   1     -11.883  12.851  68.835  1.00  0.00    -0.314 NA 
ATOM     16  H   ALA A   1     -12.898  12.767  68.876  1.00  0.00     0.000 HD 
BRANCH  15  17
ATOM     17  CA  ALA A   1     -11.048  11.616  68.904  1.00  0.00    -0.232 C  
ATOM     18  CB  ALA A   1      -9.569  11.641  68.480  1.00  0.00    -0.181 C  
BRANCH  17  19
ATOM     19  C   ALA A   1     -11.302  10.687  70.136  1.00  0.00    -0.323 C  
ATOM     20  O   ALA A   1     -12.198  10.991  70.932  1.00  0.00    -0.339 OA 
HETATM   21  C   UNK A   2      -9.607   7.645  68.993  1.00  0.00    -0.151 A  
HETATM   22  C   UNK A   2      -8.656   7.241  68.048  1.00  0.00    -0.125 A  
HETATM   23  N   UNK A   2     -10.644   9.475  70.278  1.00  0.00    -0.244 N  
HETATM   24  C   UNK A   2      -8.693   5.964  67.516  1.00  0.00    -0.104 A  
HETATM   25  C   UNK A   2      -9.509   9.040  69.506  1.00  0.00    -0.164 C  
HETATM   26  O   UNK A   2     -10.621   7.832  73.548  1.00  0.00    -0.294 OA 
HETATM   27  C   UNK A   2      -9.701   5.081  67.909  1.00  0.00    -0.153 A  
HETATM   28  C   UNK A   2     -10.652   5.487  68.868  1.00  0.00    -0.258 A  
HETATM   29  O   UNK A   2      -8.862   8.029  72.167  1.00  0.00    -0.129 OA 
HETATM   30  C   UNK A   2     -10.074   8.113  72.347  1.00  0.00    -0.285 C  
HETATM   31  C   UNK A   2     -10.589   6.763  69.441  1.00  0.00    -0.265 A  
HETATM   32  C   UNK A   2     -11.114   8.480  71.257  1.00  0.00    -0.262 C  
HETATM   33  C   UNK A   2     -11.578   7.221  70.490  1.00  0.00    -0.292 C  
BRANCH  24  34
HETATM   34  O   UNK A   2      -7.755   5.477  66.642  1.00  0.00    -0.097 OA 
HETATM   35  C   UNK A   2      -6.464   5.340  67.200  1.00  0.00    -0.048 C  
ENDBRANCH  24  34
BRANCH  27  36
HETATM   36  O   UNK A   2      -9.673   3.873  67.281  1.00  0.00    -0.204 OA 
HETATM   37  C   UNK A   2      -9.362   2.736  68.063  1.00  0.00    -0.204 C  
ENDBRANCH  27  36
ENDBRANCH  17  19
ENDBRANCH  15  17
ENDBRANCH   6  15
ENDBRANCH   4   6
ENDBRANCH   3   4
ENDBRANCH   2   3
TORSDOF 11
ENDMDL
MODEL       68
REMARK 921   NORMALIZED FREE ENERGY PREDICTED BY IDOCK:   -5.28 KCAL/MOL
REMARK 922        TOTAL FREE ENERGY PREDICTED BY IDOCK:  -10.58 KCAL/MOL
REMARK 923 INTER-LIGAND FREE ENERGY PREDICTED BY IDOCK:   -8.89 KCAL/MOL
REMARK 924 INTRA-LIGAND FREE ENERGY PREDICTED BY IDOCK:   -1.69 KCAL/MOL
REMARK 927      BINDING AFFINITY PREDICTED BY RF-SCORE:    0.00 PKD
ROOT
HETATM    1  C   UNK A   0     -10.174   6.552  73.290  1.00  0.00    -0.242 C  
HETATM    2  C   UNK A   0     -10.995   7.799  73.024  1.00  0.00    -0.381 C  
ENDROOT
BRANCH   2   3
HETATM    3  O   UNK A   0     -10.195   8.723  72.280  1.00  0.00    -0.313 OA 
BRANCH   3   4
HETATM    4  C   UNK A   0     -10.593   8.990  71.003  1.00  0.00    -0.271 C  
HETATM    5  O   UNK A   0     -11.751   9.137  70.624  1.00  0.00    -0.271 OA 
BRANCH   4   6
HETATM    6  C   UNK A   0      -9.353   9.152  70.122  1.00  0.00    -0.209 C  
BRANCH   6   7
HETATM    7  C   UNK A   0      -8.091   8.992  70.973  1.00  0.00    -0.199 C  
BRANCH   7   8
HETATM    8  C   UNK A   0      -6.716   9.367  70.398  1.00  0.00    -0.083 C  
BRANCH   8   9
HETATM    9  C   UNK A   0      -6.369   8.526  69.158  1.00  0.00    -0.043 A  
HETATM   10  C   UNK A   0      -6.983   7.281  68.959  1.00  0.00    -0.077 A  
HETATM   11  C   UNK A   0      -6.766   6.554  67.775  1.00  0.00    -0.071 A  
HETATM   12  C   UNK A   0      -5.501   8.983  68.143  1.00  0.00    -0.038 A  
HETATM   13  C   UNK A   0      -5.941   7.059  66.769  1.00  0.00    -0.033 A  
HETATM   14  C   UNK A   0      -5.299   8.271  66.960  1.00  0.00    -0.036 A  
ENDBRANCH   8   9
ENDBRANCH   7   8
ENDBRANCH   6   7
BRANCH   6  15
ATOM     15  N   ALA A   1      -9.369  10.476  69.452  1.00  0.00    -0.363 NA 
ATOM     16  H   ALA A   1      -9.215  11.317  70.008  1.00  0.00     0.000 HD 
BRANCH  15  17
ATOM     17  CA  ALA A   1      -9.605  10.607  67.984  1.00  0.00    -0.157 C  
ATOM     18  CB  ALA A   1      -9.362   9.418  67.038  1.00  0.00    -0.185 C  
BRANCH  17  19
ATOM     19  C   ALA A   1     -10.846  11.462  67.565  1.00  0.00    -0.244 C  
ATOM     20  O   ALA A   1     -11.977  11.000  67.761  1.00  0.00    -0.609 OA 
HETATM   21  C   UNK A   2      -9.275  14.760  67.285  1.00  0.00    -0.211 A  
HETATM   22  C   UNK A   2      -8.004  15.332  67.146  1.00  0.00    -0.251 A  
HETATM   23  N   UNK A   2     -10.710  12.764  67.110  1.00  0.00    -0.243 N  
HETATM   24  C   UNK A   2      -7.743  16.593  67.652  1.00  0.00    -0.166 A  
HETATM   25  C   UNK A   2      -9.473  13.394  66.727  1.00  0.00    -0.261 C  
HETATM   26  O   UNK A   2     -13.501  14.337  65.343  1.00  0.00    -0.581 OA 
HETATM   27  C   UNK A   2      -8.748  17.290  68.326  1.00  0.00    -0.251 A  
HETATM   28  C   UNK A   2     -10.030  16.716  68.456  1.00  0.00    -0.261 A  
HETATM   29  O   UNK A   2     -11.340  14.457  64.750  1.00  0.00    -0.361 OA 
HETATM   30  C   UNK A   2     -12.186  14.170  65.592  1.00  0.00    -0.435 C  
HETATM   31  C   UNK A   2     -10.309  15.460  67.905  1.00  0.00    -0.247 A  
HETATM   32  C   UNK A   2     -11.881  13.651  67.022  1.00  0.00    -0.408 C  
HETATM   33  C   UNK A   2     -11.680  14.827  68.004  1.00  0.00    -0.360 C  
BRANCH  24  34
HETATM   34  O   UNK A   2      -6.545  17.243  67.492  1.00  0.00    -0.136 OA 
HETATM   35  C   UNK A   2      -6.345  17.770  66.196  1.00  0.00    -0.243 C  
ENDBRANCH  24  34
BRANCH  27  36
HETATM   36  O   UNK A   2      -8.363  18.495  68.830  1.00  0.00    -0.313 OA 
HETATM   37  C   UNK A   2      -9.333  19.524  68.878  1.00  0.00    -0.334 C  
ENDBRANCH  27  36
ENDBRANCH  17  19
ENDBRANCH  15  17
ENDBRANCH   6  15
ENDBRANCH   4   6
ENDBRANCH   3   4
ENDBRANCH   2   3
TORSDOF 11
ENDMDL
MODEL       69
REMARK 921   NORMALIZED FREE ENERGY PREDICTED BY IDOCK:   -5.27 KCAL/MOL
REMARK 922        TOTAL FREE ENERGY PREDICTED BY IDOCK:  -10.56 KCAL/MOL
REMARK 923 INTER-LIGAND FREE ENERGY PREDICTED BY IDOCK:   -8.77 KCAL/MOL
REMARK 924 INTRA-LIGAND FREE ENERGY PREDICTED BY IDOCK:   -1.79 KCAL/MOL
REMARK 927      BINDING AFFINITY PREDICTED BY RF-SCORE:    0.00 PKD
ROOT
HETATM    1  C   UNK A   0      -6.333   8.426  71.657  1.00  0.00    -0.055 C  
HETATM    2  C   UNK A   0      -7.509   8.249  72.597  1.00  0.00    -0.112 C  
ENDROOT
BRANCH   2   3
HETATM    3  O   UNK A   0      -8.683   8.768  71.964  1.00  0.00    -0.319 OA 
BRANCH   3   4
HETATM    4  C   UNK A   0      -9.884   8.376  72.479  1.00  0.00    -0.289 C  
HETATM    5  O   UNK A   0     -10.047   7.657  73.460  1.00  0.00    -0.325 OA 
BRANCH   4   6
HETATM    6  C   UNK A   0     -11.005   9.039  71.679  1.00  0.00    -0.365 C  
BRANCH   6   7
HETATM    7  C   UNK A   0     -11.781   7.977  70.897  1.00  0.00    -0.265 C  
BRANCH   7   8
HETATM    8  C   UNK A   0     -11.131   6.623  70.574  1.00  0.00    -0.359 C  
BRANCH   8   9
HETATM    9  C   UNK A   0     -10.478   6.623  69.183  1.00  0.00    -0.250 A  
HETATM   10  C   UNK A   0      -9.138   7.010  69.034  1.00  0.00    -0.135 A  
HETATM   11  C   UNK A   0      -8.493   6.904  67.789  1.00  0.00    -0.123 A  
HETATM   12  C   UNK A   0     -11.147   6.170  68.025  1.00  0.00    -0.316 A  
HETATM   13  C   UNK A   0      -9.169   6.405  66.676  1.00  0.00    -0.167 A  
HETATM   14  C   UNK A   0     -10.502   6.047  66.793  1.00  0.00    -0.329 A  
ENDBRANCH   8   9
ENDBRANCH   7   8
ENDBRANCH   6   7
BRANCH   6  15
ATOM     15  N   ALA A   1     -10.446  10.062  70.760  1.00  0.00    -0.374 NA 
ATOM     16  H   ALA A   1      -9.482  10.368  70.886  1.00  0.00     0.000 HD 
BRANCH  15  17
ATOM     17  CA  ALA A   1     -11.260  10.654  69.659  1.00  0.00    -0.289 C  
ATOM     18  CB  ALA A   1     -11.962  12.011  69.839  1.00  0.00    -0.391 C  
BRANCH  17  19
ATOM     19  C   ALA A   1     -10.698  10.458  68.213  1.00  0.00    -0.235 C  
ATOM     20  O   ALA A   1     -11.148   9.535  67.522  1.00  0.00    -0.173 OA 
HETATM   21  C   UNK A   2      -9.166  13.743  67.680  1.00  0.00    -0.207 A  
HETATM   22  C   UNK A   2      -8.720  14.848  68.417  1.00  0.00    -0.172 A  
HETATM   23  N   UNK A   2      -9.818  11.367  67.647  1.00  0.00    -0.174 N  
HETATM   24  C   UNK A   2      -8.741  16.116  67.862  1.00  0.00    -0.174 A  
HETATM   25  C   UNK A   2      -9.126  12.415  68.352  1.00  0.00    -0.141 C  
HETATM   26  O   UNK A   2      -7.900  10.389  64.689  1.00  0.00    -0.145 OA 
HETATM   27  C   UNK A   2      -9.233  16.297  66.568  1.00  0.00    -0.269 A  
HETATM   28  C   UNK A   2      -9.672  15.182  65.825  1.00  0.00    -0.379 A  
HETATM   29  O   UNK A   2      -7.096  11.506  66.461  1.00  0.00    -0.107 OA 
HETATM   30  C   UNK A   2      -8.064  11.090  65.829  1.00  0.00    -0.038 C  
HETATM   31  C   UNK A   2      -9.609  13.892  66.367  1.00  0.00    -0.292 A  
HETATM   32  C   UNK A   2      -9.547  11.345  66.200  1.00  0.00    -0.218 C  
HETATM   33  C   UNK A   2     -10.049  12.672  65.588  1.00  0.00    -0.285 C  
BRANCH  24  34
HETATM   34  O   UNK A   2      -8.256  17.232  68.497  1.00  0.00    -0.250 OA 
HETATM   35  C   UNK A   2      -6.943  17.082  68.999  1.00  0.00    -0.229 C  
ENDBRANCH  24  34
BRANCH  27  36
HETATM   36  O   UNK A   2      -9.258  17.592  66.146  1.00  0.00    -0.441 OA 
HETATM   37  C   UNK A   2     -10.512  18.245  66.116  1.00  0.00    -0.383 C  
ENDBRANCH  27  36
ENDBRANCH  17  19
ENDBRANCH  15  17
ENDBRANCH   6  15
ENDBRANCH   4   6
ENDBRANCH   3   4
ENDBRANCH   2   3
TORSDOF 11
ENDMDL
MODEL       70
REMARK 921   NORMALIZED FREE ENERGY PREDICTED BY IDOCK:   -5.26 KCAL/MOL
REMARK 922        TOTAL FREE ENERGY PREDICTED BY IDOCK:  -10.54 KCAL/MOL
REMARK 923 INTER-LIGAND FREE ENERGY PREDICTED BY IDOCK:   -8.27 KCAL/MOL
REMARK 924 INTRA-LIGAND FREE ENERGY PREDICTED BY IDOCK:   -2.28 KCAL/MOL
REMARK 927      BINDING AFFINITY PREDICTED BY RF-SCORE:    0.00 PKD
ROOT
HETATM    1  C   UNK A   0     -12.441  15.326  71.227  1.00  0.00    -0.435 C  
HETATM    2  C   UNK A   0     -11.165  15.412  70.412  1.00  0.00    -0.323 C  
ENDROOT
BRANCH   2   3
HETATM    3  O   UNK A   0     -11.312  16.452  69.441  1.00  0.00    -0.296 OA 
BRANCH   3   4
HETATM    4  C   UNK A   0     -10.187  17.151  69.114  1.00  0.00    -0.284 C  
HETATM    5  O   UNK A   0      -9.963  18.326  69.391  1.00  0.00    -0.162 OA 
BRANCH   4   6
HETATM    6  C   UNK A   0      -9.208  16.213  68.407  1.00  0.00    -0.203 C  
BRANCH   6   7
HETATM    7  C   UNK A   0      -7.819  16.345  69.036  1.00  0.00    -0.231 C  
BRANCH   7   8
HETATM    8  C   UNK A   0      -7.280  15.245  69.963  1.00  0.00     0.001 C  
BRANCH   8   9
HETATM    9  C   UNK A   0      -6.654  14.088  69.168  1.00  0.00    -0.113 A  
HETATM   10  C   UNK A   0      -5.681  13.271  69.762  1.00  0.00    -0.114 A  
HETATM   11  C   UNK A   0      -5.185  12.139  69.091  1.00  0.00    -0.055 A  
HETATM   12  C   UNK A   0      -7.070  13.744  67.863  1.00  0.00    -0.161 A  
HETATM   13  C   UNK A   0      -5.655  11.800  67.822  1.00  0.00    -0.057 A  
HETATM   14  C   UNK A   0      -6.592  12.611  67.204  1.00  0.00    -0.016 A  
ENDBRANCH   8   9
ENDBRANCH   7   8
ENDBRANCH   6   7
BRANCH   6  15
ATOM     15  N   ALA A   1      -9.159  16.520  66.956  1.00  0.00    -0.205 NA 
ATOM     16  H   ALA A   1      -8.267  16.459  66.466  1.00  0.00     0.000 HD 
BRANCH  15  17
ATOM     17  CA  ALA A   1     -10.381  16.917  66.198  1.00  0.00    -0.320 C  
ATOM     18  CB  ALA A   1     -10.640  18.389  65.837  1.00  0.00    -0.313 C  
BRANCH  17  19
ATOM     19  C   ALA A   1     -10.833  15.935  65.068  1.00  0.00    -0.426 C  
ATOM     20  O   ALA A   1     -10.806  16.329  63.895  1.00  0.00    -0.129 OA 
HETATM   21  C   UNK A   2     -10.591  12.750  66.863  1.00  0.00    -0.257 A  
HETATM   22  C   UNK A   2     -10.534  12.263  68.175  1.00  0.00    -0.228 A  
HETATM   23  N   UNK A   2     -11.128  14.607  65.334  1.00  0.00    -0.331 N  
HETATM   24  C   UNK A   2      -9.870  11.081  68.457  1.00  0.00    -0.192 A  
HETATM   25  C   UNK A   2     -11.310  14.035  66.644  1.00  0.00    -0.335 C  
HETATM   26  O   UNK A   2     -12.997  12.663  62.862  1.00  0.00    -0.254 OA 
HETATM   27  C   UNK A   2      -9.234  10.383  67.428  1.00  0.00    -0.142 A  
HETATM   28  C   UNK A   2      -9.301  10.871  66.107  1.00  0.00    -0.211 A  
HETATM   29  O   UNK A   2     -13.345  12.644  65.078  1.00  0.00    -0.651 OA 
HETATM   30  C   UNK A   2     -12.631  12.951  64.127  1.00  0.00    -0.262 C  
HETATM   31  C   UNK A   2     -10.010  12.042  65.812  1.00  0.00    -0.266 A  
HETATM   32  C   UNK A   2     -11.242  13.632  64.238  1.00  0.00    -0.336 C  
HETATM   33  C   UNK A   2     -10.123  12.579  64.402  1.00  0.00    -0.284 C  
BRANCH  24  34
HETATM   34  O   UNK A   2      -9.834  10.509  69.703  1.00  0.00    -0.186 OA 
HETATM   35  C   UNK A   2     -11.014   9.814  70.052  1.00  0.00    -0.277 C  
ENDBRANCH  24  34
BRANCH  27  36
HETATM   36  O   UNK A   2      -8.566   9.266  67.829  1.00  0.00    -0.117 OA 
HETATM   37  C   UNK A   2      -8.151   8.358  66.828  1.00  0.00    -0.098 C  
ENDBRANCH  27  36
ENDBRANCH  17  19
ENDBRANCH  15  17
ENDBRANCH   6  15
ENDBRANCH   4   6
ENDBRANCH   3   4
ENDBRANCH   2   3
TORSDOF 11
ENDMDL
MODEL       71
REMARK 921   NORMALIZED FREE ENERGY PREDICTED BY IDOCK:   -5.19 KCAL/MOL
REMARK 922        TOTAL FREE ENERGY PREDICTED BY IDOCK:  -10.44 KCAL/MOL
REMARK 923 INTER-LIGAND FREE ENERGY PREDICTED BY IDOCK:   -9.19 KCAL/MOL
REMARK 924 INTRA-LIGAND FREE ENERGY PREDICTED BY IDOCK:   -1.25 KCAL/MOL
REMARK 927      BINDING AFFINITY PREDICTED BY RF-SCORE:    0.00 PKD
ROOT
HETATM    1  C   UNK A   0     -13.586  14.495  72.260  1.00  0.00    -0.540 C  
HETATM    2  C   UNK A   0     -13.750  12.987  72.250  1.00  0.00    -0.512 C  
ENDROOT
BRANCH   2   3
HETATM    3  O   UNK A   0     -12.808  12.431  71.328  1.00  0.00    -0.353 OA 
BRANCH   3   4
HETATM    4  C   UNK A   0     -12.606  11.084  71.393  1.00  0.00    -0.393 C  
HETATM    5  O   UNK A   0     -13.162  10.308  72.164  1.00  0.00    -0.452 OA 
BRANCH   4   6
HETATM    6  C   UNK A   0     -11.624  10.677  70.294  1.00  0.00    -0.336 C  
BRANCH   6   7
HETATM    7  C   UNK A   0     -12.043  11.311  68.966  1.00  0.00    -0.325 C  
BRANCH   7   8
HETATM    8  C   UNK A   0     -11.262  12.507  68.398  1.00  0.00    -0.313 C  
BRANCH   8   9
HETATM    9  C   UNK A   0     -11.539  12.706  66.899  1.00  0.00    -0.438 A  
HETATM   10  C   UNK A   0     -12.271  13.819  66.460  1.00  0.00    -0.475 A  
HETATM   11  C   UNK A   0     -12.432  14.078  65.087  1.00  0.00    -0.472 A  
HETATM   12  C   UNK A   0     -11.019  11.849  65.905  1.00  0.00    -0.354 A  
HETATM   13  C   UNK A   0     -11.862  13.237  64.132  1.00  0.00    -0.497 A  
HETATM   14  C   UNK A   0     -11.162  12.115  64.543  1.00  0.00    -0.385 A  
ENDBRANCH   8   9
ENDBRANCH   7   8
ENDBRANCH   6   7
BRANCH   6  15
ATOM     15  N   ALA A   1     -11.569   9.198  70.175  1.00  0.00    -0.458 NA 
ATOM     16  H   ALA A   1     -12.345   8.706  69.733  1.00  0.00     0.000 HD 
BRANCH  15  17
ATOM     17  CA  ALA A   1     -10.407   8.414  70.686  1.00  0.00    -0.197 C  
ATOM     18  CB  ALA A   1      -9.713   8.802  72.003  1.00  0.00    -0.370 C  
BRANCH  17  19
ATOM     19  C   ALA A   1     -10.486   6.865  70.485  1.00  0.00    -0.211 C  
ATOM     20  O   ALA A   1     -11.405   6.243  71.032  1.00  0.00    -0.305 OA 
HETATM   21  C   UNK A   2      -8.347   6.501  67.533  1.00  0.00    -0.121 A  
HETATM   22  C   UNK A   2      -7.360   7.207  66.833  1.00  0.00    -0.088 A  
HETATM   23  N   UNK A   2      -9.640   6.203  69.609  1.00  0.00    -0.147 N  
HETATM   24  C   UNK A   2      -7.201   7.026  65.470  1.00  0.00    -0.070 A  
HETATM   25  C   UNK A   2      -8.464   6.763  68.994  1.00  0.00    -0.128 C  
HETATM   26  O   UNK A   2      -9.294   2.570  69.868  1.00  0.00    -0.127 OA 
HETATM   27  C   UNK A   2      -8.047   6.151  64.785  1.00  0.00    -0.132 A  
HETATM   28  C   UNK A   2      -9.033   5.434  65.494  1.00  0.00    -0.149 A  
HETATM   29  O   UNK A   2      -7.615   4.028  69.564  1.00  0.00    -0.053 OA 
HETATM   30  C   UNK A   2      -8.821   3.798  69.570  1.00  0.00    -0.092 C  
HETATM   31  C   UNK A   2      -9.165   5.582  66.880  1.00  0.00    -0.119 A  
HETATM   32  C   UNK A   2      -9.926   4.819  69.196  1.00  0.00    -0.163 C  
HETATM   33  C   UNK A   2     -10.196   4.809  67.674  1.00  0.00    -0.096 C  
BRANCH  24  34
HETATM   34  O   UNK A   2      -6.213   7.629  64.733  1.00  0.00    -0.038 OA 
HETATM   35  C   UNK A   2      -6.231   9.042  64.792  1.00  0.00    -0.066 C  
ENDBRANCH  24  34
BRANCH  27  36
HETATM   36  O   UNK A   2      -7.836   6.094  63.441  1.00  0.00    -0.099 OA 
HETATM   37  C   UNK A   2      -8.417   5.016  62.733  1.00  0.00    -0.115 C  
ENDBRANCH  27  36
ENDBRANCH  17  19
ENDBRANCH  15  17
ENDBRANCH   6  15
ENDBRANCH   4   6
ENDBRANCH   3   4
ENDBRANCH   2   3
TORSDOF 11
ENDMDL
MODEL       72
REMARK 921   NORMALIZED FREE ENERGY PREDICTED BY IDOCK:   -5.19 KCAL/MOL
REMARK 922        TOTAL FREE ENERGY PREDICTED BY IDOCK:  -10.43 KCAL/MOL
REMARK 923 INTER-LIGAND FREE ENERGY PREDICTED BY IDOCK:   -8.86 KCAL/MOL
REMARK 924 INTRA-LIGAND FREE ENERGY PREDICTED BY IDOCK:   -1.57 KCAL/MOL
REMARK 927      BINDING AFFINITY PREDICTED BY RF-SCORE:    0.00 PKD
ROOT
HETATM    1  C   UNK A   0      -9.537   6.893  73.990  1.00  0.00    -0.299 C  
HETATM    2  C   UNK A   0      -9.555   8.185  73.197  1.00  0.00    -0.237 C  
ENDROOT
BRANCH   2   3
HETATM    3  O   UNK A   0      -9.926   7.888  71.847  1.00  0.00    -0.165 OA 
BRANCH   3   4
HETATM    4  C   UNK A   0     -11.160   8.305  71.442  1.00  0.00    -0.251 C  
HETATM    5  O   UNK A   0     -12.174   7.616  71.393  1.00  0.00    -0.307 OA 
BRANCH   4   6
HETATM    6  C   UNK A   0     -11.098   9.800  71.128  1.00  0.00    -0.344 C  
BRANCH   6   7
HETATM    7  C   UNK A   0     -12.506  10.328  70.846  1.00  0.00    -0.466 C  
BRANCH   7   8
HETATM    8  C   UNK A   0     -13.273  11.108  71.925  1.00  0.00    -0.488 C  
BRANCH   8   9
HETATM    9  C   UNK A   0     -13.169  12.627  71.711  1.00  0.00    -0.457 A  
HETATM   10  C   UNK A   0     -12.297  13.142  70.741  1.00  0.00    -0.404 A  
HETATM   11  C   UNK A   0     -12.277  14.519  70.452  1.00  0.00    -0.394 A  
HETATM   12  C   UNK A   0     -13.979  13.554  72.403  1.00  0.00    -0.638 A  
HETATM   13  C   UNK A   0     -13.127  15.400  71.119  1.00  0.00    -0.565 A  
HETATM   14  C   UNK A   0     -13.972  14.917  72.104  1.00  0.00    -0.598 A  
ENDBRANCH   8   9
ENDBRANCH   7   8
ENDBRANCH   6   7
BRANCH   6  15
ATOM     15  N   ALA A   1     -10.204  10.045  69.968  1.00  0.00    -0.287 NA 
ATOM     16  H   ALA A   1      -9.250  10.362  70.135  1.00  0.00     0.000 HD 
BRANCH  15  17
ATOM     17  CA  ALA A   1     -10.668   9.837  68.565  1.00  0.00    -0.215 C  
ATOM     18  CB  ALA A   1     -11.536  10.893  67.859  1.00  0.00    -0.344 C  
BRANCH  17  19
ATOM     19  C   ALA A   1      -9.640   9.163  67.599  1.00  0.00    -0.149 C  
ATOM     20  O   ALA A   1      -8.936   9.888  66.883  1.00  0.00    -0.137 OA 
HETATM   21  C   UNK A   2      -9.441   5.832  69.111  1.00  0.00    -0.157 A  
HETATM   22  C   UNK A   2     -10.163   5.008  69.984  1.00  0.00    -0.339 A  
HETATM   23  N   UNK A   2      -9.407   7.797  67.624  1.00  0.00    -0.141 N  
HETATM   24  C   UNK A   2      -9.510   4.074  70.769  1.00  0.00    -0.170 A  
HETATM   25  C   UNK A   2     -10.214   6.821  68.311  1.00  0.00    -0.175 C  
HETATM   26  O   UNK A   2      -7.703   6.224  64.794  1.00  0.00    -0.087 OA 
HETATM   27  C   UNK A   2      -8.119   3.970  70.707  1.00  0.00    -0.062 A  
HETATM   28  C   UNK A   2      -7.395   4.793  69.820  1.00  0.00    -0.055 A  
HETATM   29  O   UNK A   2      -9.506   5.410  65.856  1.00  0.00    -0.160 OA 
HETATM   30  C   UNK A   2      -8.571   6.207  65.826  1.00  0.00    -0.151 C  
HETATM   31  C   UNK A   2      -8.058   5.707  68.992  1.00  0.00    -0.097 A  
HETATM   32  C   UNK A   2      -8.233   7.226  66.945  1.00  0.00    -0.117 C  
HETATM   33  C   UNK A   2      -7.314   6.589  68.012  1.00  0.00    -0.090 C  
BRANCH  24  34
HETATM   34  O   UNK A   2     -10.157   3.187  71.592  1.00  0.00    -0.144 OA 
HETATM   35  C   UNK A   2     -10.647   3.763  72.786  1.00  0.00    -0.114 C  
ENDBRANCH  24  34
BRANCH  27  36
HETATM   36  O   UNK A   2      -7.579   3.058  71.562  1.00  0.00    -0.043 OA 
HETATM   37  C   UNK A   2      -6.546   3.498  72.421  1.00  0.00    -0.015 C  
ENDBRANCH  27  36
ENDBRANCH  17  19
ENDBRANCH  15  17
ENDBRANCH   6  15
ENDBRANCH   4   6
ENDBRANCH   3   4
ENDBRANCH   2   3
TORSDOF 11
ENDMDL
MODEL       73
REMARK 921   NORMALIZED FREE ENERGY PREDICTED BY IDOCK:   -5.16 KCAL/MOL
REMARK 922        TOTAL FREE ENERGY PREDICTED BY IDOCK:  -10.38 KCAL/MOL
REMARK 923 INTER-LIGAND FREE ENERGY PREDICTED BY IDOCK:   -7.91 KCAL/MOL
REMARK 924 INTRA-LIGAND FREE ENERGY PREDICTED BY IDOCK:   -2.47 KCAL/MOL
REMARK 927      BINDING AFFINITY PREDICTED BY RF-SCORE:    0.00 PKD
ROOT
HETATM    1  C   UNK A   0      -9.911   4.780  70.172  1.00  0.00    -0.321 C  
HETATM    2  C   UNK A   0     -10.671   5.521  69.088  1.00  0.00    -0.190 C  
ENDROOT
BRANCH   2   3
HETATM    3  O   UNK A   0      -9.735   5.975  68.105  1.00  0.00    -0.122 OA 
BRANCH   3   4
HETATM    4  C   UNK A   0     -10.213   6.821  67.147  1.00  0.00    -0.225 C  
HETATM    5  O   UNK A   0     -11.364   6.852  66.721  1.00  0.00    -0.181 OA 
BRANCH   4   6
HETATM    6  C   UNK A   0      -9.099   7.785  66.738  1.00  0.00    -0.154 C  
BRANCH   6   7
HETATM    7  C   UNK A   0      -9.504   8.533  65.466  1.00  0.00     0.051 C  
BRANCH   7   8
HETATM    8  C   UNK A   0      -8.954   9.941  65.186  1.00  0.00    -0.235 C  
BRANCH   8   9
HETATM    9  C   UNK A   0     -10.082  10.949  64.915  1.00  0.00    -0.374 A  
HETATM   10  C   UNK A   0     -10.934  11.347  65.956  1.00  0.00    -0.286 A  
HETATM   11  C   UNK A   0     -11.894  12.355  65.753  1.00  0.00    -0.467 A  
HETATM   12  C   UNK A   0     -10.267  11.571  63.662  1.00  0.00    -0.450 A  
HETATM   13  C   UNK A   0     -12.016  12.985  64.514  1.00  0.00    -0.450 A  
HETATM   14  C   UNK A   0     -11.207  12.584  63.464  1.00  0.00    -0.525 A  
ENDBRANCH   8   9
ENDBRANCH   7   8
ENDBRANCH   6   7
BRANCH   6  15
ATOM     15  N   ALA A   1      -7.830   7.044  66.528  1.00  0.00    -0.104 NA 
ATOM     16  H   ALA A   1      -7.828   6.223  65.924  1.00  0.00     0.000 HD 
BRANCH  15  17
ATOM     17  CA  ALA A   1      -6.558   7.471  67.180  1.00  0.00    -0.062 C  
ATOM     18  CB  ALA A   1      -5.228   6.775  66.844  1.00  0.00    -0.016 C  
BRANCH  17  19
ATOM     19  C   ALA A   1      -6.388   9.010  67.404  1.00  0.00    -0.060 C  
ATOM     20  O   ALA A   1      -5.783   9.669  66.549  1.00  0.00    -0.051 OA 
HETATM   21  C   UNK A   2      -8.984   9.573  69.927  1.00  0.00    -0.231 A  
HETATM   22  C   UNK A   2      -9.752   8.853  70.852  1.00  0.00    -0.300 A  
HETATM   23  N   UNK A   2      -7.008   9.663  68.457  1.00  0.00    -0.064 N  
HETATM   24  C   UNK A   2     -11.014   9.293  71.209  1.00  0.00    -0.351 A  
HETATM   25  C   UNK A   2      -7.643   9.027  69.582  1.00  0.00    -0.077 C  
HETATM   26  O   UNK A   2      -5.860  13.004  69.409  1.00  0.00    -0.083 OA 
HETATM   27  C   UNK A   2     -11.535  10.450  70.626  1.00  0.00    -0.349 A  
HETATM   28  C   UNK A   2     -10.757  11.178  69.702  1.00  0.00    -0.144 A  
HETATM   29  O   UNK A   2      -6.368  11.339  70.826  1.00  0.00    -0.320 OA 
HETATM   30  C   UNK A   2      -6.404  11.802  69.689  1.00  0.00    -0.129 C  
HETATM   31  C   UNK A   2      -9.462  10.760  69.373  1.00  0.00    -0.037 A  
HETATM   32  C   UNK A   2      -7.100  11.133  68.476  1.00  0.00    -0.080 C  
HETATM   33  C   UNK A   2      -8.591  11.531  68.405  1.00  0.00    -0.159 C  
BRANCH  24  34
HETATM   34  O   UNK A   2     -11.792   8.680  72.159  1.00  0.00    -0.344 OA 
HETATM   35  C   UNK A   2     -11.191   7.545  72.750  1.00  0.00    -0.352 C  
ENDBRANCH  24  34
BRANCH  27  36
HETATM   36  O   UNK A   2     -12.805  10.757  71.009  1.00  0.00    -0.359 OA 
HETATM   37  C   UNK A   2     -13.027  12.033  71.576  1.00  0.00    -0.304 C  
ENDBRANCH  27  36
ENDBRANCH  17  19
ENDBRANCH  15  17
ENDBRANCH   6  15
ENDBRANCH   4   6
ENDBRANCH   3   4
ENDBRANCH   2   3
TORSDOF 11
ENDMDL
MODEL       74
REMARK 921   NORMALIZED FREE ENERGY PREDICTED BY IDOCK:   -5.15 KCAL/MOL
REMARK 922        TOTAL FREE ENERGY PREDICTED BY IDOCK:  -10.36 KCAL/MOL
REMARK 923 INTER-LIGAND FREE ENERGY PREDICTED BY IDOCK:   -8.14 KCAL/MOL
REMARK 924 INTRA-LIGAND FREE ENERGY PREDICTED BY IDOCK:   -2.22 KCAL/MOL
REMARK 927      BINDING AFFINITY PREDICTED BY RF-SCORE:    0.00 PKD
ROOT
HETATM    1  C   UNK A   0      -7.326   2.166  65.187  1.00  0.00    -0.058 C  
HETATM    2  C   UNK A   0      -7.287   3.666  64.968  1.00  0.00    -0.072 C  
ENDROOT
BRANCH   2   3
HETATM    3  O   UNK A   0      -8.385   4.033  64.127  1.00  0.00    -0.090 OA 
BRANCH   3   4
HETATM    4  C   UNK A   0      -9.560   4.337  64.749  1.00  0.00    -0.166 C  
HETATM    5  O   UNK A   0     -10.668   3.901  64.449  1.00  0.00    -0.270 OA 
BRANCH   4   6
HETATM    6  C   UNK A   0      -9.269   5.256  65.936  1.00  0.00    -0.159 C  
BRANCH   6   7
HETATM    7  C   UNK A   0     -10.263   4.974  67.064  1.00  0.00    -0.253 C  
BRANCH   7   8
HETATM    8  C   UNK A   0     -10.999   6.131  67.758  1.00  0.00    -0.400 C  
BRANCH   8   9
HETATM    9  C   UNK A   0     -10.753   6.133  69.275  1.00  0.00    -0.383 A  
HETATM   10  C   UNK A   0      -9.468   5.884  69.780  1.00  0.00    -0.178 A  
HETATM   11  C   UNK A   0      -9.202   5.998  71.156  1.00  0.00    -0.160 A  
HETATM   12  C   UNK A   0     -11.758   6.456  70.212  1.00  0.00    -0.389 A  
HETATM   13  C   UNK A   0     -10.208   6.368  72.049  1.00  0.00    -0.216 A  
HETATM   14  C   UNK A   0     -11.491   6.588  71.575  1.00  0.00    -0.351 A  
ENDBRANCH   8   9
ENDBRANCH   7   8
ENDBRANCH   6   7
BRANCH   6  15
ATOM     15  N   ALA A   1      -9.343   6.678  65.515  1.00  0.00    -0.311 NA 
ATOM     16  H   ALA A   1     -10.192   7.019  65.065  1.00  0.00     0.000 HD 
BRANCH  15  17
ATOM     17  CA  ALA A   1      -8.207   7.619  65.735  1.00  0.00    -0.133 C  
ATOM     18  CB  ALA A   1      -7.875   8.708  64.700  1.00  0.00    -0.129 C  
BRANCH  17  19
ATOM     19  C   ALA A   1      -7.999   8.108  67.206  1.00  0.00    -0.113 C  
ATOM     20  O   ALA A   1      -7.039   7.665  67.847  1.00  0.00    -0.080 OA 
HETATM   21  C   UNK A   2     -10.069  11.131  67.165  1.00  0.00    -0.223 A  
HETATM   22  C   UNK A   2     -11.103  11.711  66.417  1.00  0.00    -0.347 A  
HETATM   23  N   UNK A   2      -8.778   9.115  67.752  1.00  0.00    -0.121 N  
HETATM   24  C   UNK A   2     -11.231  13.087  66.346  1.00  0.00    -0.300 A  
HETATM   25  C   UNK A   2      -9.990   9.644  67.179  1.00  0.00    -0.194 C  
HETATM   26  O   UNK A   2      -8.830   9.560  71.384  1.00  0.00    -0.209 OA 
HETATM   27  C   UNK A   2     -10.309  13.902  67.006  1.00  0.00    -0.267 A  
HETATM   28  C   UNK A   2      -9.276  13.317  67.766  1.00  0.00    -0.209 A  
HETATM   29  O   UNK A   2     -10.618   9.626  70.030  1.00  0.00    -0.222 OA 
HETATM   30  C   UNK A   2      -9.398   9.632  70.163  1.00  0.00    -0.251 C  
HETATM   31  C   UNK A   2      -9.171  11.925  67.876  1.00  0.00    -0.187 A  
HETATM   32  C   UNK A   2      -8.376   9.776  69.005  1.00  0.00    -0.127 C  
HETATM   33  C   UNK A   2      -8.089  11.264  68.703  1.00  0.00    -0.145 C  
BRANCH  24  34
HETATM   34  O   UNK A   2     -12.257  13.722  65.693  1.00  0.00    -0.396 OA 
HETATM   35  C   UNK A   2     -12.202  13.606  64.285  1.00  0.00    -0.396 C  
ENDBRANCH  24  34
BRANCH  27  36
HETATM   36  O   UNK A   2     -10.499  15.238  66.821  1.00  0.00    -0.281 OA 
HETATM   37  C   UNK A   2      -9.551  15.931  66.033  1.00  0.00    -0.350 C  
ENDBRANCH  27  36
ENDBRANCH  17  19
ENDBRANCH  15  17
ENDBRANCH   6  15
ENDBRANCH   4   6
ENDBRANCH   3   4
ENDBRANCH   2   3
TORSDOF 11
ENDMDL
MODEL       75
REMARK 921   NORMALIZED FREE ENERGY PREDICTED BY IDOCK:   -5.14 KCAL/MOL
REMARK 922        TOTAL FREE ENERGY PREDICTED BY IDOCK:  -10.35 KCAL/MOL
REMARK 923 INTER-LIGAND FREE ENERGY PREDICTED BY IDOCK:   -9.52 KCAL/MOL
REMARK 924 INTRA-LIGAND FREE ENERGY PREDICTED BY IDOCK:   -0.83 KCAL/MOL
REMARK 927      BINDING AFFINITY PREDICTED BY RF-SCORE:    0.00 PKD
ROOT
HETATM    1  C   UNK A   0     -14.088  15.560  72.321  1.00  0.00    -0.637 C  
HETATM    2  C   UNK A   0     -13.066  14.487  72.002  1.00  0.00    -0.344 C  
ENDROOT
BRANCH   2   3
HETATM    3  O   UNK A   0     -12.851  14.467  70.587  1.00  0.00    -0.343 OA 
BRANCH   3   4
HETATM    4  C   UNK A   0     -11.602  14.798  70.150  1.00  0.00    -0.290 C  
HETATM    5  O   UNK A   0     -10.890  15.686  70.608  1.00  0.00    -0.324 OA 
BRANCH   4   6
HETATM    6  C   UNK A   0     -11.195  13.831  69.037  1.00  0.00    -0.272 C  
BRANCH   6   7
HETATM    7  C   UNK A   0     -11.255  14.545  67.685  1.00  0.00    -0.335 C  
BRANCH   7   8
HETATM    8  C   UNK A   0     -12.354  14.192  66.670  1.00  0.00    -0.375 C  
BRANCH   8   9
HETATM    9  C   UNK A   0     -11.798  13.381  65.489  1.00  0.00    -0.394 A  
HETATM   10  C   UNK A   0     -10.413  13.288  65.289  1.00  0.00    -0.324 A  
HETATM   11  C   UNK A   0      -9.886  12.456  64.286  1.00  0.00    -0.129 A  
HETATM   12  C   UNK A   0     -12.623  12.642  64.613  1.00  0.00    -0.517 A  
HETATM   13  C   UNK A   0     -10.728  11.700  63.470  1.00  0.00    -0.495 A  
HETATM   14  C   UNK A   0     -12.100  11.803  63.629  1.00  0.00    -0.486 A  
ENDBRANCH   8   9
ENDBRANCH   7   8
ENDBRANCH   6   7
BRANCH   6  15
ATOM     15  N   ALA A   1     -12.080  12.640  69.042  1.00  0.00    -0.216 NA 
ATOM     16  H   ALA A   1     -13.006  12.708  68.620  1.00  0.00     0.000 HD 
BRANCH  15  17
ATOM     17  CA  ALA A   1     -11.649  11.347  69.648  1.00  0.00    -0.330 C  
ATOM     18  CB  ALA A   1     -12.411  10.744  70.841  1.00  0.00    -0.497 C  
BRANCH  17  19
ATOM     19  C   ALA A   1     -11.146  10.256  68.646  1.00  0.00    -0.239 C  
ATOM     20  O   ALA A   1     -11.060  10.548  67.447  1.00  0.00    -0.303 OA 
HETATM   21  C   UNK A   2      -9.560   7.929  70.990  1.00  0.00    -0.177 A  
HETATM   22  C   UNK A   2      -9.561   7.618  72.356  1.00  0.00    -0.220 A  
HETATM   23  N   UNK A   2     -10.671   9.031  69.086  1.00  0.00    -0.198 N  
HETATM   24  C   UNK A   2      -8.432   7.090  72.957  1.00  0.00    -0.113 A  
HETATM   25  C   UNK A   2     -10.808   8.507  70.421  1.00  0.00    -0.234 C  
HETATM   26  O   UNK A   2     -10.370   6.274  66.699  1.00  0.00    -0.198 OA 
HETATM   27  C   UNK A   2      -7.276   6.888  72.200  1.00  0.00    -0.082 A  
HETATM   28  C   UNK A   2      -7.280   7.193  70.824  1.00  0.00    -0.071 A  
HETATM   29  O   UNK A   2     -11.184   6.119  68.785  1.00  0.00    -0.367 OA 
HETATM   30  C   UNK A   2     -10.571   6.765  67.939  1.00  0.00    -0.242 C  
HETATM   31  C   UNK A   2      -8.435   7.684  70.203  1.00  0.00    -0.138 A  
HETATM   32  C   UNK A   2      -9.918   8.151  68.177  1.00  0.00    -0.186 C  
HETATM   33  C   UNK A   2      -8.481   7.998  68.724  1.00  0.00    -0.127 C  
BRANCH  24  34
HETATM   34  O   UNK A   2      -8.384   6.697  74.271  1.00  0.00    -0.126 OA 
HETATM   35  C   UNK A   2      -9.126   5.527  74.549  1.00  0.00    -0.123 C  
ENDBRANCH  24  34
BRANCH  27  36
HETATM   36  O   UNK A   2      -6.211   6.418  72.906  1.00  0.00    -0.053 OA 
HETATM   37  C   UNK A   2      -5.551   5.271  72.408  1.00  0.00    -0.017 C  
ENDBRANCH  27  36
ENDBRANCH  17  19
ENDBRANCH  15  17
ENDBRANCH   6  15
ENDBRANCH   4   6
ENDBRANCH   3   4
ENDBRANCH   2   3
TORSDOF 11
ENDMDL
MODEL       76
REMARK 921   NORMALIZED FREE ENERGY PREDICTED BY IDOCK:   -5.13 KCAL/MOL
REMARK 922        TOTAL FREE ENERGY PREDICTED BY IDOCK:  -10.34 KCAL/MOL
REMARK 923 INTER-LIGAND FREE ENERGY PREDICTED BY IDOCK:   -8.39 KCAL/MOL
REMARK 924 INTRA-LIGAND FREE ENERGY PREDICTED BY IDOCK:   -1.96 KCAL/MOL
REMARK 927      BINDING AFFINITY PREDICTED BY RF-SCORE:    0.00 PKD
ROOT
HETATM    1  C   UNK A   0      -6.094  14.531  69.223  1.00  0.00    -0.107 C  
HETATM    2  C   UNK A   0      -7.171  13.522  68.874  1.00  0.00    -0.070 C  
ENDROOT
BRANCH   2   3
HETATM    3  O   UNK A   0      -6.558  12.240  68.705  1.00  0.00    -0.067 OA 
BRANCH   3   4
HETATM    4  C   UNK A   0      -7.066  11.213  69.445  1.00  0.00    -0.110 C  
HETATM    5  O   UNK A   0      -6.549  10.718  70.442  1.00  0.00    -0.257 OA 
BRANCH   4   6
HETATM    6  C   UNK A   0      -8.431  10.822  68.877  1.00  0.00    -0.149 C  
BRANCH   6   7
HETATM    7  C   UNK A   0      -9.102   9.802  69.799  1.00  0.00    -0.246 C  
BRANCH   7   8
HETATM    8  C   UNK A   0     -10.396   9.097  69.365  1.00  0.00    -0.220 C  
BRANCH   8   9
HETATM    9  C   UNK A   0     -10.110   7.739  68.704  1.00  0.00    -0.211 A  
HETATM   10  C   UNK A   0     -10.581   7.473  67.410  1.00  0.00    -0.364 A  
HETATM   11  C   UNK A   0     -10.229   6.283  66.748  1.00  0.00    -0.262 A  
HETATM   12  C   UNK A   0      -9.314   6.745  69.314  1.00  0.00    -0.144 A  
HETATM   13  C   UNK A   0      -9.398   5.345  67.361  1.00  0.00    -0.117 A  
HETATM   14  C   UNK A   0      -8.949   5.573  68.651  1.00  0.00    -0.118 A  
ENDBRANCH   8   9
ENDBRANCH   7   8
ENDBRANCH   6   7
BRANCH   6  15
ATOM     15  N   ALA A   1      -8.278  10.271  67.508  1.00  0.00    -0.114 NA 
ATOM     16  H   ALA A   1      -7.873   9.343  67.388  1.00  0.00     0.000 HD 
BRANCH  15  17
ATOM     17  CA  ALA A   1      -8.704  11.040  66.302  1.00  0.00    -0.176 C  
ATOM     18  CB  ALA A   1      -8.285  10.590  64.892  1.00  0.00    -0.117 C  
BRANCH  17  19
ATOM     19  C   ALA A   1     -10.156  11.620  66.339  1.00  0.00    -0.214 C  
ATOM     20  O   ALA A   1     -11.092  10.856  66.602  1.00  0.00    -0.213 OA 
HETATM   21  C   UNK A   2      -9.402  15.192  66.651  1.00  0.00    -0.291 A  
HETATM   22  C   UNK A   2      -8.341  16.084  66.447  1.00  0.00    -0.344 A  
HETATM   23  N   UNK A   2     -10.397  12.980  66.218  1.00  0.00    -0.279 N  
HETATM   24  C   UNK A   2      -8.235  17.235  67.209  1.00  0.00    -0.196 A  
HETATM   25  C   UNK A   2      -9.437  13.969  65.803  1.00  0.00    -0.009 C  
HETATM   26  O   UNK A   2     -13.780  14.127  65.427  1.00  0.00    -0.363 OA 
HETATM   27  C   UNK A   2      -9.180  17.496  68.202  1.00  0.00    -0.277 A  
HETATM   28  C   UNK A   2     -10.253  16.602  68.399  1.00  0.00    -0.284 A  
HETATM   29  O   UNK A   2     -11.884  14.914  64.520  1.00  0.00    -0.426 OA 
HETATM   30  C   UNK A   2     -12.437  14.251  65.394  1.00  0.00    -0.425 C  
HETATM   31  C   UNK A   2     -10.387  15.460  67.600  1.00  0.00    -0.262 A  
HETATM   32  C   UNK A   2     -11.714  13.539  66.566  1.00  0.00    -0.371 C  
HETATM   33  C   UNK A   2     -11.539  14.493  67.768  1.00  0.00    -0.390 C  
BRANCH  24  34
HETATM   34  O   UNK A   2      -7.265  18.186  67.017  1.00  0.00    -0.194 OA 
HETATM   35  C   UNK A   2      -6.615  18.102  65.765  1.00  0.00    -0.278 C  
ENDBRANCH  24  34
BRANCH  27  36
HETATM   36  O   UNK A   2      -8.946  18.626  68.926  1.00  0.00    -0.284 OA 
HETATM   37  C   UNK A   2      -9.962  19.609  68.949  1.00  0.00    -0.438 C  
ENDBRANCH  27  36
ENDBRANCH  17  19
ENDBRANCH  15  17
ENDBRANCH   6  15
ENDBRANCH   4   6
ENDBRANCH   3   4
ENDBRANCH   2   3
TORSDOF 11
ENDMDL
MODEL       77
REMARK 921   NORMALIZED FREE ENERGY PREDICTED BY IDOCK:   -5.10 KCAL/MOL
REMARK 922        TOTAL FREE ENERGY PREDICTED BY IDOCK:  -10.28 KCAL/MOL
REMARK 923 INTER-LIGAND FREE ENERGY PREDICTED BY IDOCK:   -9.57 KCAL/MOL
REMARK 924 INTRA-LIGAND FREE ENERGY PREDICTED BY IDOCK:   -0.71 KCAL/MOL
REMARK 927      BINDING AFFINITY PREDICTED BY RF-SCORE:    0.00 PKD
ROOT
HETATM    1  C   UNK A   0     -12.259  11.987  63.760  1.00  0.00    -0.600 C  
HETATM    2  C   UNK A   0     -11.336  11.772  64.944  1.00  0.00    -0.236 C  
ENDROOT
BRANCH   2   3
HETATM    3  O   UNK A   0     -12.083  11.971  66.148  1.00  0.00    -0.582 OA 
BRANCH   3   4
HETATM    4  C   UNK A   0     -11.860  13.133  66.825  1.00  0.00    -0.385 C  
HETATM    5  O   UNK A   0     -11.581  14.218  66.323  1.00  0.00    -0.349 OA 
BRANCH   4   6
HETATM    6  C   UNK A   0     -12.086  12.888  68.317  1.00  0.00    -0.129 C  
BRANCH   6   7
HETATM    7  C   UNK A   0     -11.126  13.755  69.135  1.00  0.00    -0.282 C  
BRANCH   7   8
HETATM    8  C   UNK A   0     -11.470  15.222  69.435  1.00  0.00    -0.329 C  
BRANCH   8   9
HETATM    9  C   UNK A   0     -12.053  15.392  70.848  1.00  0.00    -0.413 A  
HETATM   10  C   UNK A   0     -13.174  14.647  71.240  1.00  0.00    -0.432 A  
HETATM   11  C   UNK A   0     -13.647  14.703  72.564  1.00  0.00    -0.572 A  
HETATM   12  C   UNK A   0     -11.461  16.222  71.824  1.00  0.00    -0.317 A  
HETATM   13  C   UNK A   0     -13.007  15.495  73.516  1.00  0.00    -0.669 A  
HETATM   14  C   UNK A   0     -11.918  16.264  73.142  1.00  0.00    -0.562 A  
ENDBRANCH   8   9
ENDBRANCH   7   8
ENDBRANCH   6   7
BRANCH   6  15
ATOM     15  N   ALA A   1     -11.897  11.451  68.636  1.00  0.00    -0.453 NA 
ATOM     16  H   ALA A   1     -11.814  10.780  67.874  1.00  0.00     0.000 HD 
BRANCH  15  17
ATOM     17  CA  ALA A   1     -11.826  10.966  70.045  1.00  0.00    -0.347 C  
ATOM     18  CB  ALA A   1     -12.628  11.661  71.159  1.00  0.00    -0.439 C  
BRANCH  17  19
ATOM     19  C   ALA A   1     -11.765   9.414  70.231  1.00  0.00    -0.083 C  
ATOM     20  O   ALA A   1     -12.761   8.831  70.677  1.00  0.00     0.101 OA 
HETATM   21  C   UNK A   2      -8.903   8.632  68.081  1.00  0.00    -0.142 A  
HETATM   22  C   UNK A   2      -7.806   9.269  67.486  1.00  0.00    -0.096 A  
HETATM   23  N   UNK A   2     -10.683   8.672  69.785  1.00  0.00    -0.228 N  
HETATM   24  C   UNK A   2      -7.282   8.798  66.295  1.00  0.00    -0.086 A  
HETATM   25  C   UNK A   2      -9.418   9.208  69.353  1.00  0.00    -0.161 C  
HETATM   26  O   UNK A   2     -10.221   5.263  71.033  1.00  0.00    -0.208 OA 
HETATM   27  C   UNK A   2      -7.867   7.694  65.670  1.00  0.00    -0.109 A  
HETATM   28  C   UNK A   2      -8.965   7.050  66.276  1.00  0.00    -0.175 A  
HETATM   29  O   UNK A   2      -8.603   6.800  70.788  1.00  0.00    -0.138 OA 
HETATM   30  C   UNK A   2      -9.754   6.436  70.558  1.00  0.00    -0.168 C  
HETATM   31  C   UNK A   2      -9.469   7.497  67.504  1.00  0.00    -0.165 A  
HETATM   32  C   UNK A   2     -10.774   7.206  69.680  1.00  0.00    -0.239 C  
HETATM   33  C   UNK A   2     -10.630   6.813  68.192  1.00  0.00    -0.279 C  
BRANCH  24  34
HETATM   34  O   UNK A   2      -6.168   9.326  65.693  1.00  0.00    -0.061 OA 
HETATM   35  C   UNK A   2      -5.550  10.360  66.433  1.00  0.00    -0.061 C  
ENDBRANCH  24  34
BRANCH  27  36
HETATM   36  O   UNK A   2      -7.306   7.353  64.477  1.00  0.00    -0.075 OA 
HETATM   37  C   UNK A   2      -8.034   7.651  63.303  1.00  0.00    -0.102 C  
ENDBRANCH  27  36
ENDBRANCH  17  19
ENDBRANCH  15  17
ENDBRANCH   6  15
ENDBRANCH   4   6
ENDBRANCH   3   4
ENDBRANCH   2   3
TORSDOF 11
ENDMDL
MODEL       78
REMARK 921   NORMALIZED FREE ENERGY PREDICTED BY IDOCK:   -5.10 KCAL/MOL
REMARK 922        TOTAL FREE ENERGY PREDICTED BY IDOCK:  -10.28 KCAL/MOL
REMARK 923 INTER-LIGAND FREE ENERGY PREDICTED BY IDOCK:   -7.66 KCAL/MOL
REMARK 924 INTRA-LIGAND FREE ENERGY PREDICTED BY IDOCK:   -2.62 KCAL/MOL
REMARK 927      BINDING AFFINITY PREDICTED BY RF-SCORE:    0.00 PKD
ROOT
HETATM    1  C   UNK A   0     -10.953   1.663  73.208  1.00  0.00    -0.250 C  
HETATM    2  C   UNK A   0     -10.783   3.158  73.397  1.00  0.00    -0.201 C  
ENDROOT
BRANCH   2   3
HETATM    3  O   UNK A   0      -9.497   3.402  73.976  1.00  0.00    -0.091 OA 
BRANCH   3   4
HETATM    4  C   UNK A   0      -8.449   3.532  73.112  1.00  0.00    -0.082 C  
HETATM    5  O   UNK A   0      -7.478   2.785  73.039  1.00  0.00    -0.043 OA 
BRANCH   4   6
HETATM    6  C   UNK A   0      -8.713   4.723  72.191  1.00  0.00    -0.124 C  
BRANCH   6   7
HETATM    7  C   UNK A   0      -8.436   4.325  70.739  1.00  0.00    -0.100 C  
BRANCH   7   8
HETATM    8  C   UNK A   0      -9.598   4.124  69.754  1.00  0.00    -0.281 C  
BRANCH   8   9
HETATM    9  C   UNK A   0      -9.540   5.129  68.593  1.00  0.00    -0.194 A  
HETATM   10  C   UNK A   0     -10.721   5.529  67.950  1.00  0.00    -0.174 A  
HETATM   11  C   UNK A   0     -10.698   6.535  66.966  1.00  0.00    -0.434 A  
HETATM   12  C   UNK A   0      -8.341   5.748  68.176  1.00  0.00    -0.107 A  
HETATM   13  C   UNK A   0      -9.502   7.161  66.614  1.00  0.00    -0.219 A  
HETATM   14  C   UNK A   0      -8.320   6.758  67.214  1.00  0.00    -0.121 A  
ENDBRANCH   8   9
ENDBRANCH   7   8
ENDBRANCH   6   7
BRANCH   6  15
ATOM     15  N   ALA A   1      -7.870   5.878  72.588  1.00  0.00    -0.101 NA 
ATOM     16  H   ALA A   1      -6.882   5.881  72.338  1.00  0.00     0.000 HD 
BRANCH  15  17
ATOM     17  CA  ALA A   1      -8.433   7.034  73.345  1.00  0.00    -0.128 C  
ATOM     18  CB  ALA A   1      -7.740   8.407  73.315  1.00  0.00    -0.129 C  
BRANCH  17  19
ATOM     19  C   ALA A   1      -9.993   7.150  73.355  1.00  0.00    -0.278 C  
ATOM     20  O   ALA A   1     -10.600   6.882  74.399  1.00  0.00    -0.174 OA 
HETATM   21  C   UNK A   2     -10.488   9.247  70.391  1.00  0.00    -0.296 A  
HETATM   22  C   UNK A   2      -9.805   9.644  69.235  1.00  0.00    -0.195 A  
HETATM   23  N   UNK A   2     -10.688   7.670  72.275  1.00  0.00    -0.242 N  
HETATM   24  C   UNK A   2     -10.064  10.873  68.654  1.00  0.00    -0.191 A  
HETATM   25  C   UNK A   2     -10.142   7.918  70.965  1.00  0.00    -0.192 C  
HETATM   26  O   UNK A   2     -14.291   7.084  72.023  1.00  0.00    -0.328 OA 
HETATM   27  C   UNK A   2     -10.997  11.732  69.238  1.00  0.00    -0.175 A  
HETATM   28  C   UNK A   2     -11.691  11.326  70.397  1.00  0.00    -0.398 A  
HETATM   29  O   UNK A   2     -12.818   6.935  70.337  1.00  0.00     0.019 OA 
HETATM   30  C   UNK A   2     -13.074   7.296  71.482  1.00  0.00    -0.384 C  
HETATM   31  C   UNK A   2     -11.463  10.065  70.961  1.00  0.00    -0.463 A  
HETATM   32  C   UNK A   2     -12.100   8.063  72.414  1.00  0.00    -0.321 C  
HETATM   33  C   UNK A   2     -12.208   9.588  72.189  1.00  0.00    -0.282 C  
BRANCH  24  34
HETATM   34  O   UNK A   2      -9.486  11.297  67.484  1.00  0.00    -0.167 OA 
HETATM   35  C   UNK A   2     -10.086  10.766  66.319  1.00  0.00    -0.232 C  
ENDBRANCH  24  34
BRANCH  27  36
HETATM   36  O   UNK A   2     -11.131  12.935  68.614  1.00  0.00    -0.244 OA 
HETATM   37  C   UNK A   2     -12.070  13.847  69.147  1.00  0.00    -0.338 C  
ENDBRANCH  27  36
ENDBRANCH  17  19
ENDBRANCH  15  17
ENDBRANCH   6  15
ENDBRANCH   4   6
ENDBRANCH   3   4
ENDBRANCH   2   3
TORSDOF 11
ENDMDL
MODEL       79
REMARK 921   NORMALIZED FREE ENERGY PREDICTED BY IDOCK:   -5.09 KCAL/MOL
REMARK 922        TOTAL FREE ENERGY PREDICTED BY IDOCK:  -10.28 KCAL/MOL
REMARK 923 INTER-LIGAND FREE ENERGY PREDICTED BY IDOCK:   -7.06 KCAL/MOL
REMARK 924 INTRA-LIGAND FREE ENERGY PREDICTED BY IDOCK:   -3.21 KCAL/MOL
REMARK 927      BINDING AFFINITY PREDICTED BY RF-SCORE:    0.00 PKD
ROOT
HETATM    1  C   UNK A   0     -13.891  14.382  71.808  1.00  0.00    -0.527 C  
HETATM    2  C   UNK A   0     -13.516  12.944  72.112  1.00  0.00    -0.522 C  
ENDROOT
BRANCH   2   3
HETATM    3  O   UNK A   0     -12.542  12.515  71.155  1.00  0.00    -0.365 OA 
BRANCH   3   4
HETATM    4  C   UNK A   0     -12.435  11.170  70.949  1.00  0.00    -0.409 C  
HETATM    5  O   UNK A   0     -12.992  10.294  71.603  1.00  0.00    -0.394 OA 
BRANCH   4   6
HETATM    6  C   UNK A   0     -11.564  10.927  69.717  1.00  0.00    -0.322 C  
BRANCH   6   7
HETATM    7  C   UNK A   0     -10.467   9.914  70.051  1.00  0.00    -0.331 C  
BRANCH   7   8
HETATM    8  C   UNK A   0      -8.986  10.308  69.937  1.00  0.00     0.008 C  
BRANCH   8   9
HETATM    9  C   UNK A   0      -8.063   9.082  70.027  1.00  0.00    -0.124 A  
HETATM   10  C   UNK A   0      -6.692   9.213  69.761  1.00  0.00    -0.050 A  
HETATM   11  C   UNK A   0      -5.816   8.130  69.953  1.00  0.00    -0.022 A  
HETATM   12  C   UNK A   0      -8.516   7.813  70.448  1.00  0.00    -0.132 A  
HETATM   13  C   UNK A   0      -6.290   6.903  70.419  1.00  0.00    -0.039 A  
HETATM   14  C   UNK A   0      -7.645   6.743  70.656  1.00  0.00    -0.095 A  
ENDBRANCH   8   9
ENDBRANCH   7   8
ENDBRANCH   6   7
BRANCH   6  15
ATOM     15  N   ALA A   1     -10.972  12.204  69.245  1.00  0.00    -0.416 NA 
ATOM     16  H   ALA A   1     -10.211  12.625  69.777  1.00  0.00     0.000 HD 
BRANCH  15  17
ATOM     17  CA  ALA A   1     -11.464  12.886  68.013  1.00  0.00    -0.319 C  
ATOM     18  CB  ALA A   1     -12.239  14.212  68.103  1.00  0.00    -0.179 C  
BRANCH  17  19
ATOM     19  C   ALA A   1     -10.510  12.834  66.775  1.00  0.00    -0.241 C  
ATOM     20  O   ALA A   1      -9.913  13.866  66.444  1.00  0.00    -0.280 OA 
HETATM   21  C   UNK A   2     -10.018   9.213  66.509  1.00  0.00    -0.359 A  
HETATM   22  C   UNK A   2     -10.614   8.018  66.933  1.00  0.00    -0.324 A  
HETATM   23  N   UNK A   2     -10.218  11.641  66.134  1.00  0.00    -0.219 N  
HETATM   24  C   UNK A   2      -9.846   6.884  67.135  1.00  0.00    -0.165 A  
HETATM   25  C   UNK A   2     -10.909  10.392  66.329  1.00  0.00     0.048 C  
HETATM   26  O   UNK A   2      -8.738  11.728  62.789  1.00  0.00    -0.136 OA 
HETATM   27  C   UNK A   2      -8.465   6.940  66.937  1.00  0.00    -0.115 A  
HETATM   28  C   UNK A   2      -7.870   8.141  66.501  1.00  0.00    -0.093 A  
HETATM   29  O   UNK A   2     -10.389  10.362  63.456  1.00  0.00    -0.043 OA 
HETATM   30  C   UNK A   2      -9.497  11.156  63.746  1.00  0.00    -0.235 C  
HETATM   31  C   UNK A   2      -8.650   9.276  66.252  1.00  0.00    -0.139 A  
HETATM   32  C   UNK A   2      -9.093  11.556  65.188  1.00  0.00     0.019 C  
HETATM   33  C   UNK A   2      -8.046  10.574  65.760  1.00  0.00    -0.158 C  
BRANCH  24  34
HETATM   34  O   UNK A   2     -10.370   5.664  67.481  1.00  0.00    -0.186 OA 
HETATM   35  C   UNK A   2     -10.826   5.591  68.817  1.00  0.00    -0.040 C  
ENDBRANCH  24  34
BRANCH  27  36
HETATM   36  O   UNK A   2      -7.805   5.783  67.220  1.00  0.00    -0.100 OA 
HETATM   37  C   UNK A   2      -6.881   5.306  66.261  1.00  0.00    -0.059 C  
ENDBRANCH  27  36
ENDBRANCH  17  19
ENDBRANCH  15  17
ENDBRANCH   6  15
ENDBRANCH   4   6
ENDBRANCH   3   4
ENDBRANCH   2   3
TORSDOF 11
ENDMDL
MODEL       80
REMARK 921   NORMALIZED FREE ENERGY PREDICTED BY IDOCK:   -5.06 KCAL/MOL
REMARK 922        TOTAL FREE ENERGY PREDICTED BY IDOCK:  -10.22 KCAL/MOL
REMARK 923 INTER-LIGAND FREE ENERGY PREDICTED BY IDOCK:   -9.38 KCAL/MOL
REMARK 924 INTRA-LIGAND FREE ENERGY PREDICTED BY IDOCK:   -0.84 KCAL/MOL
REMARK 927      BINDING AFFINITY PREDICTED BY RF-SCORE:    0.00 PKD
ROOT
HETATM    1  C   UNK A   0      -8.901   6.087  73.429  1.00  0.00    -0.126 C  
HETATM    2  C   UNK A   0      -9.726   7.258  72.932  1.00  0.00    -0.169 C  
ENDROOT
BRANCH   2   3
HETATM    3  O   UNK A   0      -9.590   7.341  71.510  1.00  0.00    -0.157 OA 
BRANCH   3   4
HETATM    4  C   UNK A   0     -10.742   7.309  70.780  1.00  0.00    -0.231 C  
HETATM    5  O   UNK A   0     -11.716   6.595  71.001  1.00  0.00    -0.326 OA 
BRANCH   4   6
HETATM    6  C   UNK A   0     -10.658   8.364  69.676  1.00  0.00    -0.219 C  
BRANCH   6   7
HETATM    7  C   UNK A   0      -9.708   7.887  68.576  1.00  0.00    -0.167 C  
BRANCH   7   8
HETATM    8  C   UNK A   0     -10.190   7.797  67.120  1.00  0.00    -0.365 C  
BRANCH   8   9
HETATM    9  C   UNK A   0      -9.388   8.728  66.196  1.00  0.00    -0.297 A  
HETATM   10  C   UNK A   0      -8.002   8.564  66.065  1.00  0.00    -0.107 A  
HETATM   11  C   UNK A   0      -7.272   9.329  65.137  1.00  0.00    -0.094 A  
HETATM   12  C   UNK A   0      -9.996   9.717  65.393  1.00  0.00    -0.302 A  
HETATM   13  C   UNK A   0      -7.913  10.263  64.323  1.00  0.00    -0.132 A  
HETATM   14  C   UNK A   0      -9.276  10.464  64.459  1.00  0.00    -0.287 A  
ENDBRANCH   8   9
ENDBRANCH   7   8
ENDBRANCH   6   7
BRANCH   6  15
ATOM     15  N   ALA A   1     -10.202   9.659  70.238  1.00  0.00    -0.261 NA 
ATOM     16  H   ALA A   1     -10.159   9.774  71.250  1.00  0.00     0.000 HD 
BRANCH  15  17
ATOM     17  CA  ALA A   1      -9.806  10.798  69.359  1.00  0.00    -0.085 C  
ATOM     18  CB  ALA A   1      -8.406  10.851  68.723  1.00  0.00    -0.151 C  
BRANCH  17  19
ATOM     19  C   ALA A   1     -10.918  11.343  68.404  1.00  0.00    -0.215 C  
ATOM     20  O   ALA A   1     -12.005  10.753  68.363  1.00  0.00    -0.508 OA 
HETATM   21  C   UNK A   2      -9.650  14.732  67.826  1.00  0.00    -0.209 A  
HETATM   22  C   UNK A   2      -8.460  15.462  67.936  1.00  0.00    -0.150 A  
HETATM   23  N   UNK A   2     -10.763  12.535  67.715  1.00  0.00    -0.214 N  
HETATM   24  C   UNK A   2      -8.492  16.823  68.184  1.00  0.00    -0.213 A  
HETATM   25  C   UNK A   2      -9.531  13.269  67.574  1.00  0.00    -0.220 C  
HETATM   26  O   UNK A   2     -12.967  13.262  64.886  1.00  0.00    -0.727 OA 
HETATM   27  C   UNK A   2      -9.720  17.467  68.348  1.00  0.00    -0.316 A  
HETATM   28  C   UNK A   2     -10.917  16.732  68.227  1.00  0.00    -0.327 A  
HETATM   29  O   UNK A   2     -10.751  13.610  64.944  1.00  0.00    -0.343 OA 
HETATM   30  C   UNK A   2     -11.793  13.361  65.543  1.00  0.00    -0.363 C  
HETATM   31  C   UNK A   2     -10.888  15.363  67.932  1.00  0.00    -0.300 A  
HETATM   32  C   UNK A   2     -11.919  13.188  67.079  1.00  0.00    -0.355 C  
HETATM   33  C   UNK A   2     -12.154  14.550  67.771  1.00  0.00    -0.269 C  
BRANCH  24  34
HETATM   34  O   UNK A   2      -7.372  17.614  68.234  1.00  0.00    -0.216 OA 
HETATM   35  C   UNK A   2      -6.711  17.754  66.992  1.00  0.00    -0.171 C  
ENDBRANCH  24  34
BRANCH  27  36
HETATM   36  O   UNK A   2      -9.631  18.794  68.643  1.00  0.00    -0.353 OA 
HETATM   37  C   UNK A   2     -10.175  19.709  67.713  1.00  0.00    -0.436 C  
ENDBRANCH  27  36
ENDBRANCH  17  19
ENDBRANCH  15  17
ENDBRANCH   6  15
ENDBRANCH   4   6
ENDBRANCH   3   4
ENDBRANCH   2   3
TORSDOF 11
ENDMDL
MODEL       81
REMARK 921   NORMALIZED FREE ENERGY PREDICTED BY IDOCK:   -5.04 KCAL/MOL
REMARK 922        TOTAL FREE ENERGY PREDICTED BY IDOCK:  -10.19 KCAL/MOL
REMARK 923 INTER-LIGAND FREE ENERGY PREDICTED BY IDOCK:   -7.49 KCAL/MOL
REMARK 924 INTRA-LIGAND FREE ENERGY PREDICTED BY IDOCK:   -2.71 KCAL/MOL
REMARK 927      BINDING AFFINITY PREDICTED BY RF-SCORE:    0.00 PKD
ROOT
HETATM    1  C   UNK A   0      -7.608   2.582  66.805  1.00  0.00    -0.070 C  
HETATM    2  C   UNK A   0      -8.984   3.216  66.867  1.00  0.00    -0.160 C  
ENDROOT
BRANCH   2   3
HETATM    3  O   UNK A   0      -8.984   4.389  66.048  1.00  0.00    -0.117 OA 
BRANCH   3   4
HETATM    4  C   UNK A   0      -9.888   5.361  66.366  1.00  0.00    -0.176 C  
HETATM    5  O   UNK A   0     -11.109   5.261  66.292  1.00  0.00    -0.156 OA 
BRANCH   4   6
HETATM    6  C   UNK A   0      -9.136   6.578  66.906  1.00  0.00    -0.138 C  
BRANCH   6   7
HETATM    7  C   UNK A   0      -9.870   7.859  66.503  1.00  0.00    -0.272 C  
BRANCH   7   8
HETATM    8  C   UNK A   0      -9.078   9.119  66.121  1.00  0.00    -0.234 C  
BRANCH   8   9
HETATM    9  C   UNK A   0      -9.999  10.334  65.930  1.00  0.00    -0.321 A  
HETATM   10  C   UNK A   0     -10.262  10.822  64.641  1.00  0.00    -0.419 A  
HETATM   11  C   UNK A   0     -11.193  11.856  64.440  1.00  0.00    -0.401 A  
HETATM   12  C   UNK A   0     -10.675  10.957  67.001  1.00  0.00    -0.323 A  
HETATM   13  C   UNK A   0     -11.881  12.416  65.517  1.00  0.00    -0.469 A  
HETATM   14  C   UNK A   0     -11.613  11.971  66.801  1.00  0.00    -0.391 A  
ENDBRANCH   8   9
ENDBRANCH   7   8
ENDBRANCH   6   7
BRANCH   6  15
ATOM     15  N   ALA A   1      -7.743   6.589  66.395  1.00  0.00    -0.097 NA 
ATOM     16  H   ALA A   1      -7.582   6.585  65.388  1.00  0.00     0.000 HD 
BRANCH  15  17
ATOM     17  CA  ALA A   1      -6.571   6.605  67.319  1.00  0.00    -0.054 C  
ATOM     18  CB  ALA A   1      -5.291   5.822  66.981  1.00  0.00    -0.005 C  
BRANCH  17  19
ATOM     19  C   ALA A   1      -6.270   7.972  68.016  1.00  0.00    -0.047 C  
ATOM     20  O   ALA A   1      -5.553   8.792  67.428  1.00  0.00    -0.038 OA 
HETATM   21  C   UNK A   2      -8.955   8.016  70.509  1.00  0.00    -0.152 A  
HETATM   22  C   UNK A   2      -9.844   7.136  71.140  1.00  0.00    -0.180 A  
HETATM   23  N   UNK A   2      -6.890   8.335  69.201  1.00  0.00    -0.051 N  
HETATM   24  C   UNK A   2     -11.079   7.581  71.578  1.00  0.00    -0.236 A  
HETATM   25  C   UNK A   2      -7.653   7.457  70.052  1.00  0.00    -0.089 C  
HETATM   26  O   UNK A   2      -5.492  11.075  71.183  1.00  0.00    -0.223 OA 
HETATM   27  C   UNK A   2     -11.450   8.910  71.369  1.00  0.00    -0.311 A  
HETATM   28  C   UNK A   2     -10.549   9.796  70.742  1.00  0.00    -0.371 A  
HETATM   29  O   UNK A   2      -6.244   9.122  71.994  1.00  0.00    -0.185 OA 
HETATM   30  C   UNK A   2      -6.165   9.913  71.057  1.00  0.00    -0.032 C  
HETATM   31  C   UNK A   2      -9.281   9.360  70.339  1.00  0.00    -0.305 A  
HETATM   32  C   UNK A   2      -6.843   9.728  69.675  1.00  0.00    -0.072 C  
HETATM   33  C   UNK A   2      -8.282  10.290  69.686  1.00  0.00    -0.146 C  
BRANCH  24  34
HETATM   34  O   UNK A   2     -11.970   6.795  72.265  1.00  0.00    -0.275 OA 
HETATM   35  C   UNK A   2     -11.473   5.512  72.592  1.00  0.00    -0.272 C  
ENDBRANCH  24  34
BRANCH  27  36
HETATM   36  O   UNK A   2     -12.706   9.223  71.790  1.00  0.00    -0.330 OA 
HETATM   37  C   UNK A   2     -13.206  10.504  71.463  1.00  0.00    -0.371 C  
ENDBRANCH  27  36
ENDBRANCH  17  19
ENDBRANCH  15  17
ENDBRANCH   6  15
ENDBRANCH   4   6
ENDBRANCH   3   4
ENDBRANCH   2   3
TORSDOF 11
ENDMDL
MODEL       82
REMARK 921   NORMALIZED FREE ENERGY PREDICTED BY IDOCK:   -5.03 KCAL/MOL
REMARK 922        TOTAL FREE ENERGY PREDICTED BY IDOCK:  -10.17 KCAL/MOL
REMARK 923 INTER-LIGAND FREE ENERGY PREDICTED BY IDOCK:   -8.05 KCAL/MOL
REMARK 924 INTRA-LIGAND FREE ENERGY PREDICTED BY IDOCK:   -2.12 KCAL/MOL
REMARK 927      BINDING AFFINITY PREDICTED BY RF-SCORE:    0.00 PKD
ROOT
HETATM    1  C   UNK A   0      -5.521  12.667  69.506  1.00  0.00    -0.083 C  
HETATM    2  C   UNK A   0      -6.067  12.576  68.094  1.00  0.00    -0.069 C  
ENDROOT
BRANCH   2   3
HETATM    3  O   UNK A   0      -6.699  11.302  67.931  1.00  0.00    -0.061 OA 
BRANCH   3   4
HETATM    4  C   UNK A   0      -7.944  11.161  68.470  1.00  0.00    -0.143 C  
HETATM    5  O   UNK A   0      -8.213  10.591  69.523  1.00  0.00    -0.151 OA 
BRANCH   4   6
HETATM    6  C   UNK A   0      -8.953  11.894  67.586  1.00  0.00    -0.169 C  
BRANCH   6   7
HETATM    7  C   UNK A   0     -10.375  11.598  68.068  1.00  0.00    -0.208 C  
BRANCH   7   8
HETATM    8  C   UNK A   0     -11.471  12.669  67.953  1.00  0.00    -0.360 C  
BRANCH   8   9
HETATM    9  C   UNK A   0     -11.855  13.239  69.328  1.00  0.00    -0.383 A  
HETATM   10  C   UNK A   0     -11.674  14.603  69.600  1.00  0.00    -0.358 A  
HETATM   11  C   UNK A   0     -12.127  15.162  70.808  1.00  0.00    -0.387 A  
HETATM   12  C   UNK A   0     -12.467  12.461  70.335  1.00  0.00    -0.214 A  
HETATM   13  C   UNK A   0     -12.774  14.373  71.760  1.00  0.00    -0.427 A  
HETATM   14  C   UNK A   0     -12.934  13.018  71.526  1.00  0.00    -0.398 A  
ENDBRANCH   8   9
ENDBRANCH   7   8
ENDBRANCH   6   7
BRANCH   6  15
ATOM     15  N   ALA A   1      -8.784  11.489  66.168  1.00  0.00    -0.296 NA 
ATOM     16  H   ALA A   1      -8.026  11.896  65.622  1.00  0.00     0.000 HD 
BRANCH  15  17
ATOM     17  CA  ALA A   1      -9.697  10.499  65.524  1.00  0.00    -0.242 C  
ATOM     18  CB  ALA A   1     -10.515  10.879  64.278  1.00  0.00    -0.405 C  
BRANCH  17  19
ATOM     19  C   ALA A   1      -9.180   9.024  65.474  1.00  0.00    -0.198 C  
ATOM     20  O   ALA A   1      -8.324   8.724  64.632  1.00  0.00    -0.158 OA 
HETATM   21  C   UNK A   2     -10.250   7.868  68.782  1.00  0.00    -0.218 A  
HETATM   22  C   UNK A   2     -11.146   8.218  69.800  1.00  0.00    -0.056 A  
HETATM   23  N   UNK A   2      -9.554   8.091  66.428  1.00  0.00    -0.214 N  
HETATM   24  C   UNK A   2     -10.868   7.904  71.119  1.00  0.00    -0.234 A  
HETATM   25  C   UNK A   2     -10.613   8.255  67.391  1.00  0.00    -0.253 C  
HETATM   26  O   UNK A   2      -9.039   4.534  65.745  1.00  0.00    -0.125 OA 
HETATM   27  C   UNK A   2      -9.674   7.254  71.438  1.00  0.00    -0.164 A  
HETATM   28  C   UNK A   2      -8.778   6.894  70.411  1.00  0.00    -0.147 A  
HETATM   29  O   UNK A   2     -10.875   5.439  66.663  1.00  0.00    -0.277 OA 
HETATM   30  C   UNK A   2      -9.701   5.556  66.325  1.00  0.00    -0.151 C  
HETATM   31  C   UNK A   2      -9.078   7.170  69.071  1.00  0.00    -0.132 A  
HETATM   32  C   UNK A   2      -8.828   6.817  66.554  1.00  0.00    -0.143 C  
HETATM   33  C   UNK A   2      -8.151   6.775  67.943  1.00  0.00    -0.114 C  
BRANCH  24  34
HETATM   34  O   UNK A   2     -11.730   8.153  72.157  1.00  0.00    -0.311 OA 
HETATM   35  C   UNK A   2     -12.672   9.172  71.892  1.00  0.00    -0.389 C  
ENDBRANCH  24  34
BRANCH  27  36
HETATM   36  O   UNK A   2      -9.480   7.045  72.770  1.00  0.00    -0.143 OA 
HETATM   37  C   UNK A   2      -8.886   8.089  73.516  1.00  0.00    -0.268 C  
ENDBRANCH  27  36
ENDBRANCH  17  19
ENDBRANCH  15  17
ENDBRANCH   6  15
ENDBRANCH   4   6
ENDBRANCH   3   4
ENDBRANCH   2   3
TORSDOF 11
ENDMDL
MODEL       83
REMARK 921   NORMALIZED FREE ENERGY PREDICTED BY IDOCK:   -5.02 KCAL/MOL
REMARK 922        TOTAL FREE ENERGY PREDICTED BY IDOCK:  -10.15 KCAL/MOL
REMARK 923 INTER-LIGAND FREE ENERGY PREDICTED BY IDOCK:   -9.06 KCAL/MOL
REMARK 924 INTRA-LIGAND FREE ENERGY PREDICTED BY IDOCK:   -1.09 KCAL/MOL
REMARK 927      BINDING AFFINITY PREDICTED BY RF-SCORE:    0.00 PKD
ROOT
HETATM    1  C   UNK A   0     -11.769  12.139  63.670  1.00  0.00    -0.588 C  
HETATM    2  C   UNK A   0     -11.228  11.601  64.980  1.00  0.00    -0.210 C  
ENDROOT
BRANCH   2   3
HETATM    3  O   UNK A   0     -11.961  12.197  66.056  1.00  0.00    -0.578 OA 
BRANCH   3   4
HETATM    4  C   UNK A   0     -11.377  13.258  66.684  1.00  0.00    -0.321 C  
HETATM    5  O   UNK A   0     -10.584  14.047  66.179  1.00  0.00    -0.283 OA 
BRANCH   4   6
HETATM    6  C   UNK A   0     -11.929  13.355  68.106  1.00  0.00    -0.321 C  
BRANCH   6   7
HETATM    7  C   UNK A   0     -11.002  14.221  68.962  1.00  0.00    -0.282 C  
BRANCH   7   8
HETATM    8  C   UNK A   0     -11.339  15.699  69.219  1.00  0.00    -0.348 C  
BRANCH   8   9
HETATM    9  C   UNK A   0     -10.152  16.618  68.892  1.00  0.00    -0.274 A  
HETATM   10  C   UNK A   0     -10.365  17.984  68.655  1.00  0.00    -0.328 A  
HETATM   11  C   UNK A   0      -9.280  18.860  68.471  1.00  0.00    -0.404 A  
HETATM   12  C   UNK A   0      -8.814  16.169  68.891  1.00  0.00    -0.248 A  
HETATM   13  C   UNK A   0      -7.967  18.390  68.526  1.00  0.00    -0.333 A  
HETATM   14  C   UNK A   0      -7.736  17.039  68.727  1.00  0.00    -0.249 A  
ENDBRANCH   8   9
ENDBRANCH   7   8
ENDBRANCH   6   7
BRANCH   6  15
ATOM     15  N   ALA A   1     -12.073  12.001  68.695  1.00  0.00    -0.328 NA 
ATOM     16  H   ALA A   1     -12.253  11.208  68.080  1.00  0.00     0.000 HD 
BRANCH  15  17
ATOM     17  CA  ALA A   1     -11.962  11.771  70.165  1.00  0.00    -0.339 C  
ATOM     18  CB  ALA A   1     -12.720  12.664  71.162  1.00  0.00    -0.347 C  
BRANCH  17  19
ATOM     19  C   ALA A   1     -11.909  10.276  70.621  1.00  0.00    -0.347 C  
ATOM     20  O   ALA A   1     -12.867   9.816  71.255  1.00  0.00    -0.337 OA 
HETATM   21  C   UNK A   2      -9.284   9.027  68.391  1.00  0.00    -0.137 A  
HETATM   22  C   UNK A   2      -8.239   9.510  67.592  1.00  0.00    -0.121 A  
HETATM   23  N   UNK A   2     -10.888   9.430  70.218  1.00  0.00    -0.242 N  
HETATM   24  C   UNK A   2      -7.842   8.817  66.462  1.00  0.00    -0.103 A  
HETATM   25  C   UNK A   2      -9.662   9.838  69.581  1.00  0.00    -0.222 C  
HETATM   26  O   UNK A   2     -10.365   6.284  72.012  1.00  0.00    -0.198 OA 
HETATM   27  C   UNK A   2      -8.503   7.641  66.104  1.00  0.00    -0.143 A  
HETATM   28  C   UNK A   2      -9.548   7.152  66.915  1.00  0.00    -0.216 A  
HETATM   29  O   UNK A   2      -8.753   7.696  71.345  1.00  0.00    -0.121 OA 
HETATM   30  C   UNK A   2      -9.926   7.336  71.291  1.00  0.00    -0.188 C  
HETATM   31  C   UNK A   2      -9.922   7.827  68.083  1.00  0.00    -0.207 A  
HETATM   32  C   UNK A   2     -11.014   7.973  70.387  1.00  0.00    -0.248 C  
HETATM   33  C   UNK A   2     -11.022   7.317  68.988  1.00  0.00    -0.077 C  
BRANCH  24  34
HETATM   34  O   UNK A   2      -6.783   9.191  65.674  1.00  0.00    -0.071 OA 
HETATM   35  C   UNK A   2      -7.051  10.299  64.838  1.00  0.00    -0.099 C  
ENDBRANCH  24  34
BRANCH  27  36
HETATM   36  O   UNK A   2      -8.067   7.074  64.945  1.00  0.00    -0.125 OA 
HETATM   37  C   UNK A   2      -7.515   5.774  65.020  1.00  0.00    -0.079 C  
ENDBRANCH  27  36
ENDBRANCH  17  19
ENDBRANCH  15  17
ENDBRANCH   6  15
ENDBRANCH   4   6
ENDBRANCH   3   4
ENDBRANCH   2   3
TORSDOF 11
ENDMDL
MODEL       84
REMARK 921   NORMALIZED FREE ENERGY PREDICTED BY IDOCK:   -5.02 KCAL/MOL
REMARK 922        TOTAL FREE ENERGY PREDICTED BY IDOCK:  -10.15 KCAL/MOL
REMARK 923 INTER-LIGAND FREE ENERGY PREDICTED BY IDOCK:   -8.62 KCAL/MOL
REMARK 924 INTRA-LIGAND FREE ENERGY PREDICTED BY IDOCK:   -1.53 KCAL/MOL
REMARK 927      BINDING AFFINITY PREDICTED BY RF-SCORE:    0.00 PKD
ROOT
HETATM    1  C   UNK A   0     -11.971  10.046  71.292  1.00  0.00    -0.483 C  
HETATM    2  C   UNK A   0     -10.797   9.103  71.113  1.00  0.00    -0.311 C  
ENDROOT
BRANCH   2   3
HETATM    3  O   UNK A   0     -11.047   8.273  69.975  1.00  0.00    -0.235 OA 
BRANCH   3   4
HETATM    4  C   UNK A   0     -11.599   7.049  70.216  1.00  0.00    -0.262 C  
HETATM    5  O   UNK A   0     -12.560   6.823  70.945  1.00  0.00    -0.336 OA 
BRANCH   4   6
HETATM    6  C   UNK A   0     -10.873   6.003  69.370  1.00  0.00    -0.363 C  
BRANCH   6   7
HETATM    7  C   UNK A   0     -10.067   5.072  70.279  1.00  0.00    -0.339 C  
BRANCH   7   8
HETATM    8  C   UNK A   0      -8.612   5.407  70.638  1.00  0.00    -0.130 C  
BRANCH   8   9
HETATM    9  C   UNK A   0      -8.527   6.326  71.868  1.00  0.00    -0.124 A  
HETATM   10  C   UNK A   0      -7.652   7.422  71.867  1.00  0.00    -0.084 A  
HETATM   11  C   UNK A   0      -7.648   8.338  72.935  1.00  0.00    -0.161 A  
HETATM   12  C   UNK A   0      -9.357   6.168  72.999  1.00  0.00    -0.139 A  
HETATM   13  C   UNK A   0      -8.518   8.180  74.014  1.00  0.00    -0.289 A  
HETATM   14  C   UNK A   0      -9.366   7.086  74.049  1.00  0.00    -0.273 A  
ENDBRANCH   8   9
ENDBRANCH   7   8
ENDBRANCH   6   7
BRANCH   6  15
ATOM     15  N   ALA A   1      -9.987   6.667  68.381  1.00  0.00    -0.141 NA 
ATOM     16  H   ALA A   1      -9.529   7.542  68.634  1.00  0.00     0.000 HD 
BRANCH  15  17
ATOM     17  CA  ALA A   1      -9.750   6.085  67.028  1.00  0.00    -0.138 C  
ATOM     18  CB  ALA A   1     -10.890   5.398  66.256  1.00  0.00    -0.161 C  
BRANCH  17  19
ATOM     19  C   ALA A   1      -8.797   6.898  66.092  1.00  0.00    -0.147 C  
ATOM     20  O   ALA A   1      -8.149   6.288  65.233  1.00  0.00    -0.120 OA 
HETATM   21  C   UNK A   2     -10.154  10.266  66.580  1.00  0.00    -0.281 A  
HETATM   22  C   UNK A   2     -10.954  10.977  67.484  1.00  0.00    -0.338 A  
HETATM   23  N   UNK A   2      -8.767   8.283  66.114  1.00  0.00    -0.141 N  
HETATM   24  C   UNK A   2     -11.721  12.045  67.053  1.00  0.00    -0.267 A  
HETATM   25  C   UNK A   2      -9.371   9.120  67.118  1.00  0.00    -0.143 C  
HETATM   26  O   UNK A   2      -5.940  10.030  64.582  1.00  0.00    -0.096 OA 
HETATM   27  C   UNK A   2     -11.714  12.402  65.703  1.00  0.00    -0.414 A  
HETATM   28  C   UNK A   2     -10.900  11.691  64.797  1.00  0.00    -0.367 A  
HETATM   29  O   UNK A   2      -6.883  10.539  66.554  1.00  0.00    -0.098 OA 
HETATM   30  C   UNK A   2      -6.932   9.928  65.490  1.00  0.00    -0.110 C  
HETATM   31  C   UNK A   2     -10.089  10.638  65.239  1.00  0.00    -0.363 A  
HETATM   32  C   UNK A   2      -8.113   9.034  65.029  1.00  0.00    -0.137 C  
HETATM   33  C   UNK A   2      -9.186   9.871  64.297  1.00  0.00    -0.317 C  
BRANCH  24  34
HETATM   34  O   UNK A   2     -12.472  12.830  67.892  1.00  0.00    -0.042 OA 
HETATM   35  C   UNK A   2     -11.817  13.175  69.096  1.00  0.00    -0.314 C  
ENDBRANCH  24  34
BRANCH  27  36
HETATM   36  O   UNK A   2     -12.547  13.430  65.383  1.00  0.00    -0.473 OA 
HETATM   37  C   UNK A   2     -12.073  14.394  64.462  1.00  0.00    -0.481 C  
ENDBRANCH  27  36
ENDBRANCH  17  19
ENDBRANCH  15  17
ENDBRANCH   6  15
ENDBRANCH   4   6
ENDBRANCH   3   4
ENDBRANCH   2   3
TORSDOF 11
ENDMDL
MODEL       85
REMARK 921   NORMALIZED FREE ENERGY PREDICTED BY IDOCK:   -5.02 KCAL/MOL
REMARK 922        TOTAL FREE ENERGY PREDICTED BY IDOCK:  -10.15 KCAL/MOL
REMARK 923 INTER-LIGAND FREE ENERGY PREDICTED BY IDOCK:   -8.67 KCAL/MOL
REMARK 924 INTRA-LIGAND FREE ENERGY PREDICTED BY IDOCK:   -1.48 KCAL/MOL
REMARK 927      BINDING AFFINITY PREDICTED BY RF-SCORE:    0.00 PKD
ROOT
HETATM    1  C   UNK A   0     -11.896  13.855  67.760  1.00  0.00    -0.415 C  
HETATM    2  C   UNK A   0     -10.826  14.899  68.010  1.00  0.00    -0.263 C  
ENDROOT
BRANCH   2   3
HETATM    3  O   UNK A   0      -9.580  14.231  68.235  1.00  0.00    -0.208 OA 
BRANCH   3   4
HETATM    4  C   UNK A   0      -8.571  14.977  68.771  1.00  0.00    -0.182 C  
HETATM    5  O   UNK A   0      -8.630  15.627  69.810  1.00  0.00    -0.184 OA 
BRANCH   4   6
HETATM    6  C   UNK A   0      -7.322  14.814  67.905  1.00  0.00    -0.151 C  
BRANCH   6   7
HETATM    7  C   UNK A   0      -7.326  15.861  66.788  1.00  0.00    -0.140 C  
BRANCH   7   8
HETATM    8  C   UNK A   0      -7.063  17.340  67.111  1.00  0.00    -0.204 C  
BRANCH   8   9
HETATM    9  C   UNK A   0      -8.372  18.133  67.252  1.00  0.00    -0.244 A  
HETATM   10  C   UNK A   0      -8.722  18.699  68.487  1.00  0.00    -0.362 A  
HETATM   11  C   UNK A   0      -9.854  19.524  68.604  1.00  0.00    -0.530 A  
HETATM   12  C   UNK A   0      -9.229  18.395  66.161  1.00  0.00    -0.133 A  
HETATM   13  C   UNK A   0     -10.651  19.804  67.494  1.00  0.00    -0.544 A  
HETATM   14  C   UNK A   0     -10.342  19.229  66.272  1.00  0.00    -0.566 A  
ENDBRANCH   8   9
ENDBRANCH   7   8
ENDBRANCH   6   7
BRANCH   6  15
ATOM     15  N   ALA A   1      -7.263  13.444  67.339  1.00  0.00    -0.301 NA 
ATOM     16  H   ALA A   1      -7.731  13.251  66.454  1.00  0.00     0.000 HD 
BRANCH  15  17
ATOM     17  CA  ALA A   1      -6.538  12.340  68.034  1.00  0.00    -0.076 C  
ATOM     18  CB  ALA A   1      -6.363  12.352  69.563  1.00  0.00    -0.116 C  
BRANCH  17  19
ATOM     19  C   ALA A   1      -6.781  10.902  67.471  1.00  0.00    -0.074 C  
ATOM     20  O   ALA A   1      -5.819  10.279  67.004  1.00  0.00    -0.049 OA 
HETATM   21  C   UNK A   2      -9.997  10.138  69.051  1.00  0.00    -0.216 A  
HETATM   22  C   UNK A   2     -11.071  10.796  69.664  1.00  0.00    -0.339 A  
HETATM   23  N   UNK A   2      -8.005  10.266  67.605  1.00  0.00    -0.102 N  
HETATM   24  C   UNK A   2     -11.817  10.162  70.642  1.00  0.00    -0.342 A  
HETATM   25  C   UNK A   2      -9.234  10.893  68.019  1.00  0.00    -0.156 C  
HETATM   26  O   UNK A   2      -8.740   7.350  65.523  1.00  0.00    -0.122 OA 
HETATM   27  C   UNK A   2     -11.480   8.866  71.037  1.00  0.00    -0.294 A  
HETATM   28  C   UNK A   2     -10.404   8.202  70.412  1.00  0.00    -0.208 A  
HETATM   29  O   UNK A   2     -10.155   9.036  65.963  1.00  0.00    -0.278 OA 
HETATM   30  C   UNK A   2      -9.108   8.445  66.218  1.00  0.00    -0.194 C  
HETATM   31  C   UNK A   2      -9.677   8.825  69.391  1.00  0.00    -0.172 A  
HETATM   32  C   UNK A   2      -8.128   8.820  67.360  1.00  0.00    -0.105 C  
HETATM   33  C   UNK A   2      -8.533   8.132  68.683  1.00  0.00    -0.127 C  
BRANCH  24  34
HETATM   34  O   UNK A   2     -12.923  10.717  71.234  1.00  0.00    -0.376 OA 
HETATM   35  C   UNK A   2     -12.898  12.130  71.290  1.00  0.00    -0.250 C  
ENDBRANCH  24  34
BRANCH  27  36
HETATM   36  O   UNK A   2     -12.245   8.362  72.045  1.00  0.00    -0.319 OA 
HETATM   37  C   UNK A   2     -13.008   7.204  71.771  1.00  0.00    -0.325 C  
ENDBRANCH  27  36
ENDBRANCH  17  19
ENDBRANCH  15  17
ENDBRANCH   6  15
ENDBRANCH   4   6
ENDBRANCH   3   4
ENDBRANCH   2   3
TORSDOF 11
ENDMDL
MODEL       86
REMARK 921   NORMALIZED FREE ENERGY PREDICTED BY IDOCK:   -5.00 KCAL/MOL
REMARK 922        TOTAL FREE ENERGY PREDICTED BY IDOCK:  -10.12 KCAL/MOL
REMARK 923 INTER-LIGAND FREE ENERGY PREDICTED BY IDOCK:   -9.14 KCAL/MOL
REMARK 924 INTRA-LIGAND FREE ENERGY PREDICTED BY IDOCK:   -0.98 KCAL/MOL
REMARK 927      BINDING AFFINITY PREDICTED BY RF-SCORE:    0.00 PKD
ROOT
HETATM    1  C   UNK A   0     -12.912  15.075  70.660  1.00  0.00    -0.394 C  
HETATM    2  C   UNK A   0     -11.904  14.275  69.857  1.00  0.00    -0.322 C  
ENDROOT
BRANCH   2   3
HETATM    3  O   UNK A   0     -11.412  15.096  68.793  1.00  0.00    -0.285 OA 
BRANCH   3   4
HETATM    4  C   UNK A   0     -11.438  14.559  67.540  1.00  0.00    -0.356 C  
HETATM    5  O   UNK A   0     -12.393  14.573  66.769  1.00  0.00    -0.332 OA 
BRANCH   4   6
HETATM    6  C   UNK A   0     -10.055  13.997  67.214  1.00  0.00    -0.249 C  
BRANCH   6   7
HETATM    7  C   UNK A   0      -9.037  15.138  67.138  1.00  0.00    -0.226 C  
BRANCH   7   8
HETATM    8  C   UNK A   0      -9.068  16.128  65.963  1.00  0.00    -0.354 C  
BRANCH   8   9
HETATM    9  C   UNK A   0      -9.207  17.580  66.447  1.00  0.00    -0.267 A  
HETATM   10  C   UNK A   0     -10.434  18.248  66.325  1.00  0.00    -0.397 A  
HETATM   11  C   UNK A   0     -10.610  19.533  66.868  1.00  0.00    -0.602 A  
HETATM   12  C   UNK A   0      -8.161  18.273  67.094  1.00  0.00    -0.239 A  
HETATM   13  C   UNK A   0      -9.571  20.170  67.546  1.00  0.00    -0.547 A  
HETATM   14  C   UNK A   0      -8.341  19.541  67.649  1.00  0.00    -0.340 A  
ENDBRANCH   8   9
ENDBRANCH   7   8
ENDBRANCH   6   7
BRANCH   6  15
ATOM     15  N   ALA A   1     -10.094  13.244  65.935  1.00  0.00    -0.290 NA 
ATOM     16  H   ALA A   1      -9.562  13.591  65.138  1.00  0.00     0.000 HD 
BRANCH  15  17
ATOM     17  CA  ALA A   1     -10.892  11.992  65.789  1.00  0.00    -0.287 C  
ATOM     18  CB  ALA A   1     -10.826  11.163  64.494  1.00  0.00    -0.320 C  
BRANCH  17  19
ATOM     19  C   ALA A   1     -11.002  11.098  67.067  1.00  0.00    -0.289 C  
ATOM     20  O   ALA A   1     -11.973  11.255  67.818  1.00  0.00    -0.637 OA 
HETATM   21  C   UNK A   2      -8.683   8.410  66.160  1.00  0.00    -0.175 A  
HETATM   22  C   UNK A   2      -7.633   8.158  65.269  1.00  0.00    -0.095 A  
HETATM   23  N   UNK A   2     -10.120  10.055  67.302  1.00  0.00    -0.197 N  
HETATM   24  C   UNK A   2      -7.390   6.873  64.815  1.00  0.00    -0.088 A  
HETATM   25  C   UNK A   2      -8.890   9.820  66.590  1.00  0.00    -0.138 C  
HETATM   26  O   UNK A   2      -9.896   8.630  70.665  1.00  0.00    -0.169 OA 
HETATM   27  C   UNK A   2      -8.212   5.825  65.232  1.00  0.00    -0.139 A  
HETATM   28  C   UNK A   2      -9.263   6.080  66.137  1.00  0.00    -0.154 A  
HETATM   29  O   UNK A   2      -8.159   9.108  69.325  1.00  0.00    -0.096 OA 
HETATM   30  C   UNK A   2      -9.369   8.951  69.465  1.00  0.00    -0.155 C  
HETATM   31  C   UNK A   2      -9.483   7.371  66.633  1.00  0.00    -0.240 A  
HETATM   32  C   UNK A   2     -10.417   9.039  68.325  1.00  0.00    -0.200 C  
HETATM   33  C   UNK A   2     -10.586   7.673  67.623  1.00  0.00    -0.294 C  
BRANCH  24  34
HETATM   34  O   UNK A   2      -6.338   6.542  63.999  1.00  0.00    -0.035 OA 
HETATM   35  C   UNK A   2      -5.176   7.319  64.213  1.00  0.00    -0.029 C  
ENDBRANCH  24  34
BRANCH  27  36
HETATM   36  O   UNK A   2      -7.916   4.616  64.680  1.00  0.00    -0.091 OA 
HETATM   37  C   UNK A   2      -8.695   3.506  65.078  1.00  0.00    -0.116 C  
ENDBRANCH  27  36
ENDBRANCH  17  19
ENDBRANCH  15  17
ENDBRANCH   6  15
ENDBRANCH   4   6
ENDBRANCH   3   4
ENDBRANCH   2   3
TORSDOF 11
ENDMDL
MODEL       87
REMARK 921   NORMALIZED FREE ENERGY PREDICTED BY IDOCK:   -4.97 KCAL/MOL
REMARK 922        TOTAL FREE ENERGY PREDICTED BY IDOCK:  -10.07 KCAL/MOL
REMARK 923 INTER-LIGAND FREE ENERGY PREDICTED BY IDOCK:  -10.41 KCAL/MOL
REMARK 924 INTRA-LIGAND FREE ENERGY PREDICTED BY IDOCK:    0.34 KCAL/MOL
REMARK 927      BINDING AFFINITY PREDICTED BY RF-SCORE:    0.00 PKD
ROOT
HETATM    1  C   UNK A   0     -13.887  14.172  72.370  1.00  0.00    -0.638 C  
HETATM    2  C   UNK A   0     -13.757  12.662  72.345  1.00  0.00    -0.279 C  
ENDROOT
BRANCH   2   3
HETATM    3  O   UNK A   0     -12.571  12.317  71.622  1.00  0.00    -0.222 OA 
BRANCH   3   4
HETATM    4  C   UNK A   0     -12.646  11.229  70.803  1.00  0.00    -0.332 C  
HETATM    5  O   UNK A   0     -13.450  10.306  70.901  1.00  0.00    -0.307 OA 
BRANCH   4   6
HETATM    6  C   UNK A   0     -11.609  11.376  69.689  1.00  0.00    -0.330 C  
BRANCH   6   7
HETATM    7  C   UNK A   0     -10.450  10.406  69.929  1.00  0.00    -0.266 C  
BRANCH   7   8
HETATM    8  C   UNK A   0     -10.498   9.416  71.103  1.00  0.00    -0.392 C  
BRANCH   8   9
HETATM    9  C   UNK A   0     -10.136   7.990  70.660  1.00  0.00    -0.203 A  
HETATM   10  C   UNK A   0      -8.800   7.653  70.397  1.00  0.00    -0.144 A  
HETATM   11  C   UNK A   0      -8.438   6.325  70.105  1.00  0.00    -0.134 A  
HETATM   12  C   UNK A   0     -11.089   6.951  70.572  1.00  0.00    -0.332 A  
HETATM   13  C   UNK A   0      -9.398   5.314  70.076  1.00  0.00    -0.201 A  
HETATM   14  C   UNK A   0     -10.728   5.631  70.300  1.00  0.00    -0.364 A  
ENDBRANCH   8   9
ENDBRANCH   7   8
ENDBRANCH   6   7
BRANCH   6  15
ATOM     15  N   ALA A   1     -11.118  12.775  69.627  1.00  0.00    -0.466 NA 
ATOM     16  H   ALA A   1     -10.170  12.983  69.939  1.00  0.00     0.000 HD 
BRANCH  15  17
ATOM     17  CA  ALA A   1     -11.977  13.885  69.119  1.00  0.00    -0.363 C  
ATOM     18  CB  ALA A   1     -12.215  15.147  69.966  1.00  0.00    -0.379 C  
BRANCH  17  19
ATOM     19  C   ALA A   1     -11.851  14.203  67.593  1.00  0.00    -0.392 C  
ATOM     20  O   ALA A   1     -11.775  15.386  67.239  1.00  0.00    -0.179 OA 
HETATM   21  C   UNK A   2     -10.777  10.928  66.350  1.00  0.00    -0.257 A  
HETATM   22  C   UNK A   2     -10.766   9.584  66.746  1.00  0.00    -0.136 A  
HETATM   23  N   UNK A   2     -11.687  13.198  66.653  1.00  0.00    -0.356 N  
HETATM   24  C   UNK A   2      -9.777   8.728  66.294  1.00  0.00    -0.272 A  
HETATM   25  C   UNK A   2     -11.865  11.789  66.892  1.00  0.00    -0.006 C  
HETATM   26  O   UNK A   2     -12.294  13.941  63.122  1.00  0.00    -0.696 OA 
HETATM   27  C   UNK A   2      -8.772   9.213  65.456  1.00  0.00    -0.181 A  
HETATM   28  C   UNK A   2      -8.791  10.564  65.051  1.00  0.00    -0.207 A  
HETATM   29  O   UNK A   2     -12.973  12.099  64.208  1.00  0.00    -0.650 OA 
HETATM   30  C   UNK A   2     -12.271  13.106  64.181  1.00  0.00    -0.398 C  
HETATM   31  C   UNK A   2      -9.815  11.421  65.471  1.00  0.00    -0.271 A  
HETATM   32  C   UNK A   2     -11.259  13.519  65.281  1.00  0.00    -0.292 C  
HETATM   33  C   UNK A   2      -9.879  12.869  65.035  1.00  0.00    -0.067 C  
BRANCH  24  34
HETATM   34  O   UNK A   2      -9.743   7.387  66.583  1.00  0.00    -0.197 OA 
HETATM   35  C   UNK A   2     -10.972   6.867  67.049  1.00  0.00    -0.334 C  
ENDBRANCH  24  34
BRANCH  27  36
HETATM   36  O   UNK A   2      -7.822   8.297  65.119  1.00  0.00    -0.105 OA 
HETATM   37  C   UNK A   2      -6.478   8.602  65.434  1.00  0.00    -0.063 C  
ENDBRANCH  27  36
ENDBRANCH  17  19
ENDBRANCH  15  17
ENDBRANCH   6  15
ENDBRANCH   4   6
ENDBRANCH   3   4
ENDBRANCH   2   3
TORSDOF 11
ENDMDL
MODEL       88
REMARK 921   NORMALIZED FREE ENERGY PREDICTED BY IDOCK:   -4.95 KCAL/MOL
REMARK 922        TOTAL FREE ENERGY PREDICTED BY IDOCK:  -10.03 KCAL/MOL
REMARK 923 INTER-LIGAND FREE ENERGY PREDICTED BY IDOCK:   -7.88 KCAL/MOL
REMARK 924 INTRA-LIGAND FREE ENERGY PREDICTED BY IDOCK:   -2.16 KCAL/MOL
REMARK 927      BINDING AFFINITY PREDICTED BY RF-SCORE:    0.00 PKD
ROOT
HETATM    1  C   UNK A   0      -5.526  12.712  69.505  1.00  0.00    -0.083 C  
HETATM    2  C   UNK A   0      -5.931  12.625  68.046  1.00  0.00    -0.094 C  
ENDROOT
BRANCH   2   3
HETATM    3  O   UNK A   0      -6.687  11.426  67.852  1.00  0.00    -0.061 OA 
BRANCH   3   4
HETATM    4  C   UNK A   0      -8.029  11.500  68.085  1.00  0.00    -0.136 C  
HETATM    5  O   UNK A   0      -8.598  11.182  69.125  1.00  0.00    -0.080 OA 
BRANCH   4   6
HETATM    6  C   UNK A   0      -8.709  12.117  66.863  1.00  0.00    -0.194 C  
BRANCH   6   7
HETATM    7  C   UNK A   0     -10.229  12.043  67.025  1.00  0.00    -0.224 C  
BRANCH   7   8
HETATM    8  C   UNK A   0     -11.135  13.069  66.326  1.00  0.00    -0.314 C  
BRANCH   8   9
HETATM    9  C   UNK A   0     -10.746  14.511  66.689  1.00  0.00    -0.305 A  
HETATM   10  C   UNK A   0     -10.382  15.416  65.681  1.00  0.00    -0.395 A  
HETATM   11  C   UNK A   0     -10.139  16.768  65.983  1.00  0.00    -0.350 A  
HETATM   12  C   UNK A   0     -10.809  15.011  68.007  1.00  0.00    -0.270 A  
HETATM   13  C   UNK A   0     -10.259  17.240  67.290  1.00  0.00    -0.320 A  
HETATM   14  C   UNK A   0     -10.586  16.356  68.305  1.00  0.00    -0.318 A  
ENDBRANCH   8   9
ENDBRANCH   7   8
ENDBRANCH   6   7
BRANCH   6  15
ATOM     15  N   ALA A   1      -8.279  11.417  65.627  1.00  0.00    -0.364 NA 
ATOM     16  H   ALA A   1      -7.389  11.669  65.198  1.00  0.00     0.000 HD 
BRANCH  15  17
ATOM     17  CA  ALA A   1      -9.116  10.355  64.997  1.00  0.00    -0.203 C  
ATOM     18  CB  ALA A   1      -9.665  10.527  63.570  1.00  0.00    -0.374 C  
BRANCH  17  19
ATOM     19  C   ALA A   1      -8.692   8.881  65.302  1.00  0.00    -0.186 C  
ATOM     20  O   ALA A   1      -7.754   8.390  64.663  1.00  0.00    -0.098 OA 
HETATM   21  C   UNK A   2     -10.264   8.437  68.582  1.00  0.00    -0.220 A  
HETATM   22  C   UNK A   2     -11.264   9.013  69.377  1.00  0.00     0.102 A  
HETATM   23  N   UNK A   2      -9.249   8.168  66.352  1.00  0.00    -0.187 N  
HETATM   24  C   UNK A   2     -11.184   8.954  70.757  1.00  0.00    -0.272 A  
HETATM   25  C   UNK A   2     -10.414   8.556  67.106  1.00  0.00    -0.299 C  
HETATM   26  O   UNK A   2      -8.875   4.529  66.436  1.00  0.00    -0.112 OA 
HETATM   27  C   UNK A   2     -10.087   8.335  71.361  1.00  0.00    -0.200 A  
HETATM   28  C   UNK A   2      -9.088   7.748  70.559  1.00  0.00    -0.154 A  
HETATM   29  O   UNK A   2     -10.756   5.664  66.894  1.00  0.00    -0.283 OA 
HETATM   30  C   UNK A   2      -9.542   5.669  66.711  1.00  0.00    -0.146 C  
HETATM   31  C   UNK A   2      -9.189   7.767  69.162  1.00  0.00    -0.144 A  
HETATM   32  C   UNK A   2      -8.628   6.917  66.820  1.00  0.00    -0.120 C  
HETATM   33  C   UNK A   2      -8.146   7.124  68.273  1.00  0.00    -0.124 C  
BRANCH  24  34
HETATM   34  O   UNK A   2     -12.159   9.433  71.596  1.00  0.00    -0.341 OA 
HETATM   35  C   UNK A   2     -12.985  10.421  71.013  1.00  0.00    -0.399 C  
ENDBRANCH  24  34
BRANCH  27  36
HETATM   36  O   UNK A   2     -10.086   8.385  72.722  1.00  0.00    -0.286 OA 
HETATM   37  C   UNK A   2     -10.206   7.162  73.421  1.00  0.00    -0.325 C  
ENDBRANCH  27  36
ENDBRANCH  17  19
ENDBRANCH  15  17
ENDBRANCH   6  15
ENDBRANCH   4   6
ENDBRANCH   3   4
ENDBRANCH   2   3
TORSDOF 11
ENDMDL
MODEL       89
REMARK 921   NORMALIZED FREE ENERGY PREDICTED BY IDOCK:   -4.94 KCAL/MOL
REMARK 922        TOTAL FREE ENERGY PREDICTED BY IDOCK:  -10.03 KCAL/MOL
REMARK 923 INTER-LIGAND FREE ENERGY PREDICTED BY IDOCK:   -8.38 KCAL/MOL
REMARK 924 INTRA-LIGAND FREE ENERGY PREDICTED BY IDOCK:   -1.64 KCAL/MOL
REMARK 927      BINDING AFFINITY PREDICTED BY RF-SCORE:    0.00 PKD
ROOT
HETATM    1  C   UNK A   0     -10.207   7.556  72.450  1.00  0.00    -0.261 C  
HETATM    2  C   UNK A   0      -9.214   8.615  72.012  1.00  0.00    -0.268 C  
ENDROOT
BRANCH   2   3
HETATM    3  O   UNK A   0      -9.115   8.585  70.584  1.00  0.00    -0.144 OA 
BRANCH   3   4
HETATM    4  C   UNK A   0     -10.219   8.972  69.884  1.00  0.00    -0.202 C  
HETATM    5  O   UNK A   0     -10.890   8.259  69.144  1.00  0.00    -0.151 OA 
BRANCH   4   6
HETATM    6  C   UNK A   0     -10.537  10.428  70.225  1.00  0.00    -0.123 C  
BRANCH   6   7
HETATM    7  C   UNK A   0     -12.053  10.629  70.271  1.00  0.00    -0.423 C  
BRANCH   7   8
HETATM    8  C   UNK A   0     -12.722  11.199  71.532  1.00  0.00    -0.499 C  
BRANCH   8   9
HETATM    9  C   UNK A   0     -12.974  12.710  71.409  1.00  0.00    -0.353 A  
HETATM   10  C   UNK A   0     -13.844  13.353  72.301  1.00  0.00    -0.671 A  
HETATM   11  C   UNK A   0     -13.994  14.752  72.277  1.00  0.00    -0.598 A  
HETATM   12  C   UNK A   0     -12.303  13.523  70.469  1.00  0.00    -0.412 A  
HETATM   13  C   UNK A   0     -13.277  15.530  71.368  1.00  0.00    -0.587 A  
HETATM   14  C   UNK A   0     -12.437  14.911  70.456  1.00  0.00    -0.419 A  
ENDBRANCH   8   9
ENDBRANCH   7   8
ENDBRANCH   6   7
BRANCH   6  15
ATOM     15  N   ALA A   1      -9.917  11.337  69.229  1.00  0.00    -0.428 NA 
ATOM     16  H   ALA A   1      -9.222  12.015  69.540  1.00  0.00     0.000 HD 
BRANCH  15  17
ATOM     17  CA  ALA A   1     -10.287  11.284  67.785  1.00  0.00    -0.182 C  
ATOM     18  CB  ALA A   1     -11.517  12.043  67.258  1.00  0.00    -0.403 C  
BRANCH  17  19
ATOM     19  C   ALA A   1      -9.095  11.302  66.773  1.00  0.00    -0.174 C  
ATOM     20  O   ALA A   1      -8.436  12.342  66.652  1.00  0.00    -0.143 OA 
HETATM   21  C   UNK A   2      -8.576   7.700  66.343  1.00  0.00    -0.149 A  
HETATM   22  C   UNK A   2      -9.254   6.490  66.543  1.00  0.00    -0.179 A  
HETATM   23  N   UNK A   2      -8.681  10.152  66.119  1.00  0.00    -0.139 N  
HETATM   24  C   UNK A   2      -8.551   5.329  66.815  1.00  0.00    -0.106 A  
HETATM   25  C   UNK A   2      -9.404   8.907  66.071  1.00  0.00    -0.242 C  
HETATM   26  O   UNK A   2      -6.532  10.451  63.172  1.00  0.00    -0.141 OA 
HETATM   27  C   UNK A   2      -7.159   5.370  66.914  1.00  0.00    -0.066 A  
HETATM   28  C   UNK A   2      -6.479   6.587  66.704  1.00  0.00    -0.043 A  
HETATM   29  O   UNK A   2      -8.293   9.075  63.376  1.00  0.00    -0.178 OA 
HETATM   30  C   UNK A   2      -7.478   9.827  63.904  1.00  0.00    -0.130 C  
HETATM   31  C   UNK A   2      -7.184   7.754  66.383  1.00  0.00    -0.075 A  
HETATM   32  C   UNK A   2      -7.383  10.113  65.425  1.00  0.00    -0.144 C  
HETATM   33  C   UNK A   2      -6.484   9.071  66.127  1.00  0.00    -0.065 C  
BRANCH  24  34
HETATM   34  O   UNK A   2      -9.141   4.098  66.951  1.00  0.00    -0.123 OA 
HETATM   35  C   UNK A   2      -9.650   3.567  65.744  1.00  0.00    -0.104 C  
ENDBRANCH  24  34
BRANCH  27  36
HETATM   36  O   UNK A   2      -6.578   4.183  67.240  1.00  0.00    -0.044 OA 
HETATM   37  C   UNK A   2      -5.377   3.838  66.577  1.00  0.00    -0.013 C  
ENDBRANCH  27  36
ENDBRANCH  17  19
ENDBRANCH  15  17
ENDBRANCH   6  15
ENDBRANCH   4   6
ENDBRANCH   3   4
ENDBRANCH   2   3
TORSDOF 11
ENDMDL
MODEL       90
REMARK 921   NORMALIZED FREE ENERGY PREDICTED BY IDOCK:   -4.94 KCAL/MOL
REMARK 922        TOTAL FREE ENERGY PREDICTED BY IDOCK:  -10.02 KCAL/MOL
REMARK 923 INTER-LIGAND FREE ENERGY PREDICTED BY IDOCK:   -7.80 KCAL/MOL
REMARK 924 INTRA-LIGAND FREE ENERGY PREDICTED BY IDOCK:   -2.22 KCAL/MOL
REMARK 927      BINDING AFFINITY PREDICTED BY RF-SCORE:    0.00 PKD
ROOT
HETATM    1  C   UNK A   0      -8.317   8.541  71.124  1.00  0.00    -0.182 C  
HETATM    2  C   UNK A   0      -7.340   9.510  70.487  1.00  0.00    -0.138 C  
ENDROOT
BRANCH   2   3
HETATM    3  O   UNK A   0      -8.082  10.561  69.860  1.00  0.00    -0.069 OA 
BRANCH   3   4
HETATM    4  C   UNK A   0      -7.495  11.175  68.793  1.00  0.00    -0.118 C  
HETATM    5  O   UNK A   0      -6.299  11.421  68.671  1.00  0.00    -0.050 OA 
BRANCH   4   6
HETATM    6  C   UNK A   0      -8.560  11.445  67.730  1.00  0.00    -0.129 C  
BRANCH   6   7
HETATM    7  C   UNK A   0      -9.492  12.563  68.203  1.00  0.00    -0.214 C  
BRANCH   7   8
HETATM    8  C   UNK A   0     -11.016  12.401  68.093  1.00  0.00    -0.263 C  
BRANCH   8   9
HETATM    9  C   UNK A   0     -11.654  12.087  69.456  1.00  0.00    -0.389 A  
HETATM   10  C   UNK A   0     -12.191  13.121  70.236  1.00  0.00    -0.376 A  
HETATM   11  C   UNK A   0     -12.881  12.838  71.429  1.00  0.00    -0.371 A  
HETATM   12  C   UNK A   0     -11.802  10.771  69.946  1.00  0.00    -0.413 A  
HETATM   13  C   UNK A   0     -13.053  11.522  71.858  1.00  0.00    -0.492 A  
HETATM   14  C   UNK A   0     -12.502  10.488  71.119  1.00  0.00    -0.517 A  
ENDBRANCH   8   9
ENDBRANCH   7   8
ENDBRANCH   6   7
BRANCH   6  15
ATOM     15  N   ALA A   1      -9.328  10.207  67.446  1.00  0.00    -0.147 NA 
ATOM     16  H   ALA A   1      -9.640   9.627  68.224  1.00  0.00     0.000 HD 
BRANCH  15  17
ATOM     17  CA  ALA A   1      -9.655   9.791  66.051  1.00  0.00    -0.235 C  
ATOM     18  CB  ALA A   1      -9.622  10.808  64.898  1.00  0.00    -0.307 C  
BRANCH  17  19
ATOM     19  C   ALA A   1      -9.136   8.380  65.620  1.00  0.00    -0.097 C  
ATOM     20  O   ALA A   1      -8.284   8.310  64.725  1.00  0.00    -0.149 OA 
HETATM   21  C   UNK A   2     -10.188   6.405  68.521  1.00  0.00    -0.198 A  
HETATM   22  C   UNK A   2     -11.080   6.478  69.599  1.00  0.00    -0.435 A  
HETATM   23  N   UNK A   2      -9.504   7.231  66.302  1.00  0.00    -0.123 N  
HETATM   24  C   UNK A   2     -10.795   5.835  70.791  1.00  0.00    -0.260 A  
HETATM   25  C   UNK A   2     -10.559   7.137  67.279  1.00  0.00    -0.327 C  
HETATM   26  O   UNK A   2      -8.987   3.972  64.721  1.00  0.00    -0.124 OA 
HETATM   27  C   UNK A   2      -9.599   5.127  70.926  1.00  0.00    -0.175 A  
HETATM   28  C   UNK A   2      -8.708   5.047  69.837  1.00  0.00    -0.122 A  
HETATM   29  O   UNK A   2     -10.820   4.605  65.850  1.00  0.00    -0.274 OA 
HETATM   30  C   UNK A   2      -9.648   4.808  65.548  1.00  0.00    -0.161 C  
HETATM   31  C   UNK A   2      -9.015   5.659  68.615  1.00  0.00    -0.113 A  
HETATM   32  C   UNK A   2      -8.775   5.969  66.091  1.00  0.00    -0.146 C  
HETATM   33  C   UNK A   2      -8.092   5.572  67.419  1.00  0.00    -0.101 C  
BRANCH  24  34
HETATM   34  O   UNK A   2     -11.653   5.804  71.862  1.00  0.00    -0.232 OA 
HETATM   35  C   UNK A   2     -11.936   7.077  72.408  1.00  0.00    -0.139 C  
ENDBRANCH  24  34
BRANCH  27  36
HETATM   36  O   UNK A   2      -9.398   4.582  72.158  1.00  0.00    -0.127 OA 
HETATM   37  C   UNK A   2      -8.328   3.670  72.303  1.00  0.00    -0.084 C  
ENDBRANCH  27  36
ENDBRANCH  17  19
ENDBRANCH  15  17
ENDBRANCH   6  15
ENDBRANCH   4   6
ENDBRANCH   3   4
ENDBRANCH   2   3
TORSDOF 11
ENDMDL
MODEL       91
REMARK 921   NORMALIZED FREE ENERGY PREDICTED BY IDOCK:   -4.94 KCAL/MOL
REMARK 922        TOTAL FREE ENERGY PREDICTED BY IDOCK:  -10.02 KCAL/MOL
REMARK 923 INTER-LIGAND FREE ENERGY PREDICTED BY IDOCK:   -7.91 KCAL/MOL
REMARK 924 INTRA-LIGAND FREE ENERGY PREDICTED BY IDOCK:   -2.11 KCAL/MOL
REMARK 927      BINDING AFFINITY PREDICTED BY RF-SCORE:    0.00 PKD
ROOT
HETATM    1  C   UNK A   0     -10.601   4.639  65.934  1.00  0.00    -0.265 C  
HETATM    2  C   UNK A   0      -9.457   5.566  66.296  1.00  0.00    -0.157 C  
ENDROOT
BRANCH   2   3
HETATM    3  O   UNK A   0     -10.002   6.778  66.828  1.00  0.00    -0.178 OA 
BRANCH   3   4
HETATM    4  C   UNK A   0      -9.299   7.923  66.593  1.00  0.00    -0.193 C  
HETATM    5  O   UNK A   0      -8.079   8.045  66.653  1.00  0.00    -0.100 OA 
BRANCH   4   6
HETATM    6  C   UNK A   0     -10.271   9.022  66.165  1.00  0.00    -0.071 C  
BRANCH   6   7
HETATM    7  C   UNK A   0      -9.520  10.103  65.384  1.00  0.00    -0.296 C  
BRANCH   7   8
HETATM    8  C   UNK A   0     -10.020  10.552  64.002  1.00  0.00    -0.363 C  
BRANCH   8   9
HETATM    9  C   UNK A   0     -10.690  11.934  64.061  1.00  0.00    -0.428 A  
HETATM   10  C   UNK A   0     -11.979  12.114  63.538  1.00  0.00    -0.619 A  
HETATM   11  C   UNK A   0     -12.651  13.340  63.688  1.00  0.00    -0.200 A  
HETATM   12  C   UNK A   0     -10.095  13.045  64.697  1.00  0.00    -0.253 A  
HETATM   13  C   UNK A   0     -12.053  14.402  64.367  1.00  0.00    -0.491 A  
HETATM   14  C   UNK A   0     -10.768  14.256  64.863  1.00  0.00    -0.448 A  
ENDBRANCH   8   9
ENDBRANCH   7   8
ENDBRANCH   6   7
BRANCH   6  15
ATOM     15  N   ALA A   1     -10.943   9.605  67.353  1.00  0.00    -0.376 NA 
ATOM     16  H   ALA A   1     -11.950   9.763  67.326  1.00  0.00     0.000 HD 
BRANCH  15  17
ATOM     17  CA  ALA A   1     -10.182   9.965  68.584  1.00  0.00    -0.178 C  
ATOM     18  CB  ALA A   1      -9.655  11.395  68.794  1.00  0.00    -0.139 C  
BRANCH  17  19
ATOM     19  C   ALA A   1     -10.684   9.311  69.913  1.00  0.00    -0.234 C  
ATOM     20  O   ALA A   1     -11.745   9.713  70.407  1.00  0.00    -0.257 OA 
HETATM   21  C   UNK A   2      -8.697   6.233  69.893  1.00  0.00    -0.141 A  
HETATM   22  C   UNK A   2      -7.547   5.706  69.293  1.00  0.00    -0.087 A  
HETATM   23  N   UNK A   2     -10.045   8.214  70.469  1.00  0.00    -0.191 N  
HETATM   24  C   UNK A   2      -7.430   4.344  69.075  1.00  0.00    -0.056 A  
HETATM   25  C   UNK A   2      -8.754   7.709  70.079  1.00  0.00    -0.142 C  
HETATM   26  O   UNK A   2     -10.719   7.334  73.956  1.00  0.00    -0.288 OA 
HETATM   27  C   UNK A   2      -8.477   3.494  69.435  1.00  0.00    -0.065 A  
HETATM   28  C   UNK A   2      -9.630   4.025  70.048  1.00  0.00    -0.274 A  
HETATM   29  O   UNK A   2      -8.700   7.358  72.977  1.00  0.00    -0.125 OA 
HETATM   30  C   UNK A   2      -9.923   7.386  72.869  1.00  0.00    -0.232 C  
HETATM   31  C   UNK A   2      -9.731   5.397  70.311  1.00  0.00    -0.254 A  
HETATM   32  C   UNK A   2     -10.698   7.425  71.526  1.00  0.00    -0.222 C  
HETATM   33  C   UNK A   2     -10.944   5.997  70.989  1.00  0.00    -0.350 C  
BRANCH  24  34
HETATM   34  O   UNK A   2      -6.305   3.751  68.558  1.00  0.00    -0.031 OA 
HETATM   35  C   UNK A   2      -5.986   4.169  67.246  1.00  0.00    -0.024 C  
ENDBRANCH  24  34
BRANCH  27  36
HETATM   36  O   UNK A   2      -8.276   2.183  69.123  1.00  0.00    -0.048 OA 
HETATM   37  C   UNK A   2      -9.008   1.650  68.037  1.00  0.00    -0.133 C  
ENDBRANCH  27  36
ENDBRANCH  17  19
ENDBRANCH  15  17
ENDBRANCH   6  15
ENDBRANCH   4   6
ENDBRANCH   3   4
ENDBRANCH   2   3
TORSDOF 11
ENDMDL
MODEL       92
REMARK 921   NORMALIZED FREE ENERGY PREDICTED BY IDOCK:   -4.93 KCAL/MOL
REMARK 922        TOTAL FREE ENERGY PREDICTED BY IDOCK:  -10.01 KCAL/MOL
REMARK 923 INTER-LIGAND FREE ENERGY PREDICTED BY IDOCK:   -8.73 KCAL/MOL
REMARK 924 INTRA-LIGAND FREE ENERGY PREDICTED BY IDOCK:   -1.27 KCAL/MOL
REMARK 927      BINDING AFFINITY PREDICTED BY RF-SCORE:    0.00 PKD
ROOT
HETATM    1  C   UNK A   0     -12.871  11.124  71.595  1.00  0.00    -0.524 C  
HETATM    2  C   UNK A   0     -11.739  10.674  70.692  1.00  0.00    -0.356 C  
ENDROOT
BRANCH   2   3
HETATM    3  O   UNK A   0     -11.314  11.790  69.903  1.00  0.00    -0.226 OA 
BRANCH   3   4
HETATM    4  C   UNK A   0     -11.387  11.648  68.548  1.00  0.00    -0.274 C  
HETATM    5  O   UNK A   0     -12.260  11.042  67.933  1.00  0.00    -0.438 OA 
BRANCH   4   6
HETATM    6  C   UNK A   0     -10.243  12.431  67.906  1.00  0.00    -0.213 C  
BRANCH   6   7
HETATM    7  C   UNK A   0     -10.797  13.364  66.826  1.00  0.00    -0.286 C  
BRANCH   7   8
HETATM    8  C   UNK A   0      -9.877  14.385  66.137  1.00  0.00    -0.340 C  
BRANCH   8   9
HETATM    9  C   UNK A   0     -10.158  15.818  66.617  1.00  0.00    -0.287 A  
HETATM   10  C   UNK A   0     -10.737  16.037  67.875  1.00  0.00    -0.316 A  
HETATM   11  C   UNK A   0     -10.892  17.342  68.378  1.00  0.00    -0.273 A  
HETATM   12  C   UNK A   0      -9.786  16.959  65.874  1.00  0.00    -0.205 A  
HETATM   13  C   UNK A   0     -10.467  18.446  67.638  1.00  0.00    -0.445 A  
HETATM   14  C   UNK A   0      -9.922  18.253  66.379  1.00  0.00    -0.385 A  
ENDBRANCH   8   9
ENDBRANCH   7   8
ENDBRANCH   6   7
BRANCH   6  15
ATOM     15  N   ALA A   1      -9.241  11.500  67.330  1.00  0.00    -0.164 NA 
ATOM     16  H   ALA A   1      -8.249  11.688  67.471  1.00  0.00     0.000 HD 
BRANCH  15  17
ATOM     17  CA  ALA A   1      -9.650  10.294  66.551  1.00  0.00    -0.181 C  
ATOM     18  CB  ALA A   1     -10.242  10.433  65.138  1.00  0.00    -0.326 C  
BRANCH  17  19
ATOM     19  C   ALA A   1      -8.722   9.043  66.692  1.00  0.00    -0.128 C  
ATOM     20  O   ALA A   1      -7.575   9.102  66.231  1.00  0.00    -0.091 OA 
HETATM   21  C   UNK A   2     -10.487   7.242  69.349  1.00  0.00    -0.223 A  
HETATM   22  C   UNK A   2     -11.748   7.199  69.958  1.00  0.00    -0.105 A  
HETATM   23  N   UNK A   2      -9.105   7.935  67.430  1.00  0.00    -0.132 N  
HETATM   24  C   UNK A   2     -11.875   6.820  71.283  1.00  0.00    -0.348 A  
HETATM   25  C   UNK A   2     -10.432   7.674  67.926  1.00  0.00    -0.207 C  
HETATM   26  O   UNK A   2      -7.312   4.779  66.971  1.00  0.00    -0.079 OA 
HETATM   27  C   UNK A   2     -10.735   6.501  72.024  1.00  0.00    -0.223 A  
HETATM   28  C   UNK A   2      -9.468   6.536  71.406  1.00  0.00    -0.164 A  
HETATM   29  O   UNK A   2      -9.538   5.009  67.138  1.00  0.00    -0.134 OA 
HETATM   30  C   UNK A   2      -8.417   5.494  67.266  1.00  0.00    -0.110 C  
HETATM   31  C   UNK A   2      -9.342   6.875  70.053  1.00  0.00    -0.158 A  
HETATM   32  C   UNK A   2      -8.116   6.913  67.813  1.00  0.00    -0.114 C  
HETATM   33  C   UNK A   2      -8.000   6.898  69.354  1.00  0.00    -0.115 C  
BRANCH  24  34
HETATM   34  O   UNK A   2     -13.082   6.687  71.923  1.00  0.00    -0.280 OA 
HETATM   35  C   UNK A   2     -14.109   7.499  71.390  1.00  0.00    -0.371 C  
ENDBRANCH  24  34
BRANCH  27  36
HETATM   36  O   UNK A   2     -10.973   6.197  73.330  1.00  0.00    -0.256 OA 
HETATM   37  C   UNK A   2      -9.871   6.205  74.215  1.00  0.00    -0.257 C  
ENDBRANCH  27  36
ENDBRANCH  17  19
ENDBRANCH  15  17
ENDBRANCH   6  15
ENDBRANCH   4   6
ENDBRANCH   3   4
ENDBRANCH   2   3
TORSDOF 11
ENDMDL
MODEL       93
REMARK 921   NORMALIZED FREE ENERGY PREDICTED BY IDOCK:   -4.92 KCAL/MOL
REMARK 922        TOTAL FREE ENERGY PREDICTED BY IDOCK:   -9.99 KCAL/MOL
REMARK 923 INTER-LIGAND FREE ENERGY PREDICTED BY IDOCK:   -8.75 KCAL/MOL
REMARK 924 INTRA-LIGAND FREE ENERGY PREDICTED BY IDOCK:   -1.24 KCAL/MOL
REMARK 927      BINDING AFFINITY PREDICTED BY RF-SCORE:    0.00 PKD
ROOT
HETATM    1  C   UNK A   0     -12.239  11.939  63.129  1.00  0.00    -0.340 C  
HETATM    2  C   UNK A   0     -11.269  12.906  63.780  1.00  0.00    -0.402 C  
ENDROOT
BRANCH   2   3
HETATM    3  O   UNK A   0     -10.710  12.280  64.940  1.00  0.00    -0.277 OA 
BRANCH   3   4
HETATM    4  C   UNK A   0     -10.567  13.060  66.050  1.00  0.00    -0.279 C  
HETATM    5  O   UNK A   0      -9.976  14.135  66.105  1.00  0.00    -0.292 OA 
BRANCH   4   6
HETATM    6  C   UNK A   0     -11.328  12.416  67.208  1.00  0.00    -0.323 C  
BRANCH   6   7
HETATM    7  C   UNK A   0     -12.269  13.442  67.843  1.00  0.00    -0.149 C  
BRANCH   7   8
HETATM    8  C   UNK A   0     -11.717  14.518  68.792  1.00  0.00    -0.362 C  
BRANCH   8   9
HETATM    9  C   UNK A   0     -12.283  14.367  70.213  1.00  0.00    -0.397 A  
HETATM   10  C   UNK A   0     -12.615  15.505  70.962  1.00  0.00    -0.513 A  
HETATM   11  C   UNK A   0     -13.243  15.383  72.215  1.00  0.00    -0.515 A  
HETATM   12  C   UNK A   0     -12.566  13.112  70.794  1.00  0.00    -0.338 A  
HETATM   13  C   UNK A   0     -13.554  14.128  72.737  1.00  0.00    -0.528 A  
HETATM   14  C   UNK A   0     -13.205  12.990  72.029  1.00  0.00    -0.543 A  
ENDBRANCH   8   9
ENDBRANCH   7   8
ENDBRANCH   6   7
BRANCH   6  15
ATOM     15  N   ALA A   1     -10.377  11.883  68.215  1.00  0.00    -0.196 NA 
ATOM     16  H   ALA A   1     -10.588  11.996  69.206  1.00  0.00     0.000 HD 
BRANCH  15  17
ATOM     17  CA  ALA A   1      -9.121  11.185  67.813  1.00  0.00    -0.149 C  
ATOM     18  CB  ALA A   1      -7.836  11.336  68.645  1.00  0.00    -0.139 C  
BRANCH  17  19
ATOM     19  C   ALA A   1      -9.295   9.742  67.237  1.00  0.00    -0.138 C  
ATOM     20  O   ALA A   1      -9.095   9.558  66.030  1.00  0.00    -0.155 OA 
HETATM   21  C   UNK A   2      -9.130   7.799  70.339  1.00  0.00    -0.155 A  
HETATM   22  C   UNK A   2      -9.264   7.977  71.722  1.00  0.00    -0.212 A  
HETATM   23  N   UNK A   2      -9.532   8.654  68.063  1.00  0.00    -0.139 N  
HETATM   24  C   UNK A   2      -8.573   7.166  72.604  1.00  0.00    -0.118 A  
HETATM   25  C   UNK A   2      -9.894   8.721  69.455  1.00  0.00    -0.180 C  
HETATM   26  O   UNK A   2     -10.793   5.546  66.602  1.00  0.00    -0.288 OA 
HETATM   27  C   UNK A   2      -7.717   6.179  72.112  1.00  0.00    -0.101 A  
HETATM   28  C   UNK A   2      -7.591   5.995  70.719  1.00  0.00    -0.093 A  
HETATM   29  O   UNK A   2     -11.517   6.488  68.506  1.00  0.00    -0.193 OA 
HETATM   30  C   UNK A   2     -10.674   6.429  67.615  1.00  0.00    -0.311 C  
HETATM   31  C   UNK A   2      -8.324   6.784  69.825  1.00  0.00    -0.132 A  
HETATM   32  C   UNK A   2      -9.381   7.281  67.553  1.00  0.00    -0.129 C  
HETATM   33  C   UNK A   2      -8.231   6.597  68.326  1.00  0.00    -0.114 C  
BRANCH  24  34
HETATM   34  O   UNK A   2      -8.710   7.236  73.968  1.00  0.00    -0.172 OA 
HETATM   35  C   UNK A   2      -7.993   8.299  74.564  1.00  0.00    -0.218 C  
ENDBRANCH  24  34
BRANCH  27  36
HETATM   36  O   UNK A   2      -7.047   5.479  73.068  1.00  0.00    -0.082 OA 
HETATM   37  C   UNK A   2      -7.441   4.140  73.296  1.00  0.00    -0.076 C  
ENDBRANCH  27  36
ENDBRANCH  17  19
ENDBRANCH  15  17
ENDBRANCH   6  15
ENDBRANCH   4   6
ENDBRANCH   3   4
ENDBRANCH   2   3
TORSDOF 11
ENDMDL
MODEL       94
REMARK 921   NORMALIZED FREE ENERGY PREDICTED BY IDOCK:   -4.92 KCAL/MOL
REMARK 922        TOTAL FREE ENERGY PREDICTED BY IDOCK:   -9.99 KCAL/MOL
REMARK 923 INTER-LIGAND FREE ENERGY PREDICTED BY IDOCK:   -8.05 KCAL/MOL
REMARK 924 INTRA-LIGAND FREE ENERGY PREDICTED BY IDOCK:   -1.94 KCAL/MOL
REMARK 927      BINDING AFFINITY PREDICTED BY RF-SCORE:    0.00 PKD
ROOT
HETATM    1  C   UNK A   0     -11.956   9.509  70.936  1.00  0.00    -0.372 C  
HETATM    2  C   UNK A   0     -10.512   9.334  71.365  1.00  0.00    -0.338 C  
ENDROOT
BRANCH   2   3
HETATM    3  O   UNK A   0      -9.919   8.305  70.566  1.00  0.00    -0.182 OA 
BRANCH   3   4
HETATM    4  C   UNK A   0      -9.949   7.039  71.074  1.00  0.00    -0.188 C  
HETATM    5  O   UNK A   0     -10.192   6.735  72.238  1.00  0.00    -0.188 OA 
BRANCH   4   6
HETATM    6  C   UNK A   0      -9.702   6.045  69.939  1.00  0.00    -0.163 C  
BRANCH   6   7
HETATM    7  C   UNK A   0      -8.819   4.899  70.438  1.00  0.00    -0.135 C  
BRANCH   7   8
HETATM    8  C   UNK A   0      -9.013   3.476  69.892  1.00  0.00    -0.173 C  
BRANCH   8   9
HETATM    9  C   UNK A   0      -8.579   3.366  68.422  1.00  0.00    -0.120 A  
HETATM   10  C   UNK A   0      -7.276   3.723  68.045  1.00  0.00    -0.058 A  
HETATM   11  C   UNK A   0      -6.828   3.518  66.727  1.00  0.00    -0.054 A  
HETATM   12  C   UNK A   0      -9.418   2.842  67.414  1.00  0.00    -0.111 A  
HETATM   13  C   UNK A   0      -7.667   2.950  65.769  1.00  0.00    -0.081 A  
HETATM   14  C   UNK A   0      -8.968   2.621  66.112  1.00  0.00    -0.139 A  
ENDBRANCH   8   9
ENDBRANCH   7   8
ENDBRANCH   6   7
BRANCH   6  15
ATOM     15  N   ALA A   1      -9.069   6.730  68.784  1.00  0.00    -0.133 NA 
ATOM     16  H   ALA A   1      -8.274   7.348  68.948  1.00  0.00     0.000 HD 
BRANCH  15  17
ATOM     17  CA  ALA A   1      -9.567   6.537  67.391  1.00  0.00    -0.125 C  
ATOM     18  CB  ALA A   1     -11.075   6.490  67.093  1.00  0.00    -0.434 C  
BRANCH  17  19
ATOM     19  C   ALA A   1      -8.758   7.267  66.269  1.00  0.00    -0.149 C  
ATOM     20  O   ALA A   1      -8.191   6.584  65.407  1.00  0.00    -0.127 OA 
HETATM   21  C   UNK A   2     -10.168  10.636  66.563  1.00  0.00    -0.288 A  
HETATM   22  C   UNK A   2     -10.884  11.421  67.476  1.00  0.00    -0.291 A  
HETATM   23  N   UNK A   2      -8.774   8.647  66.143  1.00  0.00    -0.146 N  
HETATM   24  C   UNK A   2     -11.732  12.419  67.030  1.00  0.00    -0.353 A  
HETATM   25  C   UNK A   2      -9.288   9.573  67.120  1.00  0.00    -0.143 C  
HETATM   26  O   UNK A   2      -6.207  10.285  64.115  1.00  0.00    -0.133 OA 
HETATM   27  C   UNK A   2     -11.894  12.628  65.659  1.00  0.00    -0.437 A  
HETATM   28  C   UNK A   2     -11.165  11.843  64.742  1.00  0.00    -0.356 A  
HETATM   29  O   UNK A   2      -6.933  10.981  66.121  1.00  0.00    -0.125 OA 
HETATM   30  C   UNK A   2      -7.084  10.258  65.140  1.00  0.00    -0.121 C  
HETATM   31  C   UNK A   2     -10.272  10.864  65.192  1.00  0.00    -0.360 A  
HETATM   32  C   UNK A   2      -8.277   9.293  64.917  1.00  0.00    -0.145 C  
HETATM   33  C   UNK A   2      -9.456  10.021  64.235  1.00  0.00    -0.336 C  
BRANCH  24  34
HETATM   34  O   UNK A   2     -12.409  13.271  67.866  1.00  0.00    -0.177 OA 
HETATM   35  C   UNK A   2     -11.789  13.457  69.123  1.00  0.00    -0.336 C  
ENDBRANCH  24  34
BRANCH  27  36
HETATM   36  O   UNK A   2     -12.794  13.597  65.335  1.00  0.00    -0.634 OA 
HETATM   37  C   UNK A   2     -12.335  14.683  64.555  1.00  0.00    -0.398 C  
ENDBRANCH  27  36
ENDBRANCH  17  19
ENDBRANCH  15  17
ENDBRANCH   6  15
ENDBRANCH   4   6
ENDBRANCH   3   4
ENDBRANCH   2   3
TORSDOF 11
ENDMDL
MODEL       95
REMARK 921   NORMALIZED FREE ENERGY PREDICTED BY IDOCK:   -4.88 KCAL/MOL
REMARK 922        TOTAL FREE ENERGY PREDICTED BY IDOCK:   -9.93 KCAL/MOL
REMARK 923 INTER-LIGAND FREE ENERGY PREDICTED BY IDOCK:   -8.60 KCAL/MOL
REMARK 924 INTRA-LIGAND FREE ENERGY PREDICTED BY IDOCK:   -1.33 KCAL/MOL
REMARK 927      BINDING AFFINITY PREDICTED BY RF-SCORE:    0.00 PKD
ROOT
HETATM    1  C   UNK A   0      -6.105   8.807  63.013  1.00  0.00    -0.090 C  
HETATM    2  C   UNK A   0      -6.422   7.985  64.247  1.00  0.00    -0.061 C  
ENDROOT
BRANCH   2   3
HETATM    3  O   UNK A   0      -7.842   7.939  64.414  1.00  0.00    -0.126 OA 
BRANCH   3   4
HETATM    4  C   UNK A   0      -8.432   9.038  64.967  1.00  0.00    -0.174 C  
HETATM    5  O   UNK A   0      -9.505   9.528  64.628  1.00  0.00    -0.228 OA 
BRANCH   4   6
HETATM    6  C   UNK A   0      -7.573   9.525  66.134  1.00  0.00    -0.100 C  
BRANCH   6   7
HETATM    7  C   UNK A   0      -7.953   8.765  67.407  1.00  0.00    -0.098 C  
BRANCH   7   8
HETATM    8  C   UNK A   0      -9.349   8.137  67.548  1.00  0.00    -0.165 C  
BRANCH   8   9
HETATM    9  C   UNK A   0      -9.716   7.892  69.021  1.00  0.00    -0.162 A  
HETATM   10  C   UNK A   0      -9.042   6.908  69.759  1.00  0.00    -0.144 A  
HETATM   11  C   UNK A   0      -9.284   6.752  71.136  1.00  0.00    -0.159 A  
HETATM   12  C   UNK A   0     -10.666   8.674  69.712  1.00  0.00    -0.215 A  
HETATM   13  C   UNK A   0     -10.194   7.576  71.798  1.00  0.00    -0.216 A  
HETATM   14  C   UNK A   0     -10.893   8.532  71.081  1.00  0.00    -0.298 A  
ENDBRANCH   8   9
ENDBRANCH   7   8
ENDBRANCH   6   7
BRANCH   6  15
ATOM     15  N   ALA A   1      -7.746  10.986  66.325  1.00  0.00    -0.226 NA 
ATOM     16  H   ALA A   1      -7.377  11.626  65.623  1.00  0.00     0.000 HD 
BRANCH  15  17
ATOM     17  CA  ALA A   1      -8.446  11.542  67.520  1.00  0.00    -0.143 C  
ATOM     18  CB  ALA A   1      -7.693  12.417  68.537  1.00  0.00    -0.120 C  
BRANCH  17  19
ATOM     19  C   ALA A   1      -9.916  12.024  67.289  1.00  0.00    -0.194 C  
ATOM     20  O   ALA A   1     -10.843  11.298  67.669  1.00  0.00    -0.207 OA 
HETATM   21  C   UNK A   2      -9.328  15.593  66.708  1.00  0.00    -0.268 A  
HETATM   22  C   UNK A   2      -8.287  16.464  66.360  1.00  0.00    -0.363 A  
HETATM   23  N   UNK A   2     -10.196  13.288  66.796  1.00  0.00    -0.250 N  
HETATM   24  C   UNK A   2      -8.295  17.777  66.797  1.00  0.00    -0.248 A  
HETATM   25  C   UNK A   2      -9.240  14.192  66.211  1.00  0.00    -0.123 C  
HETATM   26  O   UNK A   2     -13.533  13.986  65.467  1.00  0.00    -0.677 OA 
HETATM   27  C   UNK A   2      -9.336  18.229  67.610  1.00  0.00    -0.267 A  
HETATM   28  C   UNK A   2     -10.388  17.354  67.950  1.00  0.00    -0.369 A  
HETATM   29  O   UNK A   2     -11.593  14.623  64.537  1.00  0.00    -0.397 OA 
HETATM   30  C   UNK A   2     -12.199  14.177  65.508  1.00  0.00    -0.432 C  
HETATM   31  C   UNK A   2     -10.406  16.038  67.472  1.00  0.00    -0.287 A  
HETATM   32  C   UNK A   2     -11.560  13.838  66.879  1.00  0.00    -0.370 C  
HETATM   33  C   UNK A   2     -11.531  15.080  67.798  1.00  0.00    -0.347 C  
BRANCH  24  34
HETATM   34  O   UNK A   2      -7.348  18.703  66.439  1.00  0.00    -0.223 OA 
HETATM   35  C   UNK A   2      -6.440  18.247  65.456  1.00  0.00    -0.242 C  
ENDBRANCH  24  34
BRANCH  27  36
HETATM   36  O   UNK A   2      -9.212  19.520  68.026  1.00  0.00    -0.316 OA 
HETATM   37  C   UNK A   2     -10.096  20.474  67.471  1.00  0.00    -0.296 C  
ENDBRANCH  27  36
ENDBRANCH  17  19
ENDBRANCH  15  17
ENDBRANCH   6  15
ENDBRANCH   4   6
ENDBRANCH   3   4
ENDBRANCH   2   3
TORSDOF 11
ENDMDL
MODEL       96
REMARK 921   NORMALIZED FREE ENERGY PREDICTED BY IDOCK:   -4.87 KCAL/MOL
REMARK 922        TOTAL FREE ENERGY PREDICTED BY IDOCK:   -9.91 KCAL/MOL
REMARK 923 INTER-LIGAND FREE ENERGY PREDICTED BY IDOCK:   -7.54 KCAL/MOL
REMARK 924 INTRA-LIGAND FREE ENERGY PREDICTED BY IDOCK:   -2.37 KCAL/MOL
REMARK 927      BINDING AFFINITY PREDICTED BY RF-SCORE:    0.00 PKD
ROOT
HETATM    1  C   UNK A   0     -10.563  11.652  63.354  1.00  0.00    -0.472 C  
HETATM    2  C   UNK A   0      -9.432  10.644  63.400  1.00  0.00    -0.319 C  
ENDROOT
BRANCH   2   3
HETATM    3  O   UNK A   0      -9.544   9.886  64.609  1.00  0.00    -0.299 OA 
BRANCH   3   4
HETATM    4  C   UNK A   0      -8.395   9.685  65.317  1.00  0.00    -0.134 C  
HETATM    5  O   UNK A   0      -7.655  10.561  65.753  1.00  0.00    -0.143 OA 
BRANCH   4   6
HETATM    6  C   UNK A   0      -8.212   8.185  65.546  1.00  0.00    -0.144 C  
BRANCH   6   7
HETATM    7  C   UNK A   0      -7.277   7.609  64.481  1.00  0.00    -0.076 C  
BRANCH   7   8
HETATM    8  C   UNK A   0      -7.828   6.690  63.380  1.00  0.00    -0.106 C  
BRANCH   8   9
HETATM    9  C   UNK A   0      -7.977   5.241  63.871  1.00  0.00    -0.105 A  
HETATM   10  C   UNK A   0      -7.098   4.731  64.837  1.00  0.00    -0.062 A  
HETATM   11  C   UNK A   0      -7.293   3.449  65.382  1.00  0.00    -0.075 A  
HETATM   12  C   UNK A   0      -9.026   4.395  63.448  1.00  0.00    -0.139 A  
HETATM   13  C   UNK A   0      -8.369   2.659  64.978  1.00  0.00    -0.093 A  
HETATM   14  C   UNK A   0      -9.231   3.130  64.001  1.00  0.00    -0.110 A  
ENDBRANCH   8   9
ENDBRANCH   7   8
ENDBRANCH   6   7
BRANCH   6  15
ATOM     15  N   ALA A   1      -9.527   7.496  65.517  1.00  0.00    -0.170 NA 
ATOM     16  H   ALA A   1     -10.043   7.448  64.640  1.00  0.00     0.000 HD 
BRANCH  15  17
ATOM     17  CA  ALA A   1     -10.111   6.874  66.741  1.00  0.00    -0.194 C  
ATOM     18  CB  ALA A   1     -10.529   5.393  66.749  1.00  0.00    -0.347 C  
BRANCH  17  19
ATOM     19  C   ALA A   1      -9.488   7.327  68.102  1.00  0.00    -0.133 C  
ATOM     20  O   ALA A   1      -8.576   6.649  68.591  1.00  0.00    -0.125 OA 
HETATM   21  C   UNK A   2     -10.624  10.810  68.188  1.00  0.00    -0.238 A  
HETATM   22  C   UNK A   2     -11.588  11.636  67.597  1.00  0.00    -0.349 A  
HETATM   23  N   UNK A   2      -9.839   8.529  68.696  1.00  0.00    -0.165 N  
HETATM   24  C   UNK A   2     -11.349  12.989  67.435  1.00  0.00    -0.305 A  
HETATM   25  C   UNK A   2     -10.950   9.362  68.313  1.00  0.00    -0.032 C  
HETATM   26  O   UNK A   2      -9.040   9.076  72.225  1.00  0.00    -0.351 OA 
HETATM   27  C   UNK A   2     -10.128  13.530  67.843  1.00  0.00    -0.248 A  
HETATM   28  C   UNK A   2      -9.163  12.698  68.447  1.00  0.00    -0.135 A  
HETATM   29  O   UNK A   2     -10.977   9.606  71.222  1.00  0.00    -0.349 OA 
HETATM   30  C   UNK A   2      -9.799   9.271  71.127  1.00  0.00    -0.272 C  
HETATM   31  C   UNK A   2      -9.420  11.337  68.653  1.00  0.00    -0.179 A  
HETATM   32  C   UNK A   2      -9.030   9.085  69.793  1.00  0.00    -0.154 C  
HETATM   33  C   UNK A   2      -8.416  10.422  69.319  1.00  0.00    -0.162 C  
BRANCH  24  34
HETATM   34  O   UNK A   2     -12.273  13.869  66.931  1.00  0.00    -0.424 OA 
HETATM   35  C   UNK A   2     -12.533  13.703  65.551  1.00  0.00    -0.503 C  
ENDBRANCH  24  34
BRANCH  27  36
HETATM   36  O   UNK A   2      -9.981  14.859  67.585  1.00  0.00    -0.224 OA 
HETATM   37  C   UNK A   2      -9.773  15.720  68.686  1.00  0.00    -0.205 C  
ENDBRANCH  27  36
ENDBRANCH  17  19
ENDBRANCH  15  17
ENDBRANCH   6  15
ENDBRANCH   4   6
ENDBRANCH   3   4
ENDBRANCH   2   3
TORSDOF 11
ENDMDL
MODEL       97
REMARK 921   NORMALIZED FREE ENERGY PREDICTED BY IDOCK:   -4.87 KCAL/MOL
REMARK 922        TOTAL FREE ENERGY PREDICTED BY IDOCK:   -9.90 KCAL/MOL
REMARK 923 INTER-LIGAND FREE ENERGY PREDICTED BY IDOCK:   -8.63 KCAL/MOL
REMARK 924 INTRA-LIGAND FREE ENERGY PREDICTED BY IDOCK:   -1.27 KCAL/MOL
REMARK 927      BINDING AFFINITY PREDICTED BY RF-SCORE:    0.00 PKD
ROOT
HETATM    1  C   UNK A   0     -14.354   7.899  71.540  1.00  0.00    -0.563 C  
HETATM    2  C   UNK A   0     -13.521   9.140  71.794  1.00  0.00    -0.416 C  
ENDROOT
BRANCH   2   3
HETATM    3  O   UNK A   0     -12.231   8.953  71.204  1.00  0.00    -0.291 OA 
BRANCH   3   4
HETATM    4  C   UNK A   0     -11.311   8.266  71.941  1.00  0.00    -0.308 C  
HETATM    5  O   UNK A   0     -11.441   7.916  73.110  1.00  0.00    -0.323 OA 
BRANCH   4   6
HETATM    6  C   UNK A   0     -10.113   7.933  71.052  1.00  0.00    -0.192 C  
BRANCH   6   7
HETATM    7  C   UNK A   0      -9.361   6.731  71.628  1.00  0.00    -0.151 C  
BRANCH   7   8
HETATM    8  C   UNK A   0      -9.326   5.399  70.863  1.00  0.00    -0.196 C  
BRANCH   8   9
HETATM    9  C   UNK A   0      -9.946   4.256  71.682  1.00  0.00    -0.250 A  
HETATM   10  C   UNK A   0      -9.740   2.923  71.299  1.00  0.00    -0.205 A  
HETATM   11  C   UNK A   0     -10.201   1.864  72.102  1.00  0.00    -0.224 A  
HETATM   12  C   UNK A   0     -10.668   4.476  72.876  1.00  0.00    -0.281 A  
HETATM   13  C   UNK A   0     -10.867   2.117  73.301  1.00  0.00    -0.277 A  
HETATM   14  C   UNK A   0     -11.110   3.427  73.682  1.00  0.00    -0.316 A  
ENDBRANCH   8   9
ENDBRANCH   7   8
ENDBRANCH   6   7
BRANCH   6  15
ATOM     15  N   ALA A   1      -9.215   9.109  70.937  1.00  0.00    -0.255 NA 
ATOM     16  H   ALA A   1      -9.464   9.972  71.419  1.00  0.00     0.000 HD 
BRANCH  15  17
ATOM     17  CA  ALA A   1      -7.959   9.058  70.135  1.00  0.00    -0.114 C  
ATOM     18  CB  ALA A   1      -6.635   8.601  70.772  1.00  0.00    -0.045 C  
BRANCH  17  19
ATOM     19  C   ALA A   1      -8.111   8.571  68.656  1.00  0.00    -0.121 C  
ATOM     20  O   ALA A   1      -8.173   7.355  68.437  1.00  0.00    -0.123 OA 
HETATM   21  C   UNK A   2      -9.269  11.672  67.085  1.00  0.00    -0.176 A  
HETATM   22  C   UNK A   2      -9.296  13.051  67.331  1.00  0.00    -0.209 A  
HETATM   23  N   UNK A   2      -8.312   9.464  67.615  1.00  0.00    -0.118 N  
HETATM   24  C   UNK A   2     -10.309  13.837  66.810  1.00  0.00    -0.272 A  
HETATM   25  C   UNK A   2      -8.155  10.894  67.693  1.00  0.00    -0.115 C  
HETATM   26  O   UNK A   2      -7.767   8.344  64.175  1.00  0.00    -0.121 OA 
HETATM   27  C   UNK A   2     -11.323  13.246  66.054  1.00  0.00    -0.305 A  
HETATM   28  C   UNK A   2     -11.288  11.860  65.800  1.00  0.00    -0.354 A  
HETATM   29  O   UNK A   2      -7.099  10.306  65.036  1.00  0.00    -0.136 OA 
HETATM   30  C   UNK A   2      -7.783   9.291  65.135  1.00  0.00    -0.108 C  
HETATM   31  C   UNK A   2     -10.240  11.070  66.288  1.00  0.00    -0.295 A  
HETATM   32  C   UNK A   2      -8.763   8.986  66.297  1.00  0.00    -0.135 C  
HETATM   33  C   UNK A   2     -10.160   9.584  66.013  1.00  0.00    -0.319 C  
BRANCH  24  34
HETATM   34  O   UNK A   2     -10.361  15.201  66.950  1.00  0.00    -0.263 OA 
HETATM   35  C   UNK A   2     -10.479  15.638  68.289  1.00  0.00    -0.252 C  
ENDBRANCH  24  34
BRANCH  27  36
HETATM   36  O   UNK A   2     -12.296  14.105  65.640  1.00  0.00    -0.429 OA 
HETATM   37  C   UNK A   2     -12.408  14.346  64.251  1.00  0.00    -0.373 C  
ENDBRANCH  27  36
ENDBRANCH  17  19
ENDBRANCH  15  17
ENDBRANCH   6  15
ENDBRANCH   4   6
ENDBRANCH   3   4
ENDBRANCH   2   3
TORSDOF 11
ENDMDL
MODEL       98
REMARK 921   NORMALIZED FREE ENERGY PREDICTED BY IDOCK:   -4.85 KCAL/MOL
REMARK 922        TOTAL FREE ENERGY PREDICTED BY IDOCK:   -9.88 KCAL/MOL
REMARK 923 INTER-LIGAND FREE ENERGY PREDICTED BY IDOCK:   -8.30 KCAL/MOL
REMARK 924 INTRA-LIGAND FREE ENERGY PREDICTED BY IDOCK:   -1.59 KCAL/MOL
REMARK 927      BINDING AFFINITY PREDICTED BY RF-SCORE:    0.00 PKD
ROOT
HETATM    1  C   UNK A   0      -5.425  13.027  67.752  1.00  0.00    -0.118 C  
HETATM    2  C   UNK A   0      -5.853  13.464  69.139  1.00  0.00    -0.082 C  
ENDROOT
BRANCH   2   3
HETATM    3  O   UNK A   0      -7.268  13.285  69.258  1.00  0.00    -0.007 OA 
BRANCH   3   4
HETATM    4  C   UNK A   0      -8.057  14.118  68.522  1.00  0.00    -0.143 C  
HETATM    5  O   UNK A   0      -7.852  15.311  68.317  1.00  0.00    -0.112 OA 
BRANCH   4   6
HETATM    6  C   UNK A   0      -9.209  13.310  67.924  1.00  0.00    -0.213 C  
BRANCH   6   7
HETATM    7  C   UNK A   0     -10.485  14.153  67.919  1.00  0.00    -0.237 C  
BRANCH   7   8
HETATM    8  C   UNK A   0     -10.972  14.815  66.620  1.00  0.00    -0.326 C  
BRANCH   8   9
HETATM    9  C   UNK A   0     -11.279  13.775  65.532  1.00  0.00    -0.303 A  
HETATM   10  C   UNK A   0     -12.586  13.290  65.370  1.00  0.00    -0.526 A  
HETATM   11  C   UNK A   0     -12.906  12.428  64.306  1.00  0.00    -0.356 A  
HETATM   12  C   UNK A   0     -10.309  13.323  64.611  1.00  0.00    -0.394 A  
HETATM   13  C   UNK A   0     -11.933  12.042  63.384  1.00  0.00    -0.571 A  
HETATM   14  C   UNK A   0     -10.630  12.482  63.544  1.00  0.00    -0.394 A  
ENDBRANCH   8   9
ENDBRANCH   7   8
ENDBRANCH   6   7
BRANCH   6  15
ATOM     15  N   ALA A   1      -9.411  12.057  68.693  1.00  0.00    -0.382 NA 
ATOM     16  H   ALA A   1      -8.693  11.757  69.352  1.00  0.00     0.000 HD 
BRANCH  15  17
ATOM     17  CA  ALA A   1     -10.638  11.225  68.526  1.00  0.00    -0.199 C  
ATOM     18  CB  ALA A   1     -10.913  10.484  67.207  1.00  0.00    -0.325 C  
BRANCH  17  19
ATOM     19  C   ALA A   1     -11.081  10.401  69.779  1.00  0.00    -0.295 C  
ATOM     20  O   ALA A   1     -12.066  10.786  70.423  1.00  0.00    -0.293 OA 
HETATM   21  C   UNK A   2      -9.345   7.246  69.108  1.00  0.00    -0.146 A  
HETATM   22  C   UNK A   2      -8.289   6.749  68.332  1.00  0.00    -0.123 A  
HETATM   23  N   UNK A   2     -10.486   9.192  70.100  1.00  0.00    -0.206 N  
HETATM   24  C   UNK A   2      -8.295   5.435  67.899  1.00  0.00    -0.099 A  
HETATM   25  C   UNK A   2      -9.272   8.674  69.522  1.00  0.00    -0.150 C  
HETATM   26  O   UNK A   2     -10.946   7.812  73.458  1.00  0.00    -0.292 OA 
HETATM   27  C   UNK A   2      -9.372   4.606  68.218  1.00  0.00    -0.136 A  
HETATM   28  C   UNK A   2     -10.428   5.105  69.007  1.00  0.00    -0.149 A  
HETATM   29  O   UNK A   2      -9.015   7.864  72.315  1.00  0.00    -0.130 OA 
HETATM   30  C   UNK A   2     -10.237   7.986  72.324  1.00  0.00    -0.260 C  
HETATM   31  C   UNK A   2     -10.403   6.421  69.485  1.00  0.00    -0.252 A  
HETATM   32  C   UNK A   2     -11.111   8.287  71.079  1.00  0.00    -0.251 C  
HETATM   33  C   UNK A   2     -11.508   6.981  70.354  1.00  0.00    -0.355 C  
BRANCH  24  34
HETATM   34  O   UNK A   2      -7.264   4.861  67.197  1.00  0.00    -0.074 OA 
HETATM   35  C   UNK A   2      -7.257   5.181  65.820  1.00  0.00    -0.069 C  
ENDBRANCH  24  34
BRANCH  27  36
HETATM   36  O   UNK A   2      -9.298   3.351  67.693  1.00  0.00    -0.179 OA 
HETATM   37  C   UNK A   2      -9.095   2.277  68.589  1.00  0.00    -0.149 C  
ENDBRANCH  27  36
ENDBRANCH  17  19
ENDBRANCH  15  17
ENDBRANCH   6  15
ENDBRANCH   4   6
ENDBRANCH   3   4
ENDBRANCH   2   3
TORSDOF 11
ENDMDL
MODEL       99
REMARK 921   NORMALIZED FREE ENERGY PREDICTED BY IDOCK:   -4.85 KCAL/MOL
REMARK 922        TOTAL FREE ENERGY PREDICTED BY IDOCK:   -9.88 KCAL/MOL
REMARK 923 INTER-LIGAND FREE ENERGY PREDICTED BY IDOCK:   -9.59 KCAL/MOL
REMARK 924 INTRA-LIGAND FREE ENERGY PREDICTED BY IDOCK:   -0.29 KCAL/MOL
REMARK 927      BINDING AFFINITY PREDICTED BY RF-SCORE:    0.00 PKD
ROOT
HETATM    1  C   UNK A   0     -13.718  15.627  72.980  1.00  0.00    -0.560 C  
HETATM    2  C   UNK A   0     -12.623  14.649  72.602  1.00  0.00    -0.334 C  
ENDROOT
BRANCH   2   3
HETATM    3  O   UNK A   0     -12.675  14.428  71.189  1.00  0.00    -0.311 OA 
BRANCH   3   4
HETATM    4  C   UNK A   0     -11.686  14.997  70.441  1.00  0.00    -0.291 C  
HETATM    5  O   UNK A   0     -11.096  16.041  70.702  1.00  0.00    -0.348 OA 
BRANCH   4   6
HETATM    6  C   UNK A   0     -11.374  14.084  69.256  1.00  0.00    -0.273 C  
BRANCH   6   7
HETATM    7  C   UNK A   0     -11.580  14.848  67.946  1.00  0.00    -0.364 C  
BRANCH   7   8
HETATM    8  C   UNK A   0     -10.409  15.045  66.971  1.00  0.00    -0.269 C  
BRANCH   8   9
HETATM    9  C   UNK A   0      -9.973  16.517  66.895  1.00  0.00    -0.273 A  
HETATM   10  C   UNK A   0     -10.761  17.515  67.486  1.00  0.00    -0.280 A  
HETATM   11  C   UNK A   0     -10.319  18.849  67.528  1.00  0.00    -0.496 A  
HETATM   12  C   UNK A   0      -8.753  16.924  66.313  1.00  0.00    -0.321 A  
HETATM   13  C   UNK A   0      -9.085  19.209  66.988  1.00  0.00    -0.329 A  
HETATM   14  C   UNK A   0      -8.305  18.244  66.370  1.00  0.00    -0.267 A  
ENDBRANCH   8   9
ENDBRANCH   7   8
ENDBRANCH   6   7
BRANCH   6  15
ATOM     15  N   ALA A   1     -12.234  12.875  69.299  1.00  0.00    -0.156 NA 
ATOM     16  H   ALA A   1     -13.236  12.983  69.453  1.00  0.00     0.000 HD 
BRANCH  15  17
ATOM     17  CA  ALA A   1     -11.669  11.505  69.122  1.00  0.00    -0.329 C  
ATOM     18  CB  ALA A   1     -10.347  11.291  68.364  1.00  0.00    -0.207 C  
BRANCH  17  19
ATOM     19  C   ALA A   1     -11.823  10.539  70.342  1.00  0.00    -0.340 C  
ATOM     20  O   ALA A   1     -12.728  10.755  71.157  1.00  0.00    -0.366 OA 
HETATM   21  C   UNK A   2      -9.898   7.670  69.124  1.00  0.00    -0.171 A  
HETATM   22  C   UNK A   2      -8.932   7.362  68.157  1.00  0.00    -0.129 A  
HETATM   23  N   UNK A   2     -11.064   9.386  70.455  1.00  0.00    -0.248 N  
HETATM   24  C   UNK A   2      -8.870   6.094  67.606  1.00  0.00    -0.103 A  
HETATM   25  C   UNK A   2      -9.909   9.060  69.658  1.00  0.00    -0.178 C  
HETATM   26  O   UNK A   2     -10.847   7.702  73.696  1.00  0.00    -0.308 OA 
HETATM   27  C   UNK A   2      -9.793   5.123  67.999  1.00  0.00    -0.151 A  
HETATM   28  C   UNK A   2     -10.758   5.433  68.979  1.00  0.00    -0.144 A  
HETATM   29  O   UNK A   2      -9.135   8.067  72.292  1.00  0.00    -0.141 OA 
HETATM   30  C   UNK A   2     -10.347   8.045  72.492  1.00  0.00    -0.306 C  
HETATM   31  C   UNK A   2     -10.794   6.701  69.572  1.00  0.00    -0.339 A  
HETATM   32  C   UNK A   2     -11.432   8.340  71.424  1.00  0.00    -0.269 C  
HETATM   33  C   UNK A   2     -11.801   7.058  70.643  1.00  0.00    -0.377 C  
BRANCH  24  34
HETATM   34  O   UNK A   2      -7.909   5.701  66.709  1.00  0.00    -0.099 OA 
HETATM   35  C   UNK A   2      -7.960   6.386  65.473  1.00  0.00    -0.116 C  
ENDBRANCH  24  34
BRANCH  27  36
HETATM   36  O   UNK A   2      -9.674   3.931  67.351  1.00  0.00    -0.198 OA 
HETATM   37  C   UNK A   2      -9.247   2.815  68.107  1.00  0.00    -0.202 C  
ENDBRANCH  27  36
ENDBRANCH  17  19
ENDBRANCH  15  17
ENDBRANCH   6  15
ENDBRANCH   4   6
ENDBRANCH   3   4
ENDBRANCH   2   3
TORSDOF 11
ENDMDL
MODEL      100
REMARK 921   NORMALIZED FREE ENERGY PREDICTED BY IDOCK:   -4.85 KCAL/MOL
REMARK 922        TOTAL FREE ENERGY PREDICTED BY IDOCK:   -9.87 KCAL/MOL
REMARK 923 INTER-LIGAND FREE ENERGY PREDICTED BY IDOCK:   -8.15 KCAL/MOL
REMARK 924 INTRA-LIGAND FREE ENERGY PREDICTED BY IDOCK:   -1.72 KCAL/MOL
REMARK 927      BINDING AFFINITY PREDICTED BY RF-SCORE:    0.00 PKD
ROOT
HETATM    1  C   UNK A   0     -10.485   5.748  66.730  1.00  0.00    -0.350 C  
HETATM    2  C   UNK A   0      -9.127   5.933  66.082  1.00  0.00    -0.150 C  
ENDROOT
BRANCH   2   3
HETATM    3  O   UNK A   0      -8.317   6.742  66.941  1.00  0.00    -0.112 OA 
BRANCH   3   4
HETATM    4  C   UNK A   0      -7.155   7.225  66.415  1.00  0.00    -0.077 C  
HETATM    5  O   UNK A   0      -6.639   6.869  65.360  1.00  0.00    -0.048 OA 
BRANCH   4   6
HETATM    6  C   UNK A   0      -6.631   8.343  67.316  1.00  0.00    -0.059 C  
BRANCH   6   7
HETATM    7  C   UNK A   0      -6.417   7.807  68.733  1.00  0.00    -0.044 C  
BRANCH   7   8
HETATM    8  C   UNK A   0      -6.869   8.630  69.950  1.00  0.00    -0.042 C  
BRANCH   8   9
HETATM    9  C   UNK A   0      -8.280   8.233  70.414  1.00  0.00    -0.114 A  
HETATM   10  C   UNK A   0      -8.746   6.926  70.207  1.00  0.00    -0.144 A  
HETATM   11  C   UNK A   0      -9.986   6.515  70.728  1.00  0.00    -0.205 A  
HETATM   12  C   UNK A   0      -9.127   9.111  71.123  1.00  0.00    -0.275 A  
HETATM   13  C   UNK A   0     -10.776   7.394  71.468  1.00  0.00    -0.243 A  
HETATM   14  C   UNK A   0     -10.349   8.699  71.657  1.00  0.00    -0.366 A  
ENDBRANCH   8   9
ENDBRANCH   7   8
ENDBRANCH   6   7
BRANCH   6  15
ATOM     15  N   ALA A   1      -7.581   9.484  67.325  1.00  0.00    -0.091 NA 
ATOM     16  H   ALA A   1      -8.096   9.695  68.179  1.00  0.00     0.000 HD 
BRANCH  15  17
ATOM     17  CA  ALA A   1      -7.800  10.329  66.115  1.00  0.00    -0.129 C  
ATOM     18  CB  ALA A   1      -6.820  10.277  64.930  1.00  0.00    -0.100 C  
BRANCH  17  19
ATOM     19  C   ALA A   1      -9.286  10.494  65.656  1.00  0.00    -0.186 C  
ATOM     20  O   ALA A   1      -9.900   9.492  65.269  1.00  0.00    -0.282 OA 
HETATM   21  C   UNK A   2     -10.066  13.730  67.187  1.00  0.00    -0.241 A  
HETATM   22  C   UNK A   2      -9.411  14.851  67.712  1.00  0.00    -0.194 A  
HETATM   23  N   UNK A   2      -9.961  11.695  65.800  1.00  0.00    -0.229 N  
HETATM   24  C   UNK A   2     -10.001  15.604  68.712  1.00  0.00    -0.213 A  
HETATM   25  C   UNK A   2      -9.359  12.963  66.124  1.00  0.00    -0.092 C  
HETATM   26  O   UNK A   2     -13.056  12.238  63.924  1.00  0.00    -0.772 OA 
HETATM   27  C   UNK A   2     -11.248  15.229  69.216  1.00  0.00    -0.284 A  
HETATM   28  C   UNK A   2     -11.910  14.106  68.678  1.00  0.00    -0.383 A  
HETATM   29  O   UNK A   2     -11.404  13.734  64.188  1.00  0.00    -0.353 OA 
HETATM   30  C   UNK A   2     -11.927  12.674  64.521  1.00  0.00    -0.399 C  
HETATM   31  C   UNK A   2     -11.335  13.369  67.636  1.00  0.00    -0.321 A  
HETATM   32  C   UNK A   2     -11.426  11.751  65.661  1.00  0.00    -0.186 C  
HETATM   33  C   UNK A   2     -12.029  12.174  67.020  1.00  0.00    -0.156 C  
BRANCH  24  34
HETATM   34  O   UNK A   2      -9.451  16.752  69.223  1.00  0.00    -0.211 OA 
HETATM   35  C   UNK A   2      -9.204  17.753  68.256  1.00  0.00    -0.280 C  
ENDBRANCH  24  34
BRANCH  27  36
HETATM   36  O   UNK A   2     -11.707  16.009  70.234  1.00  0.00    -0.338 OA 
HETATM   37  C   UNK A   2     -12.869  15.579  70.914  1.00  0.00    -0.477 C  
ENDBRANCH  27  36
ENDBRANCH  17  19
ENDBRANCH  15  17
ENDBRANCH   6  15
ENDBRANCH   4   6
ENDBRANCH   3   4
ENDBRANCH   2   3
TORSDOF 11
ENDMDL
MODEL      101
REMARK 921   NORMALIZED FREE ENERGY PREDICTED BY IDOCK:   -4.84 KCAL/MOL
REMARK 922        TOTAL FREE ENERGY PREDICTED BY IDOCK:   -9.85 KCAL/MOL
REMARK 923 INTER-LIGAND FREE ENERGY PREDICTED BY IDOCK:   -9.69 KCAL/MOL
REMARK 924 INTRA-LIGAND FREE ENERGY PREDICTED BY IDOCK:   -0.16 KCAL/MOL
REMARK 927      BINDING AFFINITY PREDICTED BY RF-SCORE:    0.00 PKD
ROOT
HETATM    1  C   UNK A   0     -12.768   7.077  71.677  1.00  0.00    -0.417 C  
HETATM    2  C   UNK A   0     -12.146   8.379  72.145  1.00  0.00    -0.373 C  
ENDROOT
BRANCH   2   3
HETATM    3  O   UNK A   0     -11.524   9.016  71.025  1.00  0.00    -0.267 OA 
BRANCH   3   4
HETATM    4  C   UNK A   0     -10.208   8.729  70.808  1.00  0.00    -0.211 C  
HETATM    5  O   UNK A   0      -9.299   8.854  71.623  1.00  0.00    -0.264 OA 
BRANCH   4   6
HETATM    6  C   UNK A   0     -10.053   8.152  69.401  1.00  0.00    -0.194 C  
BRANCH   6   7
HETATM    7  C   UNK A   0      -9.433   6.755  69.481  1.00  0.00    -0.148 C  
BRANCH   7   8
HETATM    8  C   UNK A   0     -10.226   5.527  69.007  1.00  0.00    -0.298 C  
BRANCH   8   9
HETATM    9  C   UNK A   0      -9.673   4.967  67.687  1.00  0.00    -0.188 A  
HETATM   10  C   UNK A   0      -8.413   4.350  67.657  1.00  0.00    -0.100 A  
HETATM   11  C   UNK A   0      -7.944   3.730  66.485  1.00  0.00    -0.089 A  
HETATM   12  C   UNK A   0     -10.413   4.972  66.485  1.00  0.00    -0.325 A  
HETATM   13  C   UNK A   0      -8.723   3.709  65.329  1.00  0.00    -0.117 A  
HETATM   14  C   UNK A   0      -9.956   4.341  65.327  1.00  0.00    -0.229 A  
ENDBRANCH   8   9
ENDBRANCH   7   8
ENDBRANCH   6   7
BRANCH   6  15
ATOM     15  N   ALA A   1      -9.216   9.050  68.566  1.00  0.00    -0.136 NA 
ATOM     16  H   ALA A   1      -8.474   8.648  67.995  1.00  0.00     0.000 HD 
BRANCH  15  17
ATOM     17  CA  ALA A   1      -9.435  10.526  68.543  1.00  0.00    -0.164 C  
ATOM     18  CB  ALA A   1      -8.243  11.498  68.557  1.00  0.00    -0.148 C  
BRANCH  17  19
ATOM     19  C   ALA A   1     -10.608  11.029  67.640  1.00  0.00    -0.217 C  
ATOM     20  O   ALA A   1     -11.649  10.361  67.595  1.00  0.00    -0.383 OA 
HETATM   21  C   UNK A   2      -9.610  14.526  67.197  1.00  0.00    -0.233 A  
HETATM   22  C   UNK A   2      -8.475  15.339  67.316  1.00  0.00    -0.216 A  
HETATM   23  N   UNK A   2     -10.559  12.260  67.006  1.00  0.00    -0.220 N  
HETATM   24  C   UNK A   2      -8.602  16.681  67.629  1.00  0.00    -0.200 A  
HETATM   25  C   UNK A   2      -9.389  13.090  66.873  1.00  0.00    -0.241 C  
HETATM   26  O   UNK A   2     -12.882  12.948  64.264  1.00  0.00    -0.676 OA 
HETATM   27  C   UNK A   2      -9.869  17.222  67.850  1.00  0.00    -0.283 A  
HETATM   28  C   UNK A   2     -11.011  16.405  67.721  1.00  0.00    -0.261 A  
HETATM   29  O   UNK A   2     -10.697  13.458  64.289  1.00  0.00    -0.407 OA 
HETATM   30  C   UNK A   2     -11.702  13.104  64.899  1.00  0.00    -0.340 C  
HETATM   31  C   UNK A   2     -10.888  15.057  67.360  1.00  0.00    -0.305 A  
HETATM   32  C   UNK A   2     -11.777  12.852  66.427  1.00  0.00    -0.395 C  
HETATM   33  C   UNK A   2     -12.094  14.159  67.188  1.00  0.00    -0.432 C  
BRANCH  24  34
HETATM   34  O   UNK A   2      -7.542  17.550  67.692  1.00  0.00    -0.189 OA 
HETATM   35  C   UNK A   2      -6.791  17.630  66.497  1.00  0.00    -0.242 C  
ENDBRANCH  24  34
BRANCH  27  36
HETATM   36  O   UNK A   2      -9.871  18.537  68.206  1.00  0.00    -0.324 OA 
HETATM   37  C   UNK A   2     -10.776  19.394  67.539  1.00  0.00    -0.453 C  
ENDBRANCH  27  36
ENDBRANCH  17  19
ENDBRANCH  15  17
ENDBRANCH   6  15
ENDBRANCH   4   6
ENDBRANCH   3   4
ENDBRANCH   2   3
TORSDOF 11
ENDMDL
MODEL      102
REMARK 921   NORMALIZED FREE ENERGY PREDICTED BY IDOCK:   -4.82 KCAL/MOL
REMARK 922        TOTAL FREE ENERGY PREDICTED BY IDOCK:   -9.82 KCAL/MOL
REMARK 923 INTER-LIGAND FREE ENERGY PREDICTED BY IDOCK:   -7.73 KCAL/MOL
REMARK 924 INTRA-LIGAND FREE ENERGY PREDICTED BY IDOCK:   -2.09 KCAL/MOL
REMARK 927      BINDING AFFINITY PREDICTED BY RF-SCORE:    0.00 PKD
ROOT
HETATM    1  C   UNK A   0      -7.879   2.256  71.782  1.00  0.00    -0.045 C  
HETATM    2  C   UNK A   0      -6.994   1.970  70.584  1.00  0.00    -0.033 C  
ENDROOT
BRANCH   2   3
HETATM    3  O   UNK A   0      -7.528   2.657  69.448  1.00  0.00    -0.044 OA 
BRANCH   3   4
HETATM    4  C   UNK A   0      -6.799   3.703  68.964  1.00  0.00    -0.045 C  
HETATM    5  O   UNK A   0      -5.583   3.719  68.800  1.00  0.00    -0.016 OA 
BRANCH   4   6
HETATM    6  C   UNK A   0      -7.752   4.836  68.584  1.00  0.00    -0.076 C  
BRANCH   6   7
HETATM    7  C   UNK A   0      -8.356   5.450  69.850  1.00  0.00    -0.100 C  
BRANCH   7   8
HETATM    8  C   UNK A   0      -9.802   5.125  70.256  1.00  0.00    -0.295 C  
BRANCH   8   9
HETATM    9  C   UNK A   0     -10.498   6.335  70.899  1.00  0.00    -0.274 A  
HETATM   10  C   UNK A   0     -11.822   6.647  70.559  1.00  0.00    -0.430 A  
HETATM   11  C   UNK A   0     -12.511   7.678  71.223  1.00  0.00    -0.324 A  
HETATM   12  C   UNK A   0      -9.888   7.128  71.895  1.00  0.00    -0.172 A  
HETATM   13  C   UNK A   0     -11.894   8.409  72.239  1.00  0.00    -0.456 A  
HETATM   14  C   UNK A   0     -10.576   8.138  72.567  1.00  0.00    -0.411 A  
ENDBRANCH   8   9
ENDBRANCH   7   8
ENDBRANCH   6   7
BRANCH   6  15
ATOM     15  N   ALA A   1      -8.820   4.331  67.686  1.00  0.00    -0.106 NA 
ATOM     16  H   ALA A   1      -9.166   3.380  67.811  1.00  0.00     0.000 HD 
BRANCH  15  17
ATOM     17  CA  ALA A   1      -9.401   5.180  66.605  1.00  0.00    -0.137 C  
ATOM     18  CB  ALA A   1     -10.827   5.743  66.726  1.00  0.00    -0.327 C  
BRANCH  17  19
ATOM     19  C   ALA A   1      -8.416   6.185  65.923  1.00  0.00    -0.145 C  
ATOM     20  O   ALA A   1      -7.714   5.784  64.986  1.00  0.00    -0.085 OA 
HETATM   21  C   UNK A   2      -9.854   9.354  67.069  1.00  0.00    -0.258 A  
HETATM   22  C   UNK A   2     -10.711   9.843  68.064  1.00  0.00    -0.296 A  
HETATM   23  N   UNK A   2      -8.411   7.532  66.251  1.00  0.00    -0.127 N  
HETATM   24  C   UNK A   2     -11.473  10.976  67.839  1.00  0.00    -0.282 A  
HETATM   25  C   UNK A   2      -9.079   8.122  67.383  1.00  0.00    -0.134 C  
HETATM   26  O   UNK A   2      -5.541   9.590  65.294  1.00  0.00    -0.051 OA 
HETATM   27  C   UNK A   2     -11.404  11.622  66.603  1.00  0.00    -0.270 A  
HETATM   28  C   UNK A   2     -10.534  11.133  65.607  1.00  0.00    -0.308 A  
HETATM   29  O   UNK A   2      -6.591   9.646  67.277  1.00  0.00    -0.069 OA 
HETATM   30  C   UNK A   2      -6.576   9.284  66.104  1.00  0.00    -0.070 C  
HETATM   31  C   UNK A   2      -9.728  10.014  65.848  1.00  0.00    -0.309 A  
HETATM   32  C   UNK A   2      -7.716   8.507  65.395  1.00  0.00    -0.095 C  
HETATM   33  C   UNK A   2      -8.765   9.479  64.810  1.00  0.00    -0.225 C  
BRANCH  24  34
HETATM   34  O   UNK A   2     -12.279  11.551  68.789  1.00  0.00    -0.457 OA 
HETATM   35  C   UNK A   2     -11.794  11.421  70.110  1.00  0.00    -0.355 C  
ENDBRANCH  24  34
BRANCH  27  36
HETATM   36  O   UNK A   2     -12.238  12.691  66.473  1.00  0.00    -0.538 OA 
HETATM   37  C   UNK A   2     -11.649  13.974  66.401  1.00  0.00    -0.369 C  
ENDBRANCH  27  36
ENDBRANCH  17  19
ENDBRANCH  15  17
ENDBRANCH   6  15
ENDBRANCH   4   6
ENDBRANCH   3   4
ENDBRANCH   2   3
TORSDOF 11
ENDMDL
MODEL      103
REMARK 921   NORMALIZED FREE ENERGY PREDICTED BY IDOCK:   -4.81 KCAL/MOL
REMARK 922        TOTAL FREE ENERGY PREDICTED BY IDOCK:   -9.80 KCAL/MOL
REMARK 923 INTER-LIGAND FREE ENERGY PREDICTED BY IDOCK:   -9.33 KCAL/MOL
REMARK 924 INTRA-LIGAND FREE ENERGY PREDICTED BY IDOCK:   -0.48 KCAL/MOL
REMARK 927      BINDING AFFINITY PREDICTED BY RF-SCORE:    0.00 PKD
ROOT
HETATM    1  C   UNK A   0      -6.210   5.762  69.041  1.00  0.00    -0.029 C  
HETATM    2  C   UNK A   0      -6.810   7.071  69.516  1.00  0.00    -0.051 C  
ENDROOT
BRANCH   2   3
HETATM    3  O   UNK A   0      -6.811   7.996  68.424  1.00  0.00    -0.064 OA 
BRANCH   3   4
HETATM    4  C   UNK A   0      -7.829   7.880  67.522  1.00  0.00    -0.122 C  
HETATM    5  O   UNK A   0      -7.729   7.460  66.374  1.00  0.00    -0.089 OA 
BRANCH   4   6
HETATM    6  C   UNK A   0      -9.138   8.289  68.198  1.00  0.00    -0.134 C  
BRANCH   6   7
HETATM    7  C   UNK A   0     -10.321   7.917  67.302  1.00  0.00    -0.377 C  
BRANCH   7   8
HETATM    8  C   UNK A   0     -10.991   6.541  67.434  1.00  0.00    -0.458 C  
BRANCH   8   9
HETATM    9  C   UNK A   0     -10.908   6.004  68.872  1.00  0.00    -0.400 A  
HETATM   10  C   UNK A   0     -10.020   4.963  69.183  1.00  0.00    -0.252 A  
HETATM   11  C   UNK A   0      -9.847   4.540  70.513  1.00  0.00    -0.297 A  
HETATM   12  C   UNK A   0     -11.639   6.565  69.941  1.00  0.00    -0.433 A  
HETATM   13  C   UNK A   0     -10.548   5.151  71.553  1.00  0.00    -0.217 A  
HETATM   14  C   UNK A   0     -11.454   6.158  71.263  1.00  0.00    -0.311 A  
ENDBRANCH   8   9
ENDBRANCH   7   8
ENDBRANCH   6   7
BRANCH   6  15
ATOM     15  N   ALA A   1      -9.134   9.745  68.485  1.00  0.00    -0.127 NA 
ATOM     16  H   ALA A   1      -9.104  10.061  69.454  1.00  0.00     0.000 HD 
BRANCH  15  17
ATOM     17  CA  ALA A   1      -9.174  10.759  67.391  1.00  0.00    -0.147 C  
ATOM     18  CB  ALA A   1      -8.418  10.524  66.072  1.00  0.00    -0.157 C  
BRANCH  17  19
ATOM     19  C   ALA A   1     -10.547  11.477  67.174  1.00  0.00    -0.237 C  
ATOM     20  O   ALA A   1     -11.583  10.881  67.493  1.00  0.00    -0.526 OA 
HETATM   21  C   UNK A   2      -9.402  14.942  66.844  1.00  0.00    -0.258 A  
HETATM   22  C   UNK A   2      -8.232  15.661  66.569  1.00  0.00    -0.227 A  
HETATM   23  N   UNK A   2     -10.617  12.799  66.765  1.00  0.00    -0.250 N  
HETATM   24  C   UNK A   2      -8.046  16.927  67.094  1.00  0.00    -0.188 A  
HETATM   25  C   UNK A   2      -9.519  13.580  66.255  1.00  0.00    -0.184 C  
HETATM   26  O   UNK A   2     -13.775  14.092  65.445  1.00  0.00    -0.363 OA 
HETATM   27  C   UNK A   2      -9.024  17.482  67.923  1.00  0.00    -0.251 A  
HETATM   28  C   UNK A   2     -10.205  16.761  68.190  1.00  0.00    -0.301 A  
HETATM   29  O   UNK A   2     -11.739  14.479  64.585  1.00  0.00    -0.400 OA 
HETATM   30  C   UNK A   2     -12.429  14.071  65.515  1.00  0.00    -0.509 C  
HETATM   31  C   UNK A   2     -10.415  15.498  67.623  1.00  0.00    -0.279 A  
HETATM   32  C   UNK A   2     -11.881  13.547  66.868  1.00  0.00    -0.407 C  
HETATM   33  C   UNK A   2     -11.682  14.708  67.870  1.00  0.00    -0.379 C  
BRANCH  24  34
HETATM   34  O   UNK A   2      -6.960  17.716  66.811  1.00  0.00    -0.169 OA 
HETATM   35  C   UNK A   2      -5.833  16.999  66.348  1.00  0.00    -0.039 C  
ENDBRANCH  24  34
BRANCH  27  36
HETATM   36  O   UNK A   2      -8.711  18.708  68.427  1.00  0.00    -0.316 OA 
HETATM   37  C   UNK A   2      -9.625  19.763  68.197  1.00  0.00    -0.380 C  
ENDBRANCH  27  36
ENDBRANCH  17  19
ENDBRANCH  15  17
ENDBRANCH   6  15
ENDBRANCH   4   6
ENDBRANCH   3   4
ENDBRANCH   2   3
TORSDOF 11
ENDMDL
MODEL      104
REMARK 921   NORMALIZED FREE ENERGY PREDICTED BY IDOCK:   -4.78 KCAL/MOL
REMARK 922        TOTAL FREE ENERGY PREDICTED BY IDOCK:   -9.76 KCAL/MOL
REMARK 923 INTER-LIGAND FREE ENERGY PREDICTED BY IDOCK:   -6.99 KCAL/MOL
REMARK 924 INTRA-LIGAND FREE ENERGY PREDICTED BY IDOCK:   -2.77 KCAL/MOL
REMARK 927      BINDING AFFINITY PREDICTED BY RF-SCORE:    0.00 PKD
ROOT
HETATM    1  C   UNK A   0     -10.468   8.261  67.034  1.00  0.00    -0.384 C  
HETATM    2  C   UNK A   0     -10.739   7.165  68.046  1.00  0.00    -0.171 C  
ENDROOT
BRANCH   2   3
HETATM    3  O   UNK A   0     -10.477   7.678  69.356  1.00  0.00    -0.215 OA 
BRANCH   3   4
HETATM    4  C   UNK A   0     -11.322   7.281  70.351  1.00  0.00    -0.271 C  
HETATM    5  O   UNK A   0     -11.816   6.165  70.475  1.00  0.00    -0.227 OA 
BRANCH   4   6
HETATM    6  C   UNK A   0     -11.500   8.435  71.338  1.00  0.00    -0.277 C  
BRANCH   6   7
HETATM    7  C   UNK A   0     -10.731   9.662  70.842  1.00  0.00    -0.402 C  
BRANCH   7   8
HETATM    8  C   UNK A   0     -11.488  10.881  70.292  1.00  0.00    -0.391 C  
BRANCH   8   9
HETATM    9  C   UNK A   0     -10.895  11.364  68.959  1.00  0.00    -0.265 A  
HETATM   10  C   UNK A   0     -11.732  11.900  67.969  1.00  0.00    -0.382 A  
HETATM   11  C   UNK A   0     -11.193  12.453  66.794  1.00  0.00    -0.363 A  
HETATM   12  C   UNK A   0      -9.508  11.370  68.697  1.00  0.00    -0.168 A  
HETATM   13  C   UNK A   0      -9.814  12.488  66.590  1.00  0.00    -0.245 A  
HETATM   14  C   UNK A   0      -8.971  11.935  67.540  1.00  0.00    -0.171 A  
ENDBRANCH   8   9
ENDBRANCH   7   8
ENDBRANCH   6   7
BRANCH   6  15
ATOM     15  N   ALA A   1     -11.032   8.033  72.688  1.00  0.00    -0.362 NA 
ATOM     16  H   ALA A   1     -11.649   8.170  73.488  1.00  0.00     0.000 HD 
BRANCH  15  17
ATOM     17  CA  ALA A   1      -9.683   7.434  72.903  1.00  0.00    -0.183 C  
ATOM     18  CB  ALA A   1      -8.653   8.120  73.818  1.00  0.00    -0.307 C  
BRANCH  17  19
ATOM     19  C   ALA A   1      -9.637   5.875  73.012  1.00  0.00    -0.154 C  
ATOM     20  O   ALA A   1     -10.332   5.321  73.873  1.00  0.00    -0.210 OA 
HETATM   21  C   UNK A   2      -8.207   5.052  69.741  1.00  0.00    -0.077 A  
HETATM   22  C   UNK A   2      -7.491   5.661  68.702  1.00  0.00    -0.084 A  
HETATM   23  N   UNK A   2      -8.948   5.102  72.091  1.00  0.00    -0.129 N  
HETATM   24  C   UNK A   2      -7.631   5.218  67.399  1.00  0.00    -0.088 A  
HETATM   25  C   UNK A   2      -8.013   5.597  71.113  1.00  0.00    -0.112 C  
HETATM   26  O   UNK A   2      -8.158   1.626  72.912  1.00  0.00    -0.050 OA 
HETATM   27  C   UNK A   2      -8.511   4.171  67.115  1.00  0.00    -0.100 A  
HETATM   28  C   UNK A   2      -9.223   3.554  68.164  1.00  0.00    -0.228 A  
HETATM   29  O   UNK A   2      -6.763   3.093  71.944  1.00  0.00    -0.018 OA 
HETATM   30  C   UNK A   2      -7.903   2.794  72.288  1.00  0.00    -0.054 C  
HETATM   31  C   UNK A   2      -9.049   3.971  69.489  1.00  0.00    -0.190 A  
HETATM   32  C   UNK A   2      -9.169   3.649  72.020  1.00  0.00    -0.114 C  
HETATM   33  C   UNK A   2      -9.779   3.314  70.640  1.00  0.00    -0.156 C  
BRANCH  24  34
HETATM   34  O   UNK A   2      -6.910   5.719  66.344  1.00  0.00    -0.056 OA 
HETATM   35  C   UNK A   2      -7.070   7.109  66.146  1.00  0.00    -0.073 C  
ENDBRANCH  24  34
BRANCH  27  36
HETATM   36  O   UNK A   2      -8.611   3.856  65.794  1.00  0.00    -0.109 OA 
HETATM   37  C   UNK A   2      -9.831   4.148  65.142  1.00  0.00    -0.205 C  
ENDBRANCH  27  36
ENDBRANCH  17  19
ENDBRANCH  15  17
ENDBRANCH   6  15
ENDBRANCH   4   6
ENDBRANCH   3   4
ENDBRANCH   2   3
TORSDOF 11
ENDMDL
MODEL      105
REMARK 921   NORMALIZED FREE ENERGY PREDICTED BY IDOCK:   -4.78 KCAL/MOL
REMARK 922        TOTAL FREE ENERGY PREDICTED BY IDOCK:   -9.76 KCAL/MOL
REMARK 923 INTER-LIGAND FREE ENERGY PREDICTED BY IDOCK:   -8.22 KCAL/MOL
REMARK 924 INTRA-LIGAND FREE ENERGY PREDICTED BY IDOCK:   -1.54 KCAL/MOL
REMARK 927      BINDING AFFINITY PREDICTED BY RF-SCORE:    0.00 PKD
ROOT
HETATM    1  C   UNK A   0     -12.411  10.982  69.898  1.00  0.00    -0.356 C  
HETATM    2  C   UNK A   0     -11.594  11.903  69.012  1.00  0.00    -0.317 C  
ENDROOT
BRANCH   2   3
HETATM    3  O   UNK A   0     -12.034  11.744  67.659  1.00  0.00    -0.599 OA 
BRANCH   3   4
HETATM    4  C   UNK A   0     -11.561  12.645  66.750  1.00  0.00    -0.374 C  
HETATM    5  O   UNK A   0     -12.141  13.015  65.734  1.00  0.00    -0.411 OA 
BRANCH   4   6
HETATM    6  C   UNK A   0     -10.215  13.181  67.239  1.00  0.00    -0.243 C  
BRANCH   6   7
HETATM    7  C   UNK A   0     -10.197  14.707  67.131  1.00  0.00    -0.256 C  
BRANCH   7   8
HETATM    8  C   UNK A   0      -9.172  15.529  67.928  1.00  0.00    -0.187 C  
BRANCH   8   9
HETATM    9  C   UNK A   0      -9.412  17.040  67.777  1.00  0.00    -0.245 A  
HETATM   10  C   UNK A   0     -10.476  17.507  66.991  1.00  0.00    -0.293 A  
HETATM   11  C   UNK A   0     -10.780  18.879  66.937  1.00  0.00    -0.447 A  
HETATM   12  C   UNK A   0      -8.649  18.008  68.464  1.00  0.00    -0.306 A  
HETATM   13  C   UNK A   0     -10.036  19.804  67.669  1.00  0.00    -0.535 A  
HETATM   14  C   UNK A   0      -8.961  19.367  68.426  1.00  0.00    -0.403 A  
ENDBRANCH   8   9
ENDBRANCH   7   8
ENDBRANCH   6   7
BRANCH   6  15
ATOM     15  N   ALA A   1      -9.108  12.586  66.450  1.00  0.00    -0.378 NA 
ATOM     16  H   ALA A   1      -9.190  12.541  65.435  1.00  0.00     0.000 HD 
BRANCH  15  17
ATOM     17  CA  ALA A   1      -7.878  12.054  67.106  1.00  0.00    -0.168 C  
ATOM     18  CB  ALA A   1      -7.672  12.192  68.624  1.00  0.00    -0.089 C  
BRANCH  17  19
ATOM     19  C   ALA A   1      -7.341  10.694  66.550  1.00  0.00    -0.134 C  
ATOM     20  O   ALA A   1      -6.344  10.706  65.818  1.00  0.00    -0.122 OA 
HETATM   21  C   UNK A   2      -8.977   8.375  68.867  1.00  0.00    -0.146 A  
HETATM   22  C   UNK A   2     -10.047   8.341  69.771  1.00  0.00    -0.197 A  
HETATM   23  N   UNK A   2      -7.870   9.482  66.963  1.00  0.00    -0.098 N  
HETATM   24  C   UNK A   2     -10.008   7.507  70.874  1.00  0.00    -0.180 A  
HETATM   25  C   UNK A   2      -9.088   9.309  67.714  1.00  0.00    -0.126 C  
HETATM   26  O   UNK A   2      -7.193   6.474  64.993  1.00  0.00    -0.061 OA 
HETATM   27  C   UNK A   2      -8.884   6.711  71.100  1.00  0.00    -0.137 A  
HETATM   28  C   UNK A   2      -7.812   6.739  70.184  1.00  0.00    -0.107 A  
HETATM   29  O   UNK A   2      -9.177   7.046  65.872  1.00  0.00    -0.084 OA 
HETATM   30  C   UNK A   2      -7.962   7.216  65.816  1.00  0.00    -0.123 C  
HETATM   31  C   UNK A   2      -7.868   7.549  69.043  1.00  0.00    -0.120 A  
HETATM   32  C   UNK A   2      -7.161   8.222  66.683  1.00  0.00    -0.081 C  
HETATM   33  C   UNK A   2      -6.747   7.584  68.028  1.00  0.00    -0.059 C  
BRANCH  24  34
HETATM   34  O   UNK A   2     -11.047   7.370  71.760  1.00  0.00    -0.233 OA 
HETATM   35  C   UNK A   2     -11.566   8.597  72.232  1.00  0.00    -0.354 C  
ENDBRANCH  24  34
BRANCH  27  36
HETATM   36  O   UNK A   2      -8.931   5.973  72.244  1.00  0.00    -0.141 OA 
HETATM   37  C   UNK A   2      -8.035   6.318  73.282  1.00  0.00    -0.105 C  
ENDBRANCH  27  36
ENDBRANCH  17  19
ENDBRANCH  15  17
ENDBRANCH   6  15
ENDBRANCH   4   6
ENDBRANCH   3   4
ENDBRANCH   2   3
TORSDOF 11
ENDMDL
MODEL      106
REMARK 921   NORMALIZED FREE ENERGY PREDICTED BY IDOCK:   -4.76 KCAL/MOL
REMARK 922        TOTAL FREE ENERGY PREDICTED BY IDOCK:   -9.73 KCAL/MOL
REMARK 923 INTER-LIGAND FREE ENERGY PREDICTED BY IDOCK:   -8.10 KCAL/MOL
REMARK 924 INTRA-LIGAND FREE ENERGY PREDICTED BY IDOCK:   -1.63 KCAL/MOL
REMARK 927      BINDING AFFINITY PREDICTED BY RF-SCORE:    0.00 PKD
ROOT
HETATM    1  C   UNK A   0      -6.215  10.414  70.501  1.00  0.00    -0.113 C  
HETATM    2  C   UNK A   0      -6.740   9.013  70.744  1.00  0.00    -0.067 C  
ENDROOT
BRANCH   2   3
HETATM    3  O   UNK A   0      -7.790   9.080  71.713  1.00  0.00    -0.333 OA 
BRANCH   3   4
HETATM    4  C   UNK A   0      -8.307   7.893  72.143  1.00  0.00    -0.131 C  
HETATM    5  O   UNK A   0      -7.688   6.841  72.268  1.00  0.00    -0.093 OA 
BRANCH   4   6
HETATM    6  C   UNK A   0      -9.775   8.099  72.519  1.00  0.00    -0.287 C  
BRANCH   6   7
HETATM    7  C   UNK A   0     -10.555   6.803  72.287  1.00  0.00    -0.241 C  
BRANCH   7   8
HETATM    8  C   UNK A   0     -10.768   5.810  73.441  1.00  0.00    -0.303 C  
BRANCH   8   9
HETATM    9  C   UNK A   0     -10.622   4.354  72.971  1.00  0.00    -0.267 A  
HETATM   10  C   UNK A   0      -9.855   4.054  71.836  1.00  0.00    -0.247 A  
HETATM   11  C   UNK A   0      -9.615   2.719  71.462  1.00  0.00    -0.221 A  
HETATM   12  C   UNK A   0     -11.169   3.263  73.682  1.00  0.00    -0.280 A  
HETATM   13  C   UNK A   0     -10.130   1.664  72.216  1.00  0.00    -0.218 A  
HETATM   14  C   UNK A   0     -10.917   1.939  73.322  1.00  0.00    -0.266 A  
ENDBRANCH   8   9
ENDBRANCH   7   8
ENDBRANCH   6   7
BRANCH   6  15
ATOM     15  N   ALA A   1     -10.357   9.210  71.726  1.00  0.00    -0.331 NA 
ATOM     16  H   ALA A   1     -10.160  10.172  72.000  1.00  0.00     0.000 HD 
BRANCH  15  17
ATOM     17  CA  ALA A   1     -11.223   8.954  70.538  1.00  0.00    -0.252 C  
ATOM     18  CB  ALA A   1     -12.408   9.880  70.213  1.00  0.00    -0.073 C  
BRANCH  17  19
ATOM     19  C   ALA A   1     -10.488   8.448  69.253  1.00  0.00    -0.215 C  
ATOM     20  O   ALA A   1     -10.599   7.257  68.938  1.00  0.00    -0.208 OA 
HETATM   21  C   UNK A   2      -9.862  11.648  67.582  1.00  0.00    -0.195 A  
HETATM   22  C   UNK A   2      -9.809  13.017  67.876  1.00  0.00    -0.224 A  
HETATM   23  N   UNK A   2      -9.837   9.323  68.398  1.00  0.00    -0.151 N  
HETATM   24  C   UNK A   2     -10.119  13.955  66.908  1.00  0.00    -0.260 A  
HETATM   25  C   UNK A   2      -9.530  10.701  68.681  1.00  0.00    -0.176 C  
HETATM   26  O   UNK A   2      -7.442   7.994  65.972  1.00  0.00    -0.075 OA 
HETATM   27  C   UNK A   2     -10.510  13.534  65.635  1.00  0.00    -0.293 A  
HETATM   28  C   UNK A   2     -10.554  12.156  65.339  1.00  0.00    -0.309 A  
HETATM   29  O   UNK A   2      -7.152   9.830  67.229  1.00  0.00    -0.084 OA 
HETATM   30  C   UNK A   2      -7.902   8.963  66.790  1.00  0.00    -0.097 C  
HETATM   31  C   UNK A   2     -10.197  11.206  66.304  1.00  0.00    -0.286 A  
HETATM   32  C   UNK A   2      -9.429   8.888  67.052  1.00  0.00    -0.166 C  
HETATM   33  C   UNK A   2     -10.209   9.721  66.011  1.00  0.00    -0.263 C  
BRANCH  24  34
HETATM   34  O   UNK A   2     -10.020  15.310  67.103  1.00  0.00    -0.230 OA 
HETATM   35  C   UNK A   2     -10.971  15.832  68.010  1.00  0.00    -0.330 C  
ENDBRANCH  24  34
BRANCH  27  36
HETATM   36  O   UNK A   2     -10.845  14.540  64.781  1.00  0.00    -0.399 OA 
HETATM   37  C   UNK A   2     -12.178  14.585  64.314  1.00  0.00    -0.415 C  
ENDBRANCH  27  36
ENDBRANCH  17  19
ENDBRANCH  15  17
ENDBRANCH   6  15
ENDBRANCH   4   6
ENDBRANCH   3   4
ENDBRANCH   2   3
TORSDOF 11
ENDMDL
MODEL      107
REMARK 921   NORMALIZED FREE ENERGY PREDICTED BY IDOCK:   -4.75 KCAL/MOL
REMARK 922        TOTAL FREE ENERGY PREDICTED BY IDOCK:   -9.72 KCAL/MOL
REMARK 923 INTER-LIGAND FREE ENERGY PREDICTED BY IDOCK:   -8.53 KCAL/MOL
REMARK 924 INTRA-LIGAND FREE ENERGY PREDICTED BY IDOCK:   -1.19 KCAL/MOL
REMARK 927      BINDING AFFINITY PREDICTED BY RF-SCORE:    0.00 PKD
ROOT
HETATM    1  C   UNK A   0     -11.795  12.721  63.438  1.00  0.00    -0.591 C  
HETATM    2  C   UNK A   0     -12.712  12.655  64.644  1.00  0.00    -0.377 C  
ENDROOT
BRANCH   2   3
HETATM    3  O   UNK A   0     -12.374  13.724  65.533  1.00  0.00    -0.415 OA 
BRANCH   3   4
HETATM    4  C   UNK A   0     -11.868  13.374  66.751  1.00  0.00    -0.403 C  
HETATM    5  O   UNK A   0     -12.101  12.332  67.356  1.00  0.00    -0.533 OA 
BRANCH   4   6
HETATM    6  C   UNK A   0     -10.896  14.461  67.213  1.00  0.00    -0.290 C  
BRANCH   6   7
HETATM    7  C   UNK A   0     -10.176  15.059  66.002  1.00  0.00    -0.318 C  
BRANCH   7   8
HETATM    8  C   UNK A   0     -10.507  16.482  65.528  1.00  0.00    -0.320 C  
BRANCH   8   9
HETATM    9  C   UNK A   0      -9.970  17.545  66.499  1.00  0.00    -0.323 A  
HETATM   10  C   UNK A   0      -8.591  17.659  66.725  1.00  0.00    -0.276 A  
HETATM   11  C   UNK A   0      -8.076  18.700  67.519  1.00  0.00    -0.262 A  
HETATM   12  C   UNK A   0     -10.804  18.489  67.137  1.00  0.00    -0.304 A  
HETATM   13  C   UNK A   0      -8.925  19.646  68.093  1.00  0.00    -0.381 A  
HETATM   14  C   UNK A   0     -10.293  19.533  67.909  1.00  0.00    -0.567 A  
ENDBRANCH   8   9
ENDBRANCH   7   8
ENDBRANCH   6   7
BRANCH   6  15
ATOM     15  N   ALA A   1      -9.920  13.900  68.180  1.00  0.00    -0.233 NA 
ATOM     16  H   ALA A   1     -10.221  13.164  68.818  1.00  0.00     0.000 HD 
BRANCH  15  17
ATOM     17  CA  ALA A   1      -8.511  14.387  68.241  1.00  0.00    -0.165 C  
ATOM     18  CB  ALA A   1      -7.997  15.156  69.470  1.00  0.00    -0.175 C  
BRANCH  17  19
ATOM     19  C   ALA A   1      -7.431  13.431  67.638  1.00  0.00    -0.178 C  
ATOM     20  O   ALA A   1      -6.366  13.918  67.239  1.00  0.00    -0.296 OA 
HETATM   21  C   UNK A   2      -8.623  10.223  68.949  1.00  0.00    -0.150 A  
HETATM   22  C   UNK A   2      -9.783   9.651  69.486  1.00  0.00    -0.216 A  
HETATM   23  N   UNK A   2      -7.583  12.054  67.666  1.00  0.00    -0.126 N  
HETATM   24  C   UNK A   2      -9.698   8.610  70.392  1.00  0.00    -0.176 A  
HETATM   25  C   UNK A   2      -8.798  11.350  67.992  1.00  0.00    -0.155 C  
HETATM   26  O   UNK A   2      -5.498   9.982  65.487  1.00  0.00    -0.050 OA 
HETATM   27  C   UNK A   2      -8.445   8.142  70.792  1.00  0.00    -0.125 A  
HETATM   28  C   UNK A   2      -7.278   8.713  70.244  1.00  0.00    -0.049 A  
HETATM   29  O   UNK A   2      -7.698   9.711  65.841  1.00  0.00    -0.099 OA 
HETATM   30  C   UNK A   2      -6.635  10.233  66.168  1.00  0.00    -0.105 C  
HETATM   31  C   UNK A   2      -7.363   9.736  69.292  1.00  0.00    -0.082 A  
HETATM   32  C   UNK A   2      -6.440  11.169  67.389  1.00  0.00    -0.071 C  
HETATM   33  C   UNK A   2      -6.131  10.354  68.665  1.00  0.00    -0.043 C  
BRANCH  24  34
HETATM   34  O   UNK A   2     -10.790   7.955  70.904  1.00  0.00    -0.227 OA 
HETATM   35  C   UNK A   2     -11.361   7.011  70.020  1.00  0.00    -0.249 C  
ENDBRANCH  24  34
BRANCH  27  36
HETATM   36  O   UNK A   2      -8.480   7.154  71.729  1.00  0.00    -0.113 OA 
HETATM   37  C   UNK A   2      -7.737   7.350  72.916  1.00  0.00    -0.088 C  
ENDBRANCH  27  36
ENDBRANCH  17  19
ENDBRANCH  15  17
ENDBRANCH   6  15
ENDBRANCH   4   6
ENDBRANCH   3   4
ENDBRANCH   2   3
TORSDOF 11
ENDMDL
MODEL      108
REMARK 921   NORMALIZED FREE ENERGY PREDICTED BY IDOCK:   -4.75 KCAL/MOL
REMARK 922        TOTAL FREE ENERGY PREDICTED BY IDOCK:   -9.71 KCAL/MOL
REMARK 923 INTER-LIGAND FREE ENERGY PREDICTED BY IDOCK:   -8.40 KCAL/MOL
REMARK 924 INTRA-LIGAND FREE ENERGY PREDICTED BY IDOCK:   -1.31 KCAL/MOL
REMARK 927      BINDING AFFINITY PREDICTED BY RF-SCORE:    0.00 PKD
ROOT
HETATM    1  C   UNK A   0      -8.740   6.334  74.079  1.00  0.00    -0.130 C  
HETATM    2  C   UNK A   0      -8.036   7.100  72.976  1.00  0.00    -0.101 C  
ENDROOT
BRANCH   2   3
HETATM    3  O   UNK A   0      -8.899   8.151  72.527  1.00  0.00    -0.167 OA 
BRANCH   3   4
HETATM    4  C   UNK A   0      -8.616   8.700  71.311  1.00  0.00    -0.187 C  
HETATM    5  O   UNK A   0      -7.510   8.751  70.782  1.00  0.00    -0.066 OA 
BRANCH   4   6
HETATM    6  C   UNK A   0      -9.919   9.179  70.670  1.00  0.00    -0.248 C  
BRANCH   6   7
HETATM    7  C   UNK A   0     -11.043   9.160  71.709  1.00  0.00    -0.437 C  
BRANCH   7   8
HETATM    8  C   UNK A   0     -12.401   9.808  71.394  1.00  0.00    -0.480 C  
BRANCH   8   9
HETATM    9  C   UNK A   0     -12.235  11.225  70.822  1.00  0.00    -0.479 A  
HETATM   10  C   UNK A   0     -11.812  11.404  69.497  1.00  0.00    -0.426 A  
HETATM   11  C   UNK A   0     -11.769  12.687  68.923  1.00  0.00    -0.370 A  
HETATM   12  C   UNK A   0     -12.567  12.387  71.552  1.00  0.00    -0.250 A  
HETATM   13  C   UNK A   0     -12.152  13.810  69.657  1.00  0.00    -0.392 A  
HETATM   14  C   UNK A   0     -12.541  13.659  70.978  1.00  0.00    -0.441 A  
ENDBRANCH   8   9
ENDBRANCH   7   8
ENDBRANCH   6   7
BRANCH   6  15
ATOM     15  N   ALA A   1     -10.265   8.326  69.507  1.00  0.00    -0.206 NA 
ATOM     16  H   ALA A   1     -11.246   8.150  69.293  1.00  0.00     0.000 HD 
BRANCH  15  17
ATOM     17  CA  ALA A   1      -9.212   7.717  68.642  1.00  0.00    -0.138 C  
ATOM     18  CB  ALA A   1      -8.637   6.327  68.962  1.00  0.00    -0.123 C  
BRANCH  17  19
ATOM     19  C   ALA A   1      -9.363   7.963  67.105  1.00  0.00    -0.153 C  
ATOM     20  O   ALA A   1      -9.985   7.133  66.431  1.00  0.00    -0.133 OA 
HETATM   21  C   UNK A   2      -8.589  11.541  66.959  1.00  0.00    -0.161 A  
HETATM   22  C   UNK A   2      -7.967  12.534  67.727  1.00  0.00    -0.163 A  
HETATM   23  N   UNK A   2      -8.940   9.143  66.514  1.00  0.00    -0.142 N  
HETATM   24  C   UNK A   2      -8.369  13.855  67.625  1.00  0.00    -0.181 A  
HETATM   25  C   UNK A   2      -8.110  10.143  67.136  1.00  0.00    -0.120 C  
HETATM   26  O   UNK A   2      -8.514   9.266  62.882  1.00  0.00    -0.186 OA 
HETATM   27  C   UNK A   2      -9.417  14.195  66.768  1.00  0.00    -0.279 A  
HETATM   28  C   UNK A   2     -10.035  13.195  65.989  1.00  0.00    -0.283 A  
HETATM   29  O   UNK A   2      -7.101  10.128  64.397  1.00  0.00    -0.135 OA 
HETATM   30  C   UNK A   2      -8.203   9.653  64.136  1.00  0.00    -0.158 C  
HETATM   31  C   UNK A   2      -9.600  11.866  66.056  1.00  0.00    -0.251 A  
HETATM   32  C   UNK A   2      -9.366   9.490  65.148  1.00  0.00    -0.252 C  
HETATM   33  C   UNK A   2     -10.224  10.774  65.215  1.00  0.00    -0.351 C  
BRANCH  24  34
HETATM   34  O   UNK A   2      -7.761  14.888  68.293  1.00  0.00    -0.105 OA 
HETATM   35  C   UNK A   2      -7.273  14.538  69.573  1.00  0.00    -0.095 C  
ENDBRANCH  24  34
BRANCH  27  36
HETATM   36  O   UNK A   2      -9.765  15.511  66.790  1.00  0.00    -0.226 OA 
HETATM   37  C   UNK A   2     -10.309  16.065  65.608  1.00  0.00    -0.392 C  
ENDBRANCH  27  36
ENDBRANCH  17  19
ENDBRANCH  15  17
ENDBRANCH   6  15
ENDBRANCH   4   6
ENDBRANCH   3   4
ENDBRANCH   2   3
TORSDOF 11
ENDMDL
MODEL      109
REMARK 921   NORMALIZED FREE ENERGY PREDICTED BY IDOCK:   -4.74 KCAL/MOL
REMARK 922        TOTAL FREE ENERGY PREDICTED BY IDOCK:   -9.69 KCAL/MOL
REMARK 923 INTER-LIGAND FREE ENERGY PREDICTED BY IDOCK:   -7.90 KCAL/MOL
REMARK 924 INTRA-LIGAND FREE ENERGY PREDICTED BY IDOCK:   -1.79 KCAL/MOL
REMARK 927      BINDING AFFINITY PREDICTED BY RF-SCORE:    0.00 PKD
ROOT
HETATM    1  C   UNK A   0     -10.481   5.191  73.652  1.00  0.00    -0.292 C  
HETATM    2  C   UNK A   0     -11.044   6.389  72.912  1.00  0.00    -0.226 C  
ENDROOT
BRANCH   2   3
HETATM    3  O   UNK A   0     -10.557   7.582  73.536  1.00  0.00    -0.373 OA 
BRANCH   3   4
HETATM    4  C   UNK A   0      -9.408   8.115  73.030  1.00  0.00    -0.265 C  
HETATM    5  O   UNK A   0      -8.429   8.468  73.682  1.00  0.00    -0.353 OA 
BRANCH   4   6
HETATM    6  C   UNK A   0      -9.501   8.133  71.505  1.00  0.00    -0.171 C  
BRANCH   6   7
HETATM    7  C   UNK A   0      -8.160   7.709  70.900  1.00  0.00    -0.103 C  
BRANCH   7   8
HETATM    8  C   UNK A   0      -7.818   6.220  70.739  1.00  0.00    -0.106 C  
BRANCH   8   9
HETATM    9  C   UNK A   0      -8.322   5.662  69.398  1.00  0.00    -0.107 A  
HETATM   10  C   UNK A   0      -9.548   4.983  69.335  1.00  0.00    -0.236 A  
HETATM   11  C   UNK A   0     -10.078   4.570  68.099  1.00  0.00    -0.031 A  
HETATM   12  C   UNK A   0      -7.639   5.866  68.180  1.00  0.00    -0.089 A  
HETATM   13  C   UNK A   0      -9.400   4.833  66.909  1.00  0.00    -0.141 A  
HETATM   14  C   UNK A   0      -8.172   5.473  66.952  1.00  0.00    -0.105 A  
ENDBRANCH   8   9
ENDBRANCH   7   8
ENDBRANCH   6   7
BRANCH   6  15
ATOM     15  N   ALA A   1      -9.886   9.485  71.030  1.00  0.00    -0.278 NA 
ATOM     16  H   ALA A   1      -9.480  10.305  71.480  1.00  0.00     0.000 HD 
BRANCH  15  17
ATOM     17  CA  ALA A   1     -10.853   9.675  69.909  1.00  0.00    -0.256 C  
ATOM     18  CB  ALA A   1     -11.817  10.873  69.895  1.00  0.00    -0.427 C  
BRANCH  17  19
ATOM     19  C   ALA A   1     -10.324   9.316  68.482  1.00  0.00    -0.209 C  
ATOM     20  O   ALA A   1     -10.636   8.223  67.992  1.00  0.00    -0.201 OA 
HETATM   21  C   UNK A   2      -9.401  12.656  67.291  1.00  0.00    -0.195 A  
HETATM   22  C   UNK A   2      -9.122  13.933  67.795  1.00  0.00    -0.191 A  
HETATM   23  N   UNK A   2      -9.636  10.238  67.709  1.00  0.00    -0.151 N  
HETATM   24  C   UNK A   2      -9.383  15.060  67.036  1.00  0.00    -0.224 A  
HETATM   25  C   UNK A   2      -9.107  11.495  68.175  1.00  0.00    -0.181 C  
HETATM   26  O   UNK A   2      -7.699   9.068  64.835  1.00  0.00    -0.104 OA 
HETATM   27  C   UNK A   2      -9.949  14.923  65.767  1.00  0.00    -0.347 A  
HETATM   28  C   UNK A   2     -10.220  13.636  65.258  1.00  0.00    -0.341 A  
HETATM   29  O   UNK A   2      -7.028  10.600  66.330  1.00  0.00    -0.114 OA 
HETATM   30  C   UNK A   2      -7.934   9.926  65.848  1.00  0.00    -0.115 C  
HETATM   31  C   UNK A   2      -9.915  12.493  66.006  1.00  0.00    -0.269 A  
HETATM   32  C   UNK A   2      -9.424  10.000  66.272  1.00  0.00    -0.191 C  
HETATM   33  C   UNK A   2     -10.170  11.097  65.479  1.00  0.00    -0.319 C  
BRANCH  24  34
HETATM   34  O   UNK A   2      -9.070  16.335  67.436  1.00  0.00    -0.194 OA 
HETATM   35  C   UNK A   2      -9.175  16.542  68.830  1.00  0.00    -0.258 C  
ENDBRANCH  24  34
BRANCH  27  36
HETATM   36  O   UNK A   2     -10.213  16.099  65.133  1.00  0.00    -0.542 OA 
HETATM   37  C   UNK A   2     -11.433  16.201  64.425  1.00  0.00    -0.193 C  
ENDBRANCH  27  36
ENDBRANCH  17  19
ENDBRANCH  15  17
ENDBRANCH   6  15
ENDBRANCH   4   6
ENDBRANCH   3   4
ENDBRANCH   2   3
TORSDOF 11
ENDMDL
MODEL      110
REMARK 921   NORMALIZED FREE ENERGY PREDICTED BY IDOCK:   -4.73 KCAL/MOL
REMARK 922        TOTAL FREE ENERGY PREDICTED BY IDOCK:   -9.67 KCAL/MOL
REMARK 923 INTER-LIGAND FREE ENERGY PREDICTED BY IDOCK:   -8.25 KCAL/MOL
REMARK 924 INTRA-LIGAND FREE ENERGY PREDICTED BY IDOCK:   -1.42 KCAL/MOL
REMARK 927      BINDING AFFINITY PREDICTED BY RF-SCORE:    0.00 PKD
ROOT
HETATM    1  C   UNK A   0      -8.877  14.499  67.136  1.00  0.00    -0.245 C  
HETATM    2  C   UNK A   0      -7.838  13.561  67.720  1.00  0.00    -0.167 C  
ENDROOT
BRANCH   2   3
HETATM    3  O   UNK A   0      -8.045  12.254  67.175  1.00  0.00    -0.173 OA 
BRANCH   3   4
HETATM    4  C   UNK A   0      -6.929  11.548  66.833  1.00  0.00    -0.134 C  
HETATM    5  O   UNK A   0      -5.784  11.987  66.786  1.00  0.00    -0.249 OA 
BRANCH   4   6
HETATM    6  C   UNK A   0      -7.322  10.090  66.589  1.00  0.00    -0.103 C  
BRANCH   6   7
HETATM    7  C   UNK A   0      -8.846   9.965  66.554  1.00  0.00    -0.154 C  
BRANCH   7   8
HETATM    8  C   UNK A   0      -9.588   9.888  65.210  1.00  0.00    -0.361 C  
BRANCH   8   9
HETATM    9  C   UNK A   0     -10.498  11.107  64.992  1.00  0.00    -0.357 A  
HETATM   10  C   UNK A   0     -10.742  11.580  63.694  1.00  0.00    -0.491 A  
HETATM   11  C   UNK A   0     -11.664  12.618  63.469  1.00  0.00    -0.604 A  
HETATM   12  C   UNK A   0     -11.183  11.748  66.047  1.00  0.00    -0.352 A  
HETATM   13  C   UNK A   0     -12.361  13.195  64.531  1.00  0.00    -0.447 A  
HETATM   14  C   UNK A   0     -12.111  12.765  65.823  1.00  0.00    -0.505 A  
ENDBRANCH   8   9
ENDBRANCH   7   8
ENDBRANCH   6   7
BRANCH   6  15
ATOM     15  N   ALA A   1      -6.748   9.219  67.645  1.00  0.00    -0.068 NA 
ATOM     16  H   ALA A   1      -6.052   8.520  67.387  1.00  0.00     0.000 HD 
BRANCH  15  17
ATOM     17  CA  ALA A   1      -7.164   9.342  69.072  1.00  0.00    -0.071 C  
ATOM     18  CB  ALA A   1      -6.648  10.498  69.946  1.00  0.00    -0.130 C  
BRANCH  17  19
ATOM     19  C   ALA A   1      -8.651   8.972  69.385  1.00  0.00    -0.137 C  
ATOM     20  O   ALA A   1      -9.434   9.879  69.694  1.00  0.00    -0.206 OA 
HETATM   21  C   UNK A   2      -8.817   5.657  67.834  1.00  0.00    -0.105 A  
HETATM   22  C   UNK A   2      -7.964   4.638  67.392  1.00  0.00    -0.101 A  
HETATM   23  N   UNK A   2      -9.135   7.688  69.194  1.00  0.00    -0.142 N  
HETATM   24  C   UNK A   2      -8.341   3.808  66.351  1.00  0.00    -0.105 A  
HETATM   25  C   UNK A   2      -8.333   6.516  68.949  1.00  0.00    -0.122 C  
HETATM   26  O   UNK A   2     -12.295   6.720  70.763  1.00  0.00    -0.377 OA 
HETATM   27  C   UNK A   2      -9.572   4.005  65.721  1.00  0.00    -0.191 A  
HETATM   28  C   UNK A   2     -10.433   5.025  66.174  1.00  0.00    -0.334 A  
HETATM   29  O   UNK A   2     -10.433   5.469  70.685  1.00  0.00    -0.248 OA 
HETATM   30  C   UNK A   2     -11.063   6.445  70.287  1.00  0.00    -0.354 C  
HETATM   31  C   UNK A   2     -10.073   5.836  67.257  1.00  0.00    -0.208 A  
HETATM   32  C   UNK A   2     -10.584   7.428  69.188  1.00  0.00    -0.204 C  
HETATM   33  C   UNK A   2     -10.985   6.924  67.783  1.00  0.00    -0.280 C  
BRANCH  24  34
HETATM   34  O   UNK A   2      -7.588   2.748  65.913  1.00  0.00    -0.071 OA 
HETATM   35  C   UNK A   2      -7.262   1.817  66.926  1.00  0.00    -0.051 C  
ENDBRANCH  24  34
BRANCH  27  36
HETATM   36  O   UNK A   2      -9.814   3.168  64.674  1.00  0.00    -0.155 OA 
HETATM   37  C   UNK A   2     -10.499   3.698  63.557  1.00  0.00    -0.251 C  
ENDBRANCH  27  36
ENDBRANCH  17  19
ENDBRANCH  15  17
ENDBRANCH   6  15
ENDBRANCH   4   6
ENDBRANCH   3   4
ENDBRANCH   2   3
TORSDOF 11
ENDMDL
MODEL      111
REMARK 921   NORMALIZED FREE ENERGY PREDICTED BY IDOCK:   -4.72 KCAL/MOL
REMARK 922        TOTAL FREE ENERGY PREDICTED BY IDOCK:   -9.67 KCAL/MOL
REMARK 923 INTER-LIGAND FREE ENERGY PREDICTED BY IDOCK:   -6.97 KCAL/MOL
REMARK 924 INTRA-LIGAND FREE ENERGY PREDICTED BY IDOCK:   -2.70 KCAL/MOL
REMARK 927      BINDING AFFINITY PREDICTED BY RF-SCORE:    0.00 PKD
ROOT
HETATM    1  C   UNK A   0     -10.451   4.697  72.817  1.00  0.00    -0.261 C  
HETATM    2  C   UNK A   0      -9.222   3.929  73.261  1.00  0.00    -0.105 C  
ENDROOT
BRANCH   2   3
HETATM    3  O   UNK A   0      -8.085   4.793  73.169  1.00  0.00    -0.099 OA 
BRANCH   3   4
HETATM    4  C   UNK A   0      -7.226   4.571  72.133  1.00  0.00    -0.066 C  
HETATM    5  O   UNK A   0      -6.457   3.621  72.026  1.00  0.00    -0.014 OA 
BRANCH   4   6
HETATM    6  C   UNK A   0      -7.427   5.662  71.081  1.00  0.00    -0.090 C  
BRANCH   6   7
HETATM    7  C   UNK A   0      -7.002   5.140  69.707  1.00  0.00    -0.054 C  
BRANCH   7   8
HETATM    8  C   UNK A   0      -8.024   5.043  68.563  1.00  0.00    -0.086 C  
BRANCH   8   9
HETATM    9  C   UNK A   0      -7.846   6.179  67.543  1.00  0.00    -0.102 A  
HETATM   10  C   UNK A   0      -6.916   7.201  67.784  1.00  0.00    -0.076 A  
HETATM   11  C   UNK A   0      -6.657   8.181  66.809  1.00  0.00    -0.057 A  
HETATM   12  C   UNK A   0      -8.530   6.212  66.309  1.00  0.00    -0.132 A  
HETATM   13  C   UNK A   0      -7.314   8.155  65.579  1.00  0.00    -0.072 A  
HETATM   14  C   UNK A   0      -8.260   7.173  65.334  1.00  0.00    -0.137 A  
ENDBRANCH   8   9
ENDBRANCH   7   8
ENDBRANCH   6   7
BRANCH   6  15
ATOM     15  N   ALA A   1      -6.653   6.875  71.444  1.00  0.00    -0.045 NA 
ATOM     16  H   ALA A   1      -5.637   6.818  71.500  1.00  0.00     0.000 HD 
BRANCH  15  17
ATOM     17  CA  ALA A   1      -7.326   8.176  71.729  1.00  0.00    -0.086 C  
ATOM     18  CB  ALA A   1      -7.009   9.427  70.892  1.00  0.00    -0.099 C  
BRANCH  17  19
ATOM     19  C   ALA A   1      -8.835   8.092  72.131  1.00  0.00    -0.178 C  
ATOM     20  O   ALA A   1      -9.124   8.010  73.332  1.00  0.00    -0.258 OA 
HETATM   21  C   UNK A   2     -10.381   9.328  69.048  1.00  0.00    -0.228 A  
HETATM   22  C   UNK A   2     -10.069   9.517  67.696  1.00  0.00    -0.254 A  
HETATM   23  N   UNK A   2      -9.845   8.242  71.195  1.00  0.00    -0.169 N  
HETATM   24  C   UNK A   2     -10.678  10.524  66.969  1.00  0.00    -0.250 A  
HETATM   25  C   UNK A   2      -9.672   8.232  69.765  1.00  0.00    -0.180 C  
HETATM   26  O   UNK A   2     -13.236   7.158  72.039  1.00  0.00    -0.236 OA 
HETATM   27  C   UNK A   2     -11.592  11.373  67.595  1.00  0.00    -0.238 A  
HETATM   28  C   UNK A   2     -11.912  11.175  68.954  1.00  0.00    -0.367 A  
HETATM   29  O   UNK A   2     -12.192   6.794  70.086  1.00  0.00    -0.234 OA 
HETATM   30  C   UNK A   2     -12.238   7.386  71.161  1.00  0.00    -0.324 C  
HETATM   31  C   UNK A   2     -11.331  10.128  69.680  1.00  0.00    -0.289 A  
HETATM   32  C   UNK A   2     -11.234   8.474  71.624  1.00  0.00    -0.292 C  
HETATM   33  C   UNK A   2     -11.670   9.873  71.132  1.00  0.00    -0.478 C  
BRANCH  24  34
HETATM   34  O   UNK A   2     -10.475  10.723  65.626  1.00  0.00    -0.243 OA 
HETATM   35  C   UNK A   2      -9.178  11.183  65.302  1.00  0.00    -0.198 C  
ENDBRANCH  24  34
BRANCH  27  36
HETATM   36  O   UNK A   2     -12.086  12.362  66.800  1.00  0.00    -0.578 OA 
HETATM   37  C   UNK A   2     -11.891  13.698  67.219  1.00  0.00    -0.391 C  
ENDBRANCH  27  36
ENDBRANCH  17  19
ENDBRANCH  15  17
ENDBRANCH   6  15
ENDBRANCH   4   6
ENDBRANCH   3   4
ENDBRANCH   2   3
TORSDOF 11
ENDMDL
MODEL      112
REMARK 921   NORMALIZED FREE ENERGY PREDICTED BY IDOCK:   -4.71 KCAL/MOL
REMARK 922        TOTAL FREE ENERGY PREDICTED BY IDOCK:   -9.64 KCAL/MOL
REMARK 923 INTER-LIGAND FREE ENERGY PREDICTED BY IDOCK:   -8.54 KCAL/MOL
REMARK 924 INTRA-LIGAND FREE ENERGY PREDICTED BY IDOCK:   -1.10 KCAL/MOL
REMARK 927      BINDING AFFINITY PREDICTED BY RF-SCORE:    0.00 PKD
ROOT
HETATM    1  C   UNK A   0     -13.329  13.158  72.165  1.00  0.00    -0.621 C  
HETATM    2  C   UNK A   0     -13.159  12.454  70.833  1.00  0.00     0.156 C  
ENDROOT
BRANCH   2   3
HETATM    3  O   UNK A   0     -11.845  12.725  70.336  1.00  0.00    -0.288 OA 
BRANCH   3   4
HETATM    4  C   UNK A   0     -11.629  12.492  69.010  1.00  0.00    -0.314 C  
HETATM    5  O   UNK A   0     -12.233  11.683  68.313  1.00  0.00    -0.525 OA 
BRANCH   4   6
HETATM    6  C   UNK A   0     -10.559  13.460  68.505  1.00  0.00    -0.253 C  
BRANCH   6   7
HETATM    7  C   UNK A   0     -10.706  13.652  66.994  1.00  0.00    -0.278 C  
BRANCH   7   8
HETATM    8  C   UNK A   0     -11.374  14.918  66.435  1.00  0.00    -0.308 C  
BRANCH   8   9
HETATM    9  C   UNK A   0     -10.582  16.185  66.794  1.00  0.00    -0.277 A  
HETATM   10  C   UNK A   0     -10.882  16.892  67.968  1.00  0.00    -0.338 A  
HETATM   11  C   UNK A   0     -10.092  17.984  68.371  1.00  0.00    -0.392 A  
HETATM   12  C   UNK A   0      -9.490  16.648  66.028  1.00  0.00    -0.286 A  
HETATM   13  C   UNK A   0      -8.989  18.383  67.616  1.00  0.00    -0.282 A  
HETATM   14  C   UNK A   0      -8.695  17.719  66.436  1.00  0.00    -0.255 A  
ENDBRANCH   8   9
ENDBRANCH   7   8
ENDBRANCH   6   7
BRANCH   6  15
ATOM     15  N   ALA A   1      -9.206  12.950  68.840  1.00  0.00    -0.369 NA 
ATOM     16  H   ALA A   1      -9.032  12.577  69.773  1.00  0.00     0.000 HD 
BRANCH  15  17
ATOM     17  CA  ALA A   1      -8.094  12.969  67.845  1.00  0.00    -0.158 C  
ATOM     18  CB  ALA A   1      -7.218  14.221  67.668  1.00  0.00    -0.200 C  
BRANCH  17  19
ATOM     19  C   ALA A   1      -7.278  11.643  67.707  1.00  0.00    -0.101 C  
ATOM     20  O   ALA A   1      -6.135  11.697  67.234  1.00  0.00    -0.082 OA 
HETATM   21  C   UNK A   2      -9.163   9.498  70.002  1.00  0.00    -0.264 A  
HETATM   22  C   UNK A   2     -10.416   9.438  70.626  1.00  0.00    -0.354 A  
HETATM   23  N   UNK A   2      -7.747  10.444  68.220  1.00  0.00    -0.094 N  
HETATM   24  C   UNK A   2     -10.560   8.813  71.852  1.00  0.00    -0.354 A  
HETATM   25  C   UNK A   2      -9.087  10.201  68.692  1.00  0.00    -0.143 C  
HETATM   26  O   UNK A   2      -6.242   7.306  67.091  1.00  0.00    -0.042 OA 
HETATM   27  C   UNK A   2      -9.444   8.258  72.481  1.00  0.00    -0.286 A  
HETATM   28  C   UNK A   2      -8.186   8.310  71.847  1.00  0.00    -0.195 A  
HETATM   29  O   UNK A   2      -8.438   7.683  67.364  1.00  0.00    -0.121 OA 
HETATM   30  C   UNK A   2      -7.277   8.037  67.554  1.00  0.00    -0.088 C  
HETATM   31  C   UNK A   2      -8.046   8.903  70.586  1.00  0.00    -0.161 A  
HETATM   32  C   UNK A   2      -6.847   9.288  68.363  1.00  0.00    -0.063 C  
HETATM   33  C   UNK A   2      -6.716   8.954  69.867  1.00  0.00    -0.045 C  
BRANCH  24  34
HETATM   34  O   UNK A   2     -11.766   8.655  72.487  1.00  0.00    -0.361 OA 
HETATM   35  C   UNK A   2     -12.705   7.889  71.759  1.00  0.00    -0.329 C  
ENDBRANCH  24  34
BRANCH  27  36
HETATM   36  O   UNK A   2      -9.693   7.719  73.707  1.00  0.00    -0.275 OA 
HETATM   37  C   UNK A   2      -8.585   7.267  74.460  1.00  0.00    -0.195 C  
ENDBRANCH  27  36
ENDBRANCH  17  19
ENDBRANCH  15  17
ENDBRANCH   6  15
ENDBRANCH   4   6
ENDBRANCH   3   4
ENDBRANCH   2   3
TORSDOF 11
ENDMDL
MODEL      113
REMARK 921   NORMALIZED FREE ENERGY PREDICTED BY IDOCK:   -4.63 KCAL/MOL
REMARK 922        TOTAL FREE ENERGY PREDICTED BY IDOCK:   -9.52 KCAL/MOL
REMARK 923 INTER-LIGAND FREE ENERGY PREDICTED BY IDOCK:   -7.53 KCAL/MOL
REMARK 924 INTRA-LIGAND FREE ENERGY PREDICTED BY IDOCK:   -1.99 KCAL/MOL
REMARK 927      BINDING AFFINITY PREDICTED BY RF-SCORE:    0.00 PKD
ROOT
HETATM    1  C   UNK A   0     -11.745  15.084  69.439  1.00  0.00    -0.351 C  
HETATM    2  C   UNK A   0     -10.966  13.785  69.525  1.00  0.00    -0.031 C  
ENDROOT
BRANCH   2   3
HETATM    3  O   UNK A   0     -11.868  12.734  69.882  1.00  0.00    -0.324 OA 
BRANCH   3   4
HETATM    4  C   UNK A   0     -12.100  11.776  68.939  1.00  0.00    -0.178 C  
HETATM    5  O   UNK A   0     -12.276  11.973  67.740  1.00  0.00    -0.474 OA 
BRANCH   4   6
HETATM    6  C   UNK A   0     -12.031  10.401  69.603  1.00  0.00    -0.136 C  
BRANCH   6   7
HETATM    7  C   UNK A   0     -12.936  10.377  70.837  1.00  0.00    -0.475 C  
BRANCH   7   8
HETATM    8  C   UNK A   0     -12.364   9.992  72.211  1.00  0.00     0.130 C  
BRANCH   8   9
HETATM    9  C   UNK A   0     -11.978   8.505  72.269  1.00  0.00    -0.454 A  
HETATM   10  C   UNK A   0     -10.791   8.112  72.904  1.00  0.00    -0.310 A  
HETATM   11  C   UNK A   0     -10.481   6.749  73.069  1.00  0.00    -0.280 A  
HETATM   12  C   UNK A   0     -12.810   7.479  71.772  1.00  0.00    -0.359 A  
HETATM   13  C   UNK A   0     -11.351   5.760  72.610  1.00  0.00    -0.349 A  
HETATM   14  C   UNK A   0     -12.513   6.127  71.951  1.00  0.00     0.020 A  
ENDBRANCH   8   9
ENDBRANCH   7   8
ENDBRANCH   6   7
BRANCH   6  15
ATOM     15  N   ALA A   1     -10.631  10.078  69.973  1.00  0.00    -0.276 NA 
ATOM     16  H   ALA A   1     -10.197  10.572  70.752  1.00  0.00     0.000 HD 
BRANCH  15  17
ATOM     17  CA  ALA A   1      -9.843   9.049  69.234  1.00  0.00    -0.179 C  
ATOM     18  CB  ALA A   1      -9.847   7.579  69.686  1.00  0.00    -0.180 C  
BRANCH  17  19
ATOM     19  C   ALA A   1      -9.819   9.196  67.677  1.00  0.00    -0.172 C  
ATOM     20  O   ALA A   1     -10.541   8.453  67.000  1.00  0.00    -0.314 OA 
HETATM   21  C   UNK A   2      -8.320  12.526  67.379  1.00  0.00    -0.182 A  
HETATM   22  C   UNK A   2      -7.572  13.435  68.139  1.00  0.00    -0.138 A  
HETATM   23  N   UNK A   2      -9.117  10.217  67.055  1.00  0.00    -0.138 N  
HETATM   24  C   UNK A   2      -7.686  14.796  67.918  1.00  0.00    -0.137 A  
HETATM   25  C   UNK A   2      -8.153  11.079  67.688  1.00  0.00    -0.116 C  
HETATM   26  O   UNK A   2      -8.389   9.960  63.479  1.00  0.00    -0.142 OA 
HETATM   27  C   UNK A   2      -8.571  15.267  66.946  1.00  0.00    -0.257 A  
HETATM   28  C   UNK A   2      -9.316  14.350  66.176  1.00  0.00    -0.221 A  
HETATM   29  O   UNK A   2      -6.954  10.644  65.063  1.00  0.00    -0.047 OA 
HETATM   30  C   UNK A   2      -8.105  10.378  64.729  1.00  0.00    -0.124 C  
HETATM   31  C   UNK A   2      -9.169  12.971  66.367  1.00  0.00    -0.141 A  
HETATM   32  C   UNK A   2      -9.354  10.530  65.636  1.00  0.00    -0.200 C  
HETATM   33  C   UNK A   2      -9.934  11.960  65.542  1.00  0.00    -0.266 C  
BRANCH  24  34
HETATM   34  O   UNK A   2      -6.934  15.738  68.573  1.00  0.00    -0.112 OA 
HETATM   35  C   UNK A   2      -6.470  15.323  69.842  1.00  0.00    -0.162 C  
ENDBRANCH  24  34
BRANCH  27  36
HETATM   36  O   UNK A   2      -8.643  16.624  66.853  1.00  0.00    -0.184 OA 
HETATM   37  C   UNK A   2      -9.797  17.255  67.373  1.00  0.00    -0.272 C  
ENDBRANCH  27  36
ENDBRANCH  17  19
ENDBRANCH  15  17
ENDBRANCH   6  15
ENDBRANCH   4   6
ENDBRANCH   3   4
ENDBRANCH   2   3
TORSDOF 11
ENDMDL
MODEL      114
REMARK 921   NORMALIZED FREE ENERGY PREDICTED BY IDOCK:   -4.63 KCAL/MOL
REMARK 922        TOTAL FREE ENERGY PREDICTED BY IDOCK:   -9.52 KCAL/MOL
REMARK 923 INTER-LIGAND FREE ENERGY PREDICTED BY IDOCK:   -8.15 KCAL/MOL
REMARK 924 INTRA-LIGAND FREE ENERGY PREDICTED BY IDOCK:   -1.36 KCAL/MOL
REMARK 927      BINDING AFFINITY PREDICTED BY RF-SCORE:    0.00 PKD
ROOT
HETATM    1  C   UNK A   0     -10.921   6.129  67.215  1.00  0.00    -0.418 C  
HETATM    2  C   UNK A   0     -10.471   7.249  68.133  1.00  0.00    -0.198 C  
ENDROOT
BRANCH   2   3
HETATM    3  O   UNK A   0      -9.190   6.910  68.674  1.00  0.00    -0.132 OA 
BRANCH   3   4
HETATM    4  C   UNK A   0      -8.220   7.867  68.604  1.00  0.00    -0.127 C  
HETATM    5  O   UNK A   0      -7.505   8.237  69.530  1.00  0.00    -0.081 OA 
BRANCH   4   6
HETATM    6  C   UNK A   0      -8.113   8.358  67.160  1.00  0.00    -0.104 C  
BRANCH   6   7
HETATM    7  C   UNK A   0      -6.918   7.690  66.475  1.00  0.00    -0.067 C  
BRANCH   7   8
HETATM    8  C   UNK A   0      -6.501   6.262  66.861  1.00  0.00    -0.046 C  
BRANCH   8   9
HETATM    9  C   UNK A   0      -7.405   5.208  66.202  1.00  0.00    -0.081 A  
HETATM   10  C   UNK A   0      -7.856   4.105  66.942  1.00  0.00    -0.097 A  
HETATM   11  C   UNK A   0      -8.776   3.196  66.390  1.00  0.00    -0.131 A  
HETATM   12  C   UNK A   0      -7.882   5.330  64.878  1.00  0.00    -0.095 A  
HETATM   13  C   UNK A   0      -9.266   3.375  65.096  1.00  0.00    -0.149 A  
HETATM   14  C   UNK A   0      -8.809   4.439  64.336  1.00  0.00    -0.149 A  
ENDBRANCH   8   9
ENDBRANCH   7   8
ENDBRANCH   6   7
BRANCH   6  15
ATOM     15  N   ALA A   1      -7.977   9.835  67.128  1.00  0.00    -0.102 NA 
ATOM     16  H   ALA A   1      -7.289  10.257  66.506  1.00  0.00     0.000 HD 
BRANCH  15  17
ATOM     17  CA  ALA A   1      -8.824  10.717  67.983  1.00  0.00    -0.132 C  
ATOM     18  CB  ALA A   1      -8.190  11.826  68.841  1.00  0.00     0.054 C  
BRANCH  17  19
ATOM     19  C   ALA A   1     -10.199  11.145  67.374  1.00  0.00    -0.190 C  
ATOM     20  O   ALA A   1     -11.170  10.391  67.515  1.00  0.00    -0.314 OA 
HETATM   21  C   UNK A   2      -9.595  14.729  66.905  1.00  0.00    -0.251 A  
HETATM   22  C   UNK A   2      -8.528  15.633  66.823  1.00  0.00    -0.307 A  
HETATM   23  N   UNK A   2     -10.383  12.395  66.805  1.00  0.00    -0.220 N  
HETATM   24  C   UNK A   2      -8.690  16.948  67.222  1.00  0.00    -0.194 A  
HETATM   25  C   UNK A   2      -9.337  13.328  66.471  1.00  0.00    -0.213 C  
HETATM   26  O   UNK A   2     -13.285  12.966  64.651  1.00  0.00    -0.700 OA 
HETATM   27  C   UNK A   2      -9.920  17.369  67.732  1.00  0.00    -0.301 A  
HETATM   28  C   UNK A   2     -10.995  16.460  67.805  1.00  0.00    -0.261 A  
HETATM   29  O   UNK A   2     -11.192  13.664  64.242  1.00  0.00    -0.379 OA 
HETATM   30  C   UNK A   2     -12.013  13.204  65.031  1.00  0.00    -0.383 C  
HETATM   31  C   UNK A   2     -10.847  15.141  67.359  1.00  0.00    -0.302 A  
HETATM   32  C   UNK A   2     -11.739  12.898  66.526  1.00  0.00    -0.393 C  
HETATM   33  C   UNK A   2     -11.987  14.147  67.401  1.00  0.00    -0.439 C  
BRANCH  24  34
HETATM   34  O   UNK A   2      -7.713  17.903  67.104  1.00  0.00    -0.202 OA 
HETATM   35  C   UNK A   2      -6.629  17.520  66.281  1.00  0.00    -0.260 C  
ENDBRANCH  24  34
BRANCH  27  36
HETATM   36  O   UNK A   2      -9.948  18.667  68.145  1.00  0.00    -0.322 OA 
HETATM   37  C   UNK A   2     -10.786  19.560  67.438  1.00  0.00    -0.467 C  
ENDBRANCH  27  36
ENDBRANCH  17  19
ENDBRANCH  15  17
ENDBRANCH   6  15
ENDBRANCH   4   6
ENDBRANCH   3   4
ENDBRANCH   2   3
TORSDOF 11
ENDMDL
MODEL      115
REMARK 921   NORMALIZED FREE ENERGY PREDICTED BY IDOCK:   -4.62 KCAL/MOL
REMARK 922        TOTAL FREE ENERGY PREDICTED BY IDOCK:   -9.49 KCAL/MOL
REMARK 923 INTER-LIGAND FREE ENERGY PREDICTED BY IDOCK:   -7.88 KCAL/MOL
REMARK 924 INTRA-LIGAND FREE ENERGY PREDICTED BY IDOCK:   -1.62 KCAL/MOL
REMARK 927      BINDING AFFINITY PREDICTED BY RF-SCORE:    0.00 PKD
ROOT
HETATM    1  C   UNK A   0     -12.021   7.889  72.441  1.00  0.00    -0.373 C  
HETATM    2  C   UNK A   0     -12.190   7.281  71.062  1.00  0.00    -0.313 C  
ENDROOT
BRANCH   2   3
HETATM    3  O   UNK A   0     -11.032   6.495  70.764  1.00  0.00    -0.245 OA 
BRANCH   3   4
HETATM    4  C   UNK A   0     -10.714   6.344  69.446  1.00  0.00    -0.289 C  
HETATM    5  O   UNK A   0     -11.510   6.297  68.514  1.00  0.00    -0.229 OA 
BRANCH   4   6
HETATM    6  C   UNK A   0      -9.192   6.317  69.305  1.00  0.00    -0.133 C  
BRANCH   6   7
HETATM    7  C   UNK A   0      -8.544   6.285  70.691  1.00  0.00    -0.139 C  
BRANCH   7   8
HETATM    8  C   UNK A   0      -7.959   4.976  71.244  1.00  0.00    -0.109 C  
BRANCH   8   9
HETATM    9  C   UNK A   0      -8.973   4.227  72.123  1.00  0.00    -0.142 A  
HETATM   10  C   UNK A   0      -9.632   4.898  73.164  1.00  0.00    -0.154 A  
HETATM   11  C   UNK A   0     -10.646   4.260  73.901  1.00  0.00    -0.314 A  
HETATM   12  C   UNK A   0      -9.344   2.885  71.889  1.00  0.00    -0.190 A  
HETATM   13  C   UNK A   0     -11.023   2.949  73.609  1.00  0.00    -0.318 A  
HETATM   14  C   UNK A   0     -10.363   2.258  72.607  1.00  0.00    -0.231 A  
ENDBRANCH   8   9
ENDBRANCH   7   8
ENDBRANCH   6   7
BRANCH   6  15
ATOM     15  N   ALA A   1      -8.726   7.498  68.535  1.00  0.00    -0.128 NA 
ATOM     16  H   ALA A   1      -8.734   7.461  67.517  1.00  0.00     0.000 HD 
BRANCH  15  17
ATOM     17  CA  ALA A   1      -8.246   8.736  69.216  1.00  0.00    -0.108 C  
ATOM     18  CB  ALA A   1      -7.284   9.703  68.505  1.00  0.00    -0.070 C  
BRANCH  17  19
ATOM     19  C   ALA A   1      -9.299   9.482  70.100  1.00  0.00    -0.247 C  
ATOM     20  O   ALA A   1      -9.077   9.602  71.311  1.00  0.00    -0.142 OA 
HETATM   21  C   UNK A   2     -11.164  11.261  67.495  1.00  0.00    -0.357 A  
HETATM   22  C   UNK A   2     -11.379  11.214  66.112  1.00  0.00     0.065 A  
HETATM   23  N   UNK A   2     -10.395  10.120  69.540  1.00  0.00    -0.225 N  
HETATM   24  C   UNK A   2     -11.667  12.369  65.407  1.00  0.00    -0.402 A  
HETATM   25  C   UNK A   2     -10.845   9.977  68.179  1.00  0.00    -0.255 C  
HETATM   26  O   UNK A   2     -13.213  11.038  71.685  1.00  0.00    -0.414 OA 
HETATM   27  C   UNK A   2     -11.720  13.593  66.077  1.00  0.00    -0.358 A  
HETATM   28  C   UNK A   2     -11.513  13.636  67.471  1.00  0.00    -0.360 A  
HETATM   29  O   UNK A   2     -13.365  10.116  69.645  1.00  0.00     0.416 OA 
HETATM   30  C   UNK A   2     -12.682  10.672  70.501  1.00  0.00    -0.313 C  
HETATM   31  C   UNK A   2     -11.266  12.462  68.193  1.00  0.00    -0.313 A  
HETATM   32  C   UNK A   2     -11.193  11.070  70.333  1.00  0.00    -0.015 C  
HETATM   33  C   UNK A   2     -11.064  12.470  69.693  1.00  0.00     0.015 C  
BRANCH  24  34
HETATM   34  O   UNK A   2     -11.958  12.389  64.066  1.00  0.00    -0.389 OA 
HETATM   35  C   UNK A   2     -10.852  12.107  63.233  1.00  0.00    -0.321 C  
ENDBRANCH  24  34
BRANCH  27  36
HETATM   36  O   UNK A   2     -11.955  14.669  65.276  1.00  0.00    -0.354 OA 
HETATM   37  C   UNK A   2     -10.856  15.498  64.954  1.00  0.00    -0.427 C  
ENDBRANCH  27  36
ENDBRANCH  17  19
ENDBRANCH  15  17
ENDBRANCH   6  15
ENDBRANCH   4   6
ENDBRANCH   3   4
ENDBRANCH   2   3
TORSDOF 11
ENDMDL
MODEL      116
REMARK 921   NORMALIZED FREE ENERGY PREDICTED BY IDOCK:   -4.62 KCAL/MOL
REMARK 922        TOTAL FREE ENERGY PREDICTED BY IDOCK:   -9.49 KCAL/MOL
REMARK 923 INTER-LIGAND FREE ENERGY PREDICTED BY IDOCK:   -6.63 KCAL/MOL
REMARK 924 INTRA-LIGAND FREE ENERGY PREDICTED BY IDOCK:   -2.85 KCAL/MOL
REMARK 927      BINDING AFFINITY PREDICTED BY RF-SCORE:    0.00 PKD
ROOT
HETATM    1  C   UNK A   0     -11.423  15.417  71.088  1.00  0.00    -0.425 C  
HETATM    2  C   UNK A   0     -10.305  14.729  70.329  1.00  0.00     0.258 C  
ENDROOT
BRANCH   2   3
HETATM    3  O   UNK A   0      -9.546  15.723  69.633  1.00  0.00    -0.280 OA 
BRANCH   3   4
HETATM    4  C   UNK A   0      -8.261  15.399  69.309  1.00  0.00    -0.252 C  
HETATM    5  O   UNK A   0      -7.262  15.663  69.972  1.00  0.00    -0.058 OA 
BRANCH   4   6
HETATM    6  C   UNK A   0      -8.267  14.585  68.015  1.00  0.00    -0.145 C  
BRANCH   6   7
HETATM    7  C   UNK A   0      -6.906  13.913  67.821  1.00  0.00    -0.184 C  
BRANCH   7   8
HETATM    8  C   UNK A   0      -6.805  12.563  67.094  1.00  0.00    -0.058 C  
BRANCH   8   9
HETATM    9  C   UNK A   0      -6.479  11.416  68.065  1.00  0.00    -0.057 A  
HETATM   10  C   UNK A   0      -6.987  11.436  69.372  1.00  0.00    -0.092 A  
HETATM   11  C   UNK A   0      -6.796  10.341  70.234  1.00  0.00    -0.145 A  
HETATM   12  C   UNK A   0      -5.740  10.276  67.681  1.00  0.00    -0.045 A  
HETATM   13  C   UNK A   0      -6.104   9.209  69.805  1.00  0.00    -0.038 A  
HETATM   14  C   UNK A   0      -5.566   9.182  68.529  1.00  0.00    -0.041 A  
ENDBRANCH   8   9
ENDBRANCH   7   8
ENDBRANCH   6   7
BRANCH   6  15
ATOM     15  N   ALA A   1      -8.590  15.458  66.860  1.00  0.00    -0.239 NA 
ATOM     16  H   ALA A   1      -7.832  15.811  66.276  1.00  0.00     0.000 HD 
BRANCH  15  17
ATOM     17  CA  ALA A   1      -9.997  15.833  66.531  1.00  0.00    -0.269 C  
ATOM     18  CB  ALA A   1     -10.488  17.280  66.708  1.00  0.00    -0.261 C  
BRANCH  17  19
ATOM     19  C   ALA A   1     -10.611  15.142  65.270  1.00  0.00    -0.411 C  
ATOM     20  O   ALA A   1     -10.688  15.789  64.218  1.00  0.00    -0.225 OA 
HETATM   21  C   UNK A   2     -10.338  11.630  66.277  1.00  0.00    -0.273 A  
HETATM   22  C   UNK A   2     -10.167  10.858  67.434  1.00  0.00    -0.236 A  
HETATM   23  N   UNK A   2     -10.941  13.796  65.268  1.00  0.00    -0.310 N  
HETATM   24  C   UNK A   2      -9.536   9.628  67.371  1.00  0.00    -0.148 A  
HETATM   25  C   UNK A   2     -11.013  12.948  66.430  1.00  0.00    -0.285 C  
HETATM   26  O   UNK A   2     -13.150  12.503  62.653  1.00  0.00     0.273 OA 
HETATM   27  C   UNK A   2      -9.045   9.165  66.149  1.00  0.00    -0.187 A  
HETATM   28  C   UNK A   2      -9.226   9.939  64.984  1.00  0.00    -0.295 A  
HETATM   29  O   UNK A   2     -13.265  11.994  64.835  1.00  0.00    -0.222 OA 
HETATM   30  C   UNK A   2     -12.640  12.490  63.902  1.00  0.00    -0.387 C  
HETATM   31  C   UNK A   2      -9.905  11.162  65.037  1.00  0.00    -0.315 A  
HETATM   32  C   UNK A   2     -11.216  13.095  64.003  1.00  0.00    -0.379 C  
HETATM   33  C   UNK A   2     -10.138  12.006  63.803  1.00  0.00    -0.419 C  
BRANCH  24  34
HETATM   34  O   UNK A   2      -9.397   8.789  68.447  1.00  0.00    -0.137 OA 
HETATM   35  C   UNK A   2     -10.624   8.346  68.994  1.00  0.00    -0.154 C  
ENDBRANCH  24  34
BRANCH  27  36
HETATM   36  O   UNK A   2      -8.394   7.970  66.214  1.00  0.00    -0.109 OA 
HETATM   37  C   UNK A   2      -7.436   7.691  65.212  1.00  0.00    -0.083 C  
ENDBRANCH  27  36
ENDBRANCH  17  19
ENDBRANCH  15  17
ENDBRANCH   6  15
ENDBRANCH   4   6
ENDBRANCH   3   4
ENDBRANCH   2   3
TORSDOF 11
ENDMDL
MODEL      117
REMARK 921   NORMALIZED FREE ENERGY PREDICTED BY IDOCK:   -4.62 KCAL/MOL
REMARK 922        TOTAL FREE ENERGY PREDICTED BY IDOCK:   -9.49 KCAL/MOL
REMARK 923 INTER-LIGAND FREE ENERGY PREDICTED BY IDOCK:   -8.09 KCAL/MOL
REMARK 924 INTRA-LIGAND FREE ENERGY PREDICTED BY IDOCK:   -1.40 KCAL/MOL
REMARK 927      BINDING AFFINITY PREDICTED BY RF-SCORE:    0.00 PKD
ROOT
HETATM    1  C   UNK A   0     -12.275  13.467  63.770  1.00  0.00    -0.449 C  
HETATM    2  C   UNK A   0     -12.905  13.805  65.107  1.00  0.00    -0.340 C  
ENDROOT
BRANCH   2   3
HETATM    3  O   UNK A   0     -12.240  13.054  66.128  1.00  0.00    -0.422 OA 
BRANCH   3   4
HETATM    4  C   UNK A   0     -10.884  12.950  66.030  1.00  0.00    -0.279 C  
HETATM    5  O   UNK A   0     -10.271  12.133  65.349  1.00  0.00    -0.258 OA 
BRANCH   4   6
HETATM    6  C   UNK A   0     -10.241  14.069  66.849  1.00  0.00    -0.260 C  
BRANCH   6   7
HETATM    7  C   UNK A   0     -11.272  15.166  67.125  1.00  0.00    -0.320 C  
BRANCH   7   8
HETATM    8  C   UNK A   0     -11.077  16.137  68.300  1.00  0.00    -0.348 C  
BRANCH   8   9
HETATM    9  C   UNK A   0     -10.650  17.533  67.819  1.00  0.00    -0.375 A  
HETATM   10  C   UNK A   0     -10.033  18.425  68.709  1.00  0.00    -0.404 A  
HETATM   11  C   UNK A   0      -9.531  19.658  68.257  1.00  0.00    -0.453 A  
HETATM   12  C   UNK A   0     -10.777  17.951  66.477  1.00  0.00    -0.122 A  
HETATM   13  C   UNK A   0      -9.629  20.019  66.913  1.00  0.00    -0.541 A  
HETATM   14  C   UNK A   0     -10.263  19.167  66.024  1.00  0.00    -0.494 A  
ENDBRANCH   8   9
ENDBRANCH   7   8
ENDBRANCH   6   7
BRANCH   6  15
ATOM     15  N   ALA A   1      -9.066  14.623  66.131  1.00  0.00    -0.507 NA 
ATOM     16  H   ALA A   1      -9.131  14.789  65.127  1.00  0.00     0.000 HD 
BRANCH  15  17
ATOM     17  CA  ALA A   1      -7.794  14.943  66.841  1.00  0.00     0.030 C  
ATOM     18  CB  ALA A   1      -7.266  16.387  66.898  1.00  0.00    -0.266 C  
BRANCH  17  19
ATOM     19  C   ALA A   1      -7.537  14.159  68.169  1.00  0.00    -0.136 C  
ATOM     20  O   ALA A   1      -7.714  14.742  69.246  1.00  0.00    -0.153 OA 
HETATM   21  C   UNK A   2      -7.628  10.722  66.902  1.00  0.00    -0.123 A  
HETATM   22  C   UNK A   2      -7.517  10.024  65.692  1.00  0.00    -0.137 A  
HETATM   23  N   UNK A   2      -7.250  12.803  68.168  1.00  0.00    -0.102 N  
HETATM   24  C   UNK A   2      -8.172   8.819  65.515  1.00  0.00    -0.132 A  
HETATM   25  C   UNK A   2      -6.905  12.019  67.009  1.00  0.00    -0.097 C  
HETATM   26  O   UNK A   2      -5.809  11.280  71.166  1.00  0.00    -0.367 OA 
HETATM   27  C   UNK A   2      -8.968   8.306  66.541  1.00  0.00    -0.156 A  
HETATM   28  C   UNK A   2      -9.071   9.006  67.761  1.00  0.00    -0.143 A  
HETATM   29  O   UNK A   2      -5.155  10.890  69.055  1.00  0.00    -0.042 OA 
HETATM   30  C   UNK A   2      -5.985  11.357  69.831  1.00  0.00    -0.122 C  
HETATM   31  C   UNK A   2      -8.372  10.203  67.959  1.00  0.00    -0.117 A  
HETATM   32  C   UNK A   2      -7.322  12.021  69.413  1.00  0.00     0.222 C  
HETATM   33  C   UNK A   2      -8.441  10.966  69.264  1.00  0.00    -0.006 C  
BRANCH  24  34
HETATM   34  O   UNK A   2      -8.052   8.047  64.386  1.00  0.00    -0.148 OA 
HETATM   35  C   UNK A   2      -6.744   7.565  64.155  1.00  0.00    -0.052 C  
ENDBRANCH  24  34
BRANCH  27  36
HETATM   36  O   UNK A   2      -9.609   7.144  66.236  1.00  0.00    -0.139 OA 
HETATM   37  C   UNK A   2     -10.601   6.689  67.135  1.00  0.00    -0.331 C  
ENDBRANCH  27  36
ENDBRANCH  17  19
ENDBRANCH  15  17
ENDBRANCH   6  15
ENDBRANCH   4   6
ENDBRANCH   3   4
ENDBRANCH   2   3
TORSDOF 11
ENDMDL
MODEL      118
REMARK 921   NORMALIZED FREE ENERGY PREDICTED BY IDOCK:   -4.61 KCAL/MOL
REMARK 922        TOTAL FREE ENERGY PREDICTED BY IDOCK:   -9.48 KCAL/MOL
REMARK 923 INTER-LIGAND FREE ENERGY PREDICTED BY IDOCK:   -8.31 KCAL/MOL
REMARK 924 INTRA-LIGAND FREE ENERGY PREDICTED BY IDOCK:   -1.18 KCAL/MOL
REMARK 927      BINDING AFFINITY PREDICTED BY RF-SCORE:    0.00 PKD
ROOT
HETATM    1  C   UNK A   0     -12.280  13.672  63.964  1.00  0.00    -0.443 C  
HETATM    2  C   UNK A   0     -12.914  13.783  65.337  1.00  0.00    -0.312 C  
ENDROOT
BRANCH   2   3
HETATM    3  O   UNK A   0     -12.115  13.049  66.271  1.00  0.00    -0.409 OA 
BRANCH   3   4
HETATM    4  C   UNK A   0     -10.761  13.141  66.126  1.00  0.00    -0.278 C  
HETATM    5  O   UNK A   0     -10.097  12.634  65.227  1.00  0.00    -0.284 OA 
BRANCH   4   6
HETATM    6  C   UNK A   0     -10.206  14.044  67.227  1.00  0.00    -0.260 C  
BRANCH   6   7
HETATM    7  C   UNK A   0     -11.350  14.818  67.887  1.00  0.00    -0.331 C  
BRANCH   7   8
HETATM    8  C   UNK A   0     -11.140  15.503  69.246  1.00  0.00    -0.285 C  
BRANCH   8   9
HETATM    9  C   UNK A   0     -11.984  14.846  70.350  1.00  0.00    -0.368 A  
HETATM   10  C   UNK A   0     -12.746  15.641  71.220  1.00  0.00    -0.537 A  
HETATM   11  C   UNK A   0     -13.613  15.052  72.158  1.00  0.00    -0.530 A  
HETATM   12  C   UNK A   0     -12.099  13.446  70.494  1.00  0.00    -0.399 A  
HETATM   13  C   UNK A   0     -13.740  13.665  72.239  1.00  0.00    -0.687 A  
HETATM   14  C   UNK A   0     -12.973  12.862  71.412  1.00  0.00    -0.362 A  
ENDBRANCH   8   9
ENDBRANCH   7   8
ENDBRANCH   6   7
BRANCH   6  15
ATOM     15  N   ALA A   1      -9.196  14.976  66.667  1.00  0.00    -0.258 NA 
ATOM     16  H   ALA A   1      -9.479  15.640  65.946  1.00  0.00     0.000 HD 
BRANCH  15  17
ATOM     17  CA  ALA A   1      -7.779  14.967  67.133  1.00  0.00    -0.142 C  
ATOM     18  CB  ALA A   1      -6.930  16.249  67.098  1.00  0.00    -0.243 C  
BRANCH  17  19
ATOM     19  C   ALA A   1      -7.478  14.083  68.388  1.00  0.00    -0.119 C  
ATOM     20  O   ALA A   1      -7.582  14.594  69.510  1.00  0.00    -0.132 OA 
HETATM   21  C   UNK A   2      -7.737  10.749  66.891  1.00  0.00    -0.130 A  
HETATM   22  C   UNK A   2      -7.709  10.136  65.632  1.00  0.00    -0.143 A  
HETATM   23  N   UNK A   2      -7.232  12.724  68.277  1.00  0.00    -0.104 N  
HETATM   24  C   UNK A   2      -8.409   8.964  65.406  1.00  0.00    -0.148 A  
HETATM   25  C   UNK A   2      -6.971  12.016  67.050  1.00  0.00    -0.095 C  
HETATM   26  O   UNK A   2      -5.686  10.955  71.081  1.00  0.00    -0.301 OA 
HETATM   27  C   UNK A   2      -9.166   8.401  66.435  1.00  0.00    -0.201 A  
HETATM   28  C   UNK A   2      -9.185   9.015  67.705  1.00  0.00    -0.150 A  
HETATM   29  O   UNK A   2      -5.154  10.698  68.916  1.00  0.00    -0.042 OA 
HETATM   30  C   UNK A   2      -5.928  11.131  69.766  1.00  0.00    -0.095 C  
HETATM   31  C   UNK A   2      -8.442  10.176  67.948  1.00  0.00    -0.118 A  
HETATM   32  C   UNK A   2      -7.264  11.858  69.467  1.00  0.00     0.209 C  
HETATM   33  C   UNK A   2      -8.420  10.846  69.305  1.00  0.00    -0.006 C  
BRANCH  24  34
HETATM   34  O   UNK A   2      -8.370   8.272  64.222  1.00  0.00    -0.147 OA 
HETATM   35  C   UNK A   2      -7.080   7.825  63.858  1.00  0.00    -0.069 C  
ENDBRANCH  24  34
BRANCH  27  36
HETATM   36  O   UNK A   2      -9.857   7.281  66.085  1.00  0.00    -0.024 OA 
HETATM   37  C   UNK A   2     -10.703   6.703  67.059  1.00  0.00    -0.366 C  
ENDBRANCH  27  36
ENDBRANCH  17  19
ENDBRANCH  15  17
ENDBRANCH   6  15
ENDBRANCH   4   6
ENDBRANCH   3   4
ENDBRANCH   2   3
TORSDOF 11
ENDMDL
MODEL      119
REMARK 921   NORMALIZED FREE ENERGY PREDICTED BY IDOCK:   -4.61 KCAL/MOL
REMARK 922        TOTAL FREE ENERGY PREDICTED BY IDOCK:   -9.48 KCAL/MOL
REMARK 923 INTER-LIGAND FREE ENERGY PREDICTED BY IDOCK:   -8.04 KCAL/MOL
REMARK 924 INTRA-LIGAND FREE ENERGY PREDICTED BY IDOCK:   -1.44 KCAL/MOL
REMARK 927      BINDING AFFINITY PREDICTED BY RF-SCORE:    0.00 PKD
ROOT
HETATM    1  C   UNK A   0     -10.776  18.984  67.184  1.00  0.00    -0.541 C  
HETATM    2  C   UNK A   0      -9.629  18.239  66.529  1.00  0.00    -0.320 C  
ENDROOT
BRANCH   2   3
HETATM    3  O   UNK A   0      -9.974  16.853  66.444  1.00  0.00    -0.281 OA 
BRANCH   3   4
HETATM    4  C   UNK A   0      -9.790  16.103  67.569  1.00  0.00    -0.237 C  
HETATM    5  O   UNK A   0     -10.327  16.292  68.657  1.00  0.00    -0.238 OA 
BRANCH   4   6
HETATM    6  C   UNK A   0      -8.859  14.936  67.240  1.00  0.00    -0.201 C  
BRANCH   6   7
HETATM    7  C   UNK A   0      -7.421  15.443  67.110  1.00  0.00    -0.224 C  
BRANCH   7   8
HETATM    8  C   UNK A   0      -6.718  16.098  68.309  1.00  0.00    -0.127 C  
BRANCH   8   9
HETATM    9  C   UNK A   0      -6.549  17.613  68.112  1.00  0.00    -0.192 A  
HETATM   10  C   UNK A   0      -6.036  18.112  66.905  1.00  0.00    -0.176 A  
HETATM   11  C   UNK A   0      -5.986  19.497  66.664  1.00  0.00    -0.169 A  
HETATM   12  C   UNK A   0      -6.963  18.560  69.073  1.00  0.00    -0.286 A  
HETATM   13  C   UNK A   0      -6.450  20.404  67.617  1.00  0.00    -0.298 A  
HETATM   14  C   UNK A   0      -6.930  19.933  68.828  1.00  0.00    -0.352 A  
ENDBRANCH   8   9
ENDBRANCH   7   8
ENDBRANCH   6   7
BRANCH   6  15
ATOM     15  N   ALA A   1      -9.295  14.269  65.988  1.00  0.00    -0.521 NA 
ATOM     16  H   ALA A   1      -8.727  14.369  65.148  1.00  0.00     0.000 HD 
BRANCH  15  17
ATOM     17  CA  ALA A   1     -10.545  13.455  65.929  1.00  0.00    -0.283 C  
ATOM     18  CB  ALA A   1     -11.021  12.838  64.603  1.00  0.00    -0.355 C  
BRANCH  17  19
ATOM     19  C   ALA A   1     -10.809  12.520  67.154  1.00  0.00    -0.250 C  
ATOM     20  O   ALA A   1     -11.815  12.720  67.846  1.00  0.00    -0.351 OA 
HETATM   21  C   UNK A   2      -8.642   9.699  66.274  1.00  0.00    -0.137 A  
HETATM   22  C   UNK A   2      -7.555   9.404  65.442  1.00  0.00    -0.100 A  
HETATM   23  N   UNK A   2     -10.026  11.402  67.396  1.00  0.00    -0.185 N  
HETATM   24  C   UNK A   2      -7.378   8.124  64.945  1.00  0.00    -0.087 A  
HETATM   25  C   UNK A   2      -8.771  11.102  66.756  1.00  0.00    -0.157 C  
HETATM   26  O   UNK A   2     -10.141   9.823  70.695  1.00  0.00    -0.272 OA 
HETATM   27  C   UNK A   2      -8.305   7.127  65.257  1.00  0.00    -0.096 A  
HETATM   28  C   UNK A   2      -9.393   7.425  66.103  1.00  0.00    -0.111 A  
HETATM   29  O   UNK A   2      -8.286  10.220  69.496  1.00  0.00    -0.164 OA 
HETATM   30  C   UNK A   2      -9.511  10.153  69.549  1.00  0.00    -0.214 C  
HETATM   31  C   UNK A   2      -9.549   8.707  66.643  1.00  0.00    -0.285 A  
HETATM   32  C   UNK A   2     -10.469  10.371  68.349  1.00  0.00    -0.189 C  
HETATM   33  C   UNK A   2     -10.691   9.052  67.573  1.00  0.00    -0.239 C  
BRANCH  24  34
HETATM   34  O   UNK A   2      -6.301   7.747  64.184  1.00  0.00    -0.055 OA 
HETATM   35  C   UNK A   2      -6.234   8.385  62.925  1.00  0.00    -0.086 C  
ENDBRANCH  24  34
BRANCH  27  36
HETATM   36  O   UNK A   2      -8.062   5.923  64.669  1.00  0.00    -0.125 OA 
HETATM   37  C   UNK A   2      -8.702   4.787  65.216  1.00  0.00    -0.142 C  
ENDBRANCH  27  36
ENDBRANCH  17  19
ENDBRANCH  15  17
ENDBRANCH   6  15
ENDBRANCH   4   6
ENDBRANCH   3   4
ENDBRANCH   2   3
TORSDOF 11
ENDMDL
MODEL      120
REMARK 921   NORMALIZED FREE ENERGY PREDICTED BY IDOCK:   -4.59 KCAL/MOL
REMARK 922        TOTAL FREE ENERGY PREDICTED BY IDOCK:   -9.45 KCAL/MOL
REMARK 923 INTER-LIGAND FREE ENERGY PREDICTED BY IDOCK:   -7.96 KCAL/MOL
REMARK 924 INTRA-LIGAND FREE ENERGY PREDICTED BY IDOCK:   -1.49 KCAL/MOL
REMARK 927      BINDING AFFINITY PREDICTED BY RF-SCORE:    0.00 PKD
ROOT
HETATM    1  C   UNK A   0      -8.199  15.420  68.732  1.00  0.00    -0.172 C  
HETATM    2  C   UNK A   0      -7.196  14.508  68.052  1.00  0.00    -0.142 C  
ENDROOT
BRANCH   2   3
HETATM    3  O   UNK A   0      -7.907  13.591  67.214  1.00  0.00    -0.156 OA 
BRANCH   3   4
HETATM    4  C   UNK A   0      -8.084  12.328  67.697  1.00  0.00    -0.165 C  
HETATM    5  O   UNK A   0      -7.997  11.987  68.873  1.00  0.00    -0.061 OA 
BRANCH   4   6
HETATM    6  C   UNK A   0      -8.483  11.408  66.543  1.00  0.00    -0.170 C  
BRANCH   6   7
HETATM    7  C   UNK A   0      -9.820  11.867  65.956  1.00  0.00    -0.258 C  
BRANCH   7   8
HETATM    8  C   UNK A   0     -11.141  11.291  66.490  1.00  0.00    -0.280 C  
BRANCH   8   9
HETATM    9  C   UNK A   0     -11.567  11.967  67.802  1.00  0.00    -0.400 A  
HETATM   10  C   UNK A   0     -11.731  11.203  68.967  1.00  0.00    -0.408 A  
HETATM   11  C   UNK A   0     -12.005  11.821  70.200  1.00  0.00    -0.421 A  
HETATM   12  C   UNK A   0     -11.733  13.364  67.924  1.00  0.00    -0.396 A  
HETATM   13  C   UNK A   0     -12.113  13.209  70.293  1.00  0.00    -0.399 A  
HETATM   14  C   UNK A   0     -11.987  13.980  69.150  1.00  0.00    -0.400 A  
ENDBRANCH   8   9
ENDBRANCH   7   8
ENDBRANCH   6   7
BRANCH   6  15
ATOM     15  N   ALA A   1      -8.572  10.003  67.013  1.00  0.00    -0.125 NA 
ATOM     16  H   ALA A   1      -9.471   9.640  67.326  1.00  0.00     0.000 HD 
BRANCH  15  17
ATOM     17  CA  ALA A   1      -7.377   9.110  67.038  1.00  0.00    -0.090 C  
ATOM     18  CB  ALA A   1      -6.289   9.280  68.111  1.00  0.00    -0.054 C  
BRANCH  17  19
ATOM     19  C   ALA A   1      -7.638   7.609  66.682  1.00  0.00    -0.097 C  
ATOM     20  O   ALA A   1      -6.790   7.002  66.017  1.00  0.00    -0.054 OA 
HETATM   21  C   UNK A   2     -10.222   6.814  69.156  1.00  0.00    -0.195 A  
HETATM   22  C   UNK A   2     -11.141   7.464  69.990  1.00  0.00    -0.238 A  
HETATM   23  N   UNK A   2      -8.719   6.917  67.205  1.00  0.00    -0.119 N  
HETATM   24  C   UNK A   2     -11.533   6.888  71.186  1.00  0.00    -0.304 A  
HETATM   25  C   UNK A   2      -9.839   7.506  67.894  1.00  0.00    -0.154 C  
HETATM   26  O   UNK A   2      -9.739   3.764  65.654  1.00  0.00    -0.178 OA 
HETATM   27  C   UNK A   2     -10.990   5.662  71.574  1.00  0.00    -0.200 A  
HETATM   28  C   UNK A   2     -10.072   5.006  70.728  1.00  0.00    -0.307 A  
HETATM   29  O   UNK A   2     -11.120   5.396  66.335  1.00  0.00    -0.162 OA 
HETATM   30  C   UNK A   2      -9.997   4.900  66.333  1.00  0.00    -0.234 C  
HETATM   31  C   UNK A   2      -9.708   5.565  69.497  1.00  0.00    -0.218 A  
HETATM   32  C   UNK A   2      -8.779   5.448  67.121  1.00  0.00    -0.107 C  
HETATM   33  C   UNK A   2      -8.745   4.875  68.556  1.00  0.00    -0.106 C  
BRANCH  24  34
HETATM   34  O   UNK A   2     -12.480   7.432  72.016  1.00  0.00    -0.297 OA 
HETATM   35  C   UNK A   2     -12.250   8.788  72.342  1.00  0.00    -0.326 C  
ENDBRANCH  24  34
BRANCH  27  36
HETATM   36  O   UNK A   2     -11.404   5.218  72.792  1.00  0.00    -0.285 OA 
HETATM   37  C   UNK A   2     -10.457   5.208  73.842  1.00  0.00    -0.274 C  
ENDBRANCH  27  36
ENDBRANCH  17  19
ENDBRANCH  15  17
ENDBRANCH   6  15
ENDBRANCH   4   6
ENDBRANCH   3   4
ENDBRANCH   2   3
TORSDOF 11
ENDMDL
MODEL      121
REMARK 921   NORMALIZED FREE ENERGY PREDICTED BY IDOCK:   -4.54 KCAL/MOL
REMARK 922        TOTAL FREE ENERGY PREDICTED BY IDOCK:   -9.36 KCAL/MOL
REMARK 923 INTER-LIGAND FREE ENERGY PREDICTED BY IDOCK:   -7.23 KCAL/MOL
REMARK 924 INTRA-LIGAND FREE ENERGY PREDICTED BY IDOCK:   -2.13 KCAL/MOL
REMARK 927      BINDING AFFINITY PREDICTED BY RF-SCORE:    0.00 PKD
ROOT
HETATM    1  C   UNK A   0     -12.702  12.051  63.781  1.00  0.00    -0.516 C  
HETATM    2  C   UNK A   0     -12.435  12.804  65.070  1.00  0.00    -0.506 C  
ENDROOT
BRANCH   2   3
HETATM    3  O   UNK A   0     -12.243  11.855  66.123  1.00  0.00    -0.459 OA 
BRANCH   3   4
HETATM    4  C   UNK A   0     -10.957  11.487  66.392  1.00  0.00    -0.284 C  
HETATM    5  O   UNK A   0      -9.947  12.069  66.011  1.00  0.00    -0.223 OA 
BRANCH   4   6
HETATM    6  C   UNK A   0     -10.974  10.267  67.314  1.00  0.00    -0.210 C  
BRANCH   6   7
HETATM    7  C   UNK A   0     -10.689  10.703  68.753  1.00  0.00    -0.249 C  
BRANCH   7   8
HETATM    8  C   UNK A   0     -11.555  10.178  69.908  1.00  0.00    -0.290 C  
BRANCH   8   9
HETATM    9  C   UNK A   0     -10.707   9.482  70.985  1.00  0.00    -0.411 A  
HETATM   10  C   UNK A   0     -11.331   8.770  72.020  1.00  0.00    -0.441 A  
HETATM   11  C   UNK A   0     -10.570   8.031  72.944  1.00  0.00    -0.399 A  
HETATM   12  C   UNK A   0      -9.296   9.455  70.947  1.00  0.00    -0.263 A  
HETATM   13  C   UNK A   0      -9.179   7.985  72.847  1.00  0.00    -0.332 A  
HETATM   14  C   UNK A   0      -8.542   8.708  71.852  1.00  0.00    -0.231 A  
ENDBRANCH   8   9
ENDBRANCH   7   8
ENDBRANCH   6   7
BRANCH   6  15
ATOM     15  N   ALA A   1      -9.976   9.267  66.861  1.00  0.00    -0.213 NA 
ATOM     16  H   ALA A   1      -9.291   9.533  66.154  1.00  0.00     0.000 HD 
BRANCH  15  17
ATOM     17  CA  ALA A   1      -9.951   7.881  67.413  1.00  0.00    -0.198 C  
ATOM     18  CB  ALA A   1     -11.192   6.976  67.328  1.00  0.00    -0.155 C  
BRANCH  17  19
ATOM     19  C   ALA A   1      -8.618   7.088  67.210  1.00  0.00    -0.121 C  
ATOM     20  O   ALA A   1      -7.791   7.520  66.397  1.00  0.00    -0.094 OA 
HETATM   21  C   UNK A   2      -8.618   5.058  70.260  1.00  0.00    -0.116 A  
HETATM   22  C   UNK A   2      -9.504   4.615  71.250  1.00  0.00    -0.221 A  
HETATM   23  N   UNK A   2      -8.289   6.004  68.008  1.00  0.00    -0.116 N  
HETATM   24  C   UNK A   2      -9.052   4.361  72.533  1.00  0.00    -0.119 A  
HETATM   25  C   UNK A   2      -9.184   5.323  68.908  1.00  0.00    -0.118 C  
HETATM   26  O   UNK A   2      -5.656   3.714  66.909  1.00  0.00    -0.020 OA 
HETATM   27  C   UNK A   2      -7.708   4.572  72.848  1.00  0.00    -0.087 A  
HETATM   28  C   UNK A   2      -6.816   5.009  71.847  1.00  0.00    -0.053 A  
HETATM   29  O   UNK A   2      -7.623   3.114  67.808  1.00  0.00    -0.060 OA 
HETATM   30  C   UNK A   2      -6.799   3.993  67.569  1.00  0.00    -0.051 C  
HETATM   31  C   UNK A   2      -7.262   5.223  70.536  1.00  0.00    -0.065 A  
HETATM   32  C   UNK A   2      -6.916   5.472  68.018  1.00  0.00    -0.065 C  
HETATM   33  C   UNK A   2      -6.327   5.668  69.433  1.00  0.00    -0.037 C  
BRANCH  24  34
HETATM   34  O   UNK A   2      -9.846   3.859  73.533  1.00  0.00    -0.112 OA 
HETATM   35  C   UNK A   2     -11.156   4.390  73.550  1.00  0.00    -0.303 C  
ENDBRANCH  24  34
BRANCH  27  36
HETATM   36  O   UNK A   2      -7.387   4.345  74.152  1.00  0.00    -0.070 OA 
HETATM   37  C   UNK A   2      -6.062   3.945  74.439  1.00  0.00    -0.024 C  
ENDBRANCH  27  36
ENDBRANCH  17  19
ENDBRANCH  15  17
ENDBRANCH   6  15
ENDBRANCH   4   6
ENDBRANCH   3   4
ENDBRANCH   2   3
TORSDOF 11
ENDMDL
MODEL      122
REMARK 921   NORMALIZED FREE ENERGY PREDICTED BY IDOCK:   -4.53 KCAL/MOL
REMARK 922        TOTAL FREE ENERGY PREDICTED BY IDOCK:   -9.35 KCAL/MOL
REMARK 923 INTER-LIGAND FREE ENERGY PREDICTED BY IDOCK:   -8.52 KCAL/MOL
REMARK 924 INTRA-LIGAND FREE ENERGY PREDICTED BY IDOCK:   -0.83 KCAL/MOL
REMARK 927      BINDING AFFINITY PREDICTED BY RF-SCORE:    0.00 PKD
ROOT
HETATM    1  C   UNK A   0     -14.165  14.569  72.247  1.00  0.00    -0.563 C  
HETATM    2  C   UNK A   0     -13.482  13.249  71.945  1.00  0.00    -0.438 C  
ENDROOT
BRANCH   2   3
HETATM    3  O   UNK A   0     -12.243  13.518  71.280  1.00  0.00    -0.294 OA 
BRANCH   3   4
HETATM    4  C   UNK A   0     -12.053  12.917  70.070  1.00  0.00    -0.286 C  
HETATM    5  O   UNK A   0     -12.596  11.886  69.684  1.00  0.00     0.015 OA 
BRANCH   4   6
HETATM    6  C   UNK A   0     -11.104  13.777  69.235  1.00  0.00    -0.208 C  
BRANCH   6   7
HETATM    7  C   UNK A   0     -11.903  14.838  68.475  1.00  0.00    -0.340 C  
BRANCH   7   8
HETATM    8  C   UNK A   0     -11.644  16.332  68.729  1.00  0.00    -0.223 C  
BRANCH   8   9
HETATM    9  C   UNK A   0     -10.483  16.862  67.873  1.00  0.00    -0.344 A  
HETATM   10  C   UNK A   0      -9.851  18.067  68.212  1.00  0.00    -0.357 A  
HETATM   11  C   UNK A   0      -8.714  18.505  67.510  1.00  0.00    -0.272 A  
HETATM   12  C   UNK A   0      -9.953  16.146  66.777  1.00  0.00    -0.264 A  
HETATM   13  C   UNK A   0      -8.186  17.748  66.465  1.00  0.00    -0.300 A  
HETATM   14  C   UNK A   0      -8.814  16.571  66.092  1.00  0.00    -0.342 A  
ENDBRANCH   8   9
ENDBRANCH   7   8
ENDBRANCH   6   7
BRANCH   6  15
ATOM     15  N   ALA A   1     -10.334  12.926  68.294  1.00  0.00    -0.239 NA 
ATOM     16  H   ALA A   1      -9.321  12.867  68.393  1.00  0.00     0.000 HD 
BRANCH  15  17
ATOM     17  CA  ALA A   1     -11.005  12.157  67.206  1.00  0.00    -0.260 C  
ATOM     18  CB  ALA A   1     -11.849  12.875  66.138  1.00  0.00    -0.487 C  
BRANCH  17  19
ATOM     19  C   ALA A   1     -10.195  10.954  66.619  1.00  0.00    -0.234 C  
ATOM     20  O   ALA A   1      -9.674  11.079  65.505  1.00  0.00    -0.205 OA 
HETATM   21  C   UNK A   2      -9.621   9.026  69.682  1.00  0.00    -0.175 A  
HETATM   22  C   UNK A   2     -10.125   8.909  70.983  1.00  0.00    -0.324 A  
HETATM   23  N   UNK A   2      -9.939   9.817  67.369  1.00  0.00    -0.180 N  
HETATM   24  C   UNK A   2      -9.304   8.506  72.021  1.00  0.00    -0.283 A  
HETATM   25  C   UNK A   2     -10.564   9.480  68.623  1.00  0.00    -0.210 C  
HETATM   26  O   UNK A   2      -8.851   6.766  65.669  1.00  0.00    -0.125 OA 
HETATM   27  C   UNK A   2      -7.957   8.237  71.772  1.00  0.00    -0.128 A  
HETATM   28  C   UNK A   2      -7.453   8.346  70.460  1.00  0.00    -0.065 A  
HETATM   29  O   UNK A   2     -10.370   6.877  67.316  1.00  0.00    -0.193 OA 
HETATM   30  C   UNK A   2      -9.478   7.418  66.669  1.00  0.00    -0.187 C  
HETATM   31  C   UNK A   2      -8.293   8.710  69.400  1.00  0.00    -0.114 A  
HETATM   32  C   UNK A   2      -8.926   8.844  66.929  1.00  0.00    -0.128 C  
HETATM   33  C   UNK A   2      -7.790   8.813  67.976  1.00  0.00    -0.102 C  
BRANCH  24  34
HETATM   34  O   UNK A   2      -9.745   8.301  73.304  1.00  0.00    -0.227 OA 
HETATM   35  C   UNK A   2     -10.904   7.497  73.393  1.00  0.00    -0.285 C  
ENDBRANCH  24  34
BRANCH  27  36
HETATM   36  O   UNK A   2      -7.231   7.903  72.875  1.00  0.00    -0.078 OA 
HETATM   37  C   UNK A   2      -5.925   8.434  72.985  1.00  0.00    -0.077 C  
ENDBRANCH  27  36
ENDBRANCH  17  19
ENDBRANCH  15  17
ENDBRANCH   6  15
ENDBRANCH   4   6
ENDBRANCH   3   4
ENDBRANCH   2   3
TORSDOF 11
ENDMDL
MODEL      123
REMARK 921   NORMALIZED FREE ENERGY PREDICTED BY IDOCK:   -4.52 KCAL/MOL
REMARK 922        TOTAL FREE ENERGY PREDICTED BY IDOCK:   -9.34 KCAL/MOL
REMARK 923 INTER-LIGAND FREE ENERGY PREDICTED BY IDOCK:   -9.00 KCAL/MOL
REMARK 924 INTRA-LIGAND FREE ENERGY PREDICTED BY IDOCK:   -0.33 KCAL/MOL
REMARK 927      BINDING AFFINITY PREDICTED BY RF-SCORE:    0.00 PKD
ROOT
HETATM    1  C   UNK A   0     -10.071  19.965  66.048  1.00  0.00    -0.589 C  
HETATM    2  C   UNK A   0      -9.528  19.451  67.367  1.00  0.00    -0.316 C  
ENDROOT
BRANCH   2   3
HETATM    3  O   UNK A   0      -8.543  18.449  67.096  1.00  0.00    -0.253 OA 
BRANCH   3   4
HETATM    4  C   UNK A   0      -8.627  17.293  67.816  1.00  0.00    -0.225 C  
HETATM    5  O   UNK A   0      -8.931  17.204  69.002  1.00  0.00    -0.223 OA 
BRANCH   4   6
HETATM    6  C   UNK A   0      -8.352  16.110  66.888  1.00  0.00    -0.236 C  
BRANCH   6   7
HETATM    7  C   UNK A   0      -9.488  15.091  67.000  1.00  0.00    -0.240 C  
BRANCH   7   8
HETATM    8  C   UNK A   0     -10.819  15.329  66.271  1.00  0.00    -0.312 C  
BRANCH   8   9
HETATM    9  C   UNK A   0     -11.227  14.116  65.419  1.00  0.00    -0.325 A  
HETATM   10  C   UNK A   0     -12.524  13.593  65.517  1.00  0.00    -0.544 A  
HETATM   11  C   UNK A   0     -12.949  12.560  64.662  1.00  0.00    -0.176 A  
HETATM   12  C   UNK A   0     -10.369  13.530  64.464  1.00  0.00    -0.381 A  
HETATM   13  C   UNK A   0     -12.090  12.037  63.694  1.00  0.00    -0.627 A  
HETATM   14  C   UNK A   0     -10.795  12.518  63.603  1.00  0.00    -0.486 A  
ENDBRANCH   8   9
ENDBRANCH   7   8
ENDBRANCH   6   7
BRANCH   6  15
ATOM     15  N   ALA A   1      -7.050  15.484  67.224  1.00  0.00    -0.203 NA 
ATOM     16  H   ALA A   1      -6.192  15.888  66.847  1.00  0.00     0.000 HD 
BRANCH  15  17
ATOM     17  CA  ALA A   1      -6.964  14.279  68.099  1.00  0.00    -0.129 C  
ATOM     18  CB  ALA A   1      -7.898  14.116  69.310  1.00  0.00     0.142 C  
BRANCH  17  19
ATOM     19  C   ALA A   1      -6.689  12.923  67.369  1.00  0.00    -0.124 C  
ATOM     20  O   ALA A   1      -5.550  12.702  66.939  1.00  0.00    -0.326 OA 
HETATM   21  C   UNK A   2      -9.569  10.982  68.535  1.00  0.00    -0.187 A  
HETATM   22  C   UNK A   2     -10.835  11.180  69.102  1.00  0.00    -0.284 A  
HETATM   23  N   UNK A   2      -7.644  11.921  67.315  1.00  0.00    -0.146 N  
HETATM   24  C   UNK A   2     -11.391  10.222  69.931  1.00  0.00    -0.290 A  
HETATM   25  C   UNK A   2      -9.034  12.066  67.667  1.00  0.00    -0.172 C  
HETATM   26  O   UNK A   2      -7.259   9.216  64.881  1.00  0.00    -0.093 OA 
HETATM   27  C   UNK A   2     -10.674   9.059  70.222  1.00  0.00    -0.230 A  
HETATM   28  C   UNK A   2      -9.404   8.857  69.643  1.00  0.00    -0.163 A  
HETATM   29  O   UNK A   2      -9.170  10.295  65.350  1.00  0.00    -0.167 OA 
HETATM   30  C   UNK A   2      -8.006  10.039  65.645  1.00  0.00    -0.140 C  
HETATM   31  C   UNK A   2      -8.859   9.805  68.768  1.00  0.00    -0.129 A  
HETATM   32  C   UNK A   2      -7.273  10.554  66.911  1.00  0.00    -0.106 C  
HETATM   33  C   UNK A   2      -7.511   9.608  68.110  1.00  0.00    -0.082 C  
BRANCH  24  34
HETATM   34  O   UNK A   2     -12.652  10.316  70.463  1.00  0.00    -0.301 OA 
HETATM   35  C   UNK A   2     -12.770  11.273  71.496  1.00  0.00    -0.376 C  
ENDBRANCH  24  34
BRANCH  27  36
HETATM   36  O   UNK A   2     -11.293   8.213  71.091  1.00  0.00    -0.259 OA 
HETATM   37  C   UNK A   2     -11.233   6.829  70.812  1.00  0.00    -0.304 C  
ENDBRANCH  27  36
ENDBRANCH  17  19
ENDBRANCH  15  17
ENDBRANCH   6  15
ENDBRANCH   4   6
ENDBRANCH   3   4
ENDBRANCH   2   3
TORSDOF 11
ENDMDL
MODEL      124
REMARK 921   NORMALIZED FREE ENERGY PREDICTED BY IDOCK:   -4.52 KCAL/MOL
REMARK 922        TOTAL FREE ENERGY PREDICTED BY IDOCK:   -9.33 KCAL/MOL
REMARK 923 INTER-LIGAND FREE ENERGY PREDICTED BY IDOCK:   -8.39 KCAL/MOL
REMARK 924 INTRA-LIGAND FREE ENERGY PREDICTED BY IDOCK:   -0.93 KCAL/MOL
REMARK 927      BINDING AFFINITY PREDICTED BY RF-SCORE:    0.00 PKD
ROOT
HETATM    1  C   UNK A   0      -9.353  10.184  62.665  1.00  0.00    -0.322 C  
HETATM    2  C   UNK A   0      -9.833  11.590  62.967  1.00  0.00    -0.343 C  
ENDROOT
BRANCH   2   3
HETATM    3  O   UNK A   0     -10.757  11.531  64.058  1.00  0.00    -0.328 OA 
BRANCH   3   4
HETATM    4  C   UNK A   0     -10.315  10.947  65.208  1.00  0.00    -0.268 C  
HETATM    5  O   UNK A   0     -10.226   9.740  65.416  1.00  0.00    -0.246 OA 
BRANCH   4   6
HETATM    6  C   UNK A   0      -9.872  12.041  66.181  1.00  0.00    -0.235 C  
BRANCH   6   7
HETATM    7  C   UNK A   0     -10.493  13.378  65.771  1.00  0.00    -0.291 C  
BRANCH   7   8
HETATM    8  C   UNK A   0     -11.568  14.035  66.651  1.00  0.00    -0.400 C  
BRANCH   8   9
HETATM    9  C   UNK A   0     -11.018  15.259  67.402  1.00  0.00    -0.321 A  
HETATM   10  C   UNK A   0     -11.548  15.615  68.651  1.00  0.00    -0.391 A  
HETATM   11  C   UNK A   0     -10.979  16.658  69.402  1.00  0.00    -0.235 A  
HETATM   12  C   UNK A   0      -9.929  16.022  66.927  1.00  0.00    -0.255 A  
HETATM   13  C   UNK A   0      -9.871  17.359  68.925  1.00  0.00    -0.286 A  
HETATM   14  C   UNK A   0      -9.352  17.045  67.679  1.00  0.00    -0.241 A  
ENDBRANCH   8   9
ENDBRANCH   7   8
ENDBRANCH   6   7
BRANCH   6  15
ATOM     15  N   ALA A   1      -8.391  12.136  66.207  1.00  0.00    -0.389 NA 
ATOM     16  H   ALA A   1      -7.904  12.521  65.398  1.00  0.00     0.000 HD 
BRANCH  15  17
ATOM     17  CA  ALA A   1      -7.598  11.683  67.387  1.00  0.00    -0.139 C  
ATOM     18  CB  ALA A   1      -7.906  12.220  68.795  1.00  0.00     0.006 C  
BRANCH  17  19
ATOM     19  C   ALA A   1      -7.191  10.173  67.398  1.00  0.00    -0.088 C  
ATOM     20  O   ALA A   1      -6.081   9.857  66.953  1.00  0.00    -0.060 OA 
HETATM   21  C   UNK A   2      -9.602   8.885  69.838  1.00  0.00    -0.185 A  
HETATM   22  C   UNK A   2     -10.819   9.244  70.431  1.00  0.00    -0.302 A  
HETATM   23  N   UNK A   2      -7.979   9.213  68.012  1.00  0.00    -0.100 N  
HETATM   24  C   UNK A   2     -11.132   8.809  71.707  1.00  0.00    -0.347 A  
HETATM   25  C   UNK A   2      -9.332   9.405  68.469  1.00  0.00    -0.138 C  
HETATM   26  O   UNK A   2      -7.426   5.682  67.228  1.00  0.00    -0.082 OA 
HETATM   27  C   UNK A   2     -10.218   8.028  72.416  1.00  0.00    -0.280 A  
HETATM   28  C   UNK A   2      -8.998   7.660  71.813  1.00  0.00    -0.145 A  
HETATM   29  O   UNK A   2      -9.424   6.687  67.405  1.00  0.00    -0.126 OA 
HETATM   30  C   UNK A   2      -8.211   6.717  67.591  1.00  0.00    -0.119 C  
HETATM   31  C   UNK A   2      -8.698   8.061  70.505  1.00  0.00    -0.135 A  
HETATM   32  C   UNK A   2      -7.443   7.870  68.288  1.00  0.00    -0.104 C  
HETATM   33  C   UNK A   2      -7.408   7.664  69.820  1.00  0.00    -0.081 C  
BRANCH  24  34
HETATM   34  O   UNK A   2     -12.333   9.062  72.323  1.00  0.00    -0.364 OA 
HETATM   35  C   UNK A   2     -13.258   9.760  71.514  1.00  0.00    -0.404 C  
ENDBRANCH  24  34
BRANCH  27  36
HETATM   36  O   UNK A   2     -10.607   7.705  73.681  1.00  0.00    -0.306 OA 
HETATM   37  C   UNK A   2     -10.224   6.439  74.180  1.00  0.00    -0.343 C  
ENDBRANCH  27  36
ENDBRANCH  17  19
ENDBRANCH  15  17
ENDBRANCH   6  15
ENDBRANCH   4   6
ENDBRANCH   3   4
ENDBRANCH   2   3
TORSDOF 11
ENDMDL
MODEL      125
REMARK 921   NORMALIZED FREE ENERGY PREDICTED BY IDOCK:   -4.51 KCAL/MOL
REMARK 922        TOTAL FREE ENERGY PREDICTED BY IDOCK:   -9.31 KCAL/MOL
REMARK 923 INTER-LIGAND FREE ENERGY PREDICTED BY IDOCK:   -7.69 KCAL/MOL
REMARK 924 INTRA-LIGAND FREE ENERGY PREDICTED BY IDOCK:   -1.62 KCAL/MOL
REMARK 927      BINDING AFFINITY PREDICTED BY RF-SCORE:    0.00 PKD
ROOT
HETATM    1  C   UNK A   0      -6.311   8.613  71.592  1.00  0.00    -0.069 C  
HETATM    2  C   UNK A   0      -5.817   9.967  71.122  1.00  0.00    -0.058 C  
ENDROOT
BRANCH   2   3
HETATM    3  O   UNK A   0      -6.858  10.597  70.368  1.00  0.00    -0.280 OA 
BRANCH   3   4
HETATM    4  C   UNK A   0      -6.520  11.723  69.677  1.00  0.00    -0.113 C  
HETATM    5  O   UNK A   0      -5.739  12.592  70.052  1.00  0.00    -0.111 OA 
BRANCH   4   6
HETATM    6  C   UNK A   0      -7.217  11.696  68.316  1.00  0.00    -0.085 C  
BRANCH   6   7
HETATM    7  C   UNK A   0      -8.404  12.662  68.323  1.00  0.00    -0.165 C  
BRANCH   7   8
HETATM    8  C   UNK A   0      -9.831  12.138  68.101  1.00  0.00    -0.207 C  
BRANCH   8   9
HETATM    9  C   UNK A   0     -10.426  12.651  66.780  1.00  0.00    -0.254 A  
HETATM   10  C   UNK A   0     -11.622  12.106  66.289  1.00  0.00    -0.424 A  
HETATM   11  C   UNK A   0     -12.240  12.644  65.146  1.00  0.00    -0.539 A  
HETATM   12  C   UNK A   0      -9.862  13.720  66.051  1.00  0.00    -0.298 A  
HETATM   13  C   UNK A   0     -11.681  13.734  64.479  1.00  0.00    -0.432 A  
HETATM   14  C   UNK A   0     -10.484  14.266  64.928  1.00  0.00    -0.454 A  
ENDBRANCH   8   9
ENDBRANCH   7   8
ENDBRANCH   6   7
BRANCH   6  15
ATOM     15  N   ALA A   1      -7.664  10.317  67.995  1.00  0.00    -0.088 NA 
ATOM     16  H   ALA A   1      -7.999   9.716  68.748  1.00  0.00     0.000 HD 
BRANCH  15  17
ATOM     17  CA  ALA A   1      -7.636   9.790  66.600  1.00  0.00    -0.098 C  
ATOM     18  CB  ALA A   1      -6.582  10.282  65.593  1.00  0.00    -0.122 C  
BRANCH  17  19
ATOM     19  C   ALA A   1      -7.953   8.267  66.438  1.00  0.00    -0.096 C  
ATOM     20  O   ALA A   1      -7.198   7.576  65.743  1.00  0.00    -0.064 OA 
HETATM   21  C   UNK A   2     -10.225   7.790  69.273  1.00  0.00    -0.211 A  
HETATM   22  C   UNK A   2     -11.030   8.542  70.138  1.00  0.00    -0.221 A  
HETATM   23  N   UNK A   2      -8.969   7.657  67.156  1.00  0.00    -0.123 N  
HETATM   24  C   UNK A   2     -11.279   8.102  71.426  1.00  0.00    -0.254 A  
HETATM   25  C   UNK A   2      -9.991   8.339  67.909  1.00  0.00    -0.183 C  
HETATM   26  O   UNK A   2     -10.200   4.385  66.078  1.00  0.00    -0.244 OA 
HETATM   27  C   UNK A   2     -10.705   6.910  71.873  1.00  0.00    -0.218 A  
HETATM   28  C   UNK A   2      -9.902   6.150  70.997  1.00  0.00    -0.213 A  
HETATM   29  O   UNK A   2     -11.473   6.109  66.745  1.00  0.00    -0.044 OA 
HETATM   30  C   UNK A   2     -10.363   5.590  66.660  1.00  0.00    -0.269 C  
HETATM   31  C   UNK A   2      -9.686   6.570  69.679  1.00  0.00    -0.167 A  
HETATM   32  C   UNK A   2      -9.053   6.189  67.235  1.00  0.00    -0.115 C  
HETATM   33  C   UNK A   2      -8.851   5.766  68.707  1.00  0.00    -0.110 C  
BRANCH  24  34
HETATM   34  O   UNK A   2     -12.113   8.749  72.303  1.00  0.00    -0.366 OA 
HETATM   35  C   UNK A   2     -13.446   8.869  71.848  1.00  0.00    -0.414 C  
ENDBRANCH  24  34
BRANCH  27  36
HETATM   36  O   UNK A   2     -10.972   6.603  73.172  1.00  0.00    -0.266 OA 
HETATM   37  C   UNK A   2      -9.976   6.897  74.132  1.00  0.00    -0.316 C  
ENDBRANCH  27  36
ENDBRANCH  17  19
ENDBRANCH  15  17
ENDBRANCH   6  15
ENDBRANCH   4   6
ENDBRANCH   3   4
ENDBRANCH   2   3
TORSDOF 11
ENDMDL
MODEL      126
REMARK 921   NORMALIZED FREE ENERGY PREDICTED BY IDOCK:   -4.50 KCAL/MOL
REMARK 922        TOTAL FREE ENERGY PREDICTED BY IDOCK:   -9.31 KCAL/MOL
REMARK 923 INTER-LIGAND FREE ENERGY PREDICTED BY IDOCK:   -6.41 KCAL/MOL
REMARK 924 INTRA-LIGAND FREE ENERGY PREDICTED BY IDOCK:   -2.90 KCAL/MOL
REMARK 927      BINDING AFFINITY PREDICTED BY RF-SCORE:    0.00 PKD
ROOT
HETATM    1  C   UNK A   0      -7.632   1.471  66.627  1.00  0.00    -0.060 C  
HETATM    2  C   UNK A   0      -8.913   2.280  66.556  1.00  0.00    -0.112 C  
ENDROOT
BRANCH   2   3
HETATM    3  O   UNK A   0      -8.623   3.544  65.951  1.00  0.00    -0.109 OA 
BRANCH   3   4
HETATM    4  C   UNK A   0      -9.582   4.508  66.052  1.00  0.00    -0.189 C  
HETATM    5  O   UNK A   0     -10.584   4.604  65.350  1.00  0.00    -0.229 OA 
BRANCH   4   6
HETATM    6  C   UNK A   0      -9.249   5.415  67.237  1.00  0.00    -0.111 C  
BRANCH   6   7
HETATM    7  C   UNK A   0      -9.427   6.880  66.832  1.00  0.00    -0.194 C  
BRANCH   7   8
HETATM    8  C   UNK A   0     -10.568   7.717  67.433  1.00  0.00    -0.345 C  
BRANCH   8   9
HETATM    9  C   UNK A   0     -10.308   9.225  67.281  1.00  0.00    -0.332 A  
HETATM   10  C   UNK A   0     -11.359  10.139  67.440  1.00  0.00     0.132 A  
HETATM   11  C   UNK A   0     -11.115  11.525  67.421  1.00  0.00    -0.339 A  
HETATM   12  C   UNK A   0      -9.020   9.760  67.058  1.00  0.00    -0.152 A  
HETATM   13  C   UNK A   0      -9.822  12.019  67.249  1.00  0.00    -0.200 A  
HETATM   14  C   UNK A   0      -8.775  11.133  67.057  1.00  0.00    -0.148 A  
ENDBRANCH   8   9
ENDBRANCH   7   8
ENDBRANCH   6   7
BRANCH   6  15
ATOM     15  N   ALA A   1      -7.862   5.164  67.702  1.00  0.00    -0.095 NA 
ATOM     16  H   ALA A   1      -7.115   5.082  67.014  1.00  0.00     0.000 HD 
BRANCH  15  17
ATOM     17  CA  ALA A   1      -7.536   5.030  69.151  1.00  0.00    -0.061 C  
ATOM     18  CB  ALA A   1      -6.943   3.723  69.707  1.00  0.00    -0.042 C  
BRANCH  17  19
ATOM     19  C   ALA A   1      -6.932   6.300  69.837  1.00  0.00    -0.066 C  
ATOM     20  O   ALA A   1      -5.802   6.673  69.501  1.00  0.00    -0.014 OA 
HETATM   21  C   UNK A   2      -9.988   7.793  71.201  1.00  0.00    -0.194 A  
HETATM   22  C   UNK A   2     -11.304   7.435  71.519  1.00  0.00    -0.285 A  
HETATM   23  N   UNK A   2      -7.681   7.082  70.701  1.00  0.00    -0.094 N  
HETATM   24  C   UNK A   2     -12.319   8.373  71.464  1.00  0.00    -0.309 A  
HETATM   25  C   UNK A   2      -8.955   6.722  71.270  1.00  0.00    -0.139 C  
HETATM   26  O   UNK A   2      -5.967   9.449  72.903  1.00  0.00    -0.300 OA 
HETATM   27  C   UNK A   2     -12.032   9.680  71.066  1.00  0.00    -0.343 A  
HETATM   28  C   UNK A   2     -10.705  10.041  70.756  1.00  0.00    -0.272 A  
HETATM   29  O   UNK A   2      -7.658   8.098  73.495  1.00  0.00    -0.143 OA 
HETATM   30  C   UNK A   2      -6.981   8.611  72.607  1.00  0.00     0.031 C  
HETATM   31  C   UNK A   2      -9.668   9.104  70.855  1.00  0.00    -0.352 A  
HETATM   32  C   UNK A   2      -7.217   8.426  71.086  1.00  0.00    -0.068 C  
HETATM   33  C   UNK A   2      -8.230   9.464  70.553  1.00  0.00    -0.221 C  
BRANCH  24  34
HETATM   34  O   UNK A   2     -13.616   8.112  71.829  1.00  0.00    -0.345 OA 
HETATM   35  C   UNK A   2     -13.966   6.744  71.772  1.00  0.00    -0.049 C  
ENDBRANCH  24  34
BRANCH  27  36
HETATM   36  O   UNK A   2     -13.115  10.503  70.995  1.00  0.00    -0.377 OA 
HETATM   37  C   UNK A   2     -13.342  11.382  72.079  1.00  0.00    -0.283 C  
ENDBRANCH  27  36
ENDBRANCH  17  19
ENDBRANCH  15  17
ENDBRANCH   6  15
ENDBRANCH   4   6
ENDBRANCH   3   4
ENDBRANCH   2   3
TORSDOF 11
ENDMDL
MODEL      127
REMARK 921   NORMALIZED FREE ENERGY PREDICTED BY IDOCK:   -4.50 KCAL/MOL
REMARK 922        TOTAL FREE ENERGY PREDICTED BY IDOCK:   -9.30 KCAL/MOL
REMARK 923 INTER-LIGAND FREE ENERGY PREDICTED BY IDOCK:   -7.87 KCAL/MOL
REMARK 924 INTRA-LIGAND FREE ENERGY PREDICTED BY IDOCK:   -1.43 KCAL/MOL
REMARK 927      BINDING AFFINITY PREDICTED BY RF-SCORE:    0.00 PKD
ROOT
HETATM    1  C   UNK A   0     -10.843   9.049  71.702  1.00  0.00    -0.437 C  
HETATM    2  C   UNK A   0     -11.417  10.118  70.793  1.00  0.00    -0.357 C  
ENDROOT
BRANCH   2   3
HETATM    3  O   UNK A   0     -11.154   9.753  69.435  1.00  0.00    -0.227 OA 
BRANCH   3   4
HETATM    4  C   UNK A   0     -11.168  10.759  68.514  1.00  0.00    -0.279 C  
HETATM    5  O   UNK A   0     -12.134  11.106  67.841  1.00  0.00    -0.627 OA 
BRANCH   4   6
HETATM    6  C   UNK A   0      -9.801  11.443  68.506  1.00  0.00    -0.198 C  
BRANCH   6   7
HETATM    7  C   UNK A   0      -9.948  12.889  68.027  1.00  0.00    -0.236 C  
BRANCH   7   8
HETATM    8  C   UNK A   0      -9.305  13.337  66.705  1.00  0.00    -0.254 C  
BRANCH   8   9
HETATM    9  C   UNK A   0     -10.259  13.147  65.515  1.00  0.00    -0.297 A  
HETATM   10  C   UNK A   0     -10.304  11.919  64.839  1.00  0.00    -0.328 A  
HETATM   11  C   UNK A   0     -11.253  11.691  63.826  1.00  0.00    -0.498 A  
HETATM   12  C   UNK A   0     -11.172  14.141  65.101  1.00  0.00    -0.337 A  
HETATM   13  C   UNK A   0     -12.174  12.678  63.476  1.00  0.00    -0.638 A  
HETATM   14  C   UNK A   0     -12.126  13.909  64.109  1.00  0.00    -0.464 A  
ENDBRANCH   8   9
ENDBRANCH   7   8
ENDBRANCH   6   7
BRANCH   6  15
ATOM     15  N   ALA A   1      -8.858  10.696  67.637  1.00  0.00    -0.131 NA 
ATOM     16  H   ALA A   1      -8.934  10.791  66.625  1.00  0.00     0.000 HD 
BRANCH  15  17
ATOM     17  CA  ALA A   1      -7.802   9.810  68.208  1.00  0.00    -0.089 C  
ATOM     18  CB  ALA A   1      -7.686   9.600  69.727  1.00  0.00    -0.133 C  
BRANCH  17  19
ATOM     19  C   ALA A   1      -7.491   8.508  67.398  1.00  0.00    -0.093 C  
ATOM     20  O   ALA A   1      -6.599   8.542  66.541  1.00  0.00    -0.058 OA 
HETATM   21  C   UNK A   2      -9.062   6.018  69.580  1.00  0.00    -0.141 A  
HETATM   22  C   UNK A   2     -10.005   5.943  70.612  1.00  0.00    -0.242 A  
HETATM   23  N   UNK A   2      -8.092   7.299  67.711  1.00  0.00    -0.114 N  
HETATM   24  C   UNK A   2      -9.918   4.951  71.573  1.00  0.00    -0.194 A  
HETATM   25  C   UNK A   2      -9.216   7.123  68.594  1.00  0.00    -0.135 C  
HETATM   26  O   UNK A   2      -8.002   4.578  65.266  1.00  0.00    -0.096 OA 
HETATM   27  C   UNK A   2      -8.867   4.033  71.525  1.00  0.00    -0.108 A  
HETATM   28  C   UNK A   2      -7.923   4.104  70.479  1.00  0.00    -0.055 A  
HETATM   29  O   UNK A   2      -9.784   5.183  66.488  1.00  0.00    -0.143 OA 
HETATM   30  C   UNK A   2      -8.575   5.251  66.285  1.00  0.00    -0.116 C  
HETATM   31  C   UNK A   2      -8.036   5.079  69.481  1.00  0.00    -0.078 A  
HETATM   32  C   UNK A   2      -7.566   6.038  67.161  1.00  0.00    -0.092 C  
HETATM   33  C   UNK A   2      -7.055   5.169  68.332  1.00  0.00    -0.062 C  
BRANCH  24  34
HETATM   34  O   UNK A   2     -10.844   4.774  72.570  1.00  0.00    -0.201 OA 
HETATM   35  C   UNK A   2     -10.634   5.593  73.702  1.00  0.00    -0.280 C  
ENDBRANCH  24  34
BRANCH  27  36
HETATM   36  O   UNK A   2      -8.848   3.137  72.550  1.00  0.00    -0.082 OA 
HETATM   37  C   UNK A   2      -8.312   1.855  72.290  1.00  0.00    -0.053 C  
ENDBRANCH  27  36
ENDBRANCH  17  19
ENDBRANCH  15  17
ENDBRANCH   6  15
ENDBRANCH   4   6
ENDBRANCH   3   4
ENDBRANCH   2   3
TORSDOF 11
ENDMDL
MODEL      128
REMARK 921   NORMALIZED FREE ENERGY PREDICTED BY IDOCK:   -4.50 KCAL/MOL
REMARK 922        TOTAL FREE ENERGY PREDICTED BY IDOCK:   -9.30 KCAL/MOL
REMARK 923 INTER-LIGAND FREE ENERGY PREDICTED BY IDOCK:   -8.40 KCAL/MOL
REMARK 924 INTRA-LIGAND FREE ENERGY PREDICTED BY IDOCK:   -0.90 KCAL/MOL
REMARK 927      BINDING AFFINITY PREDICTED BY RF-SCORE:    0.00 PKD
ROOT
HETATM    1  C   UNK A   0     -10.323  20.213  67.099  1.00  0.00    -0.501 C  
HETATM    2  C   UNK A   0     -10.057  19.598  65.739  1.00  0.00    -0.292 C  
ENDROOT
BRANCH   2   3
HETATM    3  O   UNK A   0     -10.653  18.297  65.701  1.00  0.00    -0.614 OA 
BRANCH   3   4
HETATM    4  C   UNK A   0     -10.420  17.484  66.772  1.00  0.00    -0.270 C  
HETATM    5  O   UNK A   0     -10.926  17.595  67.884  1.00  0.00    -0.316 OA 
BRANCH   4   6
HETATM    6  C   UNK A   0      -9.479  16.358  66.342  1.00  0.00    -0.293 C  
BRANCH   6   7
HETATM    7  C   UNK A   0      -8.068  16.913  66.138  1.00  0.00    -0.295 C  
BRANCH   7   8
HETATM    8  C   UNK A   0      -7.422  17.804  67.211  1.00  0.00    -0.214 C  
BRANCH   8   9
HETATM    9  C   UNK A   0      -6.718  16.971  68.294  1.00  0.00    -0.158 A  
HETATM   10  C   UNK A   0      -5.856  17.592  69.209  1.00  0.00    -0.215 A  
HETATM   11  C   UNK A   0      -5.297  16.866  70.276  1.00  0.00    -0.213 A  
HETATM   12  C   UNK A   0      -6.956  15.590  68.471  1.00  0.00    -0.114 A  
HETATM   13  C   UNK A   0      -5.593  15.514  70.451  1.00  0.00    -0.139 A  
HETATM   14  C   UNK A   0      -6.417  14.874  69.540  1.00  0.00    -0.143 A  
ENDBRANCH   8   9
ENDBRANCH   7   8
ENDBRANCH   6   7
BRANCH   6  15
ATOM     15  N   ALA A   1      -9.977  15.718  65.099  1.00  0.00    -0.389 NA 
ATOM     16  H   ALA A   1      -9.760  16.147  64.199  1.00  0.00     0.000 HD 
BRANCH  15  17
ATOM     17  CA  ALA A   1     -10.786  14.465  65.132  1.00  0.00    -0.398 C  
ATOM     18  CB  ALA A   1     -10.205  13.139  64.612  1.00  0.00    -0.327 C  
BRANCH  17  19
ATOM     19  C   ALA A   1     -11.689  14.269  66.394  1.00  0.00    -0.391 C  
ATOM     20  O   ALA A   1     -12.901  14.499  66.295  1.00  0.00    -0.086 OA 
HETATM   21  C   UNK A   2      -9.485  12.167  68.430  1.00  0.00    -0.179 A  
HETATM   22  C   UNK A   2      -8.133  11.813  68.527  1.00  0.00    -0.140 A  
HETATM   23  N   UNK A   2     -11.192  13.720  67.565  1.00  0.00    -0.284 N  
HETATM   24  C   UNK A   2      -7.766  10.576  69.027  1.00  0.00    -0.125 A  
HETATM   25  C   UNK A   2      -9.799  13.509  67.867  1.00  0.00    -0.235 C  
HETATM   26  O   UNK A   2     -13.086  14.122  70.669  1.00  0.00    -0.292 OA 
HETATM   27  C   UNK A   2      -8.751   9.667  69.416  1.00  0.00    -0.171 A  
HETATM   28  C   UNK A   2     -10.111  10.030  69.328  1.00  0.00    -0.226 A  
HETATM   29  O   UNK A   2     -10.865  14.357  70.450  1.00  0.00     0.059 OA 
HETATM   30  C   UNK A   2     -11.935  13.976  69.982  1.00  0.00    -0.339 C  
HETATM   31  C   UNK A   2     -10.484  11.297  68.864  1.00  0.00    -0.232 A  
HETATM   32  C   UNK A   2     -12.106  13.254  68.620  1.00  0.00    -0.222 C  
HETATM   33  C   UNK A   2     -11.932  11.727  68.779  1.00  0.00    -0.317 C  
BRANCH  24  34
HETATM   34  O   UNK A   2      -6.463  10.189  69.216  1.00  0.00    -0.044 OA 
HETATM   35  C   UNK A   2      -5.516  11.204  68.947  1.00  0.00    -0.040 C  
ENDBRANCH  24  34
BRANCH  27  36
HETATM   36  O   UNK A   2      -8.277   8.462  69.840  1.00  0.00    -0.116 OA 
HETATM   37  C   UNK A   2      -8.245   7.405  68.902  1.00  0.00    -0.129 C  
ENDBRANCH  27  36
ENDBRANCH  17  19
ENDBRANCH  15  17
ENDBRANCH   6  15
ENDBRANCH   4   6
ENDBRANCH   3   4
ENDBRANCH   2   3
TORSDOF 11
ENDMDL
MODEL      129
REMARK 921   NORMALIZED FREE ENERGY PREDICTED BY IDOCK:   -4.48 KCAL/MOL
REMARK 922        TOTAL FREE ENERGY PREDICTED BY IDOCK:   -9.26 KCAL/MOL
REMARK 923 INTER-LIGAND FREE ENERGY PREDICTED BY IDOCK:   -8.10 KCAL/MOL
REMARK 924 INTRA-LIGAND FREE ENERGY PREDICTED BY IDOCK:   -1.16 KCAL/MOL
REMARK 927      BINDING AFFINITY PREDICTED BY RF-SCORE:    0.00 PKD
ROOT
HETATM    1  C   UNK A   0      -6.439  14.277  68.963  1.00  0.00    -0.100 C  
HETATM    2  C   UNK A   0      -6.442  13.613  67.599  1.00  0.00    -0.153 C  
ENDROOT
BRANCH   2   3
HETATM    3  O   UNK A   0      -7.786  13.251  67.270  1.00  0.00    -0.165 OA 
BRANCH   3   4
HETATM    4  C   UNK A   0      -8.236  12.056  67.750  1.00  0.00    -0.151 C  
HETATM    5  O   UNK A   0      -9.102  11.903  68.606  1.00  0.00    -0.144 OA 
BRANCH   4   6
HETATM    6  C   UNK A   0      -7.538  10.925  66.995  1.00  0.00    -0.122 C  
BRANCH   6   7
HETATM    7  C   UNK A   0      -8.250  10.676  65.663  1.00  0.00    -0.154 C  
BRANCH   7   8
HETATM    8  C   UNK A   0      -9.708  10.192  65.642  1.00  0.00    -0.322 C  
BRANCH   8   9
HETATM    9  C   UNK A   0     -10.659  11.271  65.100  1.00  0.00    -0.343 A  
HETATM   10  C   UNK A   0     -11.346  12.113  65.987  1.00  0.00    -0.410 A  
HETATM   11  C   UNK A   0     -12.127  13.179  65.506  1.00  0.00    -0.490 A  
HETATM   12  C   UNK A   0     -10.826  11.519  63.720  1.00  0.00    -0.486 A  
HETATM   13  C   UNK A   0     -12.230  13.427  64.137  1.00  0.00    -0.457 A  
HETATM   14  C   UNK A   0     -11.586  12.588  63.243  1.00  0.00    -0.445 A  
ENDBRANCH   8   9
ENDBRANCH   7   8
ENDBRANCH   6   7
BRANCH   6  15
ATOM     15  N   ALA A   1      -7.520   9.691  67.818  1.00  0.00    -0.087 NA 
ATOM     16  H   ALA A   1      -8.139   9.623  68.626  1.00  0.00     0.000 HD 
BRANCH  15  17
ATOM     17  CA  ALA A   1      -6.620   8.546  67.494  1.00  0.00    -0.058 C  
ATOM     18  CB  ALA A   1      -5.377   8.255  68.352  1.00  0.00    -0.033 C  
BRANCH  17  19
ATOM     19  C   ALA A   1      -7.324   7.241  66.998  1.00  0.00    -0.093 C  
ATOM     20  O   ALA A   1      -6.711   6.493  66.227  1.00  0.00    -0.050 OA 
HETATM   21  C   UNK A   2      -9.974   6.959  69.513  1.00  0.00    -0.171 A  
HETATM   22  C   UNK A   2     -10.639   7.749  70.460  1.00  0.00    -0.226 A  
HETATM   23  N   UNK A   2      -8.551   6.842  67.504  1.00  0.00    -0.121 N  
HETATM   24  C   UNK A   2     -11.160   7.178  71.608  1.00  0.00    -0.235 A  
HETATM   25  C   UNK A   2      -9.429   7.649  68.312  1.00  0.00    -0.145 C  
HETATM   26  O   UNK A   2     -10.498   4.331  65.689  1.00  0.00    -0.223 OA 
HETATM   27  C   UNK A   2     -10.999   5.810  71.835  1.00  0.00    -0.259 A  
HETATM   28  C   UNK A   2     -10.337   5.016  70.876  1.00  0.00    -0.260 A  
HETATM   29  O   UNK A   2     -11.315   6.207  66.612  1.00  0.00    -0.138 OA 
HETATM   30  C   UNK A   2     -10.391   5.406  66.497  1.00  0.00    -0.269 C  
HETATM   31  C   UNK A   2      -9.850   5.582  69.692  1.00  0.00    -0.258 A  
HETATM   32  C   UNK A   2      -9.048   5.476  67.270  1.00  0.00    -0.110 C  
HETATM   33  C   UNK A   2      -9.157   4.754  68.632  1.00  0.00    -0.149 C  
BRANCH  24  34
HETATM   34  O   UNK A   2     -11.884   7.876  72.542  1.00  0.00    -0.354 OA 
HETATM   35  C   UNK A   2     -12.253   9.177  72.130  1.00  0.00    -0.338 C  
ENDBRANCH  24  34
BRANCH  27  36
HETATM   36  O   UNK A   2     -11.502   5.368  73.021  1.00  0.00    -0.308 OA 
HETATM   37  C   UNK A   2     -11.074   4.102  73.482  1.00  0.00    -0.270 C  
ENDBRANCH  27  36
ENDBRANCH  17  19
ENDBRANCH  15  17
ENDBRANCH   6  15
ENDBRANCH   4   6
ENDBRANCH   3   4
ENDBRANCH   2   3
TORSDOF 11
ENDMDL
MODEL      130
REMARK 921   NORMALIZED FREE ENERGY PREDICTED BY IDOCK:   -4.47 KCAL/MOL
REMARK 922        TOTAL FREE ENERGY PREDICTED BY IDOCK:   -9.24 KCAL/MOL
REMARK 923 INTER-LIGAND FREE ENERGY PREDICTED BY IDOCK:   -6.78 KCAL/MOL
REMARK 924 INTRA-LIGAND FREE ENERGY PREDICTED BY IDOCK:   -2.47 KCAL/MOL
REMARK 927      BINDING AFFINITY PREDICTED BY RF-SCORE:    0.00 PKD
ROOT
HETATM    1  C   UNK A   0      -6.268  11.387  66.857  1.00  0.00    -0.135 C  
HETATM    2  C   UNK A   0      -7.017  10.641  65.770  1.00  0.00    -0.094 C  
ENDROOT
BRANCH   2   3
HETATM    3  O   UNK A   0      -7.396   9.356  66.275  1.00  0.00    -0.094 OA 
BRANCH   3   4
HETATM    4  C   UNK A   0      -7.944   8.483  65.383  1.00  0.00    -0.113 C  
HETATM    5  O   UNK A   0      -8.638   8.781  64.415  1.00  0.00    -0.164 OA 
BRANCH   4   6
HETATM    6  C   UNK A   0      -7.493   7.065  65.737  1.00  0.00    -0.081 C  
BRANCH   6   7
HETATM    7  C   UNK A   0      -7.772   6.125  64.562  1.00  0.00    -0.105 C  
BRANCH   7   8
HETATM    8  C   UNK A   0      -7.448   4.627  64.674  1.00  0.00    -0.072 C  
BRANCH   8   9
HETATM    9  C   UNK A   0      -8.650   3.754  64.280  1.00  0.00    -0.098 A  
HETATM   10  C   UNK A   0      -9.708   4.306  63.542  1.00  0.00    -0.059 A  
HETATM   11  C   UNK A   0     -10.757   3.494  63.073  1.00  0.00    -0.201 A  
HETATM   12  C   UNK A   0      -8.717   2.372  64.562  1.00  0.00    -0.102 A  
HETATM   13  C   UNK A   0     -10.766   2.123  63.327  1.00  0.00    -0.212 A  
HETATM   14  C   UNK A   0      -9.748   1.564  64.082  1.00  0.00    -0.117 A  
ENDBRANCH   8   9
ENDBRANCH   7   8
ENDBRANCH   6   7
BRANCH   6  15
ATOM     15  N   ALA A   1      -8.188   6.596  66.961  1.00  0.00    -0.112 NA 
ATOM     16  H   ALA A   1      -7.672   6.040  67.643  1.00  0.00     0.000 HD 
BRANCH  15  17
ATOM     17  CA  ALA A   1      -9.622   6.916  67.219  1.00  0.00    -0.142 C  
ATOM     18  CB  ALA A   1     -10.722   5.874  66.951  1.00  0.00    -0.395 C  
BRANCH  17  19
ATOM     19  C   ALA A   1      -9.912   7.779  68.490  1.00  0.00    -0.182 C  
ATOM     20  O   ALA A   1      -9.545   7.352  69.592  1.00  0.00    -0.157 OA 
HETATM   21  C   UNK A   2     -10.556  11.025  66.918  1.00  0.00    -0.307 A  
HETATM   22  C   UNK A   2     -10.890  11.561  65.668  1.00  0.00    -0.310 A  
HETATM   23  N   UNK A   2     -10.442   9.056  68.396  1.00  0.00    -0.207 N  
HETATM   24  C   UNK A   2     -10.483  12.838  65.321  1.00  0.00    -0.292 A  
HETATM   25  C   UNK A   2     -11.017   9.640  67.211  1.00  0.00    -0.037 C  
HETATM   26  O   UNK A   2     -11.894  10.610  71.373  1.00  0.00    -0.263 OA 
HETATM   27  C   UNK A   2      -9.716  13.586  66.214  1.00  0.00    -0.277 A  
HETATM   28  C   UNK A   2      -9.389  13.048  67.476  1.00  0.00    -0.200 A  
HETATM   29  O   UNK A   2     -12.775  10.655  69.309  1.00  0.00    -0.202 OA 
HETATM   30  C   UNK A   2     -11.815  10.425  70.039  1.00  0.00    -0.273 C  
HETATM   31  C   UNK A   2      -9.837  11.775  67.848  1.00  0.00    -0.186 A  
HETATM   32  C   UNK A   2     -10.416   9.964  69.554  1.00  0.00    -0.241 C  
HETATM   33  C   UNK A   2      -9.526  11.178  69.203  1.00  0.00    -0.000 C  
BRANCH  24  34
HETATM   34  O   UNK A   2     -10.833  13.453  64.145  1.00  0.00    -0.390 OA 
HETATM   35  C   UNK A   2     -12.213  13.386  63.848  1.00  0.00    -0.415 C  
ENDBRANCH  24  34
BRANCH  27  36
HETATM   36  O   UNK A   2      -9.325  14.804  65.746  1.00  0.00    -0.247 OA 
HETATM   37  C   UNK A   2      -8.591  15.637  66.622  1.00  0.00    -0.295 C  
ENDBRANCH  27  36
ENDBRANCH  17  19
ENDBRANCH  15  17
ENDBRANCH   6  15
ENDBRANCH   4   6
ENDBRANCH   3   4
ENDBRANCH   2   3
TORSDOF 11
ENDMDL
MODEL      131
REMARK 921   NORMALIZED FREE ENERGY PREDICTED BY IDOCK:   -4.44 KCAL/MOL
REMARK 922        TOTAL FREE ENERGY PREDICTED BY IDOCK:   -9.20 KCAL/MOL
REMARK 923 INTER-LIGAND FREE ENERGY PREDICTED BY IDOCK:   -7.01 KCAL/MOL
REMARK 924 INTRA-LIGAND FREE ENERGY PREDICTED BY IDOCK:   -2.19 KCAL/MOL
REMARK 927      BINDING AFFINITY PREDICTED BY RF-SCORE:    0.00 PKD
ROOT
HETATM    1  C   UNK A   0     -12.375   8.089  71.726  1.00  0.00    -0.352 C  
HETATM    2  C   UNK A   0     -11.427   8.041  72.909  1.00  0.00    -0.264 C  
ENDROOT
BRANCH   2   3
HETATM    3  O   UNK A   0     -10.342   7.164  72.590  1.00  0.00    -0.193 OA 
BRANCH   3   4
HETATM    4  C   UNK A   0     -10.558   5.829  72.772  1.00  0.00    -0.226 C  
HETATM    5  O   UNK A   0     -11.034   5.306  73.775  1.00  0.00    -0.295 OA 
BRANCH   4   6
HETATM    6  C   UNK A   0     -10.179   5.088  71.490  1.00  0.00    -0.204 C  
BRANCH   6   7
HETATM    7  C   UNK A   0      -9.322   3.867  71.832  1.00  0.00    -0.191 C  
BRANCH   7   8
HETATM    8  C   UNK A   0      -9.488   2.558  71.045  1.00  0.00    -0.222 C  
BRANCH   8   9
HETATM    9  C   UNK A   0      -8.797   2.628  69.674  1.00  0.00    -0.146 A  
HETATM   10  C   UNK A   0      -9.515   2.322  68.508  1.00  0.00    -0.213 A  
HETATM   11  C   UNK A   0      -8.932   2.494  67.240  1.00  0.00    -0.182 A  
HETATM   12  C   UNK A   0      -7.465   3.067  69.510  1.00  0.00    -0.044 A  
HETATM   13  C   UNK A   0      -7.630   2.979  67.112  1.00  0.00    -0.074 A  
HETATM   14  C   UNK A   0      -6.893   3.256  68.252  1.00  0.00    -0.049 A  
ENDBRANCH   8   9
ENDBRANCH   7   8
ENDBRANCH   6   7
BRANCH   6  15
ATOM     15  N   ALA A   1      -9.453   5.996  70.567  1.00  0.00    -0.166 NA 
ATOM     16  H   ALA A   1      -8.665   6.538  70.921  1.00  0.00     0.000 HD 
BRANCH  15  17
ATOM     17  CA  ALA A   1      -9.847   6.135  69.135  1.00  0.00    -0.145 C  
ATOM     18  CB  ALA A   1     -11.320   6.342  68.740  1.00  0.00    -0.252 C  
BRANCH  17  19
ATOM     19  C   ALA A   1      -8.865   6.950  68.231  1.00  0.00    -0.122 C  
ATOM     20  O   ALA A   1      -8.247   6.354  67.340  1.00  0.00    -0.115 OA 
HETATM   21  C   UNK A   2     -10.075  10.346  68.885  1.00  0.00    -0.213 A  
HETATM   22  C   UNK A   2     -10.841  11.047  69.826  1.00  0.00    -0.205 A  
HETATM   23  N   UNK A   2      -8.776   8.330  68.317  1.00  0.00    -0.136 N  
HETATM   24  C   UNK A   2     -11.563  12.165  69.451  1.00  0.00    -0.317 A  
HETATM   25  C   UNK A   2      -9.339   9.144  69.364  1.00  0.00    -0.160 C  
HETATM   26  O   UNK A   2      -5.885  10.027  66.851  1.00  0.00    -0.050 OA 
HETATM   27  C   UNK A   2     -11.547  12.584  68.119  1.00  0.00    -0.340 A  
HETATM   28  C   UNK A   2     -10.769  11.883  67.175  1.00  0.00    -0.280 A  
HETATM   29  O   UNK A   2      -6.795  10.482  68.850  1.00  0.00    -0.056 OA 
HETATM   30  C   UNK A   2      -6.876   9.924  67.759  1.00  0.00    -0.080 C  
HETATM   31  C   UNK A   2     -10.001  10.778  67.562  1.00  0.00    -0.203 A  
HETATM   32  C   UNK A   2      -8.095   9.103  67.265  1.00  0.00    -0.106 C  
HETATM   33  C   UNK A   2      -9.136  10.018  66.580  1.00  0.00    -0.169 C  
BRANCH  24  34
HETATM   34  O   UNK A   2     -12.276  12.940  70.330  1.00  0.00    -0.354 OA 
HETATM   35  C   UNK A   2     -12.795  12.228  71.435  1.00  0.00    -0.271 C  
ENDBRANCH  24  34
BRANCH  27  36
HETATM   36  O   UNK A   2     -12.337  13.661  67.852  1.00  0.00    -0.238 OA 
HETATM   37  C   UNK A   2     -11.877  14.587  66.888  1.00  0.00    -0.377 C  
ENDBRANCH  27  36
ENDBRANCH  17  19
ENDBRANCH  15  17
ENDBRANCH   6  15
ENDBRANCH   4   6
ENDBRANCH   3   4
ENDBRANCH   2   3
TORSDOF 11
ENDMDL
MODEL      132
REMARK 921   NORMALIZED FREE ENERGY PREDICTED BY IDOCK:   -4.43 KCAL/MOL
REMARK 922        TOTAL FREE ENERGY PREDICTED BY IDOCK:   -9.18 KCAL/MOL
REMARK 923 INTER-LIGAND FREE ENERGY PREDICTED BY IDOCK:   -7.96 KCAL/MOL
REMARK 924 INTRA-LIGAND FREE ENERGY PREDICTED BY IDOCK:   -1.22 KCAL/MOL
REMARK 927      BINDING AFFINITY PREDICTED BY RF-SCORE:    0.00 PKD
ROOT
HETATM    1  C   UNK A   0      -6.483   8.430  62.337  1.00  0.00    -0.088 C  
HETATM    2  C   UNK A   0      -6.468   7.521  63.551  1.00  0.00    -0.054 C  
ENDROOT
BRANCH   2   3
HETATM    3  O   UNK A   0      -7.770   7.532  64.145  1.00  0.00    -0.119 OA 
BRANCH   3   4
HETATM    4  C   UNK A   0      -8.164   8.694  64.741  1.00  0.00    -0.160 C  
HETATM    5  O   UNK A   0      -9.050   9.444  64.341  1.00  0.00    -0.217 OA 
BRANCH   4   6
HETATM    6  C   UNK A   0      -7.374   8.878  66.036  1.00  0.00    -0.090 C  
BRANCH   6   7
HETATM    7  C   UNK A   0      -7.811   7.830  67.062  1.00  0.00    -0.112 C  
BRANCH   7   8
HETATM    8  C   UNK A   0      -6.820   6.761  67.548  1.00  0.00    -0.077 C  
BRANCH   8   9
HETATM    9  C   UNK A   0      -7.389   5.342  67.387  1.00  0.00    -0.083 A  
HETATM   10  C   UNK A   0      -8.574   4.981  68.045  1.00  0.00    -0.103 A  
HETATM   11  C   UNK A   0      -9.171   3.728  67.815  1.00  0.00    -0.216 A  
HETATM   12  C   UNK A   0      -6.812   4.380  66.530  1.00  0.00    -0.055 A  
HETATM   13  C   UNK A   0      -8.600   2.820  66.923  1.00  0.00    -0.116 A  
HETATM   14  C   UNK A   0      -7.413   3.144  66.288  1.00  0.00    -0.076 A  
ENDBRANCH   8   9
ENDBRANCH   7   8
ENDBRANCH   6   7
BRANCH   6  15
ATOM     15  N   ALA A   1      -7.574  10.249  66.569  1.00  0.00    -0.109 NA 
ATOM     16  H   ALA A   1      -6.998  11.010  66.211  1.00  0.00     0.000 HD 
BRANCH  15  17
ATOM     17  CA  ALA A   1      -8.595  10.540  67.617  1.00  0.00    -0.118 C  
ATOM     18  CB  ALA A   1      -8.216  11.308  68.895  1.00  0.00    -0.079 C  
BRANCH  17  19
ATOM     19  C   ALA A   1     -10.022  10.913  67.096  1.00  0.00    -0.189 C  
ATOM     20  O   ALA A   1     -10.944  10.106  67.266  1.00  0.00    -0.266 OA 
HETATM   21  C   UNK A   2      -9.626  14.534  66.706  1.00  0.00    -0.274 A  
HETATM   22  C   UNK A   2      -8.612  15.494  66.594  1.00  0.00    -0.325 A  
HETATM   23  N   UNK A   2     -10.300  12.167  66.577  1.00  0.00    -0.211 N  
HETATM   24  C   UNK A   2      -8.817  16.787  67.042  1.00  0.00    -0.207 A  
HETATM   25  C   UNK A   2      -9.322  13.162  66.216  1.00  0.00    -0.127 C  
HETATM   26  O   UNK A   2     -13.342  12.646  64.601  1.00  0.00    -0.767 OA 
HETATM   27  C   UNK A   2     -10.036  17.131  67.630  1.00  0.00    -0.283 A  
HETATM   28  C   UNK A   2     -11.059  16.165  67.733  1.00  0.00    -0.254 A  
HETATM   29  O   UNK A   2     -11.313  13.463  64.101  1.00  0.00    -0.378 OA 
HETATM   30  C   UNK A   2     -12.065  12.940  64.919  1.00  0.00    -0.432 C  
HETATM   31  C   UNK A   2     -10.869  14.869  67.240  1.00  0.00    -0.306 A  
HETATM   32  C   UNK A   2     -11.693  12.606  66.387  1.00  0.00    -0.405 C  
HETATM   33  C   UNK A   2     -11.954  13.816  67.312  1.00  0.00    -0.436 C  
BRANCH  24  34
HETATM   34  O   UNK A   2      -7.897  17.796  66.901  1.00  0.00    -0.206 OA 
HETATM   35  C   UNK A   2      -6.931  17.842  67.932  1.00  0.00    -0.193 C  
ENDBRANCH  24  34
BRANCH  27  36
HETATM   36  O   UNK A   2     -10.106  18.413  68.083  1.00  0.00    -0.344 OA 
HETATM   37  C   UNK A   2     -10.768  19.360  67.268  1.00  0.00    -0.490 C  
ENDBRANCH  27  36
ENDBRANCH  17  19
ENDBRANCH  15  17
ENDBRANCH   6  15
ENDBRANCH   4   6
ENDBRANCH   3   4
ENDBRANCH   2   3
TORSDOF 11
ENDMDL
MODEL      133
REMARK 921   NORMALIZED FREE ENERGY PREDICTED BY IDOCK:   -4.42 KCAL/MOL
REMARK 922        TOTAL FREE ENERGY PREDICTED BY IDOCK:   -9.17 KCAL/MOL
REMARK 923 INTER-LIGAND FREE ENERGY PREDICTED BY IDOCK:   -8.15 KCAL/MOL
REMARK 924 INTRA-LIGAND FREE ENERGY PREDICTED BY IDOCK:   -1.02 KCAL/MOL
REMARK 927      BINDING AFFINITY PREDICTED BY RF-SCORE:    0.00 PKD
ROOT
HETATM    1  C   UNK A   0     -10.852  19.464  67.169  1.00  0.00    -0.561 C  
HETATM    2  C   UNK A   0      -9.832  18.757  66.297  1.00  0.00    -0.353 C  
ENDROOT
BRANCH   2   3
HETATM    3  O   UNK A   0     -10.357  17.479  65.925  1.00  0.00    -0.494 OA 
BRANCH   3   4
HETATM    4  C   UNK A   0     -10.387  16.521  66.895  1.00  0.00    -0.300 C  
HETATM    5  O   UNK A   0     -11.249  16.397  67.759  1.00  0.00    -0.254 OA 
BRANCH   4   6
HETATM    6  C   UNK A   0      -9.206  15.572  66.689  1.00  0.00    -0.271 C  
BRANCH   6   7
HETATM    7  C   UNK A   0      -7.952  16.375  66.337  1.00  0.00    -0.329 C  
BRANCH   7   8
HETATM    8  C   UNK A   0      -6.888  16.662  67.408  1.00  0.00    -0.195 C  
BRANCH   8   9
HETATM    9  C   UNK A   0      -6.615  15.427  68.283  1.00  0.00    -0.125 A  
HETATM   10  C   UNK A   0      -6.302  14.198  67.685  1.00  0.00    -0.129 A  
HETATM   11  C   UNK A   0      -5.935  13.090  68.470  1.00  0.00    -0.075 A  
HETATM   12  C   UNK A   0      -6.587  15.481  69.693  1.00  0.00    -0.179 A  
HETATM   13  C   UNK A   0      -5.868  13.192  69.860  1.00  0.00    -0.133 A  
HETATM   14  C   UNK A   0      -6.206  14.388  70.472  1.00  0.00    -0.164 A  
ENDBRANCH   8   9
ENDBRANCH   7   8
ENDBRANCH   6   7
BRANCH   6  15
ATOM     15  N   ALA A   1      -9.516  14.589  65.620  1.00  0.00    -0.534 NA 
ATOM     16  H   ALA A   1      -8.826  14.413  64.892  1.00  0.00     0.000 HD 
BRANCH  15  17
ATOM     17  CA  ALA A   1     -10.814  13.854  65.587  1.00  0.00    -0.292 C  
ATOM     18  CB  ALA A   1     -11.397  13.346  64.257  1.00  0.00    -0.420 C  
BRANCH  17  19
ATOM     19  C   ALA A   1     -11.068  12.862  66.769  1.00  0.00    -0.281 C  
ATOM     20  O   ALA A   1     -12.140  12.935  67.383  1.00  0.00    -0.333 OA 
HETATM   21  C   UNK A   2      -8.545  10.315  66.012  1.00  0.00    -0.153 A  
HETATM   22  C   UNK A   2      -7.371  10.161  65.263  1.00  0.00    -0.141 A  
HETATM   23  N   UNK A   2     -10.189  11.829  67.052  1.00  0.00    -0.212 N  
HETATM   24  C   UNK A   2      -7.019   8.922  64.758  1.00  0.00    -0.076 A  
HETATM   25  C   UNK A   2      -8.863  11.683  66.507  1.00  0.00    -0.188 C  
HETATM   26  O   UNK A   2     -10.385  10.158  70.301  1.00  0.00    -0.267 OA 
HETATM   27  C   UNK A   2      -7.852   7.823  64.977  1.00  0.00    -0.125 A  
HETATM   28  C   UNK A   2      -9.028   7.979  65.739  1.00  0.00    -0.148 A  
HETATM   29  O   UNK A   2      -8.497  10.784  69.261  1.00  0.00    -0.135 OA 
HETATM   30  C   UNK A   2      -9.708  10.584  69.215  1.00  0.00    -0.196 C  
HETATM   31  C   UNK A   2      -9.364   9.222  66.289  1.00  0.00    -0.257 A  
HETATM   32  C   UNK A   2     -10.589  10.730  67.947  1.00  0.00    -0.221 C  
HETATM   33  C   UNK A   2     -10.605   9.418  67.132  1.00  0.00    -0.294 C  
BRANCH  24  34
HETATM   34  O   UNK A   2      -5.851   8.683  64.078  1.00  0.00    -0.068 OA 
HETATM   35  C   UNK A   2      -5.433   9.755  63.257  1.00  0.00    -0.090 C  
ENDBRANCH  24  34
BRANCH  27  36
HETATM   36  O   UNK A   2      -7.435   6.669  64.387  1.00  0.00    -0.081 OA 
HETATM   37  C   UNK A   2      -7.441   5.493  65.173  1.00  0.00    -0.074 C  
ENDBRANCH  27  36
ENDBRANCH  17  19
ENDBRANCH  15  17
ENDBRANCH   6  15
ENDBRANCH   4   6
ENDBRANCH   3   4
ENDBRANCH   2   3
TORSDOF 11
ENDMDL
MODEL      134
REMARK 921   NORMALIZED FREE ENERGY PREDICTED BY IDOCK:   -4.36 KCAL/MOL
REMARK 922        TOTAL FREE ENERGY PREDICTED BY IDOCK:   -9.07 KCAL/MOL
REMARK 923 INTER-LIGAND FREE ENERGY PREDICTED BY IDOCK:   -8.12 KCAL/MOL
REMARK 924 INTRA-LIGAND FREE ENERGY PREDICTED BY IDOCK:   -0.95 KCAL/MOL
REMARK 927      BINDING AFFINITY PREDICTED BY RF-SCORE:    0.00 PKD
ROOT
HETATM    1  C   UNK A   0     -12.814  15.141  71.347  1.00  0.00    -0.457 C  
HETATM    2  C   UNK A   0     -11.762  16.031  70.715  1.00  0.00    -0.378 C  
ENDROOT
BRANCH   2   3
HETATM    3  O   UNK A   0     -10.573  15.261  70.512  1.00  0.00    -0.271 OA 
BRANCH   3   4
HETATM    4  C   UNK A   0     -10.037  15.275  69.258  1.00  0.00    -0.252 C  
HETATM    5  O   UNK A   0     -10.635  15.024  68.216  1.00  0.00    -0.239 OA 
BRANCH   4   6
HETATM    6  C   UNK A   0      -8.580  15.729  69.347  1.00  0.00    -0.225 C  
BRANCH   6   7
HETATM    7  C   UNK A   0      -8.022  15.957  67.941  1.00  0.00    -0.146 C  
BRANCH   7   8
HETATM    8  C   UNK A   0      -8.938  16.464  66.816  1.00  0.00    -0.264 C  
BRANCH   8   9
HETATM    9  C   UNK A   0      -9.125  17.988  66.879  1.00  0.00    -0.273 A  
HETATM   10  C   UNK A   0     -10.383  18.554  66.621  1.00  0.00    -0.442 A  
HETATM   11  C   UNK A   0     -10.598  19.934  66.789  1.00  0.00    -0.536 A  
HETATM   12  C   UNK A   0      -8.093  18.870  67.265  1.00  0.00    -0.277 A  
HETATM   13  C   UNK A   0      -9.568  20.769  67.221  1.00  0.00    -0.494 A  
HETATM   14  C   UNK A   0      -8.310  20.236  67.450  1.00  0.00    -0.396 A  
ENDBRANCH   8   9
ENDBRANCH   7   8
ENDBRANCH   6   7
BRANCH   6  15
ATOM     15  N   ALA A   1      -7.771  14.720  70.075  1.00  0.00    -0.353 NA 
ATOM     16  H   ALA A   1      -8.011  14.494  71.040  1.00  0.00     0.000 HD 
BRANCH  15  17
ATOM     17  CA  ALA A   1      -6.616  14.030  69.431  1.00  0.00    -0.118 C  
ATOM     18  CB  ALA A   1      -5.170  14.390  69.813  1.00  0.00    -0.092 C  
BRANCH  17  19
ATOM     19  C   ALA A   1      -6.800  12.501  69.157  1.00  0.00    -0.062 C  
ATOM     20  O   ALA A   1      -6.462  11.698  70.035  1.00  0.00    -0.130 OA 
HETATM   21  C   UNK A   2      -9.185  12.639  66.379  1.00  0.00    -0.162 A  
HETATM   22  C   UNK A   2      -9.659  13.542  65.419  1.00  0.00     0.083 A  
HETATM   23  N   UNK A   2      -7.449  12.040  68.023  1.00  0.00    -0.104 N  
HETATM   24  C   UNK A   2     -10.947  13.431  64.925  1.00  0.00    -0.342 A  
HETATM   25  C   UNK A   2      -7.794  12.835  66.872  1.00  0.00     0.085 C  
HETATM   26  O   UNK A   2      -7.048   8.540  67.036  1.00  0.00    -0.073 OA 
HETATM   27  C   UNK A   2     -11.787  12.425  65.406  1.00  0.00    -0.406 A  
HETATM   28  C   UNK A   2     -11.305  11.511  66.366  1.00  0.00    -0.246 A  
HETATM   29  O   UNK A   2      -6.994  10.305  65.652  1.00  0.00    -0.121 OA 
HETATM   30  C   UNK A   2      -7.256   9.843  66.760  1.00  0.00    -0.091 C  
HETATM   31  C   UNK A   2      -9.988  11.594  66.833  1.00  0.00    -0.225 A  
HETATM   32  C   UNK A   2      -7.889  10.638  67.931  1.00  0.00    -0.105 C  
HETATM   33  C   UNK A   2      -9.432  10.615  67.844  1.00  0.00    -0.168 C  
BRANCH  24  34
HETATM   34  O   UNK A   2     -11.453  14.234  63.935  1.00  0.00    -0.087 OA 
HETATM   35  C   UNK A   2     -11.810  15.531  64.371  1.00  0.00    -0.219 C  
ENDBRANCH  24  34
BRANCH  27  36
HETATM   36  O   UNK A   2     -13.048  12.445  64.892  1.00  0.00    -0.765 OA 
HETATM   37  C   UNK A   2     -13.267  11.767  63.671  1.00  0.00     0.236 C  
ENDBRANCH  27  36
ENDBRANCH  17  19
ENDBRANCH  15  17
ENDBRANCH   6  15
ENDBRANCH   4   6
ENDBRANCH   3   4
ENDBRANCH   2   3
TORSDOF 11
ENDMDL
MODEL      135
REMARK 921   NORMALIZED FREE ENERGY PREDICTED BY IDOCK:   -4.36 KCAL/MOL
REMARK 922        TOTAL FREE ENERGY PREDICTED BY IDOCK:   -9.06 KCAL/MOL
REMARK 923 INTER-LIGAND FREE ENERGY PREDICTED BY IDOCK:   -8.25 KCAL/MOL
REMARK 924 INTRA-LIGAND FREE ENERGY PREDICTED BY IDOCK:   -0.81 KCAL/MOL
REMARK 927      BINDING AFFINITY PREDICTED BY RF-SCORE:    0.00 PKD
ROOT
HETATM    1  C   UNK A   0      -5.397  12.676  68.258  1.00  0.00    -0.065 C  
HETATM    2  C   UNK A   0      -6.358  13.138  69.336  1.00  0.00    -0.111 C  
ENDROOT
BRANCH   2   3
HETATM    3  O   UNK A   0      -7.334  13.999  68.740  1.00  0.00    -0.120 OA 
BRANCH   3   4
HETATM    4  C   UNK A   0      -7.319  15.306  69.129  1.00  0.00    -0.172 C  
HETATM    5  O   UNK A   0      -6.521  15.817  69.908  1.00  0.00    -0.174 OA 
BRANCH   4   6
HETATM    6  C   UNK A   0      -8.417  16.058  68.376  1.00  0.00    -0.180 C  
BRANCH   6   7
HETATM    7  C   UNK A   0      -9.688  16.106  69.228  1.00  0.00    -0.242 C  
BRANCH   7   8
HETATM    8  C   UNK A   0     -10.318  17.456  69.606  1.00  0.00     0.114 C  
BRANCH   8   9
HETATM    9  C   UNK A   0      -9.725  18.610  68.782  1.00  0.00    -0.407 A  
HETATM   10  C   UNK A   0      -8.340  18.828  68.771  1.00  0.00    -0.322 A  
HETATM   11  C   UNK A   0      -7.772  19.803  67.933  1.00  0.00    -0.330 A  
HETATM   12  C   UNK A   0     -10.511  19.440  67.953  1.00  0.00    -0.536 A  
HETATM   13  C   UNK A   0      -8.573  20.572  67.089  1.00  0.00    -0.364 A  
HETATM   14  C   UNK A   0      -9.947  20.396  67.108  1.00  0.00    -0.568 A  
ENDBRANCH   8   9
ENDBRANCH   7   8
ENDBRANCH   6   7
BRANCH   6  15
ATOM     15  N   ALA A   1      -8.685  15.405  67.071  1.00  0.00    -0.211 NA 
ATOM     16  H   ALA A   1      -8.080  14.646  66.761  1.00  0.00     0.000 HD 
BRANCH  15  17
ATOM     17  CA  ALA A   1      -9.819  15.834  66.200  1.00  0.00    -0.315 C  
ATOM     18  CB  ALA A   1      -9.919  17.283  65.694  1.00  0.00     0.003 C  
BRANCH  17  19
ATOM     19  C   ALA A   1     -10.291  14.793  65.132  1.00  0.00    -0.410 C  
ATOM     20  O   ALA A   1      -9.916  14.934  63.961  1.00  0.00     1.175 OA 
HETATM   21  C   UNK A   2     -11.335  12.057  67.334  1.00  0.00    -0.393 A  
HETATM   22  C   UNK A   2     -11.686  11.834  68.671  1.00  0.00    -0.389 A  
HETATM   23  N   UNK A   2     -10.999  13.657  65.489  1.00  0.00    -0.289 N  
HETATM   24  C   UNK A   2     -11.458  10.604  69.262  1.00  0.00    -0.281 A  
HETATM   25  C   UNK A   2     -11.599  13.412  66.776  1.00  0.00    -0.365 C  
HETATM   26  O   UNK A   2     -12.800  11.791  62.908  1.00  0.00    -0.296 OA 
HETATM   27  C   UNK A   2     -10.851   9.585  68.525  1.00  0.00    -0.132 A  
HETATM   28  C   UNK A   2     -10.506   9.809  67.176  1.00  0.00    -0.316 A  
HETATM   29  O   UNK A   2     -13.582  12.288  64.952  1.00  0.00    -0.151 OA 
HETATM   30  C   UNK A   2     -12.633  12.220  64.176  1.00  0.00    -0.394 C  
HETATM   31  C   UNK A   2     -10.778  11.038  66.563  1.00  0.00    -0.298 A  
HETATM   32  C   UNK A   2     -11.160  12.546  64.537  1.00  0.00    -0.317 C  
HETATM   33  C   UNK A   2     -10.444  11.302  65.111  1.00  0.00    -0.351 C  
BRANCH  24  34
HETATM   34  O   UNK A   2     -11.840  10.293  70.543  1.00  0.00    -0.281 OA 
HETATM   35  C   UNK A   2     -12.725  11.230  71.123  1.00  0.00    -0.390 C  
ENDBRANCH  24  34
BRANCH  27  36
HETATM   36  O   UNK A   2     -10.624   8.438  69.222  1.00  0.00    -0.223 OA 
HETATM   37  C   UNK A   2      -9.301   7.940  69.250  1.00  0.00    -0.148 C  
ENDBRANCH  27  36
ENDBRANCH  17  19
ENDBRANCH  15  17
ENDBRANCH   6  15
ENDBRANCH   4   6
ENDBRANCH   3   4
ENDBRANCH   2   3
TORSDOF 11
ENDMDL
MODEL      136
REMARK 921   NORMALIZED FREE ENERGY PREDICTED BY IDOCK:   -4.34 KCAL/MOL
REMARK 922        TOTAL FREE ENERGY PREDICTED BY IDOCK:   -9.04 KCAL/MOL
REMARK 923 INTER-LIGAND FREE ENERGY PREDICTED BY IDOCK:   -7.14 KCAL/MOL
REMARK 924 INTRA-LIGAND FREE ENERGY PREDICTED BY IDOCK:   -1.90 KCAL/MOL
REMARK 927      BINDING AFFINITY PREDICTED BY RF-SCORE:    0.00 PKD
ROOT
HETATM    1  C   UNK A   0     -13.437  13.116  72.068  1.00  0.00    -0.598 C  
HETATM    2  C   UNK A   0     -13.330  11.607  71.971  1.00  0.00    -0.300 C  
ENDROOT
BRANCH   2   3
HETATM    3  O   UNK A   0     -12.148  11.280  71.234  1.00  0.00    -0.234 OA 
BRANCH   3   4
HETATM    4  C   UNK A   0     -11.991   9.974  70.872  1.00  0.00    -0.361 C  
HETATM    5  O   UNK A   0     -12.734   9.047  71.180  1.00  0.00    -0.287 OA 
BRANCH   4   6
HETATM    6  C   UNK A   0     -10.775   9.857  69.953  1.00  0.00    -0.280 C  
BRANCH   6   7
HETATM    7  C   UNK A   0      -9.589   9.286  70.734  1.00  0.00    -0.341 C  
BRANCH   7   8
HETATM    8  C   UNK A   0      -9.782   8.770  72.169  1.00  0.00    -0.335 C  
BRANCH   8   9
HETATM    9  C   UNK A   0      -9.854   7.235  72.216  1.00  0.00    -0.182 A  
HETATM   10  C   UNK A   0     -10.977   6.600  72.766  1.00  0.00    -0.291 A  
HETATM   11  C   UNK A   0     -11.110   5.201  72.710  1.00  0.00    -0.330 A  
HETATM   12  C   UNK A   0      -8.860   6.406  71.653  1.00  0.00    -0.136 A  
HETATM   13  C   UNK A   0     -10.132   4.415  72.101  1.00  0.00    -0.262 A  
HETATM   14  C   UNK A   0      -9.000   5.020  71.581  1.00  0.00    -0.152 A  
ENDBRANCH   8   9
ENDBRANCH   7   8
ENDBRANCH   6   7
BRANCH   6  15
ATOM     15  N   ALA A   1     -10.435  11.183  69.380  1.00  0.00    -0.407 NA 
ATOM     16  H   ALA A   1      -9.851  11.823  69.918  1.00  0.00     0.000 HD 
BRANCH  15  17
ATOM     17  CA  ALA A   1     -10.928  11.604  68.035  1.00  0.00    -0.224 C  
ATOM     18  CB  ALA A   1     -11.979  12.718  67.895  1.00  0.00    -0.320 C  
BRANCH  17  19
ATOM     19  C   ALA A   1      -9.855  11.646  66.897  1.00  0.00    -0.198 C  
ATOM     20  O   ALA A   1      -9.414  12.745  66.540  1.00  0.00    -0.250 OA 
HETATM   21  C   UNK A   2      -8.724   8.162  66.966  1.00  0.00    -0.136 A  
HETATM   22  C   UNK A   2      -9.145   6.908  67.429  1.00  0.00    -0.122 A  
HETATM   23  N   UNK A   2      -9.298  10.486  66.382  1.00  0.00    -0.165 N  
HETATM   24  C   UNK A   2      -8.219   5.946  67.790  1.00  0.00    -0.105 A  
HETATM   25  C   UNK A   2      -9.781   9.149  66.613  1.00  0.00    -0.223 C  
HETATM   26  O   UNK A   2      -7.518  10.628  63.189  1.00  0.00    -0.065 OA 
HETATM   27  C   UNK A   2      -6.856   6.235  67.714  1.00  0.00    -0.066 A  
HETATM   28  C   UNK A   2      -6.433   7.493  67.239  1.00  0.00    -0.061 A  
HETATM   29  O   UNK A   2      -8.969   9.033  63.811  1.00  0.00    -0.087 OA 
HETATM   30  C   UNK A   2      -8.262   9.990  64.115  1.00  0.00    -0.159 C  
HETATM   31  C   UNK A   2      -7.368   8.453  66.831  1.00  0.00    -0.083 A  
HETATM   32  C   UNK A   2      -8.083  10.545  65.552  1.00  0.00    -0.155 C  
HETATM   33  C   UNK A   2      -6.948   9.804  66.294  1.00  0.00    -0.094 C  
BRANCH  24  34
HETATM   34  O   UNK A   2      -8.558   4.675  68.183  1.00  0.00    -0.100 OA 
HETATM   35  C   UNK A   2      -9.951   4.447  68.255  1.00  0.00     0.004 C  
ENDBRANCH  24  34
BRANCH  27  36
HETATM   36  O   UNK A   2      -6.038   5.235  68.146  1.00  0.00    -0.024 OA 
HETATM   37  C   UNK A   2      -5.138   4.675  67.211  1.00  0.00    -0.007 C  
ENDBRANCH  27  36
ENDBRANCH  17  19
ENDBRANCH  15  17
ENDBRANCH   6  15
ENDBRANCH   4   6
ENDBRANCH   3   4
ENDBRANCH   2   3
TORSDOF 11
ENDMDL
MODEL      137
REMARK 921   NORMALIZED FREE ENERGY PREDICTED BY IDOCK:   -4.29 KCAL/MOL
REMARK 922        TOTAL FREE ENERGY PREDICTED BY IDOCK:   -8.95 KCAL/MOL
REMARK 923 INTER-LIGAND FREE ENERGY PREDICTED BY IDOCK:   -7.15 KCAL/MOL
REMARK 924 INTRA-LIGAND FREE ENERGY PREDICTED BY IDOCK:   -1.80 KCAL/MOL
REMARK 927      BINDING AFFINITY PREDICTED BY RF-SCORE:    0.00 PKD
ROOT
HETATM    1  C   UNK A   0      -9.213  11.196  65.495  1.00  0.00    -0.236 C  
HETATM    2  C   UNK A   0      -9.771   9.787  65.564  1.00  0.00    -0.312 C  
ENDROOT
BRANCH   2   3
HETATM    3  O   UNK A   0      -9.340   9.185  66.789  1.00  0.00    -0.149 OA 
BRANCH   3   4
HETATM    4  C   UNK A   0     -10.298   8.571  67.541  1.00  0.00    -0.267 C  
HETATM    5  O   UNK A   0     -11.049   7.678  67.162  1.00  0.00    -0.173 OA 
BRANCH   4   6
HETATM    6  C   UNK A   0     -10.237   9.123  68.966  1.00  0.00    -0.207 C  
BRANCH   6   7
HETATM    7  C   UNK A   0     -11.268  10.241  69.131  1.00  0.00    -0.268 C  
BRANCH   7   8
HETATM    8  C   UNK A   0     -12.086  10.356  70.427  1.00  0.00    -0.402 C  
BRANCH   8   9
HETATM    9  C   UNK A   0     -12.503  11.808  70.710  1.00  0.00    -0.405 A  
HETATM   10  C   UNK A   0     -13.282  12.110  71.836  1.00  0.00    -0.474 A  
HETATM   11  C   UNK A   0     -13.573  13.444  72.173  1.00  0.00    -0.660 A  
HETATM   12  C   UNK A   0     -12.070  12.895  69.920  1.00  0.00    -0.335 A  
HETATM   13  C   UNK A   0     -13.087  14.497  71.398  1.00  0.00    -0.423 A  
HETATM   14  C   UNK A   0     -12.342  14.220  70.263  1.00  0.00    -0.418 A  
ENDBRANCH   8   9
ENDBRANCH   7   8
ENDBRANCH   6   7
BRANCH   6  15
ATOM     15  N   ALA A   1      -8.871   9.620  69.266  1.00  0.00    -0.153 NA 
ATOM     16  H   ALA A   1      -8.585  10.532  68.911  1.00  0.00     0.000 HD 
BRANCH  15  17
ATOM     17  CA  ALA A   1      -7.907   8.818  70.075  1.00  0.00    -0.094 C  
ATOM     18  CB  ALA A   1      -6.995   9.496  71.113  1.00  0.00     0.027 C  
BRANCH  17  19
ATOM     19  C   ALA A   1      -8.411   7.415  70.547  1.00  0.00    -0.137 C  
ATOM     20  O   ALA A   1      -9.019   7.335  71.622  1.00  0.00    -0.125 OA 
HETATM   21  C   UNK A   2      -8.265   5.591  67.373  1.00  0.00    -0.101 A  
HETATM   22  C   UNK A   2      -7.664   5.685  66.111  1.00  0.00    -0.095 A  
HETATM   23  N   UNK A   2      -8.313   6.297  69.733  1.00  0.00    -0.124 N  
HETATM   24  C   UNK A   2      -8.283   5.147  64.997  1.00  0.00    -0.130 A  
HETATM   25  C   UNK A   2      -7.543   6.208  68.519  1.00  0.00    -0.092 C  
HETATM   26  O   UNK A   2      -8.677   2.973  71.218  1.00  0.00    -0.069 OA 
HETATM   27  C   UNK A   2      -9.527   4.526  65.128  1.00  0.00    -0.162 A  
HETATM   28  C   UNK A   2     -10.125   4.424  66.401  1.00  0.00    -0.235 A  
HETATM   29  O   UNK A   2      -7.135   3.569  69.700  1.00  0.00    -0.041 OA 
HETATM   30  C   UNK A   2      -8.178   3.823  70.297  1.00  0.00    -0.056 C  
HETATM   31  C   UNK A   2      -9.480   4.928  67.537  1.00  0.00    -0.161 A  
HETATM   32  C   UNK A   2      -9.064   5.072  70.053  1.00  0.00    -0.123 C  
HETATM   33  C   UNK A   2     -10.083   4.813  68.920  1.00  0.00    -0.149 C  
BRANCH  24  34
HETATM   34  O   UNK A   2      -7.722   5.139  63.744  1.00  0.00    -0.068 OA 
HETATM   35  C   UNK A   2      -6.979   6.303  63.440  1.00  0.00    -0.046 C  
ENDBRANCH  24  34
BRANCH  27  36
HETATM   36  O   UNK A   2     -10.067   4.084  63.959  1.00  0.00    -0.179 OA 
HETATM   37  C   UNK A   2     -10.432   2.720  63.882  1.00  0.00    -0.102 C  
ENDBRANCH  27  36
ENDBRANCH  17  19
ENDBRANCH  15  17
ENDBRANCH   6  15
ENDBRANCH   4   6
ENDBRANCH   3   4
ENDBRANCH   2   3
TORSDOF 11
ENDMDL
MODEL      138
REMARK 921   NORMALIZED FREE ENERGY PREDICTED BY IDOCK:   -4.26 KCAL/MOL
REMARK 922        TOTAL FREE ENERGY PREDICTED BY IDOCK:   -8.91 KCAL/MOL
REMARK 923 INTER-LIGAND FREE ENERGY PREDICTED BY IDOCK:   -7.13 KCAL/MOL
REMARK 924 INTRA-LIGAND FREE ENERGY PREDICTED BY IDOCK:   -1.77 KCAL/MOL
REMARK 927      BINDING AFFINITY PREDICTED BY RF-SCORE:    0.00 PKD
ROOT
HETATM    1  C   UNK A   0     -10.376   7.161  73.381  1.00  0.00    -0.391 C  
HETATM    2  C   UNK A   0     -11.342   6.746  72.288  1.00  0.00    -0.273 C  
ENDROOT
BRANCH   2   3
HETATM    3  O   UNK A   0     -10.654   5.889  71.372  1.00  0.00    -0.233 OA 
BRANCH   3   4
HETATM    4  C   UNK A   0     -10.978   6.015  70.052  1.00  0.00    -0.380 C  
HETATM    5  O   UNK A   0     -12.016   6.494  69.607  1.00  0.00    -0.216 OA 
BRANCH   4   6
HETATM    6  C   UNK A   0      -9.801   5.529  69.206  1.00  0.00    -0.172 C  
BRANCH   6   7
HETATM    7  C   UNK A   0      -8.639   5.128  70.118  1.00  0.00    -0.116 C  
BRANCH   7   8
HETATM    8  C   UNK A   0      -7.847   3.840  69.845  1.00  0.00    -0.051 C  
BRANCH   8   9
HETATM    9  C   UNK A   0      -7.472   3.707  68.360  1.00  0.00    -0.054 A  
HETATM   10  C   UNK A   0      -8.188   2.832  67.530  1.00  0.00    -0.087 A  
HETATM   11  C   UNK A   0      -7.935   2.786  66.147  1.00  0.00    -0.082 A  
HETATM   12  C   UNK A   0      -6.470   4.493  67.752  1.00  0.00    -0.045 A  
HETATM   13  C   UNK A   0      -6.971   3.614  65.570  1.00  0.00    -0.061 A  
HETATM   14  C   UNK A   0      -6.231   4.461  66.377  1.00  0.00    -0.032 A  
ENDBRANCH   8   9
ENDBRANCH   7   8
ENDBRANCH   6   7
BRANCH   6  15
ATOM     15  N   ALA A   1      -9.380   6.588  68.255  1.00  0.00    -0.119 NA 
ATOM     16  H   ALA A   1      -9.687   6.535  67.285  1.00  0.00     0.000 HD 
BRANCH  15  17
ATOM     17  CA  ALA A   1      -8.518   7.728  68.684  1.00  0.00    -0.129 C  
ATOM     18  CB  ALA A   1      -7.468   8.323  67.731  1.00  0.00    -0.094 C  
BRANCH  17  19
ATOM     19  C   ALA A   1      -9.214   8.817  69.564  1.00  0.00    -0.149 C  
ATOM     20  O   ALA A   1      -8.907   8.898  70.760  1.00  0.00    -0.168 OA 
HETATM   21  C   UNK A   2     -10.487  11.032  66.937  1.00  0.00    -0.293 A  
HETATM   22  C   UNK A   2     -10.770  11.013  65.565  1.00  0.00    -0.218 A  
HETATM   23  N   UNK A   2     -10.054   9.770  69.009  1.00  0.00    -0.178 N  
HETATM   24  C   UNK A   2     -10.683  12.172  64.814  1.00  0.00    -0.301 A  
HETATM   25  C   UNK A   2     -10.589   9.741  67.672  1.00  0.00    -0.276 C  
HETATM   26  O   UNK A   2     -12.291  11.666  71.197  1.00  0.00    -0.331 OA 
HETATM   27  C   UNK A   2     -10.287  13.363  65.425  1.00  0.00    -0.312 A  
HETATM   28  C   UNK A   2     -10.012  13.382  66.808  1.00  0.00    -0.264 A  
HETATM   29  O   UNK A   2     -12.842  10.780  69.210  1.00  0.00    -0.150 OA 
HETATM   30  C   UNK A   2     -11.972  11.100  70.015  1.00  0.00    -0.367 C  
HETATM   31  C   UNK A   2     -10.144  12.220  67.578  1.00  0.00    -0.206 A  
HETATM   32  C   UNK A   2     -10.445  10.962  69.780  1.00  0.00    -0.008 C  
HETATM   33  C   UNK A   2      -9.880  12.212  69.068  1.00  0.00     0.190 C  
BRANCH  24  34
HETATM   34  O   UNK A   2     -11.013  12.242  63.484  1.00  0.00    -0.425 OA 
HETATM   35  C   UNK A   2     -12.359  11.910  63.207  1.00  0.00    -0.391 C  
ENDBRANCH  24  34
BRANCH  27  36
HETATM   36  O   UNK A   2     -10.182  14.426  64.580  1.00  0.00    -0.362 OA 
HETATM   37  C   UNK A   2     -10.468  15.708  65.103  1.00  0.00    -0.389 C  
ENDBRANCH  27  36
ENDBRANCH  17  19
ENDBRANCH  15  17
ENDBRANCH   6  15
ENDBRANCH   4   6
ENDBRANCH   3   4
ENDBRANCH   2   3
TORSDOF 11
ENDMDL
MODEL      139
REMARK 921   NORMALIZED FREE ENERGY PREDICTED BY IDOCK:   -4.23 KCAL/MOL
REMARK 922        TOTAL FREE ENERGY PREDICTED BY IDOCK:   -8.85 KCAL/MOL
REMARK 923 INTER-LIGAND FREE ENERGY PREDICTED BY IDOCK:   -7.33 KCAL/MOL
REMARK 924 INTRA-LIGAND FREE ENERGY PREDICTED BY IDOCK:   -1.52 KCAL/MOL
REMARK 927      BINDING AFFINITY PREDICTED BY RF-SCORE:    0.00 PKD
ROOT
HETATM    1  C   UNK A   0      -6.057  13.300  69.452  1.00  0.00    -0.106 C  
HETATM    2  C   UNK A   0      -5.203  12.231  70.106  1.00  0.00    -0.101 C  
ENDROOT
BRANCH   2   3
HETATM    3  O   UNK A   0      -6.057  11.354  70.849  1.00  0.00    -0.363 OA 
BRANCH   3   4
HETATM    4  C   UNK A   0      -6.054  10.040  70.484  1.00  0.00    -0.100 C  
HETATM    5  O   UNK A   0      -5.163   9.466  69.865  1.00  0.00    -0.032 OA 
BRANCH   4   6
HETATM    6  C   UNK A   0      -7.312   9.371  71.037  1.00  0.00    -0.024 C  
BRANCH   6   7
HETATM    7  C   UNK A   0      -7.265   7.867  70.755  1.00  0.00    -0.053 C  
BRANCH   7   8
HETATM    8  C   UNK A   0      -7.300   6.859  71.914  1.00  0.00    -0.087 C  
BRANCH   8   9
HETATM    9  C   UNK A   0      -8.728   6.370  72.199  1.00  0.00    -0.132 A  
HETATM   10  C   UNK A   0      -9.285   6.529  73.477  1.00  0.00    -0.149 A  
HETATM   11  C   UNK A   0     -10.629   6.195  73.722  1.00  0.00    -0.261 A  
HETATM   12  C   UNK A   0      -9.562   5.821  71.200  1.00  0.00    -0.201 A  
HETATM   13  C   UNK A   0     -11.439   5.702  72.699  1.00  0.00    -0.339 A  
HETATM   14  C   UNK A   0     -10.900   5.506  71.438  1.00  0.00    -0.256 A  
ENDBRANCH   8   9
ENDBRANCH   7   8
ENDBRANCH   6   7
BRANCH   6  15
ATOM     15  N   ALA A   1      -8.525   9.979  70.435  1.00  0.00    -0.377 NA 
ATOM     16  H   ALA A   1      -8.652  10.989  70.487  1.00  0.00     0.000 HD 
BRANCH  15  17
ATOM     17  CA  ALA A   1      -9.562   9.149  69.756  1.00  0.00    -0.181 C  
ATOM     18  CB  ALA A   1     -11.058   9.373  70.036  1.00  0.00    -0.248 C  
BRANCH  17  19
ATOM     19  C   ALA A   1      -9.280   8.793  68.259  1.00  0.00    -0.140 C  
ATOM     20  O   ALA A   1      -9.500   7.638  67.874  1.00  0.00    -0.141 OA 
HETATM   21  C   UNK A   2      -9.180  12.160  66.817  1.00  0.00    -0.207 A  
HETATM   22  C   UNK A   2      -9.019  13.492  67.219  1.00  0.00    -0.222 A  
HETATM   23  N   UNK A   2      -8.924   9.764  67.337  1.00  0.00    -0.134 N  
HETATM   24  C   UNK A   2      -9.610  14.518  66.502  1.00  0.00    -0.293 A  
HETATM   25  C   UNK A   2      -8.526  11.113  67.650  1.00  0.00    -0.122 C  
HETATM   26  O   UNK A   2      -7.442   8.742  64.152  1.00  0.00    -0.101 OA 
HETATM   27  C   UNK A   2     -10.390  14.220  65.383  1.00  0.00    -0.370 A  
HETATM   28  C   UNK A   2     -10.543  12.879  64.975  1.00  0.00    -0.333 A  
HETATM   29  O   UNK A   2      -6.744  10.447  65.435  1.00  0.00    -0.127 OA 
HETATM   30  C   UNK A   2      -7.606   9.612  65.169  1.00  0.00    -0.114 C  
HETATM   31  C   UNK A   2      -9.909  11.843  65.672  1.00  0.00    -0.266 A  
HETATM   32  C   UNK A   2      -8.970   9.478  65.893  1.00  0.00    -0.173 C  
HETATM   33  C   UNK A   2     -10.032  10.396  65.246  1.00  0.00    -0.376 C  
BRANCH  24  34
HETATM   34  O   UNK A   2      -9.438  15.847  66.795  1.00  0.00    -0.217 OA 
HETATM   35  C   UNK A   2      -8.215  16.385  66.332  1.00  0.00    -0.331 C  
ENDBRANCH  24  34
BRANCH  27  36
HETATM   36  O   UNK A   2     -10.967  15.301  64.789  1.00  0.00    -0.410 OA 
HETATM   37  C   UNK A   2     -12.253  15.129  64.226  1.00  0.00    -0.240 C  
ENDBRANCH  27  36
ENDBRANCH  17  19
ENDBRANCH  15  17
ENDBRANCH   6  15
ENDBRANCH   4   6
ENDBRANCH   3   4
ENDBRANCH   2   3
TORSDOF 11
ENDMDL
MODEL      140
REMARK 921   NORMALIZED FREE ENERGY PREDICTED BY IDOCK:   -4.23 KCAL/MOL
REMARK 922        TOTAL FREE ENERGY PREDICTED BY IDOCK:   -8.85 KCAL/MOL
REMARK 923 INTER-LIGAND FREE ENERGY PREDICTED BY IDOCK:   -7.62 KCAL/MOL
REMARK 924 INTRA-LIGAND FREE ENERGY PREDICTED BY IDOCK:   -1.23 KCAL/MOL
REMARK 927      BINDING AFFINITY PREDICTED BY RF-SCORE:    0.00 PKD
ROOT
HETATM    1  C   UNK A   0     -13.851  13.600  72.264  1.00  0.00    -0.689 C  
HETATM    2  C   UNK A   0     -12.631  14.251  71.641  1.00  0.00    -0.351 C  
ENDROOT
BRANCH   2   3
HETATM    3  O   UNK A   0     -12.739  14.156  70.218  1.00  0.00    -0.333 OA 
BRANCH   3   4
HETATM    4  C   UNK A   0     -11.725  14.703  69.487  1.00  0.00    -0.324 C  
HETATM    5  O   UNK A   0     -11.827  15.641  68.702  1.00  0.00    -0.372 OA 
BRANCH   4   6
HETATM    6  C   UNK A   0     -10.416  14.007  69.858  1.00  0.00     0.540 C  
BRANCH   6   7
HETATM    7  C   UNK A   0      -9.294  14.487  68.934  1.00  0.00    -0.136 C  
BRANCH   7   8
HETATM    8  C   UNK A   0      -7.940  14.919  69.518  1.00  0.00    -0.084 C  
BRANCH   8   9
HETATM    9  C   UNK A   0      -7.715  16.433  69.374  1.00  0.00    -0.072 A  
HETATM   10  C   UNK A   0      -6.420  16.963  69.462  1.00  0.00    -0.223 A  
HETATM   11  C   UNK A   0      -6.184  18.328  69.216  1.00  0.00    -0.255 A  
HETATM   12  C   UNK A   0      -8.759  17.335  69.074  1.00  0.00    -0.079 A  
HETATM   13  C   UNK A   0      -7.231  19.182  68.872  1.00  0.00    -0.376 A  
HETATM   14  C   UNK A   0      -8.523  18.685  68.811  1.00  0.00    -0.292 A  
ENDBRANCH   8   9
ENDBRANCH   7   8
ENDBRANCH   6   7
BRANCH   6  15
ATOM     15  N   ALA A   1     -10.574  12.534  69.770  1.00  0.00     0.017 NA 
ATOM     16  H   ALA A   1     -11.043  12.038  70.527  1.00  0.00     0.000 HD 
BRANCH  15  17
ATOM     17  CA  ALA A   1     -10.063  11.761  68.600  1.00  0.00    -0.189 C  
ATOM     18  CB  ALA A   1      -9.364  10.405  68.797  1.00  0.00    -0.175 C  
BRANCH  17  19
ATOM     19  C   ALA A   1     -10.956  11.794  67.317  1.00  0.00    -0.267 C  
ATOM     20  O   ALA A   1     -11.947  11.055  67.266  1.00  0.00    -0.351 OA 
HETATM   21  C   UNK A   2      -9.878  14.985  65.876  1.00  0.00    -0.369 A  
HETATM   22  C   UNK A   2      -8.815  15.894  65.963  1.00  0.00    -0.298 A  
HETATM   23  N   UNK A   2     -10.742  12.717  66.306  1.00  0.00    -0.267 N  
HETATM   24  C   UNK A   2      -9.021  17.240  65.718  1.00  0.00     0.225 A  
HETATM   25  C   UNK A   2      -9.579  13.557  66.169  1.00  0.00    -0.204 C  
HETATM   26  O   UNK A   2     -12.258  12.156  63.024  1.00  0.00    -0.324 OA 
HETATM   27  C   UNK A   2     -10.302  17.698  65.406  1.00  0.00     0.177 A  
HETATM   28  C   UNK A   2     -11.369  16.781  65.310  1.00  0.00     0.323 A  
HETATM   29  O   UNK A   2     -10.157  12.854  63.395  1.00  0.00    -0.169 OA 
HETATM   30  C   UNK A   2     -11.288  12.643  63.825  1.00  0.00    -0.467 C  
HETATM   31  C   UNK A   2     -11.154  15.412  65.513  1.00  0.00    -0.301 A  
HETATM   32  C   UNK A   2     -11.763  12.944  65.270  1.00  0.00    -0.364 C  
HETATM   33  C   UNK A   2     -12.271  14.398  65.393  1.00  0.00    -0.362 C  
BRANCH  24  34
HETATM   34  O   UNK A   2      -8.016  18.174  65.715  1.00  0.00    -0.521 OA 
HETATM   35  C   UNK A   2      -6.716  17.621  65.760  1.00  0.00    -0.129 C  
ENDBRANCH  24  34
BRANCH  27  36
HETATM   36  O   UNK A   2     -10.398  19.047  65.240  1.00  0.00    -0.269 OA 
HETATM   37  C   UNK A   2     -10.871  19.808  66.334  1.00  0.00    -0.288 C  
ENDBRANCH  27  36
ENDBRANCH  17  19
ENDBRANCH  15  17
ENDBRANCH   6  15
ENDBRANCH   4   6
ENDBRANCH   3   4
ENDBRANCH   2   3
TORSDOF 11
ENDMDL
MODEL      141
REMARK 921   NORMALIZED FREE ENERGY PREDICTED BY IDOCK:   -4.22 KCAL/MOL
REMARK 922        TOTAL FREE ENERGY PREDICTED BY IDOCK:   -8.84 KCAL/MOL
REMARK 923 INTER-LIGAND FREE ENERGY PREDICTED BY IDOCK:   -6.02 KCAL/MOL
REMARK 924 INTRA-LIGAND FREE ENERGY PREDICTED BY IDOCK:   -2.82 KCAL/MOL
REMARK 927      BINDING AFFINITY PREDICTED BY RF-SCORE:    0.00 PKD
ROOT
HETATM    1  C   UNK A   0      -6.182   9.962  70.991  1.00  0.00    -0.032 C  
HETATM    2  C   UNK A   0      -6.604  10.223  69.558  1.00  0.00    -0.066 C  
ENDROOT
BRANCH   2   3
HETATM    3  O   UNK A   0      -6.574   8.985  68.840  1.00  0.00    -0.051 OA 
BRANCH   3   4
HETATM    4  C   UNK A   0      -6.900   9.035  67.516  1.00  0.00    -0.077 C  
HETATM    5  O   UNK A   0      -7.338  10.013  66.918  1.00  0.00    -0.090 OA 
BRANCH   4   6
HETATM    6  C   UNK A   0      -6.561   7.690  66.873  1.00  0.00    -0.062 C  
BRANCH   6   7
HETATM    7  C   UNK A   0      -7.686   7.273  65.923  1.00  0.00    -0.097 C  
BRANCH   7   8
HETATM    8  C   UNK A   0      -7.364   6.516  64.625  1.00  0.00    -0.081 C  
BRANCH   8   9
HETATM    9  C   UNK A   0      -8.420   5.443  64.316  1.00  0.00    -0.092 A  
HETATM   10  C   UNK A   0      -9.386   5.109  65.276  1.00  0.00    -0.053 A  
HETATM   11  C   UNK A   0     -10.428   4.216  64.968  1.00  0.00    -0.187 A  
HETATM   12  C   UNK A   0      -8.523   4.811  63.057  1.00  0.00    -0.114 A  
HETATM   13  C   UNK A   0     -10.528   3.649  63.697  1.00  0.00    -0.262 A  
HETATM   14  C   UNK A   0      -9.566   3.940  62.744  1.00  0.00    -0.125 A  
ENDBRANCH   8   9
ENDBRANCH   7   8
ENDBRANCH   6   7
BRANCH   6  15
ATOM     15  N   ALA A   1      -6.348   6.659  67.919  1.00  0.00    -0.045 NA 
ATOM     16  H   ALA A   1      -5.485   6.673  68.463  1.00  0.00     0.000 HD 
BRANCH  15  17
ATOM     17  CA  ALA A   1      -7.364   5.602  68.194  1.00  0.00    -0.073 C  
ATOM     18  CB  ALA A   1      -7.084   4.130  67.844  1.00  0.00    -0.059 C  
BRANCH  17  19
ATOM     19  C   ALA A   1      -8.169   5.757  69.525  1.00  0.00    -0.108 C  
ATOM     20  O   ALA A   1      -7.725   5.227  70.551  1.00  0.00    -0.076 OA 
HETATM   21  C   UNK A   2     -10.293   8.611  68.650  1.00  0.00    -0.219 A  
HETATM   22  C   UNK A   2     -10.755   9.295  67.517  1.00  0.00    -0.272 A  
HETATM   23  N   UNK A   2      -9.282   6.578  69.609  1.00  0.00    -0.144 N  
HETATM   24  C   UNK A   2     -11.054  10.644  67.585  1.00  0.00    -0.319 A  
HETATM   25  C   UNK A   2      -9.978   7.165  68.492  1.00  0.00    -0.159 C  
HETATM   26  O   UNK A   2     -11.576   6.194  72.433  1.00  0.00    -0.295 OA 
HETATM   27  C   UNK A   2     -10.873  11.333  68.786  1.00  0.00    -0.208 A  
HETATM   28  C   UNK A   2     -10.418  10.641  69.927  1.00  0.00    -0.136 A  
HETATM   29  O   UNK A   2     -12.174   6.477  70.289  1.00  0.00    -0.278 OA 
HETATM   30  C   UNK A   2     -11.301   6.511  71.152  1.00  0.00    -0.314 C  
HETATM   31  C   UNK A   2     -10.157   9.266  69.873  1.00  0.00    -0.230 A  
HETATM   32  C   UNK A   2      -9.834   6.959  70.920  1.00  0.00    -0.185 C  
HETATM   33  C   UNK A   2      -9.691   8.489  71.084  1.00  0.00    -0.257 C  
BRANCH  24  34
HETATM   34  O   UNK A   2     -11.576  11.360  66.538  1.00  0.00    -0.408 OA 
HETATM   35  C   UNK A   2     -10.694  11.504  65.443  1.00  0.00    -0.278 C  
ENDBRANCH  24  34
BRANCH  27  36
HETATM   36  O   UNK A   2     -11.146  12.666  68.722  1.00  0.00    -0.240 OA 
HETATM   37  C   UNK A   2     -11.917  13.226  69.766  1.00  0.00    -0.324 C  
ENDBRANCH  27  36
ENDBRANCH  17  19
ENDBRANCH  15  17
ENDBRANCH   6  15
ENDBRANCH   4   6
ENDBRANCH   3   4
ENDBRANCH   2   3
TORSDOF 11
ENDMDL
MODEL      142
REMARK 921   NORMALIZED FREE ENERGY PREDICTED BY IDOCK:   -4.20 KCAL/MOL
REMARK 922        TOTAL FREE ENERGY PREDICTED BY IDOCK:   -8.80 KCAL/MOL
REMARK 923 INTER-LIGAND FREE ENERGY PREDICTED BY IDOCK:   -8.04 KCAL/MOL
REMARK 924 INTRA-LIGAND FREE ENERGY PREDICTED BY IDOCK:   -0.76 KCAL/MOL
REMARK 927      BINDING AFFINITY PREDICTED BY RF-SCORE:    0.00 PKD
ROOT
HETATM    1  C   UNK A   0     -12.638  12.071  63.548  1.00  0.00    -0.625 C  
HETATM    2  C   UNK A   0     -12.410  12.978  64.741  1.00  0.00    -0.436 C  
ENDROOT
BRANCH   2   3
HETATM    3  O   UNK A   0     -11.956  12.182  65.840  1.00  0.00    -0.561 OA 
BRANCH   3   4
HETATM    4  C   UNK A   0     -10.956  12.706  66.606  1.00  0.00    -0.258 C  
HETATM    5  O   UNK A   0      -9.949  13.270  66.189  1.00  0.00    -0.283 OA 
BRANCH   4   6
HETATM    6  C   UNK A   0     -11.325  12.543  68.081  1.00  0.00    -0.295 C  
BRANCH   6   7
HETATM    7  C   UNK A   0     -11.492  13.921  68.726  1.00  0.00    -0.327 C  
BRANCH   7   8
HETATM    8  C   UNK A   0     -11.501  15.189  67.858  1.00  0.00    -0.344 C  
BRANCH   8   9
HETATM    9  C   UNK A   0     -10.346  16.136  68.222  1.00  0.00    -0.266 A  
HETATM   10  C   UNK A   0      -9.211  15.640  68.880  1.00  0.00    -0.226 A  
HETATM   11  C   UNK A   0      -8.098  16.467  69.115  1.00  0.00    -0.170 A  
HETATM   12  C   UNK A   0     -10.330  17.498  67.853  1.00  0.00    -0.371 A  
HETATM   13  C   UNK A   0      -8.096  17.797  68.693  1.00  0.00    -0.277 A  
HETATM   14  C   UNK A   0      -9.220  18.315  68.069  1.00  0.00    -0.300 A  
ENDBRANCH   8   9
ENDBRANCH   7   8
ENDBRANCH   6   7
BRANCH   6  15
ATOM     15  N   ALA A   1     -10.286  11.755  68.788  1.00  0.00    -0.329 NA 
ATOM     16  H   ALA A   1     -10.360  11.627  69.797  1.00  0.00     0.000 HD 
BRANCH  15  17
ATOM     17  CA  ALA A   1      -9.135  11.146  68.059  1.00  0.00    -0.153 C  
ATOM     18  CB  ALA A   1      -7.697  11.308  68.582  1.00  0.00    -0.136 C  
BRANCH  17  19
ATOM     19  C   ALA A   1      -9.390   9.734  67.437  1.00  0.00    -0.134 C  
ATOM     20  O   ALA A   1      -9.359   9.615  66.206  1.00  0.00    -0.162 OA 
HETATM   21  C   UNK A   2      -8.806   7.631  70.379  1.00  0.00    -0.144 A  
HETATM   22  C   UNK A   2      -8.749   7.735  71.775  1.00  0.00    -0.147 A  
HETATM   23  N   UNK A   2      -9.514   8.604  68.228  1.00  0.00    -0.140 N  
HETATM   24  C   UNK A   2      -7.945   6.882  72.510  1.00  0.00    -0.099 A  
HETATM   25  C   UNK A   2      -9.682   8.595  69.659  1.00  0.00    -0.179 C  
HETATM   26  O   UNK A   2     -10.973   5.571  66.792  1.00  0.00    -0.230 OA 
HETATM   27  C   UNK A   2      -7.168   5.926  71.853  1.00  0.00    -0.092 A  
HETATM   28  C   UNK A   2      -7.235   5.816  70.449  1.00  0.00    -0.071 A  
HETATM   29  O   UNK A   2     -11.426   6.407  68.825  1.00  0.00    -0.283 OA 
HETATM   30  C   UNK A   2     -10.714   6.400  67.824  1.00  0.00    -0.303 C  
HETATM   31  C   UNK A   2      -8.082   6.648  69.707  1.00  0.00    -0.126 A  
HETATM   32  C   UNK A   2      -9.438   7.260  67.631  1.00  0.00    -0.131 C  
HETATM   33  C   UNK A   2      -8.195   6.541  68.202  1.00  0.00    -0.117 C  
BRANCH  24  34
HETATM   34  O   UNK A   2      -7.893   6.879  73.882  1.00  0.00    -0.103 OA 
HETATM   35  C   UNK A   2      -9.156   7.001  74.505  1.00  0.00    -0.184 C  
ENDBRANCH  24  34
BRANCH  27  36
HETATM   36  O   UNK A   2      -6.375   5.179  72.671  1.00  0.00    -0.036 OA 
HETATM   37  C   UNK A   2      -5.391   4.366  72.063  1.00  0.00    -0.004 C  
ENDBRANCH  27  36
ENDBRANCH  17  19
ENDBRANCH  15  17
ENDBRANCH   6  15
ENDBRANCH   4   6
ENDBRANCH   3   4
ENDBRANCH   2   3
TORSDOF 11
ENDMDL
MODEL      143
REMARK 921   NORMALIZED FREE ENERGY PREDICTED BY IDOCK:   -4.19 KCAL/MOL
REMARK 922        TOTAL FREE ENERGY PREDICTED BY IDOCK:   -8.79 KCAL/MOL
REMARK 923 INTER-LIGAND FREE ENERGY PREDICTED BY IDOCK:   -7.36 KCAL/MOL
REMARK 924 INTRA-LIGAND FREE ENERGY PREDICTED BY IDOCK:   -1.43 KCAL/MOL
REMARK 927      BINDING AFFINITY PREDICTED BY RF-SCORE:    0.00 PKD
ROOT
HETATM    1  C   UNK A   0      -9.891   3.798  65.304  1.00  0.00    -0.146 C  
HETATM    2  C   UNK A   0      -8.831   4.634  64.612  1.00  0.00    -0.153 C  
ENDROOT
BRANCH   2   3
HETATM    3  O   UNK A   0      -8.389   5.651  65.516  1.00  0.00    -0.126 OA 
BRANCH   3   4
HETATM    4  C   UNK A   0      -7.875   6.786  64.959  1.00  0.00    -0.118 C  
HETATM    5  O   UNK A   0      -8.143   7.228  63.846  1.00  0.00    -0.107 OA 
BRANCH   4   6
HETATM    6  C   UNK A   0      -6.962   7.467  65.979  1.00  0.00    -0.061 C  
BRANCH   6   7
HETATM    7  C   UNK A   0      -6.319   6.412  66.883  1.00  0.00    -0.041 C  
BRANCH   7   8
HETATM    8  C   UNK A   0      -6.565   6.436  68.399  1.00  0.00    -0.058 C  
BRANCH   8   9
HETATM    9  C   UNK A   0      -7.523   5.316  68.838  1.00  0.00    -0.074 A  
HETATM   10  C   UNK A   0      -8.901   5.563  68.924  1.00  0.00    -0.110 A  
HETATM   11  C   UNK A   0      -9.801   4.520  69.209  1.00  0.00    -0.241 A  
HETATM   12  C   UNK A   0      -7.090   3.996  69.092  1.00  0.00    -0.047 A  
HETATM   13  C   UNK A   0      -9.344   3.217  69.405  1.00  0.00    -0.232 A  
HETATM   14  C   UNK A   0      -7.984   2.958  69.356  1.00  0.00    -0.055 A  
ENDBRANCH   8   9
ENDBRANCH   7   8
ENDBRANCH   6   7
BRANCH   6  15
ATOM     15  N   ALA A   1      -7.731   8.448  66.784  1.00  0.00    -0.090 NA 
ATOM     16  H   ALA A   1      -8.104   8.164  67.689  1.00  0.00     0.000 HD 
BRANCH  15  17
ATOM     17  CA  ALA A   1      -7.973   9.839  66.301  1.00  0.00    -0.109 C  
ATOM     18  CB  ALA A   1      -6.981  10.523  65.345  1.00  0.00    -0.074 C  
BRANCH  17  19
ATOM     19  C   ALA A   1      -9.460  10.203  65.982  1.00  0.00    -0.197 C  
ATOM     20  O   ALA A   1     -10.250   9.289  65.716  1.00  0.00    -0.187 OA 
HETATM   21  C   UNK A   2      -9.599  13.581  67.395  1.00  0.00    -0.227 A  
HETATM   22  C   UNK A   2      -8.738  14.613  67.788  1.00  0.00    -0.172 A  
HETATM   23  N   UNK A   2      -9.936  11.497  66.123  1.00  0.00    -0.216 N  
HETATM   24  C   UNK A   2      -9.104  15.487  68.797  1.00  0.00    -0.207 A  
HETATM   25  C   UNK A   2      -9.127  12.673  66.314  1.00  0.00    -0.046 C  
HETATM   26  O   UNK A   2     -13.102  12.416  64.535  1.00  0.00    -0.823 OA 
HETATM   27  C   UNK A   2     -10.331  15.324  69.442  1.00  0.00    -0.254 A  
HETATM   28  C   UNK A   2     -11.201  14.290  69.038  1.00  0.00    -0.294 A  
HETATM   29  O   UNK A   2     -11.233  13.659  64.548  1.00  0.00    -0.359 OA 
HETATM   30  C   UNK A   2     -11.865  12.703  64.991  1.00  0.00    -0.395 C  
HETATM   31  C   UNK A   2     -10.852  13.433  67.987  1.00  0.00    -0.264 A  
HETATM   32  C   UNK A   2     -11.384  11.765  66.127  1.00  0.00    -0.280 C  
HETATM   33  C   UNK A   2     -11.773  12.329  67.512  1.00  0.00    -0.402 C  
BRANCH  24  34
HETATM   34  O   UNK A   2      -8.343  16.561  69.185  1.00  0.00    -0.235 OA 
HETATM   35  C   UNK A   2      -8.377  17.648  68.281  1.00  0.00    -0.274 C  
ENDBRANCH  24  34
BRANCH  27  36
HETATM   36  O   UNK A   2     -10.562  16.205  70.454  1.00  0.00    -0.226 OA 
HETATM   37  C   UNK A   2     -11.701  15.987  71.264  1.00  0.00    -0.461 C  
ENDBRANCH  27  36
ENDBRANCH  17  19
ENDBRANCH  15  17
ENDBRANCH   6  15
ENDBRANCH   4   6
ENDBRANCH   3   4
ENDBRANCH   2   3
TORSDOF 11
ENDMDL
MODEL      144
REMARK 921   NORMALIZED FREE ENERGY PREDICTED BY IDOCK:   -4.18 KCAL/MOL
REMARK 922        TOTAL FREE ENERGY PREDICTED BY IDOCK:   -8.78 KCAL/MOL
REMARK 923 INTER-LIGAND FREE ENERGY PREDICTED BY IDOCK:   -7.92 KCAL/MOL
REMARK 924 INTRA-LIGAND FREE ENERGY PREDICTED BY IDOCK:   -0.86 KCAL/MOL
REMARK 927      BINDING AFFINITY PREDICTED BY RF-SCORE:    0.00 PKD
ROOT
HETATM    1  C   UNK A   0      -9.950   3.582  64.674  1.00  0.00    -0.153 C  
HETATM    2  C   UNK A   0      -8.540   3.376  65.192  1.00  0.00    -0.112 C  
ENDROOT
BRANCH   2   3
HETATM    3  O   UNK A   0      -8.513   3.701  66.585  1.00  0.00    -0.103 OA 
BRANCH   3   4
HETATM    4  C   UNK A   0      -7.412   4.367  67.040  1.00  0.00    -0.081 C  
HETATM    5  O   UNK A   0      -6.323   4.428  66.477  1.00  0.00    -0.035 OA 
BRANCH   4   6
HETATM    6  C   UNK A   0      -7.774   5.094  68.335  1.00  0.00    -0.080 C  
BRANCH   6   7
HETATM    7  C   UNK A   0      -9.258   4.890  68.645  1.00  0.00    -0.159 C  
BRANCH   7   8
HETATM    8  C   UNK A   0      -9.701   4.415  70.039  1.00  0.00    -0.286 C  
BRANCH   8   9
HETATM    9  C   UNK A   0     -10.539   5.481  70.763  1.00  0.00    -0.320 A  
HETATM   10  C   UNK A   0     -10.335   5.729  72.128  1.00  0.00    -0.249 A  
HETATM   11  C   UNK A   0     -11.009   6.779  72.777  1.00  0.00    -0.303 A  
HETATM   12  C   UNK A   0     -11.476   6.300  70.095  1.00  0.00    -0.452 A  
HETATM   13  C   UNK A   0     -11.891   7.601  72.075  1.00  0.00    -0.342 A  
HETATM   14  C   UNK A   0     -12.131   7.354  70.734  1.00  0.00    -0.233 A  
ENDBRANCH   8   9
ENDBRANCH   7   8
ENDBRANCH   6   7
BRANCH   6  15
ATOM     15  N   ALA A   1      -7.457   6.539  68.219  1.00  0.00    -0.093 NA 
ATOM     16  H   ALA A   1      -6.523   6.864  68.467  1.00  0.00     0.000 HD 
BRANCH  15  17
ATOM     17  CA  ALA A   1      -8.471   7.528  67.749  1.00  0.00    -0.118 C  
ATOM     18  CB  ALA A   1      -9.504   7.147  66.675  1.00  0.00    -0.219 C  
BRANCH  17  19
ATOM     19  C   ALA A   1      -9.068   8.469  68.847  1.00  0.00    -0.146 C  
ATOM     20  O   ALA A   1      -8.690   8.328  70.016  1.00  0.00    -0.130 OA 
HETATM   21  C   UNK A   2     -10.391  11.150  66.729  1.00  0.00    -0.284 A  
HETATM   22  C   UNK A   2     -10.752  11.381  65.396  1.00  0.00    -0.313 A  
HETATM   23  N   UNK A   2      -9.896   9.531  68.520  1.00  0.00    -0.155 N  
HETATM   24  C   UNK A   2     -10.658  12.651  64.853  1.00  0.00    -0.307 A  
HETATM   25  C   UNK A   2     -10.506   9.755  67.235  1.00  0.00    -0.261 C  
HETATM   26  O   UNK A   2     -11.920  11.086  71.141  1.00  0.00    -0.279 OA 
HETATM   27  C   UNK A   2     -10.176  13.703  65.634  1.00  0.00    -0.304 A  
HETATM   28  C   UNK A   2      -9.823  13.470  66.979  1.00  0.00    -0.251 A  
HETATM   29  O   UNK A   2     -12.621  10.581  69.070  1.00  0.00    -0.134 OA 
HETATM   30  C   UNK A   2     -11.693  10.726  69.861  1.00  0.00    -0.333 C  
HETATM   31  C   UNK A   2      -9.960  12.196  67.544  1.00  0.00    -0.202 A  
HETATM   32  C   UNK A   2     -10.190  10.581  69.509  1.00  0.00    -0.200 C  
HETATM   33  C   UNK A   2      -9.613  11.917  68.990  1.00  0.00     0.192 C  
BRANCH  24  34
HETATM   34  O   UNK A   2     -11.059  12.964  63.579  1.00  0.00    -0.398 OA 
HETATM   35  C   UNK A   2     -12.356  12.505  63.255  1.00  0.00    -0.371 C  
ENDBRANCH  24  34
BRANCH  27  36
HETATM   36  O   UNK A   2     -10.073  14.894  64.981  1.00  0.00    -0.360 OA 
HETATM   37  C   UNK A   2     -10.030  16.069  65.767  1.00  0.00    -0.351 C  
ENDBRANCH  27  36
ENDBRANCH  17  19
ENDBRANCH  15  17
ENDBRANCH   6  15
ENDBRANCH   4   6
ENDBRANCH   3   4
ENDBRANCH   2   3
TORSDOF 11
ENDMDL
MODEL      145
REMARK 921   NORMALIZED FREE ENERGY PREDICTED BY IDOCK:   -4.18 KCAL/MOL
REMARK 922        TOTAL FREE ENERGY PREDICTED BY IDOCK:   -8.78 KCAL/MOL
REMARK 923 INTER-LIGAND FREE ENERGY PREDICTED BY IDOCK:   -8.36 KCAL/MOL
REMARK 924 INTRA-LIGAND FREE ENERGY PREDICTED BY IDOCK:   -0.42 KCAL/MOL
REMARK 927      BINDING AFFINITY PREDICTED BY RF-SCORE:    0.00 PKD
ROOT
HETATM    1  C   UNK A   0     -12.141  12.740  63.921  1.00  0.00    -0.562 C  
HETATM    2  C   UNK A   0     -11.843  14.207  64.159  1.00  0.00    -0.337 C  
ENDROOT
BRANCH   2   3
HETATM    3  O   UNK A   0     -11.845  14.452  65.569  1.00  0.00    -0.351 OA 
BRANCH   3   4
HETATM    4  C   UNK A   0     -11.544  13.394  66.376  1.00  0.00    -0.346 C  
HETATM    5  O   UNK A   0     -12.219  12.379  66.517  1.00  0.00    -0.586 OA 
BRANCH   4   6
HETATM    6  C   UNK A   0     -10.183  13.641  67.027  1.00  0.00    -0.250 C  
BRANCH   6   7
HETATM    7  C   UNK A   0      -9.689  15.047  66.676  1.00  0.00    -0.273 C  
BRANCH   7   8
HETATM    8  C   UNK A   0      -9.212  16.000  67.783  1.00  0.00    -0.205 C  
BRANCH   8   9
HETATM    9  C   UNK A   0      -9.613  17.455  67.492  1.00  0.00    -0.257 A  
HETATM   10  C   UNK A   0     -10.033  17.825  66.206  1.00  0.00    -0.322 A  
HETATM   11  C   UNK A   0     -10.515  19.122  65.953  1.00  0.00    -0.500 A  
HETATM   12  C   UNK A   0      -9.657  18.451  68.492  1.00  0.00    -0.368 A  
HETATM   13  C   UNK A   0     -10.591  20.067  66.976  1.00  0.00    -0.452 A  
HETATM   14  C   UNK A   0     -10.151  19.732  68.246  1.00  0.00    -0.575 A  
ENDBRANCH   8   9
ENDBRANCH   7   8
ENDBRANCH   6   7
BRANCH   6  15
ATOM     15  N   ALA A   1      -9.206  12.616  66.582  1.00  0.00    -0.243 NA 
ATOM     16  H   ALA A   1      -9.092  12.438  65.584  1.00  0.00     0.000 HD 
BRANCH  15  17
ATOM     17  CA  ALA A   1      -8.388  11.839  67.558  1.00  0.00    -0.154 C  
ATOM     18  CB  ALA A   1      -7.213  12.498  68.301  1.00  0.00    -0.111 C  
BRANCH  17  19
ATOM     19  C   ALA A   1      -9.173  10.828  68.456  1.00  0.00    -0.174 C  
ATOM     20  O   ALA A   1     -10.141  11.241  69.107  1.00  0.00    -0.174 OA 
HETATM   21  C   UNK A   2      -8.048   7.667  66.983  1.00  0.00    -0.117 A  
HETATM   22  C   UNK A   2      -7.015   7.169  66.178  1.00  0.00    -0.065 A  
HETATM   23  N   UNK A   2      -8.896   9.470  68.434  1.00  0.00    -0.124 N  
HETATM   24  C   UNK A   2      -7.229   6.073  65.360  1.00  0.00    -0.074 A  
HETATM   25  C   UNK A   2      -7.744   8.859  67.822  1.00  0.00    -0.101 C  
HETATM   26  O   UNK A   2     -10.125   7.353  71.153  1.00  0.00    -0.187 OA 
HETATM   27  C   UNK A   2      -8.490   5.475  65.321  1.00  0.00    -0.147 A  
HETATM   28  C   UNK A   2      -9.525   5.972  66.140  1.00  0.00    -0.116 A  
HETATM   29  O   UNK A   2      -8.077   7.256  70.240  1.00  0.00    -0.116 OA 
HETATM   30  C   UNK A   2      -9.235   7.663  70.188  1.00  0.00    -0.154 C  
HETATM   31  C   UNK A   2      -9.298   7.052  67.001  1.00  0.00    -0.174 A  
HETATM   32  C   UNK A   2      -9.833   8.505  69.032  1.00  0.00    -0.183 C  
HETATM   33  C   UNK A   2     -10.380   7.594  67.910  1.00  0.00    -0.270 C  
BRANCH  24  34
HETATM   34  O   UNK A   2      -6.247   5.489  64.600  1.00  0.00    -0.022 OA 
HETATM   35  C   UNK A   2      -5.800   6.290  63.524  1.00  0.00    -0.022 C  
ENDBRANCH  24  34
BRANCH  27  36
HETATM   36  O   UNK A   2      -8.600   4.441  64.442  1.00  0.00    -0.120 OA 
HETATM   37  C   UNK A   2      -8.861   3.156  64.972  1.00  0.00    -0.126 C  
ENDBRANCH  27  36
ENDBRANCH  17  19
ENDBRANCH  15  17
ENDBRANCH   6  15
ENDBRANCH   4   6
ENDBRANCH   3   4
ENDBRANCH   2   3
TORSDOF 11
ENDMDL
MODEL      146
REMARK 921   NORMALIZED FREE ENERGY PREDICTED BY IDOCK:   -4.14 KCAL/MOL
REMARK 922        TOTAL FREE ENERGY PREDICTED BY IDOCK:   -8.70 KCAL/MOL
REMARK 923 INTER-LIGAND FREE ENERGY PREDICTED BY IDOCK:   -8.48 KCAL/MOL
REMARK 924 INTRA-LIGAND FREE ENERGY PREDICTED BY IDOCK:   -0.22 KCAL/MOL
REMARK 927      BINDING AFFINITY PREDICTED BY RF-SCORE:    0.00 PKD
ROOT
HETATM    1  C   UNK A   0     -12.203   7.231  71.622  1.00  0.00    -0.377 C  
HETATM    2  C   UNK A   0     -11.422   8.456  72.056  1.00  0.00    -0.349 C  
ENDROOT
BRANCH   2   3
HETATM    3  O   UNK A   0     -10.914   9.111  70.889  1.00  0.00    -0.239 OA 
BRANCH   3   4
HETATM    4  C   UNK A   0      -9.573   9.012  70.664  1.00  0.00    -0.237 C  
HETATM    5  O   UNK A   0      -8.687   9.496  71.362  1.00  0.00    -0.211 OA 
BRANCH   4   6
HETATM    6  C   UNK A   0      -9.342   8.133  69.434  1.00  0.00    -0.155 C  
BRANCH   6   7
HETATM    7  C   UNK A   0      -7.984   7.436  69.545  1.00  0.00    -0.127 C  
BRANCH   7   8
HETATM    8  C   UNK A   0      -7.899   5.902  69.553  1.00  0.00    -0.098 C  
BRANCH   8   9
HETATM    9  C   UNK A   0      -7.415   5.366  70.911  1.00  0.00    -0.087 A  
HETATM   10  C   UNK A   0      -8.071   5.746  72.091  1.00  0.00    -0.108 A  
HETATM   11  C   UNK A   0      -7.717   5.175  73.326  1.00  0.00    -0.096 A  
HETATM   12  C   UNK A   0      -6.366   4.429  71.033  1.00  0.00    -0.019 A  
HETATM   13  C   UNK A   0      -6.709   4.213  73.404  1.00  0.00    -0.052 A  
HETATM   14  C   UNK A   0      -6.026   3.848  72.255  1.00  0.00    -0.009 A  
ENDBRANCH   8   9
ENDBRANCH   7   8
ENDBRANCH   6   7
BRANCH   6  15
ATOM     15  N   ALA A   1      -9.412   8.951  68.197  1.00  0.00    -0.142 NA 
ATOM     16  H   ALA A   1      -9.487   8.481  67.295  1.00  0.00     0.000 HD 
BRANCH  15  17
ATOM     17  CA  ALA A   1      -9.377  10.442  68.242  1.00  0.00    -0.149 C  
ATOM     18  CB  ALA A   1      -8.066  11.206  67.989  1.00  0.00    -0.123 C  
BRANCH  17  19
ATOM     19  C   ALA A   1     -10.622  11.173  67.640  1.00  0.00    -0.211 C  
ATOM     20  O   ALA A   1     -11.731  10.635  67.743  1.00  0.00    -0.503 OA 
HETATM   21  C   UNK A   2      -9.272  14.565  67.328  1.00  0.00    -0.213 A  
HETATM   22  C   UNK A   2      -8.038  15.227  67.292  1.00  0.00    -0.229 A  
HETATM   23  N   UNK A   2     -10.531  12.456  67.124  1.00  0.00    -0.219 N  
HETATM   24  C   UNK A   2      -7.927  16.530  67.745  1.00  0.00    -0.160 A  
HETATM   25  C   UNK A   2      -9.307  13.160  66.837  1.00  0.00    -0.246 C  
HETATM   26  O   UNK A   2     -13.214  13.708  64.974  1.00  0.00    -0.729 OA 
HETATM   27  C   UNK A   2      -9.049  17.180  68.263  1.00  0.00    -0.259 A  
HETATM   28  C   UNK A   2     -10.292  16.515  68.289  1.00  0.00    -0.293 A  
HETATM   29  O   UNK A   2     -11.014  13.967  64.610  1.00  0.00    -0.376 OA 
HETATM   30  C   UNK A   2     -11.926  13.659  65.373  1.00  0.00    -0.378 C  
HETATM   31  C   UNK A   2     -10.417  15.213  67.790  1.00  0.00    -0.247 A  
HETATM   32  C   UNK A   2     -11.746  13.242  66.856  1.00  0.00    -0.388 C  
HETATM   33  C   UNK A   2     -11.741  14.480  67.781  1.00  0.00    -0.403 C  
BRANCH  24  34
HETATM   34  O   UNK A   2      -6.769  17.263  67.674  1.00  0.00    -0.144 OA 
HETATM   35  C   UNK A   2      -6.045  17.081  66.474  1.00  0.00    -0.156 C  
ENDBRANCH  24  34
BRANCH  27  36
HETATM   36  O   UNK A   2      -8.811  18.437  68.730  1.00  0.00    -0.294 OA 
HETATM   37  C   UNK A   2      -9.897  19.342  68.755  1.00  0.00    -0.456 C  
ENDBRANCH  27  36
ENDBRANCH  17  19
ENDBRANCH  15  17
ENDBRANCH   6  15
ENDBRANCH   4   6
ENDBRANCH   3   4
ENDBRANCH   2   3
TORSDOF 11
ENDMDL
MODEL      147
REMARK 921   NORMALIZED FREE ENERGY PREDICTED BY IDOCK:   -4.13 KCAL/MOL
REMARK 922        TOTAL FREE ENERGY PREDICTED BY IDOCK:   -8.70 KCAL/MOL
REMARK 923 INTER-LIGAND FREE ENERGY PREDICTED BY IDOCK:   -8.22 KCAL/MOL
REMARK 924 INTRA-LIGAND FREE ENERGY PREDICTED BY IDOCK:   -0.47 KCAL/MOL
REMARK 927      BINDING AFFINITY PREDICTED BY RF-SCORE:    0.00 PKD
ROOT
HETATM    1  C   UNK A   0     -12.067  13.003  63.242  1.00  0.00    -0.499 C  
HETATM    2  C   UNK A   0     -10.863  12.638  64.087  1.00  0.00    -0.396 C  
ENDROOT
BRANCH   2   3
HETATM    3  O   UNK A   0     -10.649  13.675  65.050  1.00  0.00    -0.337 OA 
BRANCH   3   4
HETATM    4  C   UNK A   0     -11.450  13.665  66.153  1.00  0.00    -0.325 C  
HETATM    5  O   UNK A   0     -12.668  13.514  66.158  1.00  0.00    -0.339 OA 
BRANCH   4   6
HETATM    6  C   UNK A   0     -10.576  13.797  67.401  1.00  0.00    -0.260 C  
BRANCH   6   7
HETATM    7  C   UNK A   0      -9.549  14.913  67.197  1.00  0.00    -0.229 C  
BRANCH   7   8
HETATM    8  C   UNK A   0      -9.267  15.922  68.321  1.00  0.00    -0.189 C  
BRANCH   8   9
HETATM    9  C   UNK A   0      -8.261  16.998  67.880  1.00  0.00    -0.200 A  
HETATM   10  C   UNK A   0      -8.452  18.335  68.257  1.00  0.00    -0.309 A  
HETATM   11  C   UNK A   0      -7.482  19.310  67.963  1.00  0.00    -0.312 A  
HETATM   12  C   UNK A   0      -7.084  16.696  67.161  1.00  0.00    -0.221 A  
HETATM   13  C   UNK A   0      -6.306  18.967  67.294  1.00  0.00    -0.189 A  
HETATM   14  C   UNK A   0      -6.113  17.659  66.884  1.00  0.00    -0.192 A  
ENDBRANCH   8   9
ENDBRANCH   7   8
ENDBRANCH   6   7
BRANCH   6  15
ATOM     15  N   ALA A   1      -9.899  12.509  67.693  1.00  0.00    -0.198 NA 
ATOM     16  H   ALA A   1      -8.953  12.520  68.072  1.00  0.00     0.000 HD 
BRANCH  15  17
ATOM     17  CA  ALA A   1     -10.569  11.199  67.446  1.00  0.00    -0.234 C  
ATOM     18  CB  ALA A   1      -9.985  10.194  66.438  1.00  0.00    -0.295 C  
BRANCH  17  19
ATOM     19  C   ALA A   1     -11.186  10.499  68.701  1.00  0.00    -0.270 C  
ATOM     20  O   ALA A   1     -12.319  10.833  69.068  1.00  0.00    -0.422 OA 
HETATM   21  C   UNK A   2      -9.037   7.538  68.893  1.00  0.00    -0.140 A  
HETATM   22  C   UNK A   2      -7.795   7.085  68.429  1.00  0.00    -0.122 A  
HETATM   23  N   UNK A   2     -10.555   9.432  69.320  1.00  0.00    -0.224 N  
HETATM   24  C   UNK A   2      -7.575   5.735  68.217  1.00  0.00    -0.085 A  
HETATM   25  C   UNK A   2      -9.199   9.005  69.082  1.00  0.00    -0.144 C  
HETATM   26  O   UNK A   2     -11.584   8.464  72.695  1.00  0.00    -0.385 OA 
HETATM   27  C   UNK A   2      -8.606   4.822  68.443  1.00  0.00    -0.097 A  
HETATM   28  C   UNK A   2      -9.852   5.279  68.919  1.00  0.00    -0.230 A  
HETATM   29  O   UNK A   2      -9.468   8.617  71.963  1.00  0.00    -0.261 OA 
HETATM   30  C   UNK A   2     -10.669   8.577  71.711  1.00  0.00    -0.303 C  
HETATM   31  C   UNK A   2     -10.063   6.639  69.179  1.00  0.00    -0.185 A  
HETATM   32  C   UNK A   2     -11.281   8.591  70.286  1.00  0.00    -0.179 C  
HETATM   33  C   UNK A   2     -11.379   7.160  69.713  1.00  0.00    -0.158 C  
BRANCH  24  34
HETATM   34  O   UNK A   2      -6.365   5.214  67.832  1.00  0.00    -0.037 OA 
HETATM   35  C   UNK A   2      -5.432   6.183  67.399  1.00  0.00    -0.005 C  
ENDBRANCH  24  34
BRANCH  27  36
HETATM   36  O   UNK A   2      -8.295   3.529  68.148  1.00  0.00    -0.081 OA 
HETATM   37  C   UNK A   2      -9.221   2.795  67.372  1.00  0.00    -0.174 C  
ENDBRANCH  27  36
ENDBRANCH  17  19
ENDBRANCH  15  17
ENDBRANCH   6  15
ENDBRANCH   4   6
ENDBRANCH   3   4
ENDBRANCH   2   3
TORSDOF 11
ENDMDL
MODEL      148
REMARK 921   NORMALIZED FREE ENERGY PREDICTED BY IDOCK:   -4.13 KCAL/MOL
REMARK 922        TOTAL FREE ENERGY PREDICTED BY IDOCK:   -8.69 KCAL/MOL
REMARK 923 INTER-LIGAND FREE ENERGY PREDICTED BY IDOCK:   -8.37 KCAL/MOL
REMARK 924 INTRA-LIGAND FREE ENERGY PREDICTED BY IDOCK:   -0.32 KCAL/MOL
REMARK 927      BINDING AFFINITY PREDICTED BY RF-SCORE:    0.00 PKD
ROOT
HETATM    1  C   UNK A   0      -7.494   6.149  70.696  1.00  0.00    -0.087 C  
HETATM    2  C   UNK A   0      -8.681   6.892  70.114  1.00  0.00    -0.141 C  
ENDROOT
BRANCH   2   3
HETATM    3  O   UNK A   0      -8.349   7.317  68.789  1.00  0.00    -0.127 OA 
BRANCH   3   4
HETATM    4  C   UNK A   0      -9.287   8.054  68.127  1.00  0.00    -0.139 C  
HETATM    5  O   UNK A   0     -10.453   7.727  67.930  1.00  0.00    -0.214 OA 
BRANCH   4   6
HETATM    6  C   UNK A   0      -8.672   9.396  67.730  1.00  0.00    -0.116 C  
BRANCH   6   7
HETATM    7  C   UNK A   0      -7.275   9.172  67.145  1.00  0.00    -0.086 C  
BRANCH   7   8
HETATM    8  C   UNK A   0      -6.707  10.146  66.100  1.00  0.00    -0.106 C  
BRANCH   8   9
HETATM    9  C   UNK A   0      -7.618  10.251  64.866  1.00  0.00    -0.119 A  
HETATM   10  C   UNK A   0      -7.180   9.767  63.625  1.00  0.00    -0.119 A  
HETATM   11  C   UNK A   0      -8.043   9.749  62.515  1.00  0.00    -0.139 A  
HETATM   12  C   UNK A   0      -8.936  10.753  64.930  1.00  0.00    -0.201 A  
HETATM   13  C   UNK A   0      -9.356  10.206  62.626  1.00  0.00    -0.322 A  
HETATM   14  C   UNK A   0      -9.799  10.718  63.834  1.00  0.00    -0.389 A  
ENDBRANCH   8   9
ENDBRANCH   7   8
ENDBRANCH   6   7
BRANCH   6  15
ATOM     15  N   ALA A   1      -8.609  10.301  68.905  1.00  0.00    -0.141 NA 
ATOM     16  H   ALA A   1      -8.453   9.902  69.831  1.00  0.00     0.000 HD 
BRANCH  15  17
ATOM     17  CA  ALA A   1      -8.767  11.778  68.766  1.00  0.00     0.024 C  
ATOM     18  CB  ALA A   1      -7.581  12.661  68.343  1.00  0.00    -0.132 C  
BRANCH  17  19
ATOM     19  C   ALA A   1     -10.123  12.265  68.157  1.00  0.00    -0.211 C  
ATOM     20  O   ALA A   1     -11.167  11.700  68.507  1.00  0.00    -0.214 OA 
HETATM   21  C   UNK A   2      -9.109  15.557  66.910  1.00  0.00    -0.264 A  
HETATM   22  C   UNK A   2      -7.946  16.265  66.580  1.00  0.00    -0.326 A  
HETATM   23  N   UNK A   2     -10.193  13.388  67.348  1.00  0.00    -0.235 N  
HETATM   24  C   UNK A   2      -7.905  17.643  66.701  1.00  0.00    -0.248 A  
HETATM   25  C   UNK A   2      -9.069  14.076  66.767  1.00  0.00    -0.232 C  
HETATM   26  O   UNK A   2     -13.169  13.919  65.286  1.00  0.00    -0.774 OA 
HETATM   27  C   UNK A   2      -9.023  18.329  67.177  1.00  0.00    -0.264 A  
HETATM   28  C   UNK A   2     -10.196  17.616  67.500  1.00  0.00    -0.348 A  
HETATM   29  O   UNK A   2     -11.046  14.216  64.624  1.00  0.00    -0.374 OA 
HETATM   30  C   UNK A   2     -11.850  14.046  65.536  1.00  0.00    -0.365 C  
HETATM   31  C   UNK A   2     -10.255  16.226  67.335  1.00  0.00    -0.275 A  
HETATM   32  C   UNK A   2     -11.492  14.011  67.045  1.00  0.00    -0.351 C  
HETATM   33  C   UNK A   2     -11.505  15.434  67.649  1.00  0.00    -0.255 C  
BRANCH  24  34
HETATM   34  O   UNK A   2      -6.827  18.407  66.330  1.00  0.00    -0.200 OA 
HETATM   35  C   UNK A   2      -5.672  17.656  66.010  1.00  0.00    -0.187 C  
ENDBRANCH  24  34
BRANCH  27  36
HETATM   36  O   UNK A   2      -8.851  19.674  67.308  1.00  0.00    -0.299 OA 
HETATM   37  C   UNK A   2     -10.010  20.485  67.302  1.00  0.00    -0.387 C  
ENDBRANCH  27  36
ENDBRANCH  17  19
ENDBRANCH  15  17
ENDBRANCH   6  15
ENDBRANCH   4   6
ENDBRANCH   3   4
ENDBRANCH   2   3
TORSDOF 11
ENDMDL
MODEL      149
REMARK 921   NORMALIZED FREE ENERGY PREDICTED BY IDOCK:   -4.09 KCAL/MOL
REMARK 922        TOTAL FREE ENERGY PREDICTED BY IDOCK:   -8.63 KCAL/MOL
REMARK 923 INTER-LIGAND FREE ENERGY PREDICTED BY IDOCK:   -7.01 KCAL/MOL
REMARK 924 INTRA-LIGAND FREE ENERGY PREDICTED BY IDOCK:   -1.61 KCAL/MOL
REMARK 927      BINDING AFFINITY PREDICTED BY RF-SCORE:    0.00 PKD
ROOT
HETATM    1  C   UNK A   0     -13.114  12.186  71.907  1.00  0.00    -0.475 C  
HETATM    2  C   UNK A   0     -13.284  10.682  71.987  1.00  0.00    -0.368 C  
ENDROOT
BRANCH   2   3
HETATM    3  O   UNK A   0     -12.815  10.103  70.764  1.00  0.00    -0.342 OA 
BRANCH   3   4
HETATM    4  C   UNK A   0     -11.810   9.186  70.864  1.00  0.00    -0.270 C  
HETATM    5  O   UNK A   0     -11.888   8.088  71.406  1.00  0.00    -0.283 OA 
BRANCH   4   6
HETATM    6  C   UNK A   0     -10.583   9.715  70.122  1.00  0.00    -0.272 C  
BRANCH   6   7
HETATM    7  C   UNK A   0     -11.022  10.671  69.010  1.00  0.00    -0.295 C  
BRANCH   7   8
HETATM    8  C   UNK A   0      -9.987  11.543  68.283  1.00  0.00    -0.205 C  
BRANCH   8   9
HETATM    9  C   UNK A   0     -10.319  11.694  66.790  1.00  0.00    -0.257 A  
HETATM   10  C   UNK A   0     -10.790  12.918  66.294  1.00  0.00    -0.295 A  
HETATM   11  C   UNK A   0     -10.986  13.107  64.915  1.00  0.00    -0.337 A  
HETATM   12  C   UNK A   0     -10.098  10.664  65.850  1.00  0.00    -0.321 A  
HETATM   13  C   UNK A   0     -10.710  12.084  64.008  1.00  0.00    -0.426 A  
HETATM   14  C   UNK A   0     -10.274  10.856  64.479  1.00  0.00    -0.422 A  
ENDBRANCH   8   9
ENDBRANCH   7   8
ENDBRANCH   6   7
BRANCH   6  15
ATOM     15  N   ALA A   1      -9.795   8.588  69.563  1.00  0.00    -0.184 NA 
ATOM     16  H   ALA A   1     -10.093   8.159  68.688  1.00  0.00     0.000 HD 
BRANCH  15  17
ATOM     17  CA  ALA A   1      -8.577   8.068  70.251  1.00  0.00    -0.132 C  
ATOM     18  CB  ALA A   1      -7.809   8.940  71.259  1.00  0.00    -0.163 C  
BRANCH  17  19
ATOM     19  C   ALA A   1      -8.622   6.563  70.674  1.00  0.00    -0.139 C  
ATOM     20  O   ALA A   1      -9.128   6.269  71.764  1.00  0.00    -0.144 OA 
HETATM   21  C   UNK A   2      -8.088   4.974  67.416  1.00  0.00    -0.103 A  
HETATM   22  C   UNK A   2      -7.600   5.286  66.140  1.00  0.00    -0.087 A  
HETATM   23  N   UNK A   2      -8.235   5.553  69.807  1.00  0.00    -0.100 N  
HETATM   24  C   UNK A   2      -8.083   4.626  65.024  1.00  0.00    -0.102 A  
HETATM   25  C   UNK A   2      -7.529   5.738  68.565  1.00  0.00    -0.085 C  
HETATM   26  O   UNK A   2      -7.530   2.222  71.147  1.00  0.00    -0.033 OA 
HETATM   27  C   UNK A   2      -9.081   3.660  65.169  1.00  0.00    -0.143 A  
HETATM   28  C   UNK A   2      -9.563   3.341  66.455  1.00  0.00    -0.025 A  
HETATM   29  O   UNK A   2      -6.305   3.301  69.607  1.00  0.00    -0.027 OA 
HETATM   30  C   UNK A   2      -7.348   3.213  70.251  1.00  0.00    -0.040 C  
HETATM   31  C   UNK A   2      -9.044   3.975  67.590  1.00  0.00    -0.172 A  
HETATM   32  C   UNK A   2      -8.574   4.150  70.095  1.00  0.00    -0.069 C  
HETATM   33  C   UNK A   2      -9.522   3.639  68.986  1.00  0.00    -0.226 C  
BRANCH  24  34
HETATM   34  O   UNK A   2      -7.603   4.829  63.755  1.00  0.00    -0.061 OA 
HETATM   35  C   UNK A   2      -7.896   6.107  63.226  1.00  0.00    -0.100 C  
ENDBRANCH  24  34
BRANCH  27  36
HETATM   36  O   UNK A   2      -9.519   3.117  63.999  1.00  0.00    -0.122 OA 
HETATM   37  C   UNK A   2     -10.871   3.333  63.644  1.00  0.00    -0.191 C  
ENDBRANCH  27  36
ENDBRANCH  17  19
ENDBRANCH  15  17
ENDBRANCH   6  15
ENDBRANCH   4   6
ENDBRANCH   3   4
ENDBRANCH   2   3
TORSDOF 11
ENDMDL
MODEL      150
REMARK 921   NORMALIZED FREE ENERGY PREDICTED BY IDOCK:   -4.09 KCAL/MOL
REMARK 922        TOTAL FREE ENERGY PREDICTED BY IDOCK:   -8.62 KCAL/MOL
REMARK 923 INTER-LIGAND FREE ENERGY PREDICTED BY IDOCK:   -8.57 KCAL/MOL
REMARK 924 INTRA-LIGAND FREE ENERGY PREDICTED BY IDOCK:   -0.06 KCAL/MOL
REMARK 927      BINDING AFFINITY PREDICTED BY RF-SCORE:    0.00 PKD
ROOT
HETATM    1  C   UNK A   0     -13.531  13.475  72.240  1.00  0.00    -0.669 C  
HETATM    2  C   UNK A   0     -13.398  14.423  71.065  1.00  0.00    -0.300 C  
ENDROOT
BRANCH   2   3
HETATM    3  O   UNK A   0     -12.119  14.220  70.456  1.00  0.00    -0.299 OA 
BRANCH   3   4
HETATM    4  C   UNK A   0     -11.500  15.323  69.944  1.00  0.00    -0.304 C  
HETATM    5  O   UNK A   0     -11.285  16.372  70.543  1.00  0.00    -0.369 OA 
BRANCH   4   6
HETATM    6  C   UNK A   0     -11.046  15.017  68.516  1.00  0.00    -0.272 C  
BRANCH   6   7
HETATM    7  C   UNK A   0     -12.133  14.224  67.787  1.00  0.00    -0.316 C  
BRANCH   7   8
HETATM    8  C   UNK A   0     -11.950  12.723  67.517  1.00  0.00    -0.342 C  
BRANCH   8   9
HETATM    9  C   UNK A   0     -11.455  12.458  66.086  1.00  0.00    -0.430 A  
HETATM   10  C   UNK A   0     -12.228  12.863  64.988  1.00  0.00    -0.515 A  
HETATM   11  C   UNK A   0     -11.737  12.735  63.677  1.00  0.00    -0.587 A  
HETATM   12  C   UNK A   0     -10.196  11.882  65.807  1.00  0.00    -0.276 A  
HETATM   13  C   UNK A   0     -10.467  12.208  63.439  1.00  0.00    -0.450 A  
HETATM   14  C   UNK A   0      -9.701  11.771  64.507  1.00  0.00    -0.165 A  
ENDBRANCH   8   9
ENDBRANCH   7   8
ENDBRANCH   6   7
BRANCH   6  15
ATOM     15  N   ALA A   1      -9.769  14.261  68.534  1.00  0.00    -0.224 NA 
ATOM     16  H   ALA A   1      -9.784  13.265  68.755  1.00  0.00     0.000 HD 
BRANCH  15  17
ATOM     17  CA  ALA A   1      -8.465  14.921  68.238  1.00  0.00    -0.151 C  
ATOM     18  CB  ALA A   1      -7.876  15.969  69.198  1.00  0.00    -0.233 C  
BRANCH  17  19
ATOM     19  C   ALA A   1      -7.365  14.008  67.602  1.00  0.00    -0.175 C  
ATOM     20  O   ALA A   1      -6.361  14.542  67.115  1.00  0.00    -0.219 OA 
HETATM   21  C   UNK A   2      -8.264  10.792  69.110  1.00  0.00    -0.124 A  
HETATM   22  C   UNK A   2      -9.350  10.173  69.743  1.00  0.00    -0.183 A  
HETATM   23  N   UNK A   2      -7.427  12.627  67.693  1.00  0.00    -0.130 N  
HETATM   24  C   UNK A   2      -9.140   9.178  70.682  1.00  0.00    -0.257 A  
HETATM   25  C   UNK A   2      -8.571  11.865  68.124  1.00  0.00    -0.165 C  
HETATM   26  O   UNK A   2      -5.356  10.597  65.462  1.00  0.00    -0.103 OA 
HETATM   27  C   UNK A   2      -7.837   8.806  71.016  1.00  0.00    -0.123 A  
HETATM   28  C   UNK A   2      -6.746   9.423  70.371  1.00  0.00    -0.083 A  
HETATM   29  O   UNK A   2      -7.506  10.206  65.970  1.00  0.00    -0.107 OA 
HETATM   30  C   UNK A   2      -6.461  10.806  66.206  1.00  0.00    -0.134 C  
HETATM   31  C   UNK A   2      -6.956  10.399  69.388  1.00  0.00    -0.091 A  
HETATM   32  C   UNK A   2      -6.249  11.803  67.375  1.00  0.00    -0.108 C  
HETATM   33  C   UNK A   2      -5.809  11.063  68.659  1.00  0.00    -0.043 C  
BRANCH  24  34
HETATM   34  O   UNK A   2     -10.154   8.480  71.289  1.00  0.00    -0.193 OA 
HETATM   35  C   UNK A   2     -11.397   8.575  70.622  1.00  0.00    -0.241 C  
ENDBRANCH  24  34
BRANCH  27  36
HETATM   36  O   UNK A   2      -7.750   7.858  71.990  1.00  0.00    -0.079 OA 
HETATM   37  C   UNK A   2      -6.969   8.160  73.129  1.00  0.00    -0.109 C  
ENDBRANCH  27  36
ENDBRANCH  17  19
ENDBRANCH  15  17
ENDBRANCH   6  15
ENDBRANCH   4   6
ENDBRANCH   3   4
ENDBRANCH   2   3
TORSDOF 11
ENDMDL
MODEL      151
REMARK 921   NORMALIZED FREE ENERGY PREDICTED BY IDOCK:   -4.06 KCAL/MOL
REMARK 922        TOTAL FREE ENERGY PREDICTED BY IDOCK:   -8.58 KCAL/MOL
REMARK 923 INTER-LIGAND FREE ENERGY PREDICTED BY IDOCK:   -7.34 KCAL/MOL
REMARK 924 INTRA-LIGAND FREE ENERGY PREDICTED BY IDOCK:   -1.24 KCAL/MOL
REMARK 927      BINDING AFFINITY PREDICTED BY RF-SCORE:    0.00 PKD
ROOT
HETATM    1  C   UNK A   0     -11.239  13.071  67.447  1.00  0.00    -0.325 C  
HETATM    2  C   UNK A   0     -10.300  14.239  67.684  1.00  0.00    -0.248 C  
ENDROOT
BRANCH   2   3
HETATM    3  O   UNK A   0      -9.085  13.740  68.253  1.00  0.00    -0.189 OA 
BRANCH   3   4
HETATM    4  C   UNK A   0      -8.209  14.665  68.739  1.00  0.00    -0.156 C  
HETATM    5  O   UNK A   0      -8.337  15.302  69.780  1.00  0.00    -0.194 OA 
BRANCH   4   6
HETATM    6  C   UNK A   0      -6.995  14.731  67.812  1.00  0.00    -0.174 C  
BRANCH   6   7
HETATM    7  C   UNK A   0      -7.084  15.980  66.931  1.00  0.00    -0.182 C  
BRANCH   7   8
HETATM    8  C   UNK A   0      -6.994  17.380  67.559  1.00  0.00    -0.177 C  
BRANCH   8   9
HETATM    9  C   UNK A   0      -8.348  18.106  67.528  1.00  0.00    -0.237 A  
HETATM   10  C   UNK A   0      -8.874  18.664  68.702  1.00  0.00    -0.333 A  
HETATM   11  C   UNK A   0     -10.053  19.431  68.668  1.00  0.00    -0.515 A  
HETATM   12  C   UNK A   0      -9.077  18.314  66.337  1.00  0.00    -0.260 A  
HETATM   13  C   UNK A   0     -10.720  19.659  67.465  1.00  0.00    -0.537 A  
HETATM   14  C   UNK A   0     -10.236  19.090  66.299  1.00  0.00    -0.510 A  
ENDBRANCH   8   9
ENDBRANCH   7   8
ENDBRANCH   6   7
BRANCH   6  15
ATOM     15  N   ALA A   1      -6.917  13.506  66.979  1.00  0.00    -0.374 NA 
ATOM     16  H   ALA A   1      -7.489  13.440  66.138  1.00  0.00     0.000 HD 
BRANCH  15  17
ATOM     17  CA  ALA A   1      -6.023  12.368  67.342  1.00  0.00    -0.154 C  
ATOM     18  CB  ALA A   1      -5.802  11.978  68.813  1.00  0.00    -0.051 C  
BRANCH  17  19
ATOM     19  C   ALA A   1      -6.081  11.125  66.395  1.00  0.00    -0.137 C  
ATOM     20  O   ALA A   1      -5.151  10.943  65.599  1.00  0.00    -0.110 OA 
HETATM   21  C   UNK A   2      -8.573   9.102  68.161  1.00  0.00    -0.129 A  
HETATM   22  C   UNK A   2      -9.582   9.245  69.122  1.00  0.00    -0.161 A  
HETATM   23  N   UNK A   2      -7.069  10.162  66.521  1.00  0.00    -0.099 N  
HETATM   24  C   UNK A   2      -9.912   8.191  69.955  1.00  0.00    -0.192 A  
HETATM   25  C   UNK A   2      -8.266  10.287  67.313  1.00  0.00    -0.121 C  
HETATM   26  O   UNK A   2      -7.646   7.825  63.766  1.00  0.00    -0.104 OA 
HETATM   27  C   UNK A   2      -9.219   6.983  69.851  1.00  0.00    -0.144 A  
HETATM   28  C   UNK A   2      -8.211   6.838  68.876  1.00  0.00    -0.121 A  
HETATM   29  O   UNK A   2      -9.238   8.868  64.954  1.00  0.00    -0.100 OA 
HETATM   30  C   UNK A   2      -8.060   8.547  64.827  1.00  0.00    -0.151 C  
HETATM   31  C   UNK A   2      -7.906   7.889  68.001  1.00  0.00    -0.127 A  
HETATM   32  C   UNK A   2      -6.935   8.859  65.848  1.00  0.00    -0.080 C  
HETATM   33  C   UNK A   2      -6.848   7.758  66.928  1.00  0.00    -0.072 C  
BRANCH  24  34
HETATM   34  O   UNK A   2     -10.934   8.237  70.870  1.00  0.00    -0.236 OA 
HETATM   35  C   UNK A   2     -10.918   9.385  71.695  1.00  0.00    -0.312 C  
ENDBRANCH  24  34
BRANCH  27  36
HETATM   36  O   UNK A   2      -9.590   6.036  70.757  1.00  0.00    -0.166 OA 
HETATM   37  C   UNK A   2     -10.521   5.059  70.337  1.00  0.00    -0.167 C  
ENDBRANCH  27  36
ENDBRANCH  17  19
ENDBRANCH  15  17
ENDBRANCH   6  15
ENDBRANCH   4   6
ENDBRANCH   3   4
ENDBRANCH   2   3
TORSDOF 11
ENDMDL
MODEL      152
REMARK 921   NORMALIZED FREE ENERGY PREDICTED BY IDOCK:   -4.05 KCAL/MOL
REMARK 922        TOTAL FREE ENERGY PREDICTED BY IDOCK:   -8.55 KCAL/MOL
REMARK 923 INTER-LIGAND FREE ENERGY PREDICTED BY IDOCK:   -8.08 KCAL/MOL
REMARK 924 INTRA-LIGAND FREE ENERGY PREDICTED BY IDOCK:   -0.48 KCAL/MOL
REMARK 927      BINDING AFFINITY PREDICTED BY RF-SCORE:    0.00 PKD
ROOT
HETATM    1  C   UNK A   0     -12.545  12.042  71.746  1.00  0.00    -0.142 C  
HETATM    2  C   UNK A   0     -12.644  11.656  70.283  1.00  0.00    -0.082 C  
ENDROOT
BRANCH   2   3
HETATM    3  O   UNK A   0     -11.603  12.323  69.562  1.00  0.00    -0.288 OA 
BRANCH   3   4
HETATM    4  C   UNK A   0     -11.666  13.685  69.514  1.00  0.00    -0.322 C  
HETATM    5  O   UNK A   0     -12.568  14.382  69.968  1.00  0.00    -0.330 OA 
BRANCH   4   6
HETATM    6  C   UNK A   0     -10.388  14.216  68.864  1.00  0.00    -0.199 C  
BRANCH   6   7
HETATM    7  C   UNK A   0     -10.727  14.895  67.535  1.00  0.00    -0.276 C  
BRANCH   7   8
HETATM    8  C   UNK A   0      -9.985  14.497  66.249  1.00  0.00    -0.320 C  
BRANCH   8   9
HETATM    9  C   UNK A   0     -10.824  13.547  65.380  1.00  0.00    -0.299 A  
HETATM   10  C   UNK A   0     -12.224  13.592  65.438  1.00  0.00    -0.474 A  
HETATM   11  C   UNK A   0     -13.006  12.813  64.566  1.00  0.00    -0.210 A  
HETATM   12  C   UNK A   0     -10.249  12.659  64.445  1.00  0.00    -0.344 A  
HETATM   13  C   UNK A   0     -12.405  11.984  63.619  1.00  0.00    -0.648 A  
HETATM   14  C   UNK A   0     -11.023  11.900  63.566  1.00  0.00    -0.505 A  
ENDBRANCH   8   9
ENDBRANCH   7   8
ENDBRANCH   6   7
BRANCH   6  15
ATOM     15  N   ALA A   1      -9.419  13.111  68.656  1.00  0.00    -0.401 NA 
ATOM     16  H   ALA A   1      -9.729  12.148  68.785  1.00  0.00     0.000 HD 
BRANCH  15  17
ATOM     17  CA  ALA A   1      -8.004  13.374  68.262  1.00  0.00    -0.147 C  
ATOM     18  CB  ALA A   1      -7.041  14.093  69.222  1.00  0.00    -0.079 C  
BRANCH  17  19
ATOM     19  C   ALA A   1      -7.301  12.241  67.445  1.00  0.00    -0.151 C  
ATOM     20  O   ALA A   1      -6.198  12.475  66.936  1.00  0.00    -0.216 OA 
HETATM   21  C   UNK A   2      -9.156   9.330  68.674  1.00  0.00    -0.132 A  
HETATM   22  C   UNK A   2     -10.358   9.023  69.325  1.00  0.00    -0.227 A  
HETATM   23  N   UNK A   2      -7.816  10.955  67.394  1.00  0.00    -0.110 N  
HETATM   24  C   UNK A   2     -10.453   7.903  70.132  1.00  0.00    -0.231 A  
HETATM   25  C   UNK A   2      -9.129  10.559  67.835  1.00  0.00    -0.136 C  
HETATM   26  O   UNK A   2      -6.638   8.662  64.798  1.00  0.00    -0.065 OA 
HETATM   27  C   UNK A   2      -9.335   7.087  70.317  1.00  0.00    -0.159 A  
HETATM   28  C   UNK A   2      -8.129   7.392  69.653  1.00  0.00    -0.128 A  
HETATM   29  O   UNK A   2      -8.772   8.932  65.437  1.00  0.00    -0.171 OA 
HETATM   30  C   UNK A   2      -7.577   9.123  65.649  1.00  0.00    -0.094 C  
HETATM   31  C   UNK A   2      -8.044   8.499  68.799  1.00  0.00    -0.120 A  
HETATM   32  C   UNK A   2      -6.995   9.840  66.895  1.00  0.00    -0.088 C  
HETATM   33  C   UNK A   2      -6.773   8.840  68.053  1.00  0.00    -0.069 C  
BRANCH  24  34
HETATM   34  O   UNK A   2     -11.614   7.503  70.743  1.00  0.00    -0.288 OA 
HETATM   35  C   UNK A   2     -11.961   8.270  71.879  1.00  0.00    -0.330 C  
ENDBRANCH  24  34
BRANCH  27  36
HETATM   36  O   UNK A   2      -9.528   6.047  71.175  1.00  0.00    -0.162 OA 
HETATM   37  C   UNK A   2      -8.820   6.068  72.398  1.00  0.00    -0.133 C  
ENDBRANCH  27  36
ENDBRANCH  17  19
ENDBRANCH  15  17
ENDBRANCH   6  15
ENDBRANCH   4   6
ENDBRANCH   3   4
ENDBRANCH   2   3
TORSDOF 11
ENDMDL
MODEL      153
REMARK 921   NORMALIZED FREE ENERGY PREDICTED BY IDOCK:   -4.04 KCAL/MOL
REMARK 922        TOTAL FREE ENERGY PREDICTED BY IDOCK:   -8.54 KCAL/MOL
REMARK 923 INTER-LIGAND FREE ENERGY PREDICTED BY IDOCK:   -6.28 KCAL/MOL
REMARK 924 INTRA-LIGAND FREE ENERGY PREDICTED BY IDOCK:   -2.26 KCAL/MOL
REMARK 927      BINDING AFFINITY PREDICTED BY RF-SCORE:    0.00 PKD
ROOT
HETATM    1  C   UNK A   0     -11.762   6.543  70.266  1.00  0.00    -0.430 C  
HETATM    2  C   UNK A   0     -10.875   5.921  71.327  1.00  0.00    -0.270 C  
ENDROOT
BRANCH   2   3
HETATM    3  O   UNK A   0      -9.647   5.513  70.714  1.00  0.00    -0.160 OA 
BRANCH   3   4
HETATM    4  C   UNK A   0      -9.627   4.274  70.144  1.00  0.00    -0.198 C  
HETATM    5  O   UNK A   0     -10.026   3.235  70.662  1.00  0.00    -0.051 OA 
BRANCH   4   6
HETATM    6  C   UNK A   0      -9.095   4.395  68.716  1.00  0.00    -0.124 C  
BRANCH   6   7
HETATM    7  C   UNK A   0      -8.025   3.328  68.471  1.00  0.00    -0.063 C  
BRANCH   7   8
HETATM    8  C   UNK A   0      -8.118   2.404  67.246  1.00  0.00    -0.071 C  
BRANCH   8   9
HETATM    9  C   UNK A   0      -8.121   3.200  65.932  1.00  0.00    -0.086 A  
HETATM   10  C   UNK A   0      -9.232   3.141  65.077  1.00  0.00    -0.149 A  
HETATM   11  C   UNK A   0      -9.300   3.953  63.930  1.00  0.00    -0.148 A  
HETATM   12  C   UNK A   0      -7.072   4.069  65.562  1.00  0.00    -0.063 A  
HETATM   13  C   UNK A   0      -8.267   4.839  63.622  1.00  0.00    -0.112 A  
HETATM   14  C   UNK A   0      -7.147   4.889  64.435  1.00  0.00    -0.050 A  
ENDBRANCH   8   9
ENDBRANCH   7   8
ENDBRANCH   6   7
BRANCH   6  15
ATOM     15  N   ALA A   1      -8.543   5.753  68.487  1.00  0.00    -0.109 NA 
ATOM     16  H   ALA A   1      -7.864   6.131  69.147  1.00  0.00     0.000 HD 
BRANCH  15  17
ATOM     17  CA  ALA A   1      -8.956   6.579  67.315  1.00  0.00    -0.114 C  
ATOM     18  CB  ALA A   1     -10.429   6.640  66.876  1.00  0.00    -0.349 C  
BRANCH  17  19
ATOM     19  C   ALA A   1      -8.226   7.953  67.154  1.00  0.00    -0.118 C  
ATOM     20  O   ALA A   1      -7.543   8.145  66.141  1.00  0.00    -0.085 OA 
HETATM   21  C   UNK A   2     -10.108   9.955  69.578  1.00  0.00    -0.240 A  
HETATM   22  C   UNK A   2     -10.954   9.784  70.681  1.00  0.00    -0.398 A  
HETATM   23  N   UNK A   2      -8.434   8.993  68.045  1.00  0.00    -0.124 N  
HETATM   24  C   UNK A   2     -11.922  10.727  70.976  1.00  0.00    -0.304 A  
HETATM   25  C   UNK A   2      -9.103   8.889  69.317  1.00  0.00    -0.145 C  
HETATM   26  O   UNK A   2      -6.067  11.782  68.116  1.00  0.00    -0.049 OA 
HETATM   27  C   UNK A   2     -12.071  11.846  70.155  1.00  0.00    -0.302 A  
HETATM   28  C   UNK A   2     -11.212  12.022  69.051  1.00  0.00    -0.313 A  
HETATM   29  O   UNK A   2      -6.943  10.761  69.912  1.00  0.00    -0.149 OA 
HETATM   30  C   UNK A   2      -6.960  10.957  68.700  1.00  0.00    -0.073 C  
HETATM   31  C   UNK A   2     -10.202  11.092  68.776  1.00  0.00    -0.211 A  
HETATM   32  C   UNK A   2      -7.997  10.360  67.714  1.00  0.00    -0.102 C  
HETATM   33  C   UNK A   2      -9.248  11.262  67.614  1.00  0.00    -0.156 C  
BRANCH  24  34
HETATM   34  O   UNK A   2     -12.737  10.660  72.078  1.00  0.00    -0.366 OA 
HETATM   35  C   UNK A   2     -13.314   9.387  72.291  1.00  0.00    -0.461 C  
ENDBRANCH  24  34
BRANCH  27  36
HETATM   36  O   UNK A   2     -13.090  12.678  70.508  1.00  0.00     0.195 OA 
HETATM   37  C   UNK A   2     -12.777  14.040  70.727  1.00  0.00    -0.326 C  
ENDBRANCH  27  36
ENDBRANCH  17  19
ENDBRANCH  15  17
ENDBRANCH   6  15
ENDBRANCH   4   6
ENDBRANCH   3   4
ENDBRANCH   2   3
TORSDOF 11
ENDMDL
MODEL      154
REMARK 921   NORMALIZED FREE ENERGY PREDICTED BY IDOCK:   -4.03 KCAL/MOL
REMARK 922        TOTAL FREE ENERGY PREDICTED BY IDOCK:   -8.52 KCAL/MOL
REMARK 923 INTER-LIGAND FREE ENERGY PREDICTED BY IDOCK:   -7.25 KCAL/MOL
REMARK 924 INTRA-LIGAND FREE ENERGY PREDICTED BY IDOCK:   -1.27 KCAL/MOL
REMARK 927      BINDING AFFINITY PREDICTED BY RF-SCORE:    0.00 PKD
ROOT
HETATM    1  C   UNK A   0      -5.501   5.478  71.345  1.00  0.00    -0.009 C  
HETATM    2  C   UNK A   0      -5.439   6.936  70.933  1.00  0.00    -0.027 C  
ENDROOT
BRANCH   2   3
HETATM    3  O   UNK A   0      -6.762   7.480  70.975  1.00  0.00    -0.043 OA 
BRANCH   3   4
HETATM    4  C   UNK A   0      -7.036   8.499  70.110  1.00  0.00    -0.043 C  
HETATM    5  O   UNK A   0      -6.218   9.286  69.642  1.00  0.00    -0.038 OA 
BRANCH   4   6
HETATM    6  C   UNK A   0      -8.522   8.460  69.755  1.00  0.00    -0.127 C  
BRANCH   6   7
HETATM    7  C   UNK A   0      -9.272   7.586  70.762  1.00  0.00    -0.158 C  
BRANCH   7   8
HETATM    8  C   UNK A   0     -10.770   7.298  70.575  1.00  0.00    -0.249 C  
BRANCH   8   9
HETATM    9  C   UNK A   0     -11.639   8.474  71.050  1.00  0.00    -0.317 A  
HETATM   10  C   UNK A   0     -11.532   9.725  70.424  1.00  0.00    -0.347 A  
HETATM   11  C   UNK A   0     -12.401  10.776  70.768  1.00  0.00    -0.480 A  
HETATM   12  C   UNK A   0     -12.618   8.342  72.058  1.00  0.00    -0.400 A  
HETATM   13  C   UNK A   0     -13.391  10.596  71.734  1.00  0.00    -0.437 A  
HETATM   14  C   UNK A   0     -13.492   9.379  72.387  1.00  0.00    -0.506 A  
ENDBRANCH   8   9
ENDBRANCH   7   8
ENDBRANCH   6   7
BRANCH   6  15
ATOM     15  N   ALA A   1      -8.708   7.948  68.374  1.00  0.00    -0.131 NA 
ATOM     16  H   ALA A   1      -9.537   8.224  67.849  1.00  0.00     0.000 HD 
BRANCH  15  17
ATOM     17  CA  ALA A   1      -7.711   7.039  67.737  1.00  0.00    -0.112 C  
ATOM     18  CB  ALA A   1      -7.646   5.550  68.119  1.00  0.00    -0.081 C  
BRANCH  17  19
ATOM     19  C   ALA A   1      -7.443   7.278  66.214  1.00  0.00    -0.083 C  
ATOM     20  O   ALA A   1      -7.316   6.296  65.474  1.00  0.00    -0.075 OA 
HETATM   21  C   UNK A   2      -8.515  10.770  65.926  1.00  0.00    -0.166 A  
HETATM   22  C   UNK A   2      -8.752  11.887  66.737  1.00  0.00    -0.193 A  
HETATM   23  N   UNK A   2      -7.480   8.549  65.662  1.00  0.00    -0.083 N  
HETATM   24  C   UNK A   2      -9.687  12.838  66.367  1.00  0.00    -0.261 A  
HETATM   25  C   UNK A   2      -7.505   9.785  66.402  1.00  0.00    -0.099 C  
HETATM   26  O   UNK A   2      -5.991   9.106  62.367  1.00  0.00    -0.091 OA 
HETATM   27  C   UNK A   2     -10.414  12.669  65.187  1.00  0.00    -0.296 A  
HETATM   28  C   UNK A   2     -10.167  11.549  64.367  1.00  0.00    -0.350 A  
HETATM   29  O   UNK A   2      -5.773  10.454  64.148  1.00  0.00    -0.137 OA 
HETATM   30  C   UNK A   2      -6.345   9.513  63.603  1.00  0.00    -0.099 C  
HETATM   31  C   UNK A   2      -9.189  10.610  64.717  1.00  0.00    -0.255 A  
HETATM   32  C   UNK A   2      -7.540   8.728  64.202  1.00  0.00    -0.122 C  
HETATM   33  C   UNK A   2      -8.882   9.410  63.848  1.00  0.00    -0.205 C  
BRANCH  24  34
HETATM   34  O   UNK A   2      -9.921  13.990  67.074  1.00  0.00    -0.248 OA 
HETATM   35  C   UNK A   2     -10.402  13.773  68.385  1.00  0.00    -0.247 C  
ENDBRANCH  24  34
BRANCH  27  36
HETATM   36  O   UNK A   2     -11.345  13.636  64.951  1.00  0.00    -0.322 OA 
HETATM   37  C   UNK A   2     -12.696  13.324  65.225  1.00  0.00    -0.412 C  
ENDBRANCH  27  36
ENDBRANCH  17  19
ENDBRANCH  15  17
ENDBRANCH   6  15
ENDBRANCH   4   6
ENDBRANCH   3   4
ENDBRANCH   2   3
TORSDOF 11
ENDMDL
MODEL      155
REMARK 921   NORMALIZED FREE ENERGY PREDICTED BY IDOCK:   -4.02 KCAL/MOL
REMARK 922        TOTAL FREE ENERGY PREDICTED BY IDOCK:   -8.51 KCAL/MOL
REMARK 923 INTER-LIGAND FREE ENERGY PREDICTED BY IDOCK:   -7.05 KCAL/MOL
REMARK 924 INTRA-LIGAND FREE ENERGY PREDICTED BY IDOCK:   -1.47 KCAL/MOL
REMARK 927      BINDING AFFINITY PREDICTED BY RF-SCORE:    0.00 PKD
ROOT
HETATM    1  C   UNK A   0      -5.420  12.638  70.706  1.00  0.00    -0.175 C  
HETATM    2  C   UNK A   0      -5.599  11.732  69.502  1.00  0.00    -0.071 C  
ENDROOT
BRANCH   2   3
HETATM    3  O   UNK A   0      -6.044  12.524  68.397  1.00  0.00    -0.053 OA 
BRANCH   3   4
HETATM    4  C   UNK A   0      -6.415  11.851  67.269  1.00  0.00    -0.141 C  
HETATM    5  O   UNK A   0      -5.685  11.150  66.575  1.00  0.00    -0.101 OA 
BRANCH   4   6
HETATM    6  C   UNK A   0      -7.914  12.049  67.046  1.00  0.00    -0.150 C  
BRANCH   6   7
HETATM    7  C   UNK A   0      -8.262  13.535  67.157  1.00  0.00    -0.126 C  
BRANCH   7   8
HETATM    8  C   UNK A   0      -9.695  14.019  66.884  1.00  0.00    -0.272 C  
BRANCH   8   9
HETATM    9  C   UNK A   0     -10.359  14.576  68.153  1.00  0.00    -0.232 A  
HETATM   10  C   UNK A   0     -10.311  15.951  68.426  1.00  0.00    -0.240 A  
HETATM   11  C   UNK A   0     -11.012  16.491  69.519  1.00  0.00    -0.289 A  
HETATM   12  C   UNK A   0     -11.099  13.771  69.045  1.00  0.00    -0.296 A  
HETATM   13  C   UNK A   0     -11.776  15.673  70.351  1.00  0.00    -0.379 A  
HETATM   14  C   UNK A   0     -11.810  14.308  70.118  1.00  0.00    -0.379 A  
ENDBRANCH   8   9
ENDBRANCH   7   8
ENDBRANCH   6   7
BRANCH   6  15
ATOM     15  N   ALA A   1      -8.690  11.255  68.031  1.00  0.00    -0.139 NA 
ATOM     16  H   ALA A   1      -8.411  11.270  69.011  1.00  0.00     0.000 HD 
BRANCH  15  17
ATOM     17  CA  ALA A   1      -9.867  10.434  67.622  1.00  0.00    -0.170 C  
ATOM     18  CB  ALA A   1      -9.733   9.349  66.540  1.00  0.00    -0.299 C  
BRANCH  17  19
ATOM     19  C   ALA A   1     -10.842  10.016  68.771  1.00  0.00    -0.219 C  
ATOM     20  O   ALA A   1     -11.965  10.534  68.812  1.00  0.00    -0.302 OA 
HETATM   21  C   UNK A   2      -9.255   6.892  69.841  1.00  0.00    -0.147 A  
HETATM   22  C   UNK A   2      -8.024   6.230  69.748  1.00  0.00    -0.118 A  
HETATM   23  N   UNK A   2     -10.529   8.993  69.652  1.00  0.00    -0.218 N  
HETATM   24  C   UNK A   2      -7.968   4.848  69.765  1.00  0.00    -0.070 A  
HETATM   25  C   UNK A   2      -9.234   8.380  69.800  1.00  0.00    -0.157 C  
HETATM   26  O   UNK A   2     -12.406   8.694  72.778  1.00  0.00    -0.321 OA 
HETATM   27  C   UNK A   2      -9.148   4.108  69.852  1.00  0.00    -0.113 A  
HETATM   28  C   UNK A   2     -10.386   4.776  69.955  1.00  0.00    -0.153 A  
HETATM   29  O   UNK A   2     -10.183   8.482  72.559  1.00  0.00    -0.310 OA 
HETATM   30  C   UNK A   2     -11.291   8.543  72.034  1.00  0.00    -0.355 C  
HETATM   31  C   UNK A   2     -10.442   6.175  69.984  1.00  0.00    -0.294 A  
HETATM   32  C   UNK A   2     -11.567   8.406  70.515  1.00  0.00    -0.128 C  
HETATM   33  C   UNK A   2     -11.750   6.923  70.119  1.00  0.00    -0.306 C  
BRANCH  24  34
HETATM   34  O   UNK A   2      -6.795   4.135  69.749  1.00  0.00    -0.040 OA 
HETATM   35  C   UNK A   2      -5.991   4.374  68.611  1.00  0.00    -0.026 C  
ENDBRANCH  24  34
BRANCH  27  36
HETATM   36  O   UNK A   2      -8.978   2.758  69.804  1.00  0.00    -0.081 OA 
HETATM   37  C   UNK A   2      -9.315   2.098  68.600  1.00  0.00    -0.175 C  
ENDBRANCH  27  36
ENDBRANCH  17  19
ENDBRANCH  15  17
ENDBRANCH   6  15
ENDBRANCH   4   6
ENDBRANCH   3   4
ENDBRANCH   2   3
TORSDOF 11
ENDMDL
MODEL      156
REMARK 921   NORMALIZED FREE ENERGY PREDICTED BY IDOCK:   -4.01 KCAL/MOL
REMARK 922        TOTAL FREE ENERGY PREDICTED BY IDOCK:   -8.49 KCAL/MOL
REMARK 923 INTER-LIGAND FREE ENERGY PREDICTED BY IDOCK:   -6.64 KCAL/MOL
REMARK 924 INTRA-LIGAND FREE ENERGY PREDICTED BY IDOCK:   -1.86 KCAL/MOL
REMARK 927      BINDING AFFINITY PREDICTED BY RF-SCORE:    0.00 PKD
ROOT
HETATM    1  C   UNK A   0     -10.782   4.831  65.674  1.00  0.00    -0.188 C  
HETATM    2  C   UNK A   0      -9.631   5.629  66.254  1.00  0.00    -0.147 C  
ENDROOT
BRANCH   2   3
HETATM    3  O   UNK A   0     -10.138   6.474  67.292  1.00  0.00    -0.136 OA 
BRANCH   3   4
HETATM    4  C   UNK A   0      -9.688   7.762  67.310  1.00  0.00    -0.171 C  
HETATM    5  O   UNK A   0      -8.568   8.139  66.981  1.00  0.00    -0.120 OA 
BRANCH   4   6
HETATM    6  C   UNK A   0     -10.833   8.680  67.740  1.00  0.00    -0.005 C  
BRANCH   6   7
HETATM    7  C   UNK A   0     -10.384  10.140  67.657  1.00  0.00    -0.265 C  
BRANCH   7   8
HETATM    8  C   UNK A   0     -11.423  11.272  67.642  1.00  0.00    -0.341 C  
BRANCH   8   9
HETATM    9  C   UNK A   0     -11.604  11.859  66.233  1.00  0.00    -0.317 A  
HETATM   10  C   UNK A   0     -12.246  13.095  66.064  1.00  0.00    -0.478 A  
HETATM   11  C   UNK A   0     -12.315  13.701  64.796  1.00  0.00    -0.429 A  
HETATM   12  C   UNK A   0     -11.079  11.245  65.076  1.00  0.00    -0.159 A  
HETATM   13  C   UNK A   0     -11.742  13.090  63.682  1.00  0.00    -0.550 A  
HETATM   14  C   UNK A   0     -11.132  11.854  63.821  1.00  0.00    -0.510 A  
ENDBRANCH   8   9
ENDBRANCH   7   8
ENDBRANCH   6   7
BRANCH   6  15
ATOM     15  N   ALA A   1     -11.272   8.344  69.117  1.00  0.00    -0.359 NA 
ATOM     16  H   ALA A   1     -12.267   8.228  69.307  1.00  0.00     0.000 HD 
BRANCH  15  17
ATOM     17  CA  ALA A   1     -10.294   8.171  70.230  1.00  0.00    -0.209 C  
ATOM     18  CB  ALA A   1      -9.962   9.339  71.175  1.00  0.00    -0.356 C  
BRANCH  17  19
ATOM     19  C   ALA A   1     -10.338   6.795  70.972  1.00  0.00    -0.206 C  
ATOM     20  O   ALA A   1     -11.332   6.523  71.658  1.00  0.00    -0.259 OA 
HETATM   21  C   UNK A   2      -7.757   4.986  69.104  1.00  0.00    -0.076 A  
HETATM   22  C   UNK A   2      -6.672   5.243  68.255  1.00  0.00    -0.054 A  
HETATM   23  N   UNK A   2      -9.363   5.830  70.771  1.00  0.00    -0.161 N  
HETATM   24  C   UNK A   2      -6.299   4.319  67.294  1.00  0.00    -0.041 A  
HETATM   25  C   UNK A   2      -8.105   6.036  70.101  1.00  0.00    -0.114 C  
HETATM   26  O   UNK A   2      -9.058   3.077  73.162  1.00  0.00    -0.088 OA 
HETATM   27  C   UNK A   2      -7.024   3.134  67.156  1.00  0.00    -0.050 A  
HETATM   28  C   UNK A   2      -8.109   2.874  68.018  1.00  0.00    -0.076 A  
HETATM   29  O   UNK A   2      -7.354   4.237  72.275  1.00  0.00    -0.063 OA 
HETATM   30  C   UNK A   2      -8.546   3.940  72.261  1.00  0.00    -0.104 C  
HETATM   31  C   UNK A   2      -8.461   3.786  69.020  1.00  0.00    -0.099 A  
HETATM   32  C   UNK A   2      -9.579   4.445  71.220  1.00  0.00    -0.172 C  
HETATM   33  C   UNK A   2      -9.604   3.527  69.977  1.00  0.00    -0.226 C  
BRANCH  24  34
HETATM   34  O   UNK A   2      -5.207   4.471  66.478  1.00  0.00    -0.008 OA 
HETATM   35  C   UNK A   2      -5.399   5.396  65.426  1.00  0.00    -0.013 C  
ENDBRANCH  24  34
BRANCH  27  36
HETATM   36  O   UNK A   2      -6.603   2.326  66.143  1.00  0.00    -0.027 OA 
HETATM   37  C   UNK A   2      -7.584   1.578  65.453  1.00  0.00    -0.062 C  
ENDBRANCH  27  36
ENDBRANCH  17  19
ENDBRANCH  15  17
ENDBRANCH   6  15
ENDBRANCH   4   6
ENDBRANCH   3   4
ENDBRANCH   2   3
TORSDOF 11
ENDMDL
MODEL      157
REMARK 921   NORMALIZED FREE ENERGY PREDICTED BY IDOCK:   -3.99 KCAL/MOL
REMARK 922        TOTAL FREE ENERGY PREDICTED BY IDOCK:   -8.47 KCAL/MOL
REMARK 923 INTER-LIGAND FREE ENERGY PREDICTED BY IDOCK:   -7.79 KCAL/MOL
REMARK 924 INTRA-LIGAND FREE ENERGY PREDICTED BY IDOCK:   -0.67 KCAL/MOL
REMARK 927      BINDING AFFINITY PREDICTED BY RF-SCORE:    0.00 PKD
ROOT
HETATM    1  C   UNK A   0      -8.095   8.071  73.698  1.00  0.00    -0.263 C  
HETATM    2  C   UNK A   0      -8.580   8.675  72.394  1.00  0.00    -0.075 C  
ENDROOT
BRANCH   2   3
HETATM    3  O   UNK A   0      -9.871   8.136  72.094  1.00  0.00    -0.200 OA 
BRANCH   3   4
HETATM    4  C   UNK A   0     -10.580   8.755  71.107  1.00  0.00    -0.241 C  
HETATM    5  O   UNK A   0     -10.872   9.947  71.067  1.00  0.00    -0.321 OA 
BRANCH   4   6
HETATM    6  C   UNK A   0     -10.895   7.737  70.010  1.00  0.00    -0.241 C  
BRANCH   6   7
HETATM    7  C   UNK A   0     -11.836   6.662  70.558  1.00  0.00    -0.430 C  
BRANCH   7   8
HETATM    8  C   UNK A   0     -11.947   6.427  72.073  1.00  0.00    -0.375 C  
BRANCH   8   9
HETATM    9  C   UNK A   0     -11.148   5.192  72.518  1.00  0.00    -0.257 A  
HETATM   10  C   UNK A   0     -10.371   4.485  71.588  1.00  0.00    -0.160 A  
HETATM   11  C   UNK A   0      -9.543   3.426  72.001  1.00  0.00    -0.214 A  
HETATM   12  C   UNK A   0     -11.088   4.763  73.861  1.00  0.00    -0.228 A  
HETATM   13  C   UNK A   0      -9.470   3.060  73.345  1.00  0.00    -0.119 A  
HETATM   14  C   UNK A   0     -10.253   3.724  74.275  1.00  0.00    -0.237 A  
ENDBRANCH   8   9
ENDBRANCH   7   8
ENDBRANCH   6   7
BRANCH   6  15
ATOM     15  N   ALA A   1      -9.641   7.127  69.501  1.00  0.00    -0.154 NA 
ATOM     16  H   ALA A   1      -9.442   6.150  69.715  1.00  0.00     0.000 HD 
BRANCH  15  17
ATOM     17  CA  ALA A   1      -8.666   7.907  68.685  1.00  0.00    -0.128 C  
ATOM     18  CB  ALA A   1      -7.154   7.786  68.937  1.00  0.00    -0.075 C  
BRANCH  17  19
ATOM     19  C   ALA A   1      -9.011   8.056  67.167  1.00  0.00    -0.135 C  
ATOM     20  O   ALA A   1      -9.602   7.129  66.600  1.00  0.00    -0.170 OA 
HETATM   21  C   UNK A   2      -8.674  11.686  66.795  1.00  0.00    -0.189 A  
HETATM   22  C   UNK A   2      -8.091  12.779  67.449  1.00  0.00    -0.185 A  
HETATM   23  N   UNK A   2      -8.792   9.243  66.486  1.00  0.00    -0.130 N  
HETATM   24  C   UNK A   2      -8.651  14.040  67.343  1.00  0.00    -0.203 A  
HETATM   25  C   UNK A   2      -8.021  10.359  66.971  1.00  0.00    -0.116 C  
HETATM   26  O   UNK A   2      -8.780   9.226  62.827  1.00  0.00    -0.217 OA 
HETATM   27  C   UNK A   2      -9.818  14.218  66.597  1.00  0.00    -0.281 A  
HETATM   28  C   UNK A   2     -10.397  13.118  65.932  1.00  0.00    -0.295 A  
HETATM   29  O   UNK A   2      -7.319  10.315  64.137  1.00  0.00    -0.133 OA 
HETATM   30  C   UNK A   2      -8.381   9.709  64.022  1.00  0.00    -0.171 C  
HETATM   31  C   UNK A   2      -9.807  11.850  66.001  1.00  0.00    -0.258 A  
HETATM   32  C   UNK A   2      -9.401   9.471  65.165  1.00  0.00    -0.252 C  
HETATM   33  C   UNK A   2     -10.389  10.654  65.279  1.00  0.00    -0.321 C  
BRANCH  24  34
HETATM   34  O   UNK A   2      -8.096  15.167  67.896  1.00  0.00    -0.126 OA 
HETATM   35  C   UNK A   2      -8.001  15.128  69.306  1.00  0.00    -0.213 C  
ENDBRANCH  24  34
BRANCH  27  36
HETATM   36  O   UNK A   2     -10.310  15.488  66.608  1.00  0.00    -0.272 OA 
HETATM   37  C   UNK A   2     -10.638  16.073  65.363  1.00  0.00    -0.408 C  
ENDBRANCH  27  36
ENDBRANCH  17  19
ENDBRANCH  15  17
ENDBRANCH   6  15
ENDBRANCH   4   6
ENDBRANCH   3   4
ENDBRANCH   2   3
TORSDOF 11
ENDMDL
MODEL      158
REMARK 921   NORMALIZED FREE ENERGY PREDICTED BY IDOCK:   -3.97 KCAL/MOL
REMARK 922        TOTAL FREE ENERGY PREDICTED BY IDOCK:   -8.43 KCAL/MOL
REMARK 923 INTER-LIGAND FREE ENERGY PREDICTED BY IDOCK:   -7.25 KCAL/MOL
REMARK 924 INTRA-LIGAND FREE ENERGY PREDICTED BY IDOCK:   -1.18 KCAL/MOL
REMARK 927      BINDING AFFINITY PREDICTED BY RF-SCORE:    0.00 PKD
ROOT
HETATM    1  C   UNK A   0     -11.695  13.496  63.971  1.00  0.00    -0.440 C  
HETATM    2  C   UNK A   0     -10.918  12.698  65.000  1.00  0.00    -0.289 C  
ENDROOT
BRANCH   2   3
HETATM    3  O   UNK A   0     -10.501  13.584  66.045  1.00  0.00    -0.288 OA 
BRANCH   3   4
HETATM    4  C   UNK A   0     -11.139  13.462  67.244  1.00  0.00    -0.282 C  
HETATM    5  O   UNK A   0     -12.352  13.385  67.411  1.00  0.00    -0.260 OA 
BRANCH   4   6
HETATM    6  C   UNK A   0     -10.091  13.361  68.353  1.00  0.00    -0.244 C  
BRANCH   6   7
HETATM    7  C   UNK A   0      -8.914  14.287  68.039  1.00  0.00    -0.183 C  
BRANCH   7   8
HETATM    8  C   UNK A   0      -7.532  13.700  67.710  1.00  0.00    -0.172 C  
BRANCH   8   9
HETATM    9  C   UNK A   0      -6.661  13.557  68.968  1.00  0.00    -0.110 A  
HETATM   10  C   UNK A   0      -6.447  14.662  69.805  1.00  0.00    -0.159 A  
HETATM   11  C   UNK A   0      -5.752  14.520  71.019  1.00  0.00    -0.164 A  
HETATM   12  C   UNK A   0      -6.111  12.324  69.380  1.00  0.00    -0.107 A  
HETATM   13  C   UNK A   0      -5.265  13.276  71.421  1.00  0.00    -0.185 A  
HETATM   14  C   UNK A   0      -5.437  12.179  70.593  1.00  0.00    -0.162 A  
ENDBRANCH   8   9
ENDBRANCH   7   8
ENDBRANCH   6   7
BRANCH   6  15
ATOM     15  N   ALA A   1      -9.630  11.958  68.498  1.00  0.00    -0.301 NA 
ATOM     16  H   ALA A   1      -8.630  11.766  68.547  1.00  0.00     0.000 HD 
BRANCH  15  17
ATOM     17  CA  ALA A   1     -10.594  10.821  68.573  1.00  0.00    -0.195 C  
ATOM     18  CB  ALA A   1     -10.749   9.841  67.397  1.00  0.00    -0.314 C  
BRANCH  17  19
ATOM     19  C   ALA A   1     -10.707  10.112  69.962  1.00  0.00    -0.305 C  
ATOM     20  O   ALA A   1     -11.520  10.549  70.786  1.00  0.00    -0.331 OA 
HETATM   21  C   UNK A   2      -9.103   6.913  69.172  1.00  0.00    -0.136 A  
HETATM   22  C   UNK A   2      -8.250   6.352  68.213  1.00  0.00    -0.116 A  
HETATM   23  N   UNK A   2     -10.024   8.937  70.235  1.00  0.00    -0.177 N  
HETATM   24  C   UNK A   2      -8.326   5.004  67.909  1.00  0.00    -0.100 A  
HETATM   25  C   UNK A   2      -8.969   8.373  69.432  1.00  0.00    -0.153 C  
HETATM   26  O   UNK A   2      -9.641   7.863  73.712  1.00  0.00    -0.248 OA 
HETATM   27  C   UNK A   2      -9.277   4.204  68.546  1.00  0.00    -0.145 A  
HETATM   28  C   UNK A   2     -10.128   4.770  69.517  1.00  0.00    -0.260 A  
HETATM   29  O   UNK A   2      -8.038   7.818  72.142  1.00  0.00    -0.099 OA 
HETATM   30  C   UNK A   2      -9.225   7.937  72.431  1.00  0.00    -0.181 C  
HETATM   31  C   UNK A   2     -10.022   6.123  69.860  1.00  0.00    -0.215 A  
HETATM   32  C   UNK A   2     -10.377   8.122  71.409  1.00  0.00    -0.208 C  
HETATM   33  C   UNK A   2     -10.903   6.755  70.915  1.00  0.00    -0.289 C  
BRANCH  24  34
HETATM   34  O   UNK A   2      -7.478   4.373  67.034  1.00  0.00    -0.079 OA 
HETATM   35  C   UNK A   2      -6.853   5.242  66.111  1.00  0.00    -0.058 C  
ENDBRANCH  24  34
BRANCH  27  36
HETATM   36  O   UNK A   2      -9.299   2.908  68.128  1.00  0.00    -0.191 OA 
HETATM   37  C   UNK A   2      -8.944   1.912  69.067  1.00  0.00    -0.102 C  
ENDBRANCH  27  36
ENDBRANCH  17  19
ENDBRANCH  15  17
ENDBRANCH   6  15
ENDBRANCH   4   6
ENDBRANCH   3   4
ENDBRANCH   2   3
TORSDOF 11
ENDMDL
MODEL      159
REMARK 921   NORMALIZED FREE ENERGY PREDICTED BY IDOCK:   -3.96 KCAL/MOL
REMARK 922        TOTAL FREE ENERGY PREDICTED BY IDOCK:   -8.41 KCAL/MOL
REMARK 923 INTER-LIGAND FREE ENERGY PREDICTED BY IDOCK:   -6.97 KCAL/MOL
REMARK 924 INTRA-LIGAND FREE ENERGY PREDICTED BY IDOCK:   -1.44 KCAL/MOL
REMARK 927      BINDING AFFINITY PREDICTED BY RF-SCORE:    0.00 PKD
ROOT
HETATM    1  C   UNK A   0      -8.631   9.396  62.982  1.00  0.00    -0.222 C  
HETATM    2  C   UNK A   0      -8.753   9.944  64.390  1.00  0.00    -0.202 C  
ENDROOT
BRANCH   2   3
HETATM    3  O   UNK A   0      -7.851   9.227  65.239  1.00  0.00    -0.100 OA 
BRANCH   3   4
HETATM    4  C   UNK A   0      -8.359   8.150  65.904  1.00  0.00    -0.132 C  
HETATM    5  O   UNK A   0      -9.546   7.850  65.990  1.00  0.00    -0.108 OA 
BRANCH   4   6
HETATM    6  C   UNK A   0      -7.202   7.326  66.469  1.00  0.00    -0.079 C  
BRANCH   6   7
HETATM    7  C   UNK A   0      -6.712   6.332  65.415  1.00  0.00    -0.047 C  
BRANCH   7   8
HETATM    8  C   UNK A   0      -7.447   6.201  64.071  1.00  0.00    -0.081 C  
BRANCH   8   9
HETATM    9  C   UNK A   0      -8.307   4.929  64.015  1.00  0.00    -0.131 A  
HETATM   10  C   UNK A   0      -8.398   4.091  65.136  1.00  0.00    -0.105 A  
HETATM   11  C   UNK A   0      -9.272   2.989  65.140  1.00  0.00    -0.149 A  
HETATM   12  C   UNK A   0      -9.092   4.586  62.892  1.00  0.00    -0.124 A  
HETATM   13  C   UNK A   0     -10.071   2.708  64.032  1.00  0.00    -0.111 A  
HETATM   14  C   UNK A   0      -9.972   3.503  62.902  1.00  0.00    -0.137 A  
ENDBRANCH   8   9
ENDBRANCH   7   8
ENDBRANCH   6   7
BRANCH   6  15
ATOM     15  N   ALA A   1      -7.628   6.617  67.701  1.00  0.00    -0.104 NA 
ATOM     16  H   ALA A   1      -8.172   5.759  67.617  1.00  0.00     0.000 HD 
BRANCH  15  17
ATOM     17  CA  ALA A   1      -7.283   7.130  69.059  1.00  0.00    -0.086 C  
ATOM     18  CB  ALA A   1      -6.566   8.480  69.232  1.00  0.00    -0.046 C  
BRANCH  17  19
ATOM     19  C   ALA A   1      -8.342   6.866  70.179  1.00  0.00    -0.135 C  
ATOM     20  O   ALA A   1      -8.007   6.200  71.166  1.00  0.00    -0.112 OA 
HETATM   21  C   UNK A   2     -10.778   9.482  69.373  1.00  0.00    -0.244 A  
HETATM   22  C   UNK A   2     -11.139  10.316  68.307  1.00  0.00    -0.311 A  
HETATM   23  N   UNK A   2      -9.590   7.469  70.154  1.00  0.00    -0.168 N  
HETATM   24  C   UNK A   2     -11.705  11.556  68.547  1.00  0.00    -0.313 A  
HETATM   25  C   UNK A   2     -10.161   8.171  69.033  1.00  0.00    -0.205 C  
HETATM   26  O   UNK A   2     -12.260   6.131  72.268  1.00  0.00    -0.293 OA 
HETATM   27  C   UNK A   2     -11.895  11.987  69.861  1.00  0.00    -0.331 A  
HETATM   28  C   UNK A   2     -11.540  11.141  70.932  1.00  0.00     0.086 A  
HETATM   29  O   UNK A   2     -12.481   6.780  70.131  1.00  0.00    -0.064 OA 
HETATM   30  C   UNK A   2     -11.813   6.759  71.161  1.00  0.00    -0.360 C  
HETATM   31  C   UNK A   2     -11.009   9.868  70.692  1.00  0.00    -0.405 A  
HETATM   32  C   UNK A   2     -10.446   7.466  71.352  1.00  0.00    -0.202 C  
HETATM   33  C   UNK A   2     -10.640   8.927  71.818  1.00  0.00    -0.432 C  
BRANCH  24  34
HETATM   34  O   UNK A   2     -12.147  12.395  67.555  1.00  0.00    -0.491 OA 
HETATM   35  C   UNK A   2     -11.467  12.240  66.325  1.00  0.00    -0.380 C  
ENDBRANCH  24  34
BRANCH  27  36
HETATM   36  O   UNK A   2     -12.407  13.244  69.979  1.00  0.00    -0.281 OA 
HETATM   37  C   UNK A   2     -12.655  13.730  71.283  1.00  0.00    -0.362 C  
ENDBRANCH  27  36
ENDBRANCH  17  19
ENDBRANCH  15  17
ENDBRANCH   6  15
ENDBRANCH   4   6
ENDBRANCH   3   4
ENDBRANCH   2   3
TORSDOF 11
ENDMDL
MODEL      160
REMARK 921   NORMALIZED FREE ENERGY PREDICTED BY IDOCK:   -3.95 KCAL/MOL
REMARK 922        TOTAL FREE ENERGY PREDICTED BY IDOCK:   -8.40 KCAL/MOL
REMARK 923 INTER-LIGAND FREE ENERGY PREDICTED BY IDOCK:   -6.60 KCAL/MOL
REMARK 924 INTRA-LIGAND FREE ENERGY PREDICTED BY IDOCK:   -1.80 KCAL/MOL
REMARK 927      BINDING AFFINITY PREDICTED BY RF-SCORE:    0.00 PKD
ROOT
HETATM    1  C   UNK A   0      -8.110   7.434  72.217  1.00  0.00    -0.113 C  
HETATM    2  C   UNK A   0      -9.523   7.565  72.752  1.00  0.00    -0.172 C  
ENDROOT
BRANCH   2   3
HETATM    3  O   UNK A   0     -10.022   8.862  72.413  1.00  0.00    -0.251 OA 
BRANCH   3   4
HETATM    4  C   UNK A   0     -11.231   8.910  71.783  1.00  0.00    -0.362 C  
HETATM    5  O   UNK A   0     -12.275   8.409  72.189  1.00  0.00    -0.330 OA 
BRANCH   4   6
HETATM    6  C   UNK A   0     -11.096   9.756  70.517  1.00  0.00    -0.321 C  
BRANCH   6   7
HETATM    7  C   UNK A   0     -12.159  10.857  70.515  1.00  0.00    -0.464 C  
BRANCH   7   8
HETATM    8  C   UNK A   0     -11.796  12.284  70.074  1.00  0.00    -0.372 C  
BRANCH   8   9
HETATM    9  C   UNK A   0     -11.894  12.451  68.550  1.00  0.00    -0.352 A  
HETATM   10  C   UNK A   0     -11.976  13.732  67.986  1.00  0.00    -0.390 A  
HETATM   11  C   UNK A   0     -11.948  13.907  66.591  1.00  0.00    -0.474 A  
HETATM   12  C   UNK A   0     -11.829  11.360  67.656  1.00  0.00    -0.157 A  
HETATM   13  C   UNK A   0     -11.832  12.810  65.737  1.00  0.00    -0.484 A  
HETATM   14  C   UNK A   0     -11.782  11.533  66.272  1.00  0.00     0.149 A  
ENDBRANCH   8   9
ENDBRANCH   7   8
ENDBRANCH   6   7
BRANCH   6  15
ATOM     15  N   ALA A   1     -11.225   8.900  69.311  1.00  0.00    -0.422 NA 
ATOM     16  H   ALA A   1     -11.977   9.087  68.647  1.00  0.00     0.000 HD 
BRANCH  15  17
ATOM     17  CA  ALA A   1     -10.283   7.774  69.045  1.00  0.00    -0.208 C  
ATOM     18  CB  ALA A   1     -10.678   6.324  69.373  1.00  0.00    -0.364 C  
BRANCH  17  19
ATOM     19  C   ALA A   1      -9.441   7.883  67.732  1.00  0.00    -0.144 C  
ATOM     20  O   ALA A   1      -9.641   7.060  66.830  1.00  0.00    -0.153 OA 
HETATM   21  C   UNK A   2      -8.233  11.329  68.040  1.00  0.00    -0.134 A  
HETATM   22  C   UNK A   2      -8.067  12.321  69.014  1.00  0.00     0.276 A  
HETATM   23  N   UNK A   2      -8.583   8.948  67.506  1.00  0.00    -0.120 N  
HETATM   24  C   UNK A   2      -8.132  13.660  68.670  1.00  0.00    -0.071 A  
HETATM   25  C   UNK A   2      -8.164   9.912  68.492  1.00  0.00    -0.106 C  
HETATM   26  O   UNK A   2      -6.042   8.669  64.888  1.00  0.00    -0.059 OA 
HETATM   27  C   UNK A   2      -8.390  14.023  67.347  1.00  0.00    -0.196 A  
HETATM   28  C   UNK A   2      -8.548  13.022  66.366  1.00  0.00     0.257 A  
HETATM   29  O   UNK A   2      -5.723   9.522  66.939  1.00  0.00    -0.049 OA 
HETATM   30  C   UNK A   2      -6.498   9.143  66.066  1.00  0.00    -0.068 C  
HETATM   31  C   UNK A   2      -8.436  11.667  66.703  1.00  0.00    -0.165 A  
HETATM   32  C   UNK A   2      -8.045   9.202  66.160  1.00  0.00    -0.107 C  
HETATM   33  C   UNK A   2      -8.576  10.569  65.671  1.00  0.00    -0.182 C  
BRANCH  24  34
HETATM   34  O   UNK A   2      -7.909  14.684  69.556  1.00  0.00    -0.093 OA 
HETATM   35  C   UNK A   2      -9.045  15.487  69.805  1.00  0.00    -0.060 C  
ENDBRANCH  24  34
BRANCH  27  36
HETATM   36  O   UNK A   2      -8.488  15.364  67.134  1.00  0.00    -0.181 OA 
HETATM   37  C   UNK A   2      -7.321  16.049  66.725  1.00  0.00    -0.151 C  
ENDBRANCH  27  36
ENDBRANCH  17  19
ENDBRANCH  15  17
ENDBRANCH   6  15
ENDBRANCH   4   6
ENDBRANCH   3   4
ENDBRANCH   2   3
TORSDOF 11
ENDMDL
MODEL      161
REMARK 921   NORMALIZED FREE ENERGY PREDICTED BY IDOCK:   -3.93 KCAL/MOL
REMARK 922        TOTAL FREE ENERGY PREDICTED BY IDOCK:   -8.36 KCAL/MOL
REMARK 923 INTER-LIGAND FREE ENERGY PREDICTED BY IDOCK:   -7.77 KCAL/MOL
REMARK 924 INTRA-LIGAND FREE ENERGY PREDICTED BY IDOCK:   -0.59 KCAL/MOL
REMARK 927      BINDING AFFINITY PREDICTED BY RF-SCORE:    0.00 PKD
ROOT
HETATM    1  C   UNK A   0      -7.619  10.748  62.370  1.00  0.00    -0.153 C  
HETATM    2  C   UNK A   0      -9.095  11.096  62.350  1.00  0.00    -0.239 C  
ENDROOT
BRANCH   2   3
HETATM    3  O   UNK A   0      -9.755  10.345  63.373  1.00  0.00    -0.309 OA 
BRANCH   3   4
HETATM    4  C   UNK A   0      -9.075   9.282  63.892  1.00  0.00     0.059 C  
HETATM    5  O   UNK A   0      -8.390   8.486  63.257  1.00  0.00    -0.172 OA 
BRANCH   4   6
HETATM    6  C   UNK A   0      -9.239   9.284  65.412  1.00  0.00    -0.222 C  
BRANCH   6   7
HETATM    7  C   UNK A   0     -10.391  10.211  65.806  1.00  0.00    -0.216 C  
BRANCH   7   8
HETATM    8  C   UNK A   0     -10.603  10.603  67.277  1.00  0.00    -0.313 C  
BRANCH   8   9
HETATM    9  C   UNK A   0     -10.891  12.105  67.430  1.00  0.00    -0.286 A  
HETATM   10  C   UNK A   0     -11.867  12.718  66.631  1.00  0.00    -0.462 A  
HETATM   11  C   UNK A   0     -12.225  14.062  66.839  1.00  0.00    -0.415 A  
HETATM   12  C   UNK A   0     -10.265  12.908  68.407  1.00  0.00    -0.238 A  
HETATM   13  C   UNK A   0     -11.622  14.813  67.848  1.00  0.00    -0.373 A  
HETATM   14  C   UNK A   0     -10.632  14.236  68.626  1.00  0.00    -0.254 A  
ENDBRANCH   8   9
ENDBRANCH   7   8
ENDBRANCH   6   7
BRANCH   6  15
ATOM     15  N   ALA A   1      -7.977   9.709  66.065  1.00  0.00    -0.107 NA 
ATOM     16  H   ALA A   1      -7.520  10.565  65.753  1.00  0.00     0.000 HD 
BRANCH  15  17
ATOM     17  CA  ALA A   1      -7.360   8.914  67.168  1.00  0.00    -0.084 C  
ATOM     18  CB  ALA A   1      -7.512   9.353  68.634  1.00  0.00    -0.079 C  
BRANCH  17  19
ATOM     19  C   ALA A   1      -7.407   7.360  66.999  1.00  0.00    -0.097 C  
ATOM     20  O   ALA A   1      -6.420   6.786  66.524  1.00  0.00    -0.041 OA 
HETATM   21  C   UNK A   2     -10.183   6.564  69.255  1.00  0.00    -0.216 A  
HETATM   22  C   UNK A   2     -11.267   7.193  69.881  1.00  0.00    -0.241 A  
HETATM   23  N   UNK A   2      -8.464   6.609  67.489  1.00  0.00    -0.121 N  
HETATM   24  C   UNK A   2     -11.743   6.727  71.094  1.00  0.00    -0.345 A  
HETATM   25  C   UNK A   2      -9.720   7.134  67.960  1.00  0.00    -0.138 C  
HETATM   26  O   UNK A   2      -8.924   3.183  66.290  1.00  0.00    -0.136 OA 
HETATM   27  C   UNK A   2     -11.122   5.637  71.709  1.00  0.00    -0.199 A  
HETATM   28  C   UNK A   2     -10.037   5.001  71.072  1.00  0.00    -0.297 A  
HETATM   29  O   UNK A   2     -10.552   4.701  66.577  1.00  0.00    -0.221 OA 
HETATM   30  C   UNK A   2      -9.390   4.354  66.771  1.00  0.00    -0.162 C  
HETATM   31  C   UNK A   2      -9.583   5.442  69.823  1.00  0.00    -0.225 A  
HETATM   32  C   UNK A   2      -8.350   5.146  67.606  1.00  0.00    -0.105 C  
HETATM   33  C   UNK A   2      -8.437   4.766  69.101  1.00  0.00    -0.087 C  
BRANCH  24  34
HETATM   34  O   UNK A   2     -12.842   7.247  71.730  1.00  0.00    -0.339 OA 
HETATM   35  C   UNK A   2     -12.664   8.568  72.200  1.00  0.00    -0.373 C  
ENDBRANCH  24  34
BRANCH  27  36
HETATM   36  O   UNK A   2     -11.638   5.301  72.924  1.00  0.00    -0.310 OA 
HETATM   37  C   UNK A   2     -11.194   4.094  73.511  1.00  0.00    -0.250 C  
ENDBRANCH  27  36
ENDBRANCH  17  19
ENDBRANCH  15  17
ENDBRANCH   6  15
ENDBRANCH   4   6
ENDBRANCH   3   4
ENDBRANCH   2   3
TORSDOF 11
ENDMDL
MODEL      162
REMARK 921   NORMALIZED FREE ENERGY PREDICTED BY IDOCK:   -3.92 KCAL/MOL
REMARK 922        TOTAL FREE ENERGY PREDICTED BY IDOCK:   -8.35 KCAL/MOL
REMARK 923 INTER-LIGAND FREE ENERGY PREDICTED BY IDOCK:   -6.95 KCAL/MOL
REMARK 924 INTRA-LIGAND FREE ENERGY PREDICTED BY IDOCK:   -1.40 KCAL/MOL
REMARK 927      BINDING AFFINITY PREDICTED BY RF-SCORE:    0.00 PKD
ROOT
HETATM    1  C   UNK A   0     -10.484   2.937  72.722  1.00  0.00    -0.213 C  
HETATM    2  C   UNK A   0     -10.520   4.400  72.326  1.00  0.00    -0.122 C  
ENDROOT
BRANCH   2   3
HETATM    3  O   UNK A   0      -9.313   4.714  71.623  1.00  0.00    -0.134 OA 
BRANCH   3   4
HETATM    4  C   UNK A   0      -9.448   5.174  70.346  1.00  0.00    -0.169 C  
HETATM    5  O   UNK A   0     -10.395   4.954  69.597  1.00  0.00    -0.243 OA 
BRANCH   4   6
HETATM    6  C   UNK A   0      -8.260   6.078  70.018  1.00  0.00    -0.122 C  
BRANCH   6   7
HETATM    7  C   UNK A   0      -7.184   5.273  69.285  1.00  0.00    -0.057 C  
BRANCH   7   8
HETATM    8  C   UNK A   0      -7.532   3.921  68.642  1.00  0.00    -0.054 C  
BRANCH   8   9
HETATM    9  C   UNK A   0      -7.976   4.085  67.180  1.00  0.00    -0.095 A  
HETATM   10  C   UNK A   0      -8.591   3.018  66.508  1.00  0.00    -0.117 A  
HETATM   11  C   UNK A   0      -9.108   3.188  65.211  1.00  0.00    -0.148 A  
HETATM   12  C   UNK A   0      -7.866   5.305  66.479  1.00  0.00    -0.100 A  
HETATM   13  C   UNK A   0      -9.027   4.422  64.567  1.00  0.00    -0.151 A  
HETATM   14  C   UNK A   0      -8.396   5.480  65.200  1.00  0.00    -0.146 A  
ENDBRANCH   8   9
ENDBRANCH   7   8
ENDBRANCH   6   7
BRANCH   6  15
ATOM     15  N   ALA A   1      -7.711   6.677  71.261  1.00  0.00    -0.093 NA 
ATOM     16  H   ALA A   1      -7.087   6.122  71.846  1.00  0.00     0.000 HD 
BRANCH  15  17
ATOM     17  CA  ALA A   1      -8.049   8.070  71.674  1.00  0.00    -0.114 C  
ATOM     18  CB  ALA A   1      -7.540   9.276  70.867  1.00  0.00    -0.130 C  
BRANCH  17  19
ATOM     19  C   ALA A   1      -9.497   8.286  72.226  1.00  0.00    -0.271 C  
ATOM     20  O   ALA A   1      -9.682   8.211  73.447  1.00  0.00    -0.248 OA 
HETATM   21  C   UNK A   2     -11.026   9.962  69.349  1.00  0.00    -0.263 A  
HETATM   22  C   UNK A   2     -10.809  10.144  67.977  1.00  0.00    -0.320 A  
HETATM   23  N   UNK A   2     -10.535   8.689  71.401  1.00  0.00    -0.234 N  
HETATM   24  C   UNK A   2     -11.254  11.291  67.342  1.00  0.00    -0.303 A  
HETATM   25  C   UNK A   2     -10.503   8.710  69.961  1.00  0.00    -0.223 C  
HETATM   26  O   UNK A   2     -13.985   8.305  72.559  1.00  0.00    -0.200 OA 
HETATM   27  C   UNK A   2     -11.903  12.283  68.080  1.00  0.00    -0.311 A  
HETATM   28  C   UNK A   2     -12.128  12.093  69.459  1.00  0.00    -0.263 A  
HETATM   29  O   UNK A   2     -13.231   7.821  70.501  1.00  0.00     0.390 OA 
HETATM   30  C   UNK A   2     -13.048   8.358  71.590  1.00  0.00    -0.334 C  
HETATM   31  C   UNK A   2     -11.719  10.914  70.095  1.00  0.00    -0.433 A  
HETATM   32  C   UNK A   2     -11.796   9.188  71.975  1.00  0.00    -0.337 C  
HETATM   33  C   UNK A   2     -11.967  10.668  71.567  1.00  0.00    -0.148 C  
BRANCH  24  34
HETATM   34  O   UNK A   2     -11.140  11.504  65.991  1.00  0.00    -0.291 OA 
HETATM   35  C   UNK A   2      -9.981  10.938  65.415  1.00  0.00    -0.263 C  
ENDBRANCH  24  34
BRANCH  27  36
HETATM   36  O   UNK A   2     -12.246  13.389  67.365  1.00  0.00    -0.326 OA 
HETATM   37  C   UNK A   2     -11.597  14.604  67.686  1.00  0.00    -0.361 C  
ENDBRANCH  27  36
ENDBRANCH  17  19
ENDBRANCH  15  17
ENDBRANCH   6  15
ENDBRANCH   4   6
ENDBRANCH   3   4
ENDBRANCH   2   3
TORSDOF 11
ENDMDL
MODEL      163
REMARK 921   NORMALIZED FREE ENERGY PREDICTED BY IDOCK:   -3.92 KCAL/MOL
REMARK 922        TOTAL FREE ENERGY PREDICTED BY IDOCK:   -8.34 KCAL/MOL
REMARK 923 INTER-LIGAND FREE ENERGY PREDICTED BY IDOCK:   -7.68 KCAL/MOL
REMARK 924 INTRA-LIGAND FREE ENERGY PREDICTED BY IDOCK:   -0.66 KCAL/MOL
REMARK 927      BINDING AFFINITY PREDICTED BY RF-SCORE:    0.00 PKD
ROOT
HETATM    1  C   UNK A   0      -5.131  10.478  65.547  1.00  0.00    -0.100 C  
HETATM    2  C   UNK A   0      -5.511   9.355  64.602  1.00  0.00    -0.055 C  
ENDROOT
BRANCH   2   3
HETATM    3  O   UNK A   0      -6.903   9.472  64.290  1.00  0.00    -0.093 OA 
BRANCH   3   4
HETATM    4  C   UNK A   0      -7.710   8.445  64.683  1.00  0.00    -0.112 C  
HETATM    5  O   UNK A   0      -7.730   7.318  64.197  1.00  0.00    -0.109 OA 
BRANCH   4   6
HETATM    6  C   UNK A   0      -8.539   8.899  65.884  1.00  0.00    -0.158 C  
BRANCH   6   7
HETATM    7  C   UNK A   0      -8.882   7.693  66.761  1.00  0.00    -0.150 C  
BRANCH   7   8
HETATM    8  C   UNK A   0     -10.063   6.779  66.397  1.00  0.00    -0.048 C  
BRANCH   8   9
HETATM    9  C   UNK A   0      -9.610   5.329  66.163  1.00  0.00    -0.176 A  
HETATM   10  C   UNK A   0     -10.134   4.593  65.090  1.00  0.00    -0.078 A  
HETATM   11  C   UNK A   0      -9.644   3.309  64.793  1.00  0.00    -0.149 A  
HETATM   12  C   UNK A   0      -8.613   4.705  66.943  1.00  0.00    -0.104 A  
HETATM   13  C   UNK A   0      -8.622   2.742  65.553  1.00  0.00    -0.110 A  
HETATM   14  C   UNK A   0      -8.113   3.438  66.637  1.00  0.00    -0.091 A  
ENDBRANCH   8   9
ENDBRANCH   7   8
ENDBRANCH   6   7
BRANCH   6  15
ATOM     15  N   ALA A   1      -9.774   9.583  65.427  1.00  0.00    -0.405 NA 
ATOM     16  H   ALA A   1     -10.681   9.177  65.658  1.00  0.00     0.000 HD 
BRANCH  15  17
ATOM     17  CA  ALA A   1      -9.722  10.848  64.639  1.00  0.00    -0.280 C  
ATOM     18  CB  ALA A   1     -10.080  10.859  63.143  1.00  0.00    -0.317 C  
BRANCH  17  19
ATOM     19  C   ALA A   1     -10.210  12.136  65.380  1.00  0.00    -0.270 C  
ATOM     20  O   ALA A   1     -10.740  13.036  64.717  1.00  0.00    -0.314 OA 
HETATM   21  C   UNK A   2     -10.312  10.884  68.822  1.00  0.00    -0.215 A  
HETATM   22  C   UNK A   2      -9.801   9.832  69.594  1.00  0.00    -0.241 A  
HETATM   23  N   UNK A   2     -10.184  12.232  66.762  1.00  0.00    -0.210 N  
HETATM   24  C   UNK A   2     -10.505   9.357  70.687  1.00  0.00    -0.290 A  
HETATM   25  C   UNK A   2      -9.503  11.327  67.654  1.00  0.00    -0.167 C  
HETATM   26  O   UNK A   2     -10.484  15.524  68.330  1.00  0.00    -0.232 OA 
HETATM   27  C   UNK A   2     -11.744   9.915  71.007  1.00  0.00    -0.382 A  
HETATM   28  C   UNK A   2     -12.252  10.980  70.234  1.00  0.00    -0.447 A  
HETATM   29  O   UNK A   2      -9.046  13.910  68.935  1.00  0.00    -0.062 OA 
HETATM   30  C   UNK A   2     -10.041  14.250  68.299  1.00  0.00    -0.238 C  
HETATM   31  C   UNK A   2     -11.521  11.492  69.156  1.00  0.00    -0.362 A  
HETATM   32  C   UNK A   2     -10.926  13.300  67.453  1.00  0.00    -0.271 C  
HETATM   33  C   UNK A   2     -12.026  12.649  68.321  1.00  0.00    -0.271 C  
BRANCH  24  34
HETATM   34  O   UNK A   2     -10.034   8.381  71.528  1.00  0.00    -0.183 OA 
HETATM   35  C   UNK A   2      -8.805   8.699  72.148  1.00  0.00    -0.175 C  
ENDBRANCH  24  34
BRANCH  27  36
HETATM   36  O   UNK A   2     -12.372   9.333  72.066  1.00  0.00    -0.365 OA 
HETATM   37  C   UNK A   2     -13.778   9.195  71.998  1.00  0.00    -0.448 C  
ENDBRANCH  27  36
ENDBRANCH  17  19
ENDBRANCH  15  17
ENDBRANCH   6  15
ENDBRANCH   4   6
ENDBRANCH   3   4
ENDBRANCH   2   3
TORSDOF 11
ENDMDL
MODEL      164
REMARK 921   NORMALIZED FREE ENERGY PREDICTED BY IDOCK:   -3.91 KCAL/MOL
REMARK 922        TOTAL FREE ENERGY PREDICTED BY IDOCK:   -8.33 KCAL/MOL
REMARK 923 INTER-LIGAND FREE ENERGY PREDICTED BY IDOCK:   -6.65 KCAL/MOL
REMARK 924 INTRA-LIGAND FREE ENERGY PREDICTED BY IDOCK:   -1.68 KCAL/MOL
REMARK 927      BINDING AFFINITY PREDICTED BY RF-SCORE:    0.00 PKD
ROOT
HETATM    1  C   UNK A   0     -12.887  10.616  70.594  1.00  0.00    -0.404 C  
HETATM    2  C   UNK A   0     -11.767  11.387  69.924  1.00  0.00    -0.346 C  
ENDROOT
BRANCH   2   3
HETATM    3  O   UNK A   0     -10.792  10.455  69.447  1.00  0.00    -0.215 OA 
BRANCH   3   4
HETATM    4  C   UNK A   0     -10.793  10.197  68.107  1.00  0.00    -0.262 C  
HETATM    5  O   UNK A   0     -11.496  10.750  67.267  1.00  0.00    -0.436 OA 
BRANCH   4   6
HETATM    6  C   UNK A   0      -9.719   9.152  67.804  1.00  0.00    -0.154 C  
BRANCH   6   7
HETATM    7  C   UNK A   0     -10.154   7.790  68.350  1.00  0.00    -0.215 C  
BRANCH   7   8
HETATM    8  C   UNK A   0      -9.186   6.951  69.201  1.00  0.00    -0.141 C  
BRANCH   8   9
HETATM    9  C   UNK A   0      -9.706   6.764  70.635  1.00  0.00    -0.180 A  
HETATM   10  C   UNK A   0     -10.197   7.864  71.354  1.00  0.00    -0.226 A  
HETATM   11  C   UNK A   0     -10.784   7.690  72.621  1.00  0.00    -0.377 A  
HETATM   12  C   UNK A   0      -9.789   5.501  71.259  1.00  0.00    -0.228 A  
HETATM   13  C   UNK A   0     -10.895   6.421  73.187  1.00  0.00    -0.282 A  
HETATM   14  C   UNK A   0     -10.387   5.325  72.508  1.00  0.00    -0.249 A  
ENDBRANCH   8   9
ENDBRANCH   7   8
ENDBRANCH   6   7
BRANCH   6  15
ATOM     15  N   ALA A   1      -8.421   9.564  68.393  1.00  0.00    -0.118 NA 
ATOM     16  H   ALA A   1      -8.289   9.495  69.402  1.00  0.00     0.000 HD 
BRANCH  15  17
ATOM     17  CA  ALA A   1      -7.304  10.075  67.546  1.00  0.00    -0.090 C  
ATOM     18  CB  ALA A   1      -7.418  10.081  66.012  1.00  0.00    -0.112 C  
BRANCH  17  19
ATOM     19  C   ALA A   1      -6.549  11.330  68.095  1.00  0.00    -0.057 C  
ATOM     20  O   ALA A   1      -5.322  11.264  68.244  1.00  0.00    -0.040 OA 
HETATM   21  C   UNK A   2      -9.069  13.912  67.459  1.00  0.00    -0.201 A  
HETATM   22  C   UNK A   2     -10.441  14.028  67.203  1.00  0.00    -0.270 A  
HETATM   23  N   UNK A   2      -7.196  12.540  68.286  1.00  0.00    -0.102 N  
HETATM   24  C   UNK A   2     -10.928  15.082  66.450  1.00  0.00    -0.336 A  
HETATM   25  C   UNK A   2      -8.622  12.742  68.264  1.00  0.00    -0.166 C  
HETATM   26  O   UNK A   2      -5.616  15.099  70.369  1.00  0.00    -0.129 OA 
HETATM   27  C   UNK A   2     -10.042  16.023  65.923  1.00  0.00    -0.353 A  
HETATM   28  C   UNK A   2      -8.662  15.909  66.190  1.00  0.00    -0.328 A  
HETATM   29  O   UNK A   2      -7.785  14.526  70.417  1.00  0.00     0.543 OA 
HETATM   30  C   UNK A   2      -6.695  14.478  69.852  1.00  0.00    -0.132 C  
HETATM   31  C   UNK A   2      -8.172  14.869  66.989  1.00  0.00    -0.228 A  
HETATM   32  C   UNK A   2      -6.424  13.776  68.497  1.00  0.00    -0.093 C  
HETATM   33  C   UNK A   2      -6.700  14.732  67.315  1.00  0.00     0.101 C  
BRANCH  24  34
HETATM   34  O   UNK A   2     -12.263  15.299  66.219  1.00  0.00     0.269 OA 
HETATM   35  C   UNK A   2     -12.893  14.274  65.476  1.00  0.00    -0.312 C  
ENDBRANCH  24  34
BRANCH  27  36
HETATM   36  O   UNK A   2     -10.624  16.984  65.153  1.00  0.00    -0.688 OA 
HETATM   37  C   UNK A   2     -10.584  18.315  65.627  1.00  0.00    -0.090 C  
ENDBRANCH  27  36
ENDBRANCH  17  19
ENDBRANCH  15  17
ENDBRANCH   6  15
ENDBRANCH   4   6
ENDBRANCH   3   4
ENDBRANCH   2   3
TORSDOF 11
ENDMDL
MODEL      165
REMARK 921   NORMALIZED FREE ENERGY PREDICTED BY IDOCK:   -3.89 KCAL/MOL
REMARK 922        TOTAL FREE ENERGY PREDICTED BY IDOCK:   -8.30 KCAL/MOL
REMARK 923 INTER-LIGAND FREE ENERGY PREDICTED BY IDOCK:   -6.99 KCAL/MOL
REMARK 924 INTRA-LIGAND FREE ENERGY PREDICTED BY IDOCK:   -1.32 KCAL/MOL
REMARK 927      BINDING AFFINITY PREDICTED BY RF-SCORE:    0.00 PKD
ROOT
HETATM    1  C   UNK A   0      -9.004  11.183  62.557  1.00  0.00    -0.347 C  
HETATM    2  C   UNK A   0      -9.422  10.274  63.696  1.00  0.00    -0.299 C  
ENDROOT
BRANCH   2   3
HETATM    3  O   UNK A   0      -8.585  10.541  64.825  1.00  0.00    -0.177 OA 
BRANCH   3   4
HETATM    4  C   UNK A   0      -9.212  10.767  66.016  1.00  0.00    -0.187 C  
HETATM    5  O   UNK A   0      -9.209  11.822  66.643  1.00  0.00    -0.187 OA 
BRANCH   4   6
HETATM    6  C   UNK A   0      -9.988   9.511  66.412  1.00  0.00    -0.269 C  
BRANCH   6   7
HETATM    7  C   UNK A   0     -10.778   9.775  67.696  1.00  0.00    -0.334 C  
BRANCH   7   8
HETATM    8  C   UNK A   0     -10.063   9.786  69.057  1.00  0.00    -0.195 C  
BRANCH   8   9
HETATM    9  C   UNK A   0     -11.063   9.775  70.224  1.00  0.00    -0.349 A  
HETATM   10  C   UNK A   0     -12.014  10.798  70.346  1.00  0.00    -0.448 A  
HETATM   11  C   UNK A   0     -13.009  10.741  71.339  1.00  0.00    -0.535 A  
HETATM   12  C   UNK A   0     -11.129   8.723  71.164  1.00  0.00    -0.340 A  
HETATM   13  C   UNK A   0     -13.076   9.661  72.219  1.00  0.00    -0.468 A  
HETATM   14  C   UNK A   0     -12.126   8.656  72.137  1.00  0.00    -0.451 A  
ENDBRANCH   8   9
ENDBRANCH   7   8
ENDBRANCH   6   7
BRANCH   6  15
ATOM     15  N   ALA A   1      -9.059   8.368  66.593  1.00  0.00    -0.154 NA 
ATOM     16  H   ALA A   1      -8.087   8.468  66.303  1.00  0.00     0.000 HD 
BRANCH  15  17
ATOM     17  CA  ALA A   1      -9.513   7.077  67.188  1.00  0.00    -0.145 C  
ATOM     18  CB  ALA A   1     -10.921   6.529  66.901  1.00  0.00    -0.408 C  
BRANCH  17  19
ATOM     19  C   ALA A   1      -8.435   5.947  67.270  1.00  0.00    -0.103 C  
ATOM     20  O   ALA A   1      -7.747   5.711  66.269  1.00  0.00    -0.096 OA 
HETATM   21  C   UNK A   2      -8.130   5.625  70.907  1.00  0.00    -0.118 A  
HETATM   22  C   UNK A   2      -8.837   5.948  72.073  1.00  0.00    -0.137 A  
HETATM   23  N   UNK A   2      -8.146   5.304  68.463  1.00  0.00    -0.087 N  
HETATM   24  C   UNK A   2      -8.163   6.196  73.256  1.00  0.00    -0.113 A  
HETATM   25  C   UNK A   2      -8.926   5.387  69.672  1.00  0.00    -0.109 C  
HETATM   26  O   UNK A   2      -6.313   2.139  68.388  1.00  0.00    -0.028 OA 
HETATM   27  C   UNK A   2      -6.768   6.147  73.281  1.00  0.00    -0.075 A  
HETATM   28  C   UNK A   2      -6.060   5.813  72.108  1.00  0.00    -0.040 A  
HETATM   29  O   UNK A   2      -8.103   2.586  69.665  1.00  0.00    -0.042 OA 
HETATM   30  C   UNK A   2      -7.203   2.992  68.935  1.00  0.00    -0.048 C  
HETATM   31  C   UNK A   2      -6.741   5.517  70.921  1.00  0.00    -0.044 A  
HETATM   32  C   UNK A   2      -6.933   4.480  68.595  1.00  0.00    -0.052 C  
HETATM   33  C   UNK A   2      -6.013   5.131  69.652  1.00  0.00    -0.021 C  
BRANCH  24  34
HETATM   34  O   UNK A   2      -8.791   6.447  74.450  1.00  0.00    -0.136 OA 
HETATM   35  C   UNK A   2     -10.135   6.012  74.496  1.00  0.00    -0.314 C  
ENDBRANCH  24  34
BRANCH  27  36
HETATM   36  O   UNK A   2      -6.210   6.463  74.482  1.00  0.00    -0.068 OA 
HETATM   37  C   UNK A   2      -5.409   7.626  74.546  1.00  0.00    -0.066 C  
ENDBRANCH  27  36
ENDBRANCH  17  19
ENDBRANCH  15  17
ENDBRANCH   6  15
ENDBRANCH   4   6
ENDBRANCH   3   4
ENDBRANCH   2   3
TORSDOF 11
ENDMDL
MODEL      166
REMARK 921   NORMALIZED FREE ENERGY PREDICTED BY IDOCK:   -3.88 KCAL/MOL
REMARK 922        TOTAL FREE ENERGY PREDICTED BY IDOCK:   -8.29 KCAL/MOL
REMARK 923 INTER-LIGAND FREE ENERGY PREDICTED BY IDOCK:   -7.32 KCAL/MOL
REMARK 924 INTRA-LIGAND FREE ENERGY PREDICTED BY IDOCK:   -0.96 KCAL/MOL
REMARK 927      BINDING AFFINITY PREDICTED BY RF-SCORE:    0.00 PKD
ROOT
HETATM    1  C   UNK A   0     -11.148   1.760  63.132  1.00  0.00    -0.244 C  
HETATM    2  C   UNK A   0     -10.774   3.230  63.130  1.00  0.00    -0.224 C  
ENDROOT
BRANCH   2   3
HETATM    3  O   UNK A   0      -9.888   3.477  64.226  1.00  0.00    -0.156 OA 
BRANCH   3   4
HETATM    4  C   UNK A   0      -8.903   4.399  64.024  1.00  0.00    -0.142 C  
HETATM    5  O   UNK A   0      -8.629   4.938  62.956  1.00  0.00    -0.115 OA 
BRANCH   4   6
HETATM    6  C   UNK A   0      -8.238   4.715  65.364  1.00  0.00    -0.116 C  
BRANCH   6   7
HETATM    7  C   UNK A   0      -8.883   3.878  66.471  1.00  0.00    -0.125 C  
BRANCH   7   8
HETATM    8  C   UNK A   0      -8.013   3.006  67.390  1.00  0.00    -0.077 C  
BRANCH   8   9
HETATM    9  C   UNK A   0      -8.247   3.334  68.873  1.00  0.00    -0.076 A  
HETATM   10  C   UNK A   0      -7.167   3.351  69.769  1.00  0.00    -0.041 A  
HETATM   11  C   UNK A   0      -7.345   3.764  71.101  1.00  0.00    -0.033 A  
HETATM   12  C   UNK A   0      -9.509   3.704  69.385  1.00  0.00    -0.249 A  
HETATM   13  C   UNK A   0      -8.597   4.171  71.561  1.00  0.00    -0.126 A  
HETATM   14  C   UNK A   0      -9.683   4.131  70.702  1.00  0.00    -0.273 A  
ENDBRANCH   8   9
ENDBRANCH   7   8
ENDBRANCH   6   7
BRANCH   6  15
ATOM     15  N   ALA A   1      -8.354   6.163  65.667  1.00  0.00    -0.141 NA 
ATOM     16  H   ALA A   1      -7.697   6.814  65.238  1.00  0.00     0.000 HD 
BRANCH  15  17
ATOM     17  CA  ALA A   1      -9.407   6.689  66.584  1.00  0.00    -0.163 C  
ATOM     18  CB  ALA A   1     -10.786   6.012  66.671  1.00  0.00    -0.315 C  
BRANCH  17  19
ATOM     19  C   ALA A   1      -8.907   7.210  67.971  1.00  0.00    -0.129 C  
ATOM     20  O   ALA A   1      -7.965   6.624  68.519  1.00  0.00    -0.114 OA 
HETATM   21  C   UNK A   2     -10.364  10.572  67.946  1.00  0.00    -0.226 A  
HETATM   22  C   UNK A   2     -11.366  11.299  67.291  1.00  0.00    -0.329 A  
HETATM   23  N   UNK A   2      -9.401   8.379  68.528  1.00  0.00    -0.139 N  
HETATM   24  C   UNK A   2     -11.244  12.668  67.125  1.00  0.00    -0.300 A  
HETATM   25  C   UNK A   2     -10.561   9.101  68.072  1.00  0.00    -0.197 C  
HETATM   26  O   UNK A   2      -8.857   9.027  72.088  1.00  0.00    -0.376 OA 
HETATM   27  C   UNK A   2     -10.104  13.323  67.593  1.00  0.00    -0.229 A  
HETATM   28  C   UNK A   2      -9.101  12.590  68.260  1.00  0.00    -0.183 A  
HETATM   29  O   UNK A   2     -10.775   9.366  70.972  1.00  0.00    -0.284 OA 
HETATM   30  C   UNK A   2      -9.568   9.141  70.947  1.00  0.00    -0.279 C  
HETATM   31  C   UNK A   2      -9.242  11.213  68.470  1.00  0.00    -0.183 A  
HETATM   32  C   UNK A   2      -8.710   9.017  69.661  1.00  0.00    -0.143 C  
HETATM   33  C   UNK A   2      -8.197  10.401  69.204  1.00  0.00    -0.157 C  
BRANCH  24  34
HETATM   34  O   UNK A   2     -12.216  13.453  66.558  1.00  0.00    -0.399 OA 
HETATM   35  C   UNK A   2     -12.489  13.145  65.205  1.00  0.00    -0.495 C  
ENDBRANCH  24  34
BRANCH  27  36
HETATM   36  O   UNK A   2     -10.066  14.658  67.325  1.00  0.00    -0.235 OA 
HETATM   37  C   UNK A   2      -9.296  15.081  66.217  1.00  0.00    -0.307 C  
ENDBRANCH  27  36
ENDBRANCH  17  19
ENDBRANCH  15  17
ENDBRANCH   6  15
ENDBRANCH   4   6
ENDBRANCH   3   4
ENDBRANCH   2   3
TORSDOF 11
ENDMDL
MODEL      167
REMARK 921   NORMALIZED FREE ENERGY PREDICTED BY IDOCK:   -3.88 KCAL/MOL
REMARK 922        TOTAL FREE ENERGY PREDICTED BY IDOCK:   -8.28 KCAL/MOL
REMARK 923 INTER-LIGAND FREE ENERGY PREDICTED BY IDOCK:   -7.27 KCAL/MOL
REMARK 924 INTRA-LIGAND FREE ENERGY PREDICTED BY IDOCK:   -1.00 KCAL/MOL
REMARK 927      BINDING AFFINITY PREDICTED BY RF-SCORE:    0.00 PKD
ROOT
HETATM    1  C   UNK A   0     -10.013   3.809  71.665  1.00  0.00    -0.211 C  
HETATM    2  C   UNK A   0     -10.408   5.264  71.496  1.00  0.00    -0.221 C  
ENDROOT
BRANCH   2   3
HETATM    3  O   UNK A   0      -9.628   5.828  70.437  1.00  0.00    -0.161 OA 
BRANCH   3   4
HETATM    4  C   UNK A   0     -10.312   6.303  69.356  1.00  0.00    -0.216 C  
HETATM    5  O   UNK A   0     -11.523   6.493  69.297  1.00  0.00    -0.340 OA 
BRANCH   4   6
HETATM    6  C   UNK A   0      -9.315   6.632  68.245  1.00  0.00    -0.119 C  
BRANCH   6   7
HETATM    7  C   UNK A   0      -8.831   5.339  67.584  1.00  0.00    -0.105 C  
BRANCH   7   8
HETATM    8  C   UNK A   0      -9.834   4.394  66.904  1.00  0.00    -0.235 C  
BRANCH   8   9
HETATM    9  C   UNK A   0      -9.664   4.388  65.376  1.00  0.00    -0.203 A  
HETATM   10  C   UNK A   0     -10.670   3.853  64.558  1.00  0.00    -0.172 A  
HETATM   11  C   UNK A   0     -10.583   3.946  63.158  1.00  0.00    -0.180 A  
HETATM   12  C   UNK A   0      -8.556   4.975  64.728  1.00  0.00    -0.150 A  
HETATM   13  C   UNK A   0      -9.497   4.578  62.551  1.00  0.00    -0.094 A  
HETATM   14  C   UNK A   0      -8.477   5.084  63.340  1.00  0.00    -0.123 A  
ENDBRANCH   8   9
ENDBRANCH   7   8
ENDBRANCH   6   7
BRANCH   6  15
ATOM     15  N   ALA A   1      -8.170   7.401  68.794  1.00  0.00    -0.128 NA 
ATOM     16  H   ALA A   1      -7.366   6.896  69.166  1.00  0.00     0.000 HD 
BRANCH  15  17
ATOM     17  CA  ALA A   1      -8.167   8.892  68.815  1.00  0.00    -0.115 C  
ATOM     18  CB  ALA A   1      -7.979   9.698  67.518  1.00  0.00    -0.106 C  
BRANCH  17  19
ATOM     19  C   ALA A   1      -9.184   9.564  69.795  1.00  0.00    -0.208 C  
ATOM     20  O   ALA A   1      -8.916   9.586  71.003  1.00  0.00    -0.241 OA 
HETATM   21  C   UNK A   2     -11.139  11.548  67.415  1.00  0.00    -0.339 A  
HETATM   22  C   UNK A   2     -11.406  11.614  66.041  1.00  0.00    -0.261 A  
HETATM   23  N   UNK A   2     -10.297  10.245  69.330  1.00  0.00    -0.221 N  
HETATM   24  C   UNK A   2     -11.716  12.823  65.444  1.00  0.00    -0.387 A  
HETATM   25  C   UNK A   2     -10.798  10.214  67.980  1.00  0.00    -0.270 C  
HETATM   26  O   UNK A   2     -13.031  10.987  71.647  1.00  0.00    -0.441 OA 
HETATM   27  C   UNK A   2     -11.740  13.988  66.212  1.00  0.00    -0.387 A  
HETATM   28  C   UNK A   2     -11.481  13.918  67.596  1.00  0.00    -0.354 A  
HETATM   29  O   UNK A   2     -13.262  10.233  69.546  1.00  0.00     0.332 OA 
HETATM   30  C   UNK A   2     -12.546  10.718  70.417  1.00  0.00    -0.314 C  
HETATM   31  C   UNK A   2     -11.211  12.690  68.211  1.00  0.00    -0.312 A  
HETATM   32  C   UNK A   2     -11.062  11.128  70.227  1.00  0.00     0.092 C  
HETATM   33  C   UNK A   2     -10.953  12.576  69.698  1.00  0.00     0.136 C  
BRANCH  24  34
HETATM   34  O   UNK A   2     -12.057  12.951  64.120  1.00  0.00    -0.381 OA 
HETATM   35  C   UNK A   2     -11.328  12.105  63.254  1.00  0.00    -0.327 C  
ENDBRANCH  24  34
BRANCH  27  36
HETATM   36  O   UNK A   2     -12.002  15.126  65.510  1.00  0.00    -0.088 OA 
HETATM   37  C   UNK A   2     -10.899  15.908  65.098  1.00  0.00    -0.421 C  
ENDBRANCH  27  36
ENDBRANCH  17  19
ENDBRANCH  15  17
ENDBRANCH   6  15
ENDBRANCH   4   6
ENDBRANCH   3   4
ENDBRANCH   2   3
TORSDOF 11
ENDMDL
MODEL      168
REMARK 921   NORMALIZED FREE ENERGY PREDICTED BY IDOCK:   -3.87 KCAL/MOL
REMARK 922        TOTAL FREE ENERGY PREDICTED BY IDOCK:   -8.27 KCAL/MOL
REMARK 923 INTER-LIGAND FREE ENERGY PREDICTED BY IDOCK:   -6.24 KCAL/MOL
REMARK 924 INTRA-LIGAND FREE ENERGY PREDICTED BY IDOCK:   -2.03 KCAL/MOL
REMARK 927      BINDING AFFINITY PREDICTED BY RF-SCORE:    0.00 PKD
ROOT
HETATM    1  C   UNK A   0      -8.570   3.529  69.634  1.00  0.00    -0.111 C  
HETATM    2  C   UNK A   0      -8.728   4.783  70.470  1.00  0.00    -0.103 C  
ENDROOT
BRANCH   2   3
HETATM    3  O   UNK A   0      -8.959   5.891  69.594  1.00  0.00    -0.128 OA 
BRANCH   3   4
HETATM    4  C   UNK A   0      -7.925   6.261  68.786  1.00  0.00    -0.102 C  
HETATM    5  O   UNK A   0      -6.740   6.298  69.103  1.00  0.00    -0.052 OA 
BRANCH   4   6
HETATM    6  C   UNK A   0      -8.470   6.555  67.388  1.00  0.00    -0.119 C  
BRANCH   6   7
HETATM    7  C   UNK A   0      -7.365   6.350  66.349  1.00  0.00    -0.081 C  
BRANCH   7   8
HETATM    8  C   UNK A   0      -7.697   6.375  64.848  1.00  0.00    -0.104 C  
BRANCH   8   9
HETATM    9  C   UNK A   0      -7.328   7.722  64.207  1.00  0.00    -0.089 A  
HETATM   10  C   UNK A   0      -8.336   8.595  63.772  1.00  0.00    -0.116 A  
HETATM   11  C   UNK A   0      -8.018   9.878  63.292  1.00  0.00    -0.151 A  
HETATM   12  C   UNK A   0      -5.995   8.176  64.096  1.00  0.00    -0.065 A  
HETATM   13  C   UNK A   0      -6.694  10.314  63.243  1.00  0.00    -0.105 A  
HETATM   14  C   UNK A   0      -5.680   9.456  63.637  1.00  0.00    -0.083 A  
ENDBRANCH   8   9
ENDBRANCH   7   8
ENDBRANCH   6   7
BRANCH   6  15
ATOM     15  N   ALA A   1      -9.000   7.940  67.323  1.00  0.00    -0.126 NA 
ATOM     16  H   ALA A   1      -9.872   8.115  66.825  1.00  0.00     0.000 HD 
BRANCH  15  17
ATOM     17  CA  ALA A   1      -8.288   9.081  67.969  1.00  0.00    -0.117 C  
ATOM     18  CB  ALA A   1      -7.353   9.990  67.153  1.00  0.00    -0.091 C  
BRANCH  17  19
ATOM     19  C   ALA A   1      -9.102   9.872  69.046  1.00  0.00    -0.164 C  
ATOM     20  O   ALA A   1      -8.649   9.944  70.195  1.00  0.00    -0.195 OA 
HETATM   21  C   UNK A   2     -11.289  11.842  66.864  1.00  0.00    -0.392 A  
HETATM   22  C   UNK A   2     -11.761  11.848  65.546  1.00  0.00    -0.224 A  
HETATM   23  N   UNK A   2     -10.234  10.598  68.712  1.00  0.00    -0.181 N  
HETATM   24  C   UNK A   2     -12.093  13.039  64.924  1.00  0.00    -0.413 A  
HETATM   25  C   UNK A   2     -10.939  10.522  67.458  1.00  0.00    -0.303 C  
HETATM   26  O   UNK A   2     -12.528  11.646  71.362  1.00  0.00    -0.304 OA 
HETATM   27  C   UNK A   2     -11.932  14.245  65.609  1.00  0.00    -0.386 A  
HETATM   28  C   UNK A   2     -11.465  14.236  66.939  1.00  0.00    -0.377 A  
HETATM   29  O   UNK A   2     -13.125  10.791  69.375  1.00  0.00     0.049 OA 
HETATM   30  C   UNK A   2     -12.256  11.277  70.094  1.00  0.00    -0.330 C  
HETATM   31  C   UNK A   2     -11.172  13.029  67.586  1.00  0.00    -0.315 A  
HETATM   32  C   UNK A   2     -10.799  11.577  69.654  1.00  0.00     0.008 C  
HETATM   33  C   UNK A   2     -10.693  12.983  69.020  1.00  0.00    -0.138 C  
BRANCH  24  34
HETATM   34  O   UNK A   2     -12.628  13.114  63.662  1.00  0.00    -0.705 OA 
HETATM   35  C   UNK A   2     -12.994  11.863  63.117  1.00  0.00     0.131 C  
ENDBRANCH  24  34
BRANCH  27  36
HETATM   36  O   UNK A   2     -12.235  15.356  64.881  1.00  0.00    -0.044 OA 
HETATM   37  C   UNK A   2     -11.248  16.362  64.782  1.00  0.00    -0.212 C  
ENDBRANCH  27  36
ENDBRANCH  17  19
ENDBRANCH  15  17
ENDBRANCH   6  15
ENDBRANCH   4   6
ENDBRANCH   3   4
ENDBRANCH   2   3
TORSDOF 11
ENDMDL
MODEL      169
REMARK 921   NORMALIZED FREE ENERGY PREDICTED BY IDOCK:   -3.87 KCAL/MOL
REMARK 922        TOTAL FREE ENERGY PREDICTED BY IDOCK:   -8.26 KCAL/MOL
REMARK 923 INTER-LIGAND FREE ENERGY PREDICTED BY IDOCK:   -6.65 KCAL/MOL
REMARK 924 INTRA-LIGAND FREE ENERGY PREDICTED BY IDOCK:   -1.61 KCAL/MOL
REMARK 927      BINDING AFFINITY PREDICTED BY RF-SCORE:    0.00 PKD
ROOT
HETATM    1  C   UNK A   0      -8.811   8.197  73.029  1.00  0.00    -0.316 C  
HETATM    2  C   UNK A   0      -8.564   8.829  71.673  1.00  0.00    -0.159 C  
ENDROOT
BRANCH   2   3
HETATM    3  O   UNK A   0      -9.590   8.396  70.774  1.00  0.00    -0.164 OA 
BRANCH   3   4
HETATM    4  C   UNK A   0      -9.737   9.109  69.620  1.00  0.00    -0.176 C  
HETATM    5  O   UNK A   0      -9.995  10.306  69.541  1.00  0.00    -0.223 OA 
BRANCH   4   6
HETATM    6  C   UNK A   0      -9.453   8.191  68.431  1.00  0.00    -0.142 C  
BRANCH   6   7
HETATM    7  C   UNK A   0      -9.759   6.741  68.813  1.00  0.00    -0.132 C  
BRANCH   7   8
HETATM    8  C   UNK A   0      -8.655   5.674  68.754  1.00  0.00    -0.104 C  
BRANCH   8   9
HETATM    9  C   UNK A   0      -8.945   4.615  67.678  1.00  0.00    -0.124 A  
HETATM   10  C   UNK A   0      -9.240   5.010  66.365  1.00  0.00    -0.139 A  
HETATM   11  C   UNK A   0      -9.391   4.054  65.344  1.00  0.00    -0.162 A  
HETATM   12  C   UNK A   0      -8.853   3.228  67.925  1.00  0.00    -0.156 A  
HETATM   13  C   UNK A   0      -9.244   2.694  65.613  1.00  0.00    -0.087 A  
HETATM   14  C   UNK A   0      -8.985   2.281  66.910  1.00  0.00    -0.145 A  
ENDBRANCH   8   9
ENDBRANCH   7   8
ENDBRANCH   6   7
BRANCH   6  15
ATOM     15  N   ALA A   1      -8.040   8.332  67.999  1.00  0.00    -0.126 NA 
ATOM     16  H   ALA A   1      -7.337   7.701  68.384  1.00  0.00     0.000 HD 
BRANCH  15  17
ATOM     17  CA  ALA A   1      -7.622   9.373  67.015  1.00  0.00    -0.091 C  
ATOM     18  CB  ALA A   1      -6.198   9.383  66.435  1.00  0.00    -0.064 C  
BRANCH  17  19
ATOM     19  C   ALA A   1      -8.701   9.789  65.961  1.00  0.00    -0.141 C  
ATOM     20  O   ALA A   1      -9.134   8.927  65.187  1.00  0.00    -0.187 OA 
HETATM   21  C   UNK A   2      -9.862  12.929  67.450  1.00  0.00    -0.207 A  
HETATM   22  C   UNK A   2      -9.449  13.888  68.383  1.00  0.00    -0.211 A  
HETATM   23  N   UNK A   2      -9.271  11.052  65.966  1.00  0.00    -0.187 N  
HETATM   24  C   UNK A   2     -10.381  14.610  69.107  1.00  0.00    -0.216 A  
HETATM   25  C   UNK A   2      -8.799  12.183  66.722  1.00  0.00    -0.198 C  
HETATM   26  O   UNK A   2     -11.068  12.209  62.996  1.00  0.00    -0.261 OA 
HETATM   27  C   UNK A   2     -11.743  14.363  68.922  1.00  0.00    -0.322 A  
HETATM   28  C   UNK A   2     -12.157  13.404  67.975  1.00  0.00    -0.283 A  
HETATM   29  O   UNK A   2      -9.627  13.426  64.213  1.00  0.00     0.122 OA 
HETATM   30  C   UNK A   2     -10.324  12.421  64.101  1.00  0.00    -0.382 C  
HETATM   31  C   UNK A   2     -11.216  12.705  67.209  1.00  0.00    -0.346 A  
HETATM   32  C   UNK A   2     -10.490  11.325  65.186  1.00  0.00    -0.291 C  
HETATM   33  C   UNK A   2     -11.627  11.687  66.167  1.00  0.00    -0.105 C  
BRANCH  24  34
HETATM   34  O   UNK A   2     -10.051  15.613  69.985  1.00  0.00    -0.293 OA 
HETATM   35  C   UNK A   2      -9.908  16.883  69.380  1.00  0.00    -0.064 C  
ENDBRANCH  24  34
BRANCH  27  36
HETATM   36  O   UNK A   2     -12.566  15.091  69.727  1.00  0.00    -0.223 OA 
HETATM   37  C   UNK A   2     -13.055  14.468  70.898  1.00  0.00    -0.345 C  
ENDBRANCH  27  36
ENDBRANCH  17  19
ENDBRANCH  15  17
ENDBRANCH   6  15
ENDBRANCH   4   6
ENDBRANCH   3   4
ENDBRANCH   2   3
TORSDOF 11
ENDMDL
MODEL      170
REMARK 921   NORMALIZED FREE ENERGY PREDICTED BY IDOCK:   -3.83 KCAL/MOL
REMARK 922        TOTAL FREE ENERGY PREDICTED BY IDOCK:   -8.19 KCAL/MOL
REMARK 923 INTER-LIGAND FREE ENERGY PREDICTED BY IDOCK:   -6.98 KCAL/MOL
REMARK 924 INTRA-LIGAND FREE ENERGY PREDICTED BY IDOCK:   -1.21 KCAL/MOL
REMARK 927      BINDING AFFINITY PREDICTED BY RF-SCORE:    0.00 PKD
ROOT
HETATM    1  C   UNK A   0      -5.157   9.953  65.378  1.00  0.00    -0.043 C  
HETATM    2  C   UNK A   0      -5.834   9.120  64.306  1.00  0.00    -0.070 C  
ENDROOT
BRANCH   2   3
HETATM    3  O   UNK A   0      -6.913   9.879  63.751  1.00  0.00    -0.116 OA 
BRANCH   3   4
HETATM    4  C   UNK A   0      -8.162   9.343  63.864  1.00  0.00    -0.165 C  
HETATM    5  O   UNK A   0      -8.706   8.605  63.047  1.00  0.00    -0.108 OA 
BRANCH   4   6
HETATM    6  C   UNK A   0      -8.755   9.749  65.213  1.00  0.00    -0.159 C  
BRANCH   6   7
HETATM    7  C   UNK A   0      -8.619   8.593  66.206  1.00  0.00    -0.151 C  
BRANCH   7   8
HETATM    8  C   UNK A   0      -8.797   7.141  65.735  1.00  0.00    -0.090 C  
BRANCH   8   9
HETATM    9  C   UNK A   0      -7.494   6.336  65.870  1.00  0.00    -0.082 A  
HETATM   10  C   UNK A   0      -6.390   6.891  66.533  1.00  0.00    -0.049 A  
HETATM   11  C   UNK A   0      -5.233   6.126  66.767  1.00  0.00    -0.005 A  
HETATM   12  C   UNK A   0      -7.368   5.004  65.419  1.00  0.00    -0.072 A  
HETATM   13  C   UNK A   0      -5.161   4.796  66.352  1.00  0.00    -0.009 A  
HETATM   14  C   UNK A   0      -6.228   4.238  65.667  1.00  0.00    -0.031 A  
ENDBRANCH   8   9
ENDBRANCH   7   8
ENDBRANCH   6   7
BRANCH   6  15
ATOM     15  N   ALA A   1     -10.178  10.138  65.053  1.00  0.00    -0.259 NA 
ATOM     16  H   ALA A   1     -10.899   9.419  65.104  1.00  0.00     0.000 HD 
BRANCH  15  17
ATOM     17  CA  ALA A   1     -10.581  11.556  64.819  1.00  0.00    -0.305 C  
ATOM     18  CB  ALA A   1     -11.000  12.034  63.419  1.00  0.00    -0.475 C  
BRANCH  17  19
ATOM     19  C   ALA A   1     -11.420  12.225  65.957  1.00  0.00    -0.381 C  
ATOM     20  O   ALA A   1     -12.558  12.633  65.691  1.00  0.00    -0.611 OA 
HETATM   21  C   UNK A   2      -9.591  11.010  68.890  1.00  0.00    -0.174 A  
HETATM   22  C   UNK A   2      -8.344  10.467  69.224  1.00  0.00    -0.161 A  
HETATM   23  N   UNK A   2     -10.976  12.247  67.269  1.00  0.00    -0.244 N  
HETATM   24  C   UNK A   2      -8.220   9.604  70.299  1.00  0.00    -0.191 A  
HETATM   25  C   UNK A   2      -9.645  11.918  67.711  1.00  0.00    -0.190 C  
HETATM   26  O   UNK A   2     -12.530  14.561  69.639  1.00  0.00    -0.279 OA 
HETATM   27  C   UNK A   2      -9.350   9.256  71.041  1.00  0.00    -0.227 A  
HETATM   28  C   UNK A   2     -10.603   9.813  70.709  1.00  0.00    -0.371 A  
HETATM   29  O   UNK A   2     -10.330  14.160  69.450  1.00  0.00    -0.085 OA 
HETATM   30  C   UNK A   2     -11.485  13.841  69.182  1.00  0.00    -0.298 C  
HETATM   31  C   UNK A   2     -10.723  10.721  69.650  1.00  0.00    -0.261 A  
HETATM   32  C   UNK A   2     -11.898  12.589  68.365  1.00  0.00    -0.304 C  
HETATM   33  C   UNK A   2     -12.047  11.355  69.282  1.00  0.00    -0.356 C  
BRANCH  24  34
HETATM   34  O   UNK A   2      -7.021   9.090  70.727  1.00  0.00    -0.067 OA 
HETATM   35  C   UNK A   2      -5.928   9.972  70.568  1.00  0.00    -0.092 C  
ENDBRANCH  24  34
BRANCH  27  36
HETATM   36  O   UNK A   2      -9.120   8.359  72.040  1.00  0.00    -0.183 OA 
HETATM   37  C   UNK A   2     -10.204   8.031  72.886  1.00  0.00    -0.314 C  
ENDBRANCH  27  36
ENDBRANCH  17  19
ENDBRANCH  15  17
ENDBRANCH   6  15
ENDBRANCH   4   6
ENDBRANCH   3   4
ENDBRANCH   2   3
TORSDOF 11
ENDMDL
MODEL      171
REMARK 921   NORMALIZED FREE ENERGY PREDICTED BY IDOCK:   -3.82 KCAL/MOL
REMARK 922        TOTAL FREE ENERGY PREDICTED BY IDOCK:   -8.19 KCAL/MOL
REMARK 923 INTER-LIGAND FREE ENERGY PREDICTED BY IDOCK:   -7.41 KCAL/MOL
REMARK 924 INTRA-LIGAND FREE ENERGY PREDICTED BY IDOCK:   -0.77 KCAL/MOL
REMARK 927      BINDING AFFINITY PREDICTED BY RF-SCORE:    0.00 PKD
ROOT
HETATM    1  C   UNK A   0      -6.844   7.297  63.912  1.00  0.00    -0.052 C  
HETATM    2  C   UNK A   0      -5.950   6.970  65.092  1.00  0.00    -0.036 C  
ENDROOT
BRANCH   2   3
HETATM    3  O   UNK A   0      -6.702   6.200  66.036  1.00  0.00    -0.049 OA 
BRANCH   3   4
HETATM    4  C   UNK A   0      -7.776   6.813  66.612  1.00  0.00    -0.105 C  
HETATM    5  O   UNK A   0      -8.954   6.624  66.325  1.00  0.00    -0.149 OA 
BRANCH   4   6
HETATM    6  C   UNK A   0      -7.280   7.726  67.735  1.00  0.00    -0.094 C  
BRANCH   6   7
HETATM    7  C   UNK A   0      -7.863   7.263  69.072  1.00  0.00    -0.118 C  
BRANCH   7   8
HETATM    8  C   UNK A   0      -9.045   6.282  69.105  1.00  0.00    -0.130 C  
BRANCH   8   9
HETATM    9  C   UNK A   0      -9.782   6.325  70.453  1.00  0.00    -0.189 A  
HETATM   10  C   UNK A   0      -9.064   6.204  71.652  1.00  0.00    -0.147 A  
HETATM   11  C   UNK A   0      -9.707   6.359  72.893  1.00  0.00    -0.164 A  
HETATM   12  C   UNK A   0     -11.170   6.562  70.558  1.00  0.00    -0.401 A  
HETATM   13  C   UNK A   0     -11.071   6.643  72.960  1.00  0.00    -0.238 A  
HETATM   14  C   UNK A   0     -11.805   6.734  71.789  1.00  0.00    -0.371 A  
ENDBRANCH   8   9
ENDBRANCH   7   8
ENDBRANCH   6   7
BRANCH   6  15
ATOM     15  N   ALA A   1      -7.658   9.134  67.457  1.00  0.00    -0.088 NA 
ATOM     16  H   ALA A   1      -7.095   9.680  66.806  1.00  0.00     0.000 HD 
BRANCH  15  17
ATOM     17  CA  ALA A   1      -8.842   9.769  68.107  1.00  0.00    -0.119 C  
ATOM     18  CB  ALA A   1      -8.661  10.814  69.222  1.00  0.00    -0.047 C  
BRANCH  17  19
ATOM     19  C   ALA A   1     -10.043  10.102  67.163  1.00  0.00    -0.209 C  
ATOM     20  O   ALA A   1     -11.001   9.320  67.125  1.00  0.00    -0.138 OA 
HETATM   21  C   UNK A   2      -9.434  13.671  66.600  1.00  0.00    -0.285 A  
HETATM   22  C   UNK A   2      -8.400  14.610  66.707  1.00  0.00    -0.078 A  
HETATM   23  N   UNK A   2     -10.118  11.306  66.481  1.00  0.00    -0.211 N  
HETATM   24  C   UNK A   2      -8.684  15.940  66.964  1.00  0.00    -0.222 A  
HETATM   25  C   UNK A   2      -9.046  12.258  66.338  1.00  0.00    -0.158 C  
HETATM   26  O   UNK A   2     -12.441  11.623  63.672  1.00  0.00    -0.395 OA 
HETATM   27  C   UNK A   2     -10.009  16.343  67.140  1.00  0.00    -0.260 A  
HETATM   28  C   UNK A   2     -11.049  15.397  67.022  1.00  0.00    -0.273 A  
HETATM   29  O   UNK A   2     -10.328  12.379  63.717  1.00  0.00    -0.411 OA 
HETATM   30  C   UNK A   2     -11.301  11.936  64.322  1.00  0.00    -0.353 C  
HETATM   31  C   UNK A   2     -10.767  14.060  66.717  1.00  0.00    -0.285 A  
HETATM   32  C   UNK A   2     -11.381  11.735  65.857  1.00  0.00    -0.263 C  
HETATM   33  C   UNK A   2     -11.860  13.025  66.559  1.00  0.00    -0.464 C  
BRANCH  24  34
HETATM   34  O   UNK A   2      -7.730  16.925  67.012  1.00  0.00    -0.165 OA 
HETATM   35  C   UNK A   2      -6.583  16.580  67.762  1.00  0.00    -0.141 C  
ENDBRANCH  24  34
BRANCH  27  36
HETATM   36  O   UNK A   2     -10.167  17.661  67.443  1.00  0.00    -0.319 OA 
HETATM   37  C   UNK A   2     -10.398  17.999  68.796  1.00  0.00    -0.284 C  
ENDBRANCH  27  36
ENDBRANCH  17  19
ENDBRANCH  15  17
ENDBRANCH   6  15
ENDBRANCH   4   6
ENDBRANCH   3   4
ENDBRANCH   2   3
TORSDOF 11
ENDMDL
MODEL      172
REMARK 921   NORMALIZED FREE ENERGY PREDICTED BY IDOCK:   -3.82 KCAL/MOL
REMARK 922        TOTAL FREE ENERGY PREDICTED BY IDOCK:   -8.18 KCAL/MOL
REMARK 923 INTER-LIGAND FREE ENERGY PREDICTED BY IDOCK:   -7.00 KCAL/MOL
REMARK 924 INTRA-LIGAND FREE ENERGY PREDICTED BY IDOCK:   -1.18 KCAL/MOL
REMARK 927      BINDING AFFINITY PREDICTED BY RF-SCORE:    0.00 PKD
ROOT
HETATM    1  C   UNK A   0     -11.020   9.019  71.550  1.00  0.00    -0.418 C  
HETATM    2  C   UNK A   0     -11.326  10.232  70.694  1.00  0.00    -0.347 C  
ENDROOT
BRANCH   2   3
HETATM    3  O   UNK A   0     -11.312   9.836  69.318  1.00  0.00    -0.144 OA 
BRANCH   3   4
HETATM    4  C   UNK A   0     -11.174  10.830  68.394  1.00  0.00    -0.284 C  
HETATM    5  O   UNK A   0     -12.050  11.238  67.639  1.00  0.00    -0.600 OA 
BRANCH   4   6
HETATM    6  C   UNK A   0      -9.763  11.411  68.499  1.00  0.00    -0.197 C  
BRANCH   6   7
HETATM    7  C   UNK A   0      -9.809  12.923  68.271  1.00  0.00    -0.228 C  
BRANCH   7   8
HETATM    8  C   UNK A   0      -9.290  13.525  66.956  1.00  0.00    -0.247 C  
BRANCH   8   9
HETATM    9  C   UNK A   0      -9.524  15.043  66.894  1.00  0.00    -0.252 A  
HETATM   10  C   UNK A   0      -9.086  15.866  67.941  1.00  0.00    -0.190 A  
HETATM   11  C   UNK A   0      -9.187  17.266  67.847  1.00  0.00    -0.247 A  
HETATM   12  C   UNK A   0     -10.104  15.682  65.776  1.00  0.00    -0.394 A  
HETATM   13  C   UNK A   0      -9.719  17.867  66.706  1.00  0.00    -0.314 A  
HETATM   14  C   UNK A   0     -10.188  17.071  65.673  1.00  0.00    -0.196 A  
ENDBRANCH   8   9
ENDBRANCH   7   8
ENDBRANCH   6   7
BRANCH   6  15
ATOM     15  N   ALA A   1      -8.864  10.759  67.515  1.00  0.00    -0.129 NA 
ATOM     16  H   ALA A   1      -8.891  11.061  66.541  1.00  0.00     0.000 HD 
BRANCH  15  17
ATOM     17  CA  ALA A   1      -7.922   9.673  67.914  1.00  0.00    -0.098 C  
ATOM     18  CB  ALA A   1      -7.698   9.331  69.397  1.00  0.00    -0.082 C  
BRANCH  17  19
ATOM     19  C   ALA A   1      -7.913   8.405  66.999  1.00  0.00    -0.100 C  
ATOM     20  O   ALA A   1      -7.205   8.412  65.984  1.00  0.00    -0.071 OA 
HETATM   21  C   UNK A   2      -9.286   5.934  69.330  1.00  0.00    -0.150 A  
HETATM   22  C   UNK A   2     -10.015   5.880  70.525  1.00  0.00    -0.243 A  
HETATM   23  N   UNK A   2      -8.566   7.240  67.368  1.00  0.00    -0.121 N  
HETATM   24  C   UNK A   2      -9.849   4.821  71.401  1.00  0.00    -0.187 A  
HETATM   25  C   UNK A   2      -9.511   7.113  68.448  1.00  0.00    -0.138 C  
HETATM   26  O   UNK A   2      -9.239   4.692  64.829  1.00  0.00    -0.156 OA 
HETATM   27  C   UNK A   2      -8.930   3.814  71.102  1.00  0.00    -0.098 A  
HETATM   28  C   UNK A   2      -8.205   3.866  69.894  1.00  0.00    -0.068 A  
HETATM   29  O   UNK A   2     -10.677   5.380  66.408  1.00  0.00    -0.297 OA 
HETATM   30  C   UNK A   2      -9.530   5.347  65.972  1.00  0.00    -0.146 C  
HETATM   31  C   UNK A   2      -8.405   4.912  68.985  1.00  0.00    -0.082 A  
HETATM   32  C   UNK A   2      -8.293   5.975  66.665  1.00  0.00    -0.111 C  
HETATM   33  C   UNK A   2      -7.661   4.985  67.669  1.00  0.00    -0.087 C  
BRANCH  24  34
HETATM   34  O   UNK A   2     -10.579   4.666  72.553  1.00  0.00    -0.200 OA 
HETATM   35  C   UNK A   2     -11.114   5.872  73.062  1.00  0.00    -0.254 C  
ENDBRANCH  24  34
BRANCH  27  36
HETATM   36  O   UNK A   2      -8.809   2.853  72.060  1.00  0.00    -0.078 OA 
HETATM   37  C   UNK A   2      -7.638   2.865  72.853  1.00  0.00    -0.050 C  
ENDBRANCH  27  36
ENDBRANCH  17  19
ENDBRANCH  15  17
ENDBRANCH   6  15
ENDBRANCH   4   6
ENDBRANCH   3   4
ENDBRANCH   2   3
TORSDOF 11
ENDMDL
MODEL      173
REMARK 921   NORMALIZED FREE ENERGY PREDICTED BY IDOCK:   -3.81 KCAL/MOL
REMARK 922        TOTAL FREE ENERGY PREDICTED BY IDOCK:   -8.16 KCAL/MOL
REMARK 923 INTER-LIGAND FREE ENERGY PREDICTED BY IDOCK:   -6.70 KCAL/MOL
REMARK 924 INTRA-LIGAND FREE ENERGY PREDICTED BY IDOCK:   -1.46 KCAL/MOL
REMARK 927      BINDING AFFINITY PREDICTED BY RF-SCORE:    0.00 PKD
ROOT
HETATM    1  C   UNK A   0      -6.876  11.385  67.695  1.00  0.00    -0.080 C  
HETATM    2  C   UNK A   0      -7.010  11.152  69.188  1.00  0.00    -0.108 C  
ENDROOT
BRANCH   2   3
HETATM    3  O   UNK A   0      -6.385   9.907  69.514  1.00  0.00    -0.043 OA 
BRANCH   3   4
HETATM    4  C   UNK A   0      -6.308   9.586  70.838  1.00  0.00    -0.089 C  
HETATM    5  O   UNK A   0      -5.682  10.203  71.694  1.00  0.00    -0.266 OA 
BRANCH   4   6
HETATM    6  C   UNK A   0      -7.194   8.369  71.103  1.00  0.00    -0.068 C  
BRANCH   6   7
HETATM    7  C   UNK A   0      -8.596   8.829  71.512  1.00  0.00    -0.253 C  
BRANCH   7   8
HETATM    8  C   UNK A   0      -9.810   8.490  70.633  1.00  0.00    -0.218 C  
BRANCH   8   9
HETATM    9  C   UNK A   0     -11.101   9.121  71.179  1.00  0.00    -0.393 A  
HETATM   10  C   UNK A   0     -11.521  10.376  70.714  1.00  0.00    -0.422 A  
HETATM   11  C   UNK A   0     -12.758  10.914  71.114  1.00  0.00    -0.530 A  
HETATM   12  C   UNK A   0     -11.950   8.458  72.091  1.00  0.00    -0.438 A  
HETATM   13  C   UNK A   0     -13.596  10.208  71.978  1.00  0.00    -0.328 A  
HETATM   14  C   UNK A   0     -13.185   8.982  72.475  1.00  0.00    -0.467 A  
ENDBRANCH   8   9
ENDBRANCH   7   8
ENDBRANCH   6   7
BRANCH   6  15
ATOM     15  N   ALA A   1      -6.594   7.516  72.159  1.00  0.00    -0.050 NA 
ATOM     16  H   ALA A   1      -5.732   7.010  71.958  1.00  0.00     0.000 HD 
BRANCH  15  17
ATOM     17  CA  ALA A   1      -7.220   7.382  73.507  1.00  0.00    -0.084 C  
ATOM     18  CB  ALA A   1      -7.223   8.561  74.495  1.00  0.00    -0.220 C  
BRANCH  17  19
ATOM     19  C   ALA A   1      -8.541   6.547  73.566  1.00  0.00    -0.123 C  
ATOM     20  O   ALA A   1      -9.443   6.920  74.326  1.00  0.00    -0.223 OA 
HETATM   21  C   UNK A   2      -8.234   4.654  70.444  1.00  0.00    -0.075 A  
HETATM   22  C   UNK A   2      -7.258   4.278  69.512  1.00  0.00    -0.050 A  
HETATM   23  N   UNK A   2      -8.772   5.491  72.699  1.00  0.00    -0.124 N  
HETATM   24  C   UNK A   2      -7.597   4.071  68.187  1.00  0.00    -0.067 A  
HETATM   25  C   UNK A   2      -7.788   4.874  71.847  1.00  0.00    -0.108 C  
HETATM   26  O   UNK A   2     -11.417   3.087  73.480  1.00  0.00    -0.211 OA 
HETATM   27  C   UNK A   2      -8.917   4.260  67.772  1.00  0.00    -0.118 A  
HETATM   28  C   UNK A   2      -9.899   4.630  68.714  1.00  0.00    -0.201 A  
HETATM   29  O   UNK A   2      -9.367   2.579  72.722  1.00  0.00    -0.086 OA 
HETATM   30  C   UNK A   2     -10.233   3.424  72.929  1.00  0.00    -0.164 C  
HETATM   31  C   UNK A   2      -9.568   4.796  70.064  1.00  0.00    -0.260 A  
HETATM   32  C   UNK A   2     -10.123   4.925  72.554  1.00  0.00    -0.182 C  
HETATM   33  C   UNK A   2     -10.602   5.168  71.104  1.00  0.00    -0.195 C  
BRANCH  24  34
HETATM   34  O   UNK A   2      -6.710   3.633  67.235  1.00  0.00    -0.044 OA 
HETATM   35  C   UNK A   2      -5.536   4.414  67.141  1.00  0.00    -0.013 C  
ENDBRANCH  24  34
BRANCH  27  36
HETATM   36  O   UNK A   2      -9.124   4.083  66.438  1.00  0.00    -0.122 OA 
HETATM   37  C   UNK A   2     -10.303   4.629  65.880  1.00  0.00    -0.283 C  
ENDBRANCH  27  36
ENDBRANCH  17  19
ENDBRANCH  15  17
ENDBRANCH   6  15
ENDBRANCH   4   6
ENDBRANCH   3   4
ENDBRANCH   2   3
TORSDOF 11
ENDMDL
MODEL      174
REMARK 921   NORMALIZED FREE ENERGY PREDICTED BY IDOCK:   -3.79 KCAL/MOL
REMARK 922        TOTAL FREE ENERGY PREDICTED BY IDOCK:   -8.14 KCAL/MOL
REMARK 923 INTER-LIGAND FREE ENERGY PREDICTED BY IDOCK:   -6.93 KCAL/MOL
REMARK 924 INTRA-LIGAND FREE ENERGY PREDICTED BY IDOCK:   -1.21 KCAL/MOL
REMARK 927      BINDING AFFINITY PREDICTED BY RF-SCORE:    0.00 PKD
ROOT
HETATM    1  C   UNK A   0      -9.574   6.123  69.846  1.00  0.00    -0.183 C  
HETATM    2  C   UNK A   0      -9.849   7.606  69.691  1.00  0.00    -0.181 C  
ENDROOT
BRANCH   2   3
HETATM    3  O   UNK A   0     -10.078   7.886  68.306  1.00  0.00    -0.182 OA 
BRANCH   3   4
HETATM    4  C   UNK A   0     -10.633   9.096  68.008  1.00  0.00    -0.197 C  
HETATM    5  O   UNK A   0     -11.293   9.794  68.771  1.00  0.00    -0.083 OA 
BRANCH   4   6
HETATM    6  C   UNK A   0     -10.237   9.484  66.583  1.00  0.00    -0.240 C  
BRANCH   6   7
HETATM    7  C   UNK A   0      -9.149   8.537  66.073  1.00  0.00    -0.246 C  
BRANCH   7   8
HETATM    8  C   UNK A   0      -8.866   8.419  64.567  1.00  0.00     0.183 C  
BRANCH   8   9
HETATM    9  C   UNK A   0      -7.618   9.217  64.158  1.00  0.00    -0.113 A  
HETATM   10  C   UNK A   0      -6.596   9.450  65.090  1.00  0.00    -0.079 A  
HETATM   11  C   UNK A   0      -5.398  10.076  64.701  1.00  0.00    -0.088 A  
HETATM   12  C   UNK A   0      -7.402   9.678  62.841  1.00  0.00    -0.107 A  
HETATM   13  C   UNK A   0      -5.197  10.473  63.379  1.00  0.00    -0.164 A  
HETATM   14  C   UNK A   0      -6.207  10.282  62.450  1.00  0.00    -0.129 A  
ENDBRANCH   8   9
ENDBRANCH   7   8
ENDBRANCH   6   7
BRANCH   6  15
ATOM     15  N   ALA A   1      -9.768  10.891  66.545  1.00  0.00    -0.193 NA 
ATOM     16  H   ALA A   1      -9.074  11.202  67.224  1.00  0.00     0.000 HD 
BRANCH  15  17
ATOM     17  CA  ALA A   1     -10.286  11.862  65.537  1.00  0.00    -0.254 C  
ATOM     18  CB  ALA A   1     -11.646  11.638  64.854  1.00  0.00    -0.155 C  
BRANCH  17  19
ATOM     19  C   ALA A   1     -10.007  13.372  65.836  1.00  0.00    -0.277 C  
ATOM     20  O   ALA A   1      -9.796  14.135  64.885  1.00  0.00    -0.216 OA 
HETATM   21  C   UNK A   2     -11.321  13.592  69.249  1.00  0.00    -0.323 A  
HETATM   22  C   UNK A   2     -11.653  12.757  70.324  1.00  0.00    -0.047 A  
HETATM   23  N   UNK A   2     -10.125  13.892  67.115  1.00  0.00    -0.249 N  
HETATM   24  C   UNK A   2     -12.646  13.123  71.216  1.00  0.00    -0.290 A  
HETATM   25  C   UNK A   2     -10.252  13.121  68.326  1.00  0.00    -0.250 C  
HETATM   26  O   UNK A   2      -8.618  17.140  67.866  1.00  0.00    -0.206 OA 
HETATM   27  C   UNK A   2     -13.337  14.321  71.028  1.00  0.00    -0.265 A  
HETATM   28  C   UNK A   2     -12.995  15.164  69.951  1.00  0.00     0.063 A  
HETATM   29  O   UNK A   2      -8.531  15.321  69.177  1.00  0.00    -0.203 OA 
HETATM   30  C   UNK A   2      -9.024  15.902  68.214  1.00  0.00    -0.184 C  
HETATM   31  C   UNK A   2     -11.959  14.818  69.074  1.00  0.00    -0.308 A  
HETATM   32  C   UNK A   2     -10.171  15.348  67.330  1.00  0.00    -0.254 C  
HETATM   33  C   UNK A   2     -11.550  15.711  67.923  1.00  0.00    -0.195 C  
BRANCH  24  34
HETATM   34  O   UNK A   2     -12.975  12.391  72.329  1.00  0.00    -0.304 OA 
HETATM   35  C   UNK A   2     -13.258  11.032  72.061  1.00  0.00    -0.342 C  
ENDBRANCH  24  34
BRANCH  27  36
HETATM   36  O   UNK A   2     -14.330  14.552  71.932  1.00  0.00    -0.486 OA 
HETATM   37  C   UNK A   2     -14.094  15.527  72.928  1.00  0.00    -0.187 C  
ENDBRANCH  27  36
ENDBRANCH  17  19
ENDBRANCH  15  17
ENDBRANCH   6  15
ENDBRANCH   4   6
ENDBRANCH   3   4
ENDBRANCH   2   3
TORSDOF 11
ENDMDL
MODEL      175
REMARK 921   NORMALIZED FREE ENERGY PREDICTED BY IDOCK:   -3.79 KCAL/MOL
REMARK 922        TOTAL FREE ENERGY PREDICTED BY IDOCK:   -8.12 KCAL/MOL
REMARK 923 INTER-LIGAND FREE ENERGY PREDICTED BY IDOCK:   -6.93 KCAL/MOL
REMARK 924 INTRA-LIGAND FREE ENERGY PREDICTED BY IDOCK:   -1.19 KCAL/MOL
REMARK 927      BINDING AFFINITY PREDICTED BY RF-SCORE:    0.00 PKD
ROOT
HETATM    1  C   UNK A   0      -9.915  12.245  63.398  1.00  0.00    -0.192 C  
HETATM    2  C   UNK A   0     -10.674  13.302  64.176  1.00  0.00    -0.326 C  
ENDROOT
BRANCH   2   3
HETATM    3  O   UNK A   0     -11.132  12.725  65.403  1.00  0.00    -0.277 OA 
BRANCH   3   4
HETATM    4  C   UNK A   0     -11.666  13.579  66.323  1.00  0.00    -0.367 C  
HETATM    5  O   UNK A   0     -12.577  14.376  66.122  1.00  0.00    -0.375 OA 
BRANCH   4   6
HETATM    6  C   UNK A   0     -10.996  13.334  67.675  1.00  0.00    -0.262 C  
BRANCH   6   7
HETATM    7  C   UNK A   0      -9.475  13.330  67.504  1.00  0.00    -0.220 C  
BRANCH   7   8
HETATM    8  C   UNK A   0      -8.636  12.161  68.044  1.00  0.00    -0.175 C  
BRANCH   8   9
HETATM    9  C   UNK A   0      -8.448  11.061  66.988  1.00  0.00    -0.141 A  
HETATM   10  C   UNK A   0      -9.481  10.148  66.731  1.00  0.00    -0.205 A  
HETATM   11  C   UNK A   0      -9.370   9.211  65.688  1.00  0.00    -0.300 A  
HETATM   12  C   UNK A   0      -7.290  10.962  66.186  1.00  0.00    -0.103 A  
HETATM   13  C   UNK A   0      -8.232   9.173  64.882  1.00  0.00    -0.154 A  
HETATM   14  C   UNK A   0      -7.187  10.045  65.139  1.00  0.00    -0.139 A  
ENDBRANCH   8   9
ENDBRANCH   7   8
ENDBRANCH   6   7
BRANCH   6  15
ATOM     15  N   ALA A   1     -11.461  12.049  68.253  1.00  0.00    -0.279 NA 
ATOM     16  H   ALA A   1     -11.637  11.259  67.633  1.00  0.00     0.000 HD 
BRANCH  15  17
ATOM     17  CA  ALA A   1     -11.679  11.885  69.720  1.00  0.00    -0.331 C  
ATOM     18  CB  ALA A   1     -12.372  12.986  70.542  1.00  0.00    -0.365 C  
BRANCH  17  19
ATOM     19  C   ALA A   1     -12.070  10.447  70.196  1.00  0.00    -0.256 C  
ATOM     20  O   ALA A   1     -13.270  10.173  70.328  1.00  0.00    -0.106 OA 
HETATM   21  C   UNK A   2      -8.946   8.672  69.482  1.00  0.00    -0.145 A  
HETATM   22  C   UNK A   2      -7.592   8.942  69.245  1.00  0.00    -0.082 A  
HETATM   23  N   UNK A   2     -11.122   9.447  70.341  1.00  0.00    -0.248 N  
HETATM   24  C   UNK A   2      -6.836   8.097  68.452  1.00  0.00    -0.068 A  
HETATM   25  C   UNK A   2      -9.694   9.638  70.334  1.00  0.00    -0.245 C  
HETATM   26  O   UNK A   2     -11.963   6.456  72.273  1.00  0.00    -0.304 OA 
HETATM   27  C   UNK A   2      -7.435   6.980  67.865  1.00  0.00    -0.099 A  
HETATM   28  C   UNK A   2      -8.795   6.705  68.113  1.00  0.00    -0.119 A  
HETATM   29  O   UNK A   2     -10.028   7.588  72.386  1.00  0.00    -0.169 OA 
HETATM   30  C   UNK A   2     -11.088   7.370  71.805  1.00  0.00    -0.238 C  
HETATM   31  C   UNK A   2      -9.550   7.534  68.952  1.00  0.00    -0.149 A  
HETATM   32  C   UNK A   2     -11.533   8.040  70.480  1.00  0.00    -0.187 C  
HETATM   33  C   UNK A   2     -11.005   7.254  69.259  1.00  0.00    -0.121 C  
BRANCH  24  34
HETATM   34  O   UNK A   2      -5.491   8.259  68.234  1.00  0.00    -0.032 OA 
HETATM   35  C   UNK A   2      -5.151   8.499  66.883  1.00  0.00    -0.028 C  
ENDBRANCH  24  34
BRANCH  27  36
HETATM   36  O   UNK A   2      -6.612   6.252  67.061  1.00  0.00    -0.054 OA 
HETATM   37  C   UNK A   2      -7.197   5.228  66.281  1.00  0.00    -0.073 C  
ENDBRANCH  27  36
ENDBRANCH  17  19
ENDBRANCH  15  17
ENDBRANCH   6  15
ENDBRANCH   4   6
ENDBRANCH   3   4
ENDBRANCH   2   3
TORSDOF 11
ENDMDL
MODEL      176
REMARK 921   NORMALIZED FREE ENERGY PREDICTED BY IDOCK:   -3.76 KCAL/MOL
REMARK 922        TOTAL FREE ENERGY PREDICTED BY IDOCK:   -8.09 KCAL/MOL
REMARK 923 INTER-LIGAND FREE ENERGY PREDICTED BY IDOCK:   -6.75 KCAL/MOL
REMARK 924 INTRA-LIGAND FREE ENERGY PREDICTED BY IDOCK:   -1.34 KCAL/MOL
REMARK 927      BINDING AFFINITY PREDICTED BY RF-SCORE:    0.00 PKD
ROOT
HETATM    1  C   UNK A   0      -6.624  11.813  69.097  1.00  0.00    -0.102 C  
HETATM    2  C   UNK A   0      -6.404  10.990  70.351  1.00  0.00    -0.060 C  
ENDROOT
BRANCH   2   3
HETATM    3  O   UNK A   0      -7.325   9.894  70.346  1.00  0.00    -0.148 OA 
BRANCH   3   4
HETATM    4  C   UNK A   0      -6.791   8.643  70.248  1.00  0.00    -0.040 C  
HETATM    5  O   UNK A   0      -5.607   8.377  70.069  1.00  0.00    -0.025 OA 
BRANCH   4   6
HETATM    6  C   UNK A   0      -7.898   7.613  70.475  1.00  0.00    -0.095 C  
BRANCH   6   7
HETATM    7  C   UNK A   0      -7.353   6.205  70.228  1.00  0.00    -0.088 C  
BRANCH   7   8
HETATM    8  C   UNK A   0      -7.935   5.004  70.991  1.00  0.00    -0.093 C  
BRANCH   8   9
HETATM    9  C   UNK A   0      -8.080   3.771  70.084  1.00  0.00    -0.054 A  
HETATM   10  C   UNK A   0      -9.354   3.332  69.694  1.00  0.00    -0.236 A  
HETATM   11  C   UNK A   0      -9.499   2.280  68.772  1.00  0.00    -0.185 A  
HETATM   12  C   UNK A   0      -6.971   3.083  69.545  1.00  0.00    -0.041 A  
HETATM   13  C   UNK A   0      -8.381   1.654  68.220  1.00  0.00    -0.076 A  
HETATM   14  C   UNK A   0      -7.115   2.051  68.617  1.00  0.00    -0.043 A  
ENDBRANCH   8   9
ENDBRANCH   7   8
ENDBRANCH   6   7
BRANCH   6  15
ATOM     15  N   ALA A   1      -9.051   7.893  69.584  1.00  0.00    -0.152 NA 
ATOM     16  H   ALA A   1      -9.668   8.676  69.800  1.00  0.00     0.000 HD 
BRANCH  15  17
ATOM     17  CA  ALA A   1      -9.330   7.058  68.379  1.00  0.00    -0.130 C  
ATOM     18  CB  ALA A   1     -10.733   6.481  68.129  1.00  0.00    -0.347 C  
BRANCH  17  19
ATOM     19  C   ALA A   1      -8.623   7.507  67.058  1.00  0.00    -0.122 C  
ATOM     20  O   ALA A   1      -8.134   6.639  66.324  1.00  0.00    -0.107 OA 
HETATM   21  C   UNK A   2     -10.004  10.883  66.716  1.00  0.00    -0.245 A  
HETATM   22  C   UNK A   2     -10.637  11.864  67.491  1.00  0.00    -0.250 A  
HETATM   23  N   UNK A   2      -8.651   8.825  66.631  1.00  0.00    -0.111 N  
HETATM   24  C   UNK A   2     -11.523  12.754  66.909  1.00  0.00    -0.340 A  
HETATM   25  C   UNK A   2      -9.077   9.953  67.418  1.00  0.00    -0.134 C  
HETATM   26  O   UNK A   2      -6.273   9.925  64.077  1.00  0.00    -0.110 OA 
HETATM   27  C   UNK A   2     -11.804  12.658  65.545  1.00  0.00    -0.431 A  
HETATM   28  C   UNK A   2     -11.158  11.676  64.765  1.00  0.00    -0.328 A  
HETATM   29  O   UNK A   2      -6.821  11.060  65.933  1.00  0.00    -0.078 OA 
HETATM   30  C   UNK A   2      -7.056  10.141  65.154  1.00  0.00    -0.137 C  
HETATM   31  C   UNK A   2     -10.228  10.803  65.343  1.00  0.00    -0.341 A  
HETATM   32  C   UNK A   2      -8.263   9.173  65.254  1.00  0.00    -0.134 C  
HETATM   33  C   UNK A   2      -9.499   9.755  64.531  1.00  0.00    -0.269 C  
BRANCH  24  34
HETATM   34  O   UNK A   2     -12.124  13.783  67.590  1.00  0.00    -0.363 OA 
HETATM   35  C   UNK A   2     -11.592  14.007  68.880  1.00  0.00    -0.315 C  
ENDBRANCH  24  34
BRANCH  27  36
HETATM   36  O   UNK A   2     -12.730  13.548  65.092  1.00  0.00    -0.611 OA 
HETATM   37  C   UNK A   2     -12.268  14.633  64.312  1.00  0.00    -0.408 C  
ENDBRANCH  27  36
ENDBRANCH  17  19
ENDBRANCH  15  17
ENDBRANCH   6  15
ENDBRANCH   4   6
ENDBRANCH   3   4
ENDBRANCH   2   3
TORSDOF 11
ENDMDL
MODEL      177
REMARK 921   NORMALIZED FREE ENERGY PREDICTED BY IDOCK:   -3.74 KCAL/MOL
REMARK 922        TOTAL FREE ENERGY PREDICTED BY IDOCK:   -8.06 KCAL/MOL
REMARK 923 INTER-LIGAND FREE ENERGY PREDICTED BY IDOCK:   -6.45 KCAL/MOL
REMARK 924 INTRA-LIGAND FREE ENERGY PREDICTED BY IDOCK:   -1.60 KCAL/MOL
REMARK 927      BINDING AFFINITY PREDICTED BY RF-SCORE:    0.00 PKD
ROOT
HETATM    1  C   UNK A   0     -13.694  15.019  72.390  1.00  0.00    -0.585 C  
HETATM    2  C   UNK A   0     -12.324  14.629  71.871  1.00  0.00    -0.338 C  
ENDROOT
BRANCH   2   3
HETATM    3  O   UNK A   0     -12.471  13.517  70.982  1.00  0.00    -0.360 OA 
BRANCH   3   4
HETATM    4  C   UNK A   0     -11.877  13.625  69.759  1.00  0.00    -0.327 C  
HETATM    5  O   UNK A   0     -12.404  14.054  68.737  1.00  0.00    -0.287 OA 
BRANCH   4   6
HETATM    6  C   UNK A   0     -10.415  13.193  69.880  1.00  0.00     1.190 C  
BRANCH   6   7
HETATM    7  C   UNK A   0      -9.557  13.992  68.896  1.00  0.00    -0.016 C  
BRANCH   7   8
HETATM    8  C   UNK A   0      -8.128  14.410  69.276  1.00  0.00     0.092 C  
BRANCH   8   9
HETATM    9  C   UNK A   0      -7.103  13.322  68.915  1.00  0.00    -0.079 A  
HETATM   10  C   UNK A   0      -6.596  12.475  69.911  1.00  0.00     0.126 A  
HETATM   11  C   UNK A   0      -5.749  11.402  69.580  1.00  0.00    -0.063 A  
HETATM   12  C   UNK A   0      -6.689  13.071  67.588  1.00  0.00    -0.158 A  
HETATM   13  C   UNK A   0      -5.401  11.152  68.252  1.00  0.00    -0.039 A  
HETATM   14  C   UNK A   0      -5.865  11.996  67.256  1.00  0.00    -0.142 A  
ENDBRANCH   8   9
ENDBRANCH   7   8
ENDBRANCH   6   7
BRANCH   6  15
ATOM     15  N   ALA A   1     -10.287  11.737  69.625  1.00  0.00    -0.193 NA 
ATOM     16  H   ALA A   1     -10.503  11.080  70.374  1.00  0.00     0.000 HD 
BRANCH  15  17
ATOM     17  CA  ALA A   1      -9.849  11.210  68.299  1.00  0.00    -0.189 C  
ATOM     18  CB  ALA A   1      -8.991   9.937  68.202  1.00  0.00    -0.118 C  
BRANCH  17  19
ATOM     19  C   ALA A   1     -10.896  11.316  67.142  1.00  0.00    -0.270 C  
ATOM     20  O   ALA A   1     -11.870  10.554  67.153  1.00  0.00     0.059 OA 
HETATM   21  C   UNK A   2     -10.070  14.642  65.845  1.00  0.00    -0.341 A  
HETATM   22  C   UNK A   2      -9.024  15.573  65.874  1.00  0.00    -0.133 A  
HETATM   23  N   UNK A   2     -10.828  12.322  66.191  1.00  0.00    -0.269 N  
HETATM   24  C   UNK A   2      -9.286  16.927  65.767  1.00  0.00     0.071 A  
HETATM   25  C   UNK A   2      -9.708  13.205  65.982  1.00  0.00    -0.226 C  
HETATM   26  O   UNK A   2     -12.729  11.975  63.085  1.00  0.00    -0.616 OA 
HETATM   27  C   UNK A   2     -10.605  17.370  65.653  1.00  0.00    -0.153 A  
HETATM   28  C   UNK A   2     -11.656  16.431  65.614  1.00  0.00     0.796 A  
HETATM   29  O   UNK A   2     -10.614  12.704  63.252  1.00  0.00    -0.296 OA 
HETATM   30  C   UNK A   2     -11.677  12.426  63.798  1.00  0.00    -0.483 C  
HETATM   31  C   UNK A   2     -11.390  15.057  65.677  1.00  0.00    -0.297 A  
HETATM   32  C   UNK A   2     -11.975  12.598  65.311  1.00  0.00    -0.439 C  
HETATM   33  C   UNK A   2     -12.492  14.022  65.613  1.00  0.00    -0.531 C  
BRANCH  24  34
HETATM   34  O   UNK A   2      -8.308  17.889  65.717  1.00  0.00    -0.521 OA 
HETATM   35  C   UNK A   2      -7.068  17.478  66.257  1.00  0.00    -0.305 C  
ENDBRANCH  24  34
BRANCH  27  36
HETATM   36  O   UNK A   2     -10.748  18.723  65.611  1.00  0.00    -0.543 OA 
HETATM   37  C   UNK A   2     -10.557  19.439  66.815  1.00  0.00    -0.472 C  
ENDBRANCH  27  36
ENDBRANCH  17  19
ENDBRANCH  15  17
ENDBRANCH   6  15
ENDBRANCH   4   6
ENDBRANCH   3   4
ENDBRANCH   2   3
TORSDOF 11
ENDMDL
MODEL      178
REMARK 921   NORMALIZED FREE ENERGY PREDICTED BY IDOCK:   -3.74 KCAL/MOL
REMARK 922        TOTAL FREE ENERGY PREDICTED BY IDOCK:   -8.06 KCAL/MOL
REMARK 923 INTER-LIGAND FREE ENERGY PREDICTED BY IDOCK:   -7.68 KCAL/MOL
REMARK 924 INTRA-LIGAND FREE ENERGY PREDICTED BY IDOCK:   -0.37 KCAL/MOL
REMARK 927      BINDING AFFINITY PREDICTED BY RF-SCORE:    0.00 PKD
ROOT
HETATM    1  C   UNK A   0      -8.330   5.146  66.590  1.00  0.00    -0.108 C  
HETATM    2  C   UNK A   0      -7.205   6.016  67.116  1.00  0.00    -0.075 C  
ENDROOT
BRANCH   2   3
HETATM    3  O   UNK A   0      -7.481   6.344  68.481  1.00  0.00    -0.084 OA 
BRANCH   3   4
HETATM    4  C   UNK A   0      -6.449   6.221  69.364  1.00  0.00    -0.043 C  
HETATM    5  O   UNK A   0      -5.306   6.638  69.200  1.00  0.00    -0.012 OA 
BRANCH   4   6
HETATM    6  C   UNK A   0      -6.962   5.542  70.634  1.00  0.00    -0.057 C  
BRANCH   6   7
HETATM    7  C   UNK A   0      -8.459   5.253  70.497  1.00  0.00    -0.120 C  
BRANCH   7   8
HETATM    8  C   UNK A   0      -8.958   3.809  70.332  1.00  0.00    -0.163 C  
BRANCH   8   9
HETATM    9  C   UNK A   0      -9.750   3.337  71.562  1.00  0.00    -0.233 A  
HETATM   10  C   UNK A   0     -10.298   4.276  72.448  1.00  0.00    -0.230 A  
HETATM   11  C   UNK A   0     -11.123   3.865  73.511  1.00  0.00    -0.342 A  
HETATM   12  C   UNK A   0     -10.030   1.977  71.815  1.00  0.00    -0.215 A  
HETATM   13  C   UNK A   0     -11.420   2.516  73.702  1.00  0.00    -0.257 A  
HETATM   14  C   UNK A   0     -10.863   1.570  72.858  1.00  0.00    -0.244 A  
ENDBRANCH   8   9
ENDBRANCH   7   8
ENDBRANCH   6   7
BRANCH   6  15
ATOM     15  N   ALA A   1      -6.700   6.398  71.817  1.00  0.00    -0.062 NA 
ATOM     16  H   ALA A   1      -6.017   6.093  72.510  1.00  0.00     0.000 HD 
BRANCH  15  17
ATOM     17  CA  ALA A   1      -7.411   7.695  72.018  1.00  0.00    -0.071 C  
ATOM     18  CB  ALA A   1      -7.105   8.907  71.122  1.00  0.00    -0.103 C  
BRANCH  17  19
ATOM     19  C   ALA A   1      -8.926   7.593  72.391  1.00  0.00    -0.142 C  
ATOM     20  O   ALA A   1      -9.233   7.413  73.576  1.00  0.00    -0.182 OA 
HETATM   21  C   UNK A   2     -10.416   9.101  69.403  1.00  0.00    -0.226 A  
HETATM   22  C   UNK A   2     -10.083   9.401  68.076  1.00  0.00    -0.230 A  
HETATM   23  N   UNK A   2      -9.921   7.832  71.457  1.00  0.00    -0.170 N  
HETATM   24  C   UNK A   2     -10.672  10.473  67.429  1.00  0.00    -0.281 A  
HETATM   25  C   UNK A   2      -9.728   7.942  70.034  1.00  0.00    -0.179 C  
HETATM   26  O   UNK A   2     -13.334   6.717  72.160  1.00  0.00    -0.120 OA 
HETATM   27  C   UNK A   2     -11.587  11.275  68.113  1.00  0.00    -0.289 A  
HETATM   28  C   UNK A   2     -11.928  10.966  69.445  1.00  0.00    -0.393 A  
HETATM   29  O   UNK A   2     -12.266   6.508  70.198  1.00  0.00    -0.229 OA 
HETATM   30  C   UNK A   2     -12.321   7.008  71.318  1.00  0.00    -0.383 C  
HETATM   31  C   UNK A   2     -11.368   9.855  70.087  1.00  0.00    -0.335 A  
HETATM   32  C   UNK A   2     -11.314   8.042  71.885  1.00  0.00    -0.283 C  
HETATM   33  C   UNK A   2     -11.730   9.481  71.508  1.00  0.00    -0.472 C  
BRANCH  24  34
HETATM   34  O   UNK A   2     -10.447  10.782  66.111  1.00  0.00    -0.249 OA 
HETATM   35  C   UNK A   2      -9.825   9.747  65.375  1.00  0.00    -0.295 C  
ENDBRANCH  24  34
BRANCH  27  36
HETATM   36  O   UNK A   2     -12.061  12.333  67.397  1.00  0.00    -0.533 OA 
HETATM   37  C   UNK A   2     -12.093  13.593  68.037  1.00  0.00    -0.274 C  
ENDBRANCH  27  36
ENDBRANCH  17  19
ENDBRANCH  15  17
ENDBRANCH   6  15
ENDBRANCH   4   6
ENDBRANCH   3   4
ENDBRANCH   2   3
TORSDOF 11
ENDMDL
MODEL      179
REMARK 921   NORMALIZED FREE ENERGY PREDICTED BY IDOCK:   -3.73 KCAL/MOL
REMARK 922        TOTAL FREE ENERGY PREDICTED BY IDOCK:   -8.03 KCAL/MOL
REMARK 923 INTER-LIGAND FREE ENERGY PREDICTED BY IDOCK:   -7.88 KCAL/MOL
REMARK 924 INTRA-LIGAND FREE ENERGY PREDICTED BY IDOCK:   -0.14 KCAL/MOL
REMARK 927      BINDING AFFINITY PREDICTED BY RF-SCORE:    0.00 PKD
ROOT
HETATM    1  C   UNK A   0     -12.758  12.495  64.162  1.00  0.00    -0.417 C  
HETATM    2  C   UNK A   0     -12.311  13.790  64.814  1.00  0.00    -0.386 C  
ENDROOT
BRANCH   2   3
HETATM    3  O   UNK A   0     -12.647  13.741  66.204  1.00  0.00    -0.438 OA 
BRANCH   3   4
HETATM    4  C   UNK A   0     -11.993  12.813  66.962  1.00  0.00    -0.295 C  
HETATM    5  O   UNK A   0     -12.160  11.598  66.915  1.00  0.00    -0.512 OA 
BRANCH   4   6
HETATM    6  C   UNK A   0     -10.959  13.525  67.833  1.00  0.00    -0.256 C  
BRANCH   6   7
HETATM    7  C   UNK A   0     -11.273  15.022  67.890  1.00  0.00    -0.330 C  
BRANCH   7   8
HETATM    8  C   UNK A   0     -10.918  15.842  69.140  1.00  0.00    -0.284 C  
BRANCH   8   9
HETATM    9  C   UNK A   0     -11.708  15.372  70.372  1.00  0.00    -0.349 A  
HETATM   10  C   UNK A   0     -12.214  14.065  70.427  1.00  0.00    -0.433 A  
HETATM   11  C   UNK A   0     -12.836  13.582  71.592  1.00  0.00    -0.419 A  
HETATM   12  C   UNK A   0     -11.894  16.179  71.515  1.00  0.00    -0.528 A  
HETATM   13  C   UNK A   0     -12.958  14.391  72.722  1.00  0.00    -0.555 A  
HETATM   14  C   UNK A   0     -12.494  15.696  72.678  1.00  0.00    -0.526 A  
ENDBRANCH   8   9
ENDBRANCH   7   8
ENDBRANCH   6   7
BRANCH   6  15
ATOM     15  N   ALA A   1      -9.593  13.297  67.300  1.00  0.00    -0.227 NA 
ATOM     16  H   ALA A   1      -9.340  13.692  66.395  1.00  0.00     0.000 HD 
BRANCH  15  17
ATOM     17  CA  ALA A   1      -8.581  12.501  68.055  1.00  0.00    -0.185 C  
ATOM     18  CB  ALA A   1      -7.497  13.200  68.895  1.00  0.00     0.011 C  
BRANCH  17  19
ATOM     19  C   ALA A   1      -9.105  11.190  68.727  1.00  0.00    -0.139 C  
ATOM     20  O   ALA A   1     -10.069  11.264  69.499  1.00  0.00     0.003 OA 
HETATM   21  C   UNK A   2      -7.597   8.696  66.505  1.00  0.00    -0.088 A  
HETATM   22  C   UNK A   2      -6.569   8.588  65.560  1.00  0.00    -0.059 A  
HETATM   23  N   UNK A   2      -8.607   9.945  68.375  1.00  0.00    -0.114 N  
HETATM   24  C   UNK A   2      -6.665   7.680  64.520  1.00  0.00    -0.048 A  
HETATM   25  C   UNK A   2      -7.426   9.706  67.586  1.00  0.00    -0.091 C  
HETATM   26  O   UNK A   2      -9.224   7.089  70.576  1.00  0.00    -0.158 OA 
HETATM   27  C   UNK A   2      -7.806   6.885  64.399  1.00  0.00    -0.112 A  
HETATM   28  C   UNK A   2      -8.836   6.990  65.357  1.00  0.00     0.088 A  
HETATM   29  O   UNK A   2      -7.276   7.573  69.573  1.00  0.00    -0.077 OA 
HETATM   30  C   UNK A   2      -8.486   7.763  69.671  1.00  0.00    -0.133 C  
HETATM   31  C   UNK A   2      -8.720   7.874  66.436  1.00  0.00    -0.170 A  
HETATM   32  C   UNK A   2      -9.315   8.717  68.773  1.00  0.00    -0.142 C  
HETATM   33  C   UNK A   2      -9.795   7.993  67.495  1.00  0.00    -0.224 C  
BRANCH  24  34
HETATM   34  O   UNK A   2      -5.669   7.470  63.600  1.00  0.00    -0.043 OA 
HETATM   35  C   UNK A   2      -5.693   8.368  62.509  1.00  0.00    -0.075 C  
ENDBRANCH  24  34
BRANCH  27  36
HETATM   36  O   UNK A   2      -7.817   6.070  63.308  1.00  0.00    -0.093 OA 
HETATM   37  C   UNK A   2      -7.894   4.676  63.533  1.00  0.00    -0.079 C  
ENDBRANCH  27  36
ENDBRANCH  17  19
ENDBRANCH  15  17
ENDBRANCH   6  15
ENDBRANCH   4   6
ENDBRANCH   3   4
ENDBRANCH   2   3
TORSDOF 11
ENDMDL
MODEL      180
REMARK 921   NORMALIZED FREE ENERGY PREDICTED BY IDOCK:   -3.72 KCAL/MOL
REMARK 922        TOTAL FREE ENERGY PREDICTED BY IDOCK:   -8.02 KCAL/MOL
REMARK 923 INTER-LIGAND FREE ENERGY PREDICTED BY IDOCK:   -6.52 KCAL/MOL
REMARK 924 INTRA-LIGAND FREE ENERGY PREDICTED BY IDOCK:   -1.50 KCAL/MOL
REMARK 927      BINDING AFFINITY PREDICTED BY RF-SCORE:    0.00 PKD
ROOT
HETATM    1  C   UNK A   0     -10.027   3.832  71.701  1.00  0.00    -0.211 C  
HETATM    2  C   UNK A   0     -10.431   5.293  71.656  1.00  0.00    -0.214 C  
ENDROOT
BRANCH   2   3
HETATM    3  O   UNK A   0      -9.787   5.911  70.537  1.00  0.00    -0.173 OA 
BRANCH   3   4
HETATM    4  C   UNK A   0     -10.597   6.486  69.602  1.00  0.00    -0.243 C  
HETATM    5  O   UNK A   0     -11.768   6.814  69.767  1.00  0.00    -0.270 OA 
BRANCH   4   6
HETATM    6  C   UNK A   0      -9.788   6.729  68.328  1.00  0.00    -0.142 C  
BRANCH   6   7
HETATM    7  C   UNK A   0      -9.492   5.393  67.641  1.00  0.00    -0.132 C  
BRANCH   7   8
HETATM    8  C   UNK A   0      -8.041   4.938  67.424  1.00  0.00    -0.106 C  
BRANCH   8   9
HETATM    9  C   UNK A   0      -7.618   3.876  68.452  1.00  0.00    -0.062 A  
HETATM   10  C   UNK A   0      -6.861   4.245  69.574  1.00  0.00    -0.045 A  
HETATM   11  C   UNK A   0      -6.567   3.309  70.582  1.00  0.00    -0.032 A  
HETATM   12  C   UNK A   0      -8.024   2.526  68.368  1.00  0.00    -0.061 A  
HETATM   13  C   UNK A   0      -7.027   1.995  70.491  1.00  0.00    -0.033 A  
HETATM   14  C   UNK A   0      -7.748   1.602  69.376  1.00  0.00    -0.044 A  
ENDBRANCH   8   9
ENDBRANCH   7   8
ENDBRANCH   6   7
BRANCH   6  15
ATOM     15  N   ALA A   1      -8.527   7.444  68.648  1.00  0.00    -0.129 NA 
ATOM     16  H   ALA A   1      -7.699   6.904  68.895  1.00  0.00     0.000 HD 
BRANCH  15  17
ATOM     17  CA  ALA A   1      -8.443   8.934  68.617  1.00  0.00    -0.128 C  
ATOM     18  CB  ALA A   1      -8.279   9.686  67.285  1.00  0.00    -0.114 C  
BRANCH  17  19
ATOM     19  C   ALA A   1      -9.372   9.691  69.622  1.00  0.00    -0.211 C  
ATOM     20  O   ALA A   1      -9.026   9.764  70.808  1.00  0.00    -0.149 OA 
HETATM   21  C   UNK A   2     -11.408  11.624  67.268  1.00  0.00    -0.372 A  
HETATM   22  C   UNK A   2     -11.761  11.630  65.912  1.00  0.00     0.035 A  
HETATM   23  N   UNK A   2     -10.489  10.389  69.193  1.00  0.00    -0.212 N  
HETATM   24  C   UNK A   2     -12.068  12.818  65.272  1.00  0.00    -0.457 A  
HETATM   25  C   UNK A   2     -11.077  10.308  67.880  1.00  0.00    -0.276 C  
HETATM   26  O   UNK A   2     -13.041  11.348  71.634  1.00  0.00    -0.455 OA 
HETATM   27  C   UNK A   2     -12.003  14.021  65.978  1.00  0.00    -0.416 A  
HETATM   28  C   UNK A   2     -11.657  14.011  67.345  1.00  0.00    -0.397 A  
HETATM   29  O   UNK A   2     -13.432  10.498  69.594  1.00  0.00     0.300 OA 
HETATM   30  C   UNK A   2     -12.645  11.000  70.392  1.00  0.00    -0.267 C  
HETATM   31  C   UNK A   2     -11.390  12.806  68.006  1.00  0.00    -0.335 A  
HETATM   32  C   UNK A   2     -11.164  11.344  70.088  1.00  0.00     0.009 C  
HETATM   33  C   UNK A   2     -11.040  12.758  69.478  1.00  0.00    -0.046 C  
BRANCH  24  34
HETATM   34  O   UNK A   2     -12.489  12.892  63.968  1.00  0.00    -0.573 OA 
HETATM   35  C   UNK A   2     -11.876  11.950  63.111  1.00  0.00    -0.168 C  
ENDBRANCH  24  34
BRANCH  27  36
HETATM   36  O   UNK A   2     -12.270  15.131  65.235  1.00  0.00    -0.032 OA 
HETATM   37  C   UNK A   2     -11.171  15.834  64.690  1.00  0.00    -0.363 C  
ENDBRANCH  27  36
ENDBRANCH  17  19
ENDBRANCH  15  17
ENDBRANCH   6  15
ENDBRANCH   4   6
ENDBRANCH   3   4
ENDBRANCH   2   3
TORSDOF 11
ENDMDL
MODEL      181
REMARK 921   NORMALIZED FREE ENERGY PREDICTED BY IDOCK:   -3.71 KCAL/MOL
REMARK 922        TOTAL FREE ENERGY PREDICTED BY IDOCK:   -8.00 KCAL/MOL
REMARK 923 INTER-LIGAND FREE ENERGY PREDICTED BY IDOCK:   -6.61 KCAL/MOL
REMARK 924 INTRA-LIGAND FREE ENERGY PREDICTED BY IDOCK:   -1.40 KCAL/MOL
REMARK 927      BINDING AFFINITY PREDICTED BY RF-SCORE:    0.00 PKD
ROOT
HETATM    1  C   UNK A   0     -12.235   9.961  70.208  1.00  0.00    -0.118 C  
HETATM    2  C   UNK A   0     -10.808  10.168  70.676  1.00  0.00    -0.235 C  
ENDROOT
BRANCH   2   3
HETATM    3  O   UNK A   0      -9.923   9.577  69.719  1.00  0.00    -0.186 OA 
BRANCH   3   4
HETATM    4  C   UNK A   0     -10.441   9.308  68.487  1.00  0.00    -0.206 C  
HETATM    5  O   UNK A   0     -11.246  10.004  67.876  1.00  0.00    -0.254 OA 
BRANCH   4   6
HETATM    6  C   UNK A   0      -9.800   8.028  67.949  1.00  0.00    -0.167 C  
BRANCH   6   7
HETATM    7  C   UNK A   0     -10.839   6.906  67.910  1.00  0.00    -0.287 C  
BRANCH   7   8
HETATM    8  C   UNK A   0     -10.769   5.821  66.823  1.00  0.00    -0.369 C  
BRANCH   8   9
HETATM    9  C   UNK A   0      -9.955   4.603  67.287  1.00  0.00    -0.203 A  
HETATM   10  C   UNK A   0      -9.302   3.794  66.346  1.00  0.00    -0.197 A  
HETATM   11  C   UNK A   0      -8.459   2.747  66.760  1.00  0.00    -0.103 A  
HETATM   12  C   UNK A   0      -9.760   4.288  68.649  1.00  0.00    -0.174 A  
HETATM   13  C   UNK A   0      -8.249   2.495  68.116  1.00  0.00    -0.072 A  
HETATM   14  C   UNK A   0      -8.910   3.261  69.061  1.00  0.00    -0.159 A  
ENDBRANCH   8   9
ENDBRANCH   7   8
ENDBRANCH   6   7
BRANCH   6  15
ATOM     15  N   ALA A   1      -8.641   7.641  68.791  1.00  0.00    -0.129 NA 
ATOM     16  H   ALA A   1      -8.796   7.404  69.770  1.00  0.00     0.000 HD 
BRANCH  15  17
ATOM     17  CA  ALA A   1      -7.255   7.591  68.240  1.00  0.00    -0.093 C  
ATOM     18  CB  ALA A   1      -6.162   6.761  68.933  1.00  0.00    -0.027 C  
BRANCH  17  19
ATOM     19  C   ALA A   1      -7.141   7.547  66.680  1.00  0.00    -0.078 C  
ATOM     20  O   ALA A   1      -6.992   6.450  66.128  1.00  0.00    -0.062 OA 
HETATM   21  C   UNK A   2      -8.537  10.832  65.853  1.00  0.00    -0.182 A  
HETATM   22  C   UNK A   2      -8.802  12.067  66.460  1.00  0.00    -0.172 A  
HETATM   23  N   UNK A   2      -7.337   8.680  65.906  1.00  0.00    -0.083 N  
HETATM   24  C   UNK A   2      -9.845  12.859  66.014  1.00  0.00    -0.255 A  
HETATM   25  C   UNK A   2      -7.407  10.032  66.400  1.00  0.00    -0.104 C  
HETATM   26  O   UNK A   2      -6.192   8.688  62.432  1.00  0.00    -0.094 OA 
HETATM   27  C   UNK A   2     -10.654  12.413  64.967  1.00  0.00    -0.298 A  
HETATM   28  C   UNK A   2     -10.379  11.175  64.351  1.00  0.00    -0.407 A  
HETATM   29  O   UNK A   2      -5.941  10.368  63.898  1.00  0.00    -0.142 OA 
HETATM   30  C   UNK A   2      -6.473   9.302  63.599  1.00  0.00    -0.092 C  
HETATM   31  C   UNK A   2      -9.296  10.392  64.770  1.00  0.00    -0.301 A  
HETATM   32  C   UNK A   2      -7.538   8.567  64.452  1.00  0.00    -0.117 C  
HETATM   33  C   UNK A   2      -8.960   9.071  64.114  1.00  0.00     0.032 C  
BRANCH  24  34
HETATM   34  O   UNK A   2     -10.118  14.108  66.513  1.00  0.00    -0.266 OA 
HETATM   35  C   UNK A   2      -9.035  14.703  67.199  1.00  0.00    -0.225 C  
ENDBRANCH  24  34
BRANCH  27  36
HETATM   36  O   UNK A   2     -11.682  13.247  64.649  1.00  0.00    -0.335 OA 
HETATM   37  C   UNK A   2     -12.222  13.152  63.345  1.00  0.00    -0.444 C  
ENDBRANCH  27  36
ENDBRANCH  17  19
ENDBRANCH  15  17
ENDBRANCH   6  15
ENDBRANCH   4   6
ENDBRANCH   3   4
ENDBRANCH   2   3
TORSDOF 11
ENDMDL
MODEL      182
REMARK 921   NORMALIZED FREE ENERGY PREDICTED BY IDOCK:   -3.68 KCAL/MOL
REMARK 922        TOTAL FREE ENERGY PREDICTED BY IDOCK:   -7.96 KCAL/MOL
REMARK 923 INTER-LIGAND FREE ENERGY PREDICTED BY IDOCK:   -6.78 KCAL/MOL
REMARK 924 INTRA-LIGAND FREE ENERGY PREDICTED BY IDOCK:   -1.18 KCAL/MOL
REMARK 927      BINDING AFFINITY PREDICTED BY RF-SCORE:    0.00 PKD
ROOT
HETATM    1  C   UNK A   0      -5.436   6.385  70.700  1.00  0.00    -0.018 C  
HETATM    2  C   UNK A   0      -5.723   7.731  70.064  1.00  0.00    -0.023 C  
ENDROOT
BRANCH   2   3
HETATM    3  O   UNK A   0      -6.410   8.549  71.016  1.00  0.00    -0.037 OA 
BRANCH   3   4
HETATM    4  C   UNK A   0      -7.139   9.590  70.519  1.00  0.00    -0.127 C  
HETATM    5  O   UNK A   0      -6.695  10.548  69.895  1.00  0.00    -0.109 OA 
BRANCH   4   6
HETATM    6  C   UNK A   0      -8.620   9.334  70.802  1.00  0.00    -0.203 C  
BRANCH   6   7
HETATM    7  C   UNK A   0      -8.766   8.173  71.787  1.00  0.00    -0.199 C  
BRANCH   7   8
HETATM    8  C   UNK A   0     -10.054   8.011  72.611  1.00  0.00    -0.370 C  
BRANCH   8   9
HETATM    9  C   UNK A   0     -10.217   6.576  73.134  1.00  0.00    -0.231 A  
HETATM   10  C   UNK A   0      -9.248   6.022  73.984  1.00  0.00    -0.132 A  
HETATM   11  C   UNK A   0      -9.440   4.756  74.565  1.00  0.00    -0.144 A  
HETATM   12  C   UNK A   0     -11.357   5.788  72.863  1.00  0.00    -0.298 A  
HETATM   13  C   UNK A   0     -10.602   4.025  74.315  1.00  0.00    -0.277 A  
HETATM   14  C   UNK A   0     -11.557   4.540  73.453  1.00  0.00    -0.240 A  
ENDBRANCH   8   9
ENDBRANCH   7   8
ENDBRANCH   6   7
BRANCH   6  15
ATOM     15  N   ALA A   1      -9.341   9.043  69.538  1.00  0.00    -0.156 NA 
ATOM     16  H   ALA A   1     -10.162   9.597  69.295  1.00  0.00     0.000 HD 
BRANCH  15  17
ATOM     17  CA  ALA A   1      -8.895   7.960  68.614  1.00  0.00    -0.134 C  
ATOM     18  CB  ALA A   1      -8.953   6.484  69.044  1.00  0.00    -0.129 C  
BRANCH  17  19
ATOM     19  C   ALA A   1      -9.255   8.157  67.105  1.00  0.00    -0.145 C  
ATOM     20  O   ALA A   1      -9.924   7.285  66.536  1.00  0.00    -0.190 OA 
HETATM   21  C   UNK A   2      -8.656  11.757  66.778  1.00  0.00    -0.185 A  
HETATM   22  C   UNK A   2      -7.982  12.794  67.436  1.00  0.00    -0.179 A  
HETATM   23  N   UNK A   2      -8.961   9.335  66.437  1.00  0.00    -0.147 N  
HETATM   24  C   UNK A   2      -8.448  14.095  67.358  1.00  0.00    -0.203 A  
HETATM   25  C   UNK A   2      -8.101  10.383  66.922  1.00  0.00    -0.118 C  
HETATM   26  O   UNK A   2      -9.017   9.374  62.778  1.00  0.00    -0.243 OA 
HETATM   27  C   UNK A   2      -9.612  14.371  66.638  1.00  0.00    -0.281 A  
HETATM   28  C   UNK A   2     -10.283  13.327  65.969  1.00  0.00    -0.291 A  
HETATM   29  O   UNK A   2      -7.456  10.331  64.075  1.00  0.00    -0.137 OA 
HETATM   30  C   UNK A   2      -8.562   9.808  63.972  1.00  0.00    -0.197 C  
HETATM   31  C   UNK A   2      -9.788  12.018  66.008  1.00  0.00    -0.258 A  
HETATM   32  C   UNK A   2      -9.576   9.628  65.131  1.00  0.00    -0.254 C  
HETATM   33  C   UNK A   2     -10.471  10.879  65.281  1.00  0.00    -0.299 C  
BRANCH  24  34
HETATM   34  O   UNK A   2      -7.801  15.168  67.917  1.00  0.00    -0.120 OA 
HETATM   35  C   UNK A   2      -6.499  14.877  68.382  1.00  0.00    -0.106 C  
ENDBRANCH  24  34
BRANCH  27  36
HETATM   36  O   UNK A   2     -10.008  15.673  66.676  1.00  0.00    -0.243 OA 
HETATM   37  C   UNK A   2     -10.555  16.225  65.495  1.00  0.00    -0.353 C  
ENDBRANCH  27  36
ENDBRANCH  17  19
ENDBRANCH  15  17
ENDBRANCH   6  15
ENDBRANCH   4   6
ENDBRANCH   3   4
ENDBRANCH   2   3
TORSDOF 11
ENDMDL
MODEL      183
REMARK 921   NORMALIZED FREE ENERGY PREDICTED BY IDOCK:   -3.68 KCAL/MOL
REMARK 922        TOTAL FREE ENERGY PREDICTED BY IDOCK:   -7.95 KCAL/MOL
REMARK 923 INTER-LIGAND FREE ENERGY PREDICTED BY IDOCK:   -8.93 KCAL/MOL
REMARK 924 INTRA-LIGAND FREE ENERGY PREDICTED BY IDOCK:    0.98 KCAL/MOL
REMARK 927      BINDING AFFINITY PREDICTED BY RF-SCORE:    0.00 PKD
ROOT
HETATM    1  C   UNK A   0      -5.480   7.044  68.036  1.00  0.00    -0.020 C  
HETATM    2  C   UNK A   0      -6.081   8.394  68.376  1.00  0.00    -0.046 C  
ENDROOT
BRANCH   2   3
HETATM    3  O   UNK A   0      -6.652   8.952  67.188  1.00  0.00    -0.060 OA 
BRANCH   3   4
HETATM    4  C   UNK A   0      -7.987   9.228  67.219  1.00  0.00    -0.106 C  
HETATM    5  O   UNK A   0      -8.698   9.463  66.246  1.00  0.00    -0.134 OA 
BRANCH   4   6
HETATM    6  C   UNK A   0      -8.480   9.126  68.663  1.00  0.00    -0.127 C  
BRANCH   6   7
HETATM    7  C   UNK A   0      -9.836   8.418  68.698  1.00  0.00    -0.180 C  
BRANCH   7   8
HETATM    8  C   UNK A   0     -10.308   7.708  69.976  1.00  0.00    -0.223 C  
BRANCH   8   9
HETATM    9  C   UNK A   0     -11.323   8.558  70.757  1.00  0.00    -0.296 A  
HETATM   10  C   UNK A   0     -11.891   9.695  70.164  1.00  0.00    -0.087 A  
HETATM   11  C   UNK A   0     -12.907  10.415  70.819  1.00  0.00    -0.450 A  
HETATM   12  C   UNK A   0     -11.786   8.206  72.043  1.00  0.00    -0.392 A  
HETATM   13  C   UNK A   0     -13.377  10.010  72.068  1.00  0.00    -0.513 A  
HETATM   14  C   UNK A   0     -12.807   8.908  72.685  1.00  0.00    -0.316 A  
ENDBRANCH   8   9
ENDBRANCH   7   8
ENDBRANCH   6   7
BRANCH   6  15
ATOM     15  N   ALA A   1      -8.578  10.477  69.270  1.00  0.00    -0.270 NA 
ATOM     16  H   ALA A   1      -8.658  10.562  70.282  1.00  0.00     0.000 HD 
BRANCH  15  17
ATOM     17  CA  ALA A   1      -8.562  11.713  68.434  1.00  0.00    -0.156 C  
ATOM     18  CB  ALA A   1      -7.358  12.040  67.534  1.00  0.00    -0.137 C  
BRANCH  17  19
ATOM     19  C   ALA A   1      -9.925  12.113  67.779  1.00  0.00    -0.198 C  
ATOM     20  O   ALA A   1     -10.934  11.455  68.064  1.00  0.00    -0.206 OA 
HETATM   21  C   UNK A   2      -9.127  15.517  66.686  1.00  0.00    -0.310 A  
HETATM   22  C   UNK A   2      -8.012  16.326  66.432  1.00  0.00    -0.299 A  
HETATM   23  N   UNK A   2     -10.051  13.255  67.005  1.00  0.00    -0.239 N  
HETATM   24  C   UNK A   2      -8.087  17.698  66.598  1.00  0.00    -0.254 A  
HETATM   25  C   UNK A   2      -8.961  14.049  66.498  1.00  0.00    -0.092 C  
HETATM   26  O   UNK A   2     -12.968  13.621  64.827  1.00  0.00    -0.685 OA 
HETATM   27  C   UNK A   2      -9.277  18.276  67.045  1.00  0.00    -0.274 A  
HETATM   28  C   UNK A   2     -10.401  17.461  67.290  1.00  0.00    -0.336 A  
HETATM   29  O   UNK A   2     -10.849  14.108  64.272  1.00  0.00    -0.276 OA 
HETATM   30  C   UNK A   2     -11.675  13.843  65.141  1.00  0.00    -0.350 C  
HETATM   31  C   UNK A   2     -10.341  16.078  67.079  1.00  0.00    -0.292 A  
HETATM   32  C   UNK A   2     -11.382  13.783  66.662  1.00  0.00    -0.328 C  
HETATM   33  C   UNK A   2     -11.535  15.178  67.310  1.00  0.00    -0.284 C  
BRANCH  24  34
HETATM   34  O   UNK A   2      -7.059  18.557  66.301  1.00  0.00    -0.220 OA 
HETATM   35  C   UNK A   2      -5.840  18.239  66.943  1.00  0.00    -0.149 C  
ENDBRANCH  24  34
BRANCH  27  36
HETATM   36  O   UNK A   2      -9.220  19.624  67.226  1.00  0.00    -0.307 OA 
HETATM   37  C   UNK A   2      -9.952  20.171  68.305  1.00  0.00    -0.319 C  
ENDBRANCH  27  36
ENDBRANCH  17  19
ENDBRANCH  15  17
ENDBRANCH   6  15
ENDBRANCH   4   6
ENDBRANCH   3   4
ENDBRANCH   2   3
TORSDOF 11
ENDMDL
MODEL      184
REMARK 921   NORMALIZED FREE ENERGY PREDICTED BY IDOCK:   -3.67 KCAL/MOL
REMARK 922        TOTAL FREE ENERGY PREDICTED BY IDOCK:   -7.93 KCAL/MOL
REMARK 923 INTER-LIGAND FREE ENERGY PREDICTED BY IDOCK:   -6.26 KCAL/MOL
REMARK 924 INTRA-LIGAND FREE ENERGY PREDICTED BY IDOCK:   -1.67 KCAL/MOL
REMARK 927      BINDING AFFINITY PREDICTED BY RF-SCORE:    0.00 PKD
ROOT
HETATM    1  C   UNK A   0      -7.252   6.639  71.195  1.00  0.00    -0.078 C  
HETATM    2  C   UNK A   0      -8.141   7.770  70.717  1.00  0.00    -0.102 C  
ENDROOT
BRANCH   2   3
HETATM    3  O   UNK A   0      -7.508   8.411  69.606  1.00  0.00    -0.070 OA 
BRANCH   3   4
HETATM    4  C   UNK A   0      -8.307   8.746  68.552  1.00  0.00    -0.129 C  
HETATM    5  O   UNK A   0      -8.834   7.961  67.769  1.00  0.00    -0.123 OA 
BRANCH   4   6
HETATM    6  C   UNK A   0      -8.505  10.262  68.543  1.00  0.00    -0.121 C  
BRANCH   6   7
HETATM    7  C   UNK A   0      -7.273  10.947  69.138  1.00  0.00    -0.118 C  
BRANCH   7   8
HETATM    8  C   UNK A   0      -6.271  11.671  68.224  1.00  0.00    -0.049 C  
BRANCH   8   9
HETATM    9  C   UNK A   0      -5.938  13.078  68.747  1.00  0.00    -0.076 A  
HETATM   10  C   UNK A   0      -5.547  14.085  67.853  1.00  0.00    -0.099 A  
HETATM   11  C   UNK A   0      -5.353  15.405  68.299  1.00  0.00    -0.113 A  
HETATM   12  C   UNK A   0      -6.081  13.443  70.103  1.00  0.00    -0.112 A  
HETATM   13  C   UNK A   0      -5.551  15.742  69.638  1.00  0.00    -0.124 A  
HETATM   14  C   UNK A   0      -5.906  14.756  70.543  1.00  0.00    -0.157 A  
ENDBRANCH   8   9
ENDBRANCH   7   8
ENDBRANCH   6   7
BRANCH   6  15
ATOM     15  N   ALA A   1      -9.726  10.625  69.304  1.00  0.00    -0.338 NA 
ATOM     16  H   ALA A   1     -10.061   9.997  70.034  1.00  0.00     0.000 HD 
BRANCH  15  17
ATOM     17  CA  ALA A   1     -10.475  11.885  69.027  1.00  0.00    -0.070 C  
ATOM     18  CB  ALA A   1      -9.956  13.239  69.539  1.00  0.00     0.916 C  
BRANCH  17  19
ATOM     19  C   ALA A   1     -11.131  11.992  67.611  1.00  0.00    -0.264 C  
ATOM     20  O   ALA A   1     -12.156  11.339  67.382  1.00  0.00    -0.450 OA 
HETATM   21  C   UNK A   2      -9.563  15.083  66.421  1.00  0.00    -0.314 A  
HETATM   22  C   UNK A   2      -8.459  15.899  66.699  1.00  0.00    -0.322 A  
HETATM   23  N   UNK A   2     -10.672  12.895  66.665  1.00  0.00    -0.263 N  
HETATM   24  C   UNK A   2      -8.509  17.258  66.443  1.00  0.00    -0.269 A  
HETATM   25  C   UNK A   2      -9.437  13.634  66.739  1.00  0.00    -0.270 C  
HETATM   26  O   UNK A   2     -11.647  12.463  63.165  1.00  0.00    -0.392 OA 
HETATM   27  C   UNK A   2      -9.676  17.822  65.924  1.00  0.00    -0.017 A  
HETATM   28  C   UNK A   2     -10.782  16.997  65.635  1.00  0.00    -0.150 A  
HETATM   29  O   UNK A   2      -9.591  12.983  63.898  1.00  0.00     0.056 OA 
HETATM   30  C   UNK A   2     -10.792  12.867  64.126  1.00  0.00    -0.416 C  
HETATM   31  C   UNK A   2     -10.719  15.615  65.852  1.00  0.00    -0.336 A  
HETATM   32  C   UNK A   2     -11.480  13.206  65.474  1.00  0.00    -0.315 C  
HETATM   33  C   UNK A   2     -11.879  14.698  65.530  1.00  0.00    -0.292 C  
BRANCH  24  34
HETATM   34  O   UNK A   2      -7.444  18.105  66.624  1.00  0.00    -0.203 OA 
HETATM   35  C   UNK A   2      -6.305  17.769  65.857  1.00  0.00    -0.218 C  
ENDBRANCH  24  34
BRANCH  27  36
HETATM   36  O   UNK A   2      -9.631  19.174  65.764  1.00  0.00    -0.404 OA 
HETATM   37  C   UNK A   2     -10.264  19.970  66.745  1.00  0.00    -0.462 C  
ENDBRANCH  27  36
ENDBRANCH  17  19
ENDBRANCH  15  17
ENDBRANCH   6  15
ENDBRANCH   4   6
ENDBRANCH   3   4
ENDBRANCH   2   3
TORSDOF 11
ENDMDL
MODEL      185
REMARK 921   NORMALIZED FREE ENERGY PREDICTED BY IDOCK:   -3.66 KCAL/MOL
REMARK 922        TOTAL FREE ENERGY PREDICTED BY IDOCK:   -7.91 KCAL/MOL
REMARK 923 INTER-LIGAND FREE ENERGY PREDICTED BY IDOCK:   -6.65 KCAL/MOL
REMARK 924 INTRA-LIGAND FREE ENERGY PREDICTED BY IDOCK:   -1.26 KCAL/MOL
REMARK 927      BINDING AFFINITY PREDICTED BY RF-SCORE:    0.00 PKD
ROOT
HETATM    1  C   UNK A   0      -8.389   9.484  64.467  1.00  0.00    -0.167 C  
HETATM    2  C   UNK A   0      -9.243   9.119  65.665  1.00  0.00    -0.234 C  
ENDROOT
BRANCH   2   3
HETATM    3  O   UNK A   0      -8.886   7.802  66.096  1.00  0.00    -0.151 OA 
BRANCH   3   4
HETATM    4  C   UNK A   0      -9.724   7.198  66.987  1.00  0.00    -0.170 C  
HETATM    5  O   UNK A   0     -10.950   7.192  66.933  1.00  0.00    -0.363 OA 
BRANCH   4   6
HETATM    6  C   UNK A   0      -8.887   6.461  68.033  1.00  0.00    -0.113 C  
BRANCH   6   7
HETATM    7  C   UNK A   0      -8.689   5.005  67.603  1.00  0.00    -0.103 C  
BRANCH   7   8
HETATM    8  C   UNK A   0      -9.787   4.273  66.816  1.00  0.00    -0.230 C  
BRANCH   8   9
HETATM    9  C   UNK A   0      -9.345   3.966  65.376  1.00  0.00    -0.159 A  
HETATM   10  C   UNK A   0      -8.014   3.614  65.108  1.00  0.00    -0.090 A  
HETATM   11  C   UNK A   0      -7.622   3.217  63.817  1.00  0.00    -0.067 A  
HETATM   12  C   UNK A   0     -10.245   3.945  64.288  1.00  0.00    -0.234 A  
HETATM   13  C   UNK A   0      -8.548   3.158  62.776  1.00  0.00    -0.078 A  
HETATM   14  C   UNK A   0      -9.861   3.534  63.011  1.00  0.00    -0.128 A  
ENDBRANCH   8   9
ENDBRANCH   7   8
ENDBRANCH   6   7
BRANCH   6  15
ATOM     15  N   ALA A   1      -9.546   6.530  69.361  1.00  0.00    -0.144 NA 
ATOM     16  H   ALA A   1     -10.280   5.861  69.587  1.00  0.00     0.000 HD 
BRANCH  15  17
ATOM     17  CA  ALA A   1      -9.159   7.557  70.373  1.00  0.00    -0.153 C  
ATOM     18  CB  ALA A   1      -8.125   8.645  70.036  1.00  0.00    -0.112 C  
BRANCH  17  19
ATOM     19  C   ALA A   1     -10.315   8.090  71.281  1.00  0.00    -0.193 C  
ATOM     20  O   ALA A   1     -10.284   7.833  72.491  1.00  0.00    -0.217 OA 
HETATM   21  C   UNK A   2     -11.686  10.692  69.096  1.00  0.00    -0.324 A  
HETATM   22  C   UNK A   2     -11.680  11.069  67.747  1.00  0.00    -0.172 A  
HETATM   23  N   UNK A   2     -11.288   8.947  70.790  1.00  0.00    -0.273 N  
HETATM   24  C   UNK A   2     -11.816  12.399  67.390  1.00  0.00    -0.289 A  
HETATM   25  C   UNK A   2     -11.520   9.244  69.400  1.00  0.00     0.280 C  
HETATM   26  O   UNK A   2     -14.380   9.412  72.689  1.00  0.00    -0.412 OA 
HETATM   27  C   UNK A   2     -11.937  13.374  68.383  1.00  0.00    -0.324 A  
HETATM   28  C   UNK A   2     -11.952  12.990  69.740  1.00  0.00    -0.377 A  
HETATM   29  O   UNK A   2     -14.236   9.142  70.466  1.00  0.00     0.330 OA 
HETATM   30  C   UNK A   2     -13.680   9.369  71.537  1.00  0.00    -0.294 C  
HETATM   31  C   UNK A   2     -11.860  11.641  70.102  1.00  0.00    -0.428 A  
HETATM   32  C   UNK A   2     -12.171   9.682  71.711  1.00  0.00    -0.384 C  
HETATM   33  C   UNK A   2     -11.898  11.194  71.547  1.00  0.00     0.525 C  
BRANCH  24  34
HETATM   34  O   UNK A   2     -11.890  12.833  66.090  1.00  0.00    -0.388 OA 
HETATM   35  C   UNK A   2     -10.904  12.279  65.241  1.00  0.00    -0.293 C  
ENDBRANCH  24  34
BRANCH  27  36
HETATM   36  O   UNK A   2     -12.008  14.652  67.918  1.00  0.00    -0.337 OA 
HETATM   37  C   UNK A   2     -11.770  15.697  68.840  1.00  0.00    -0.384 C  
ENDBRANCH  27  36
ENDBRANCH  17  19
ENDBRANCH  15  17
ENDBRANCH   6  15
ENDBRANCH   4   6
ENDBRANCH   3   4
ENDBRANCH   2   3
TORSDOF 11
ENDMDL
MODEL      186
REMARK 921   NORMALIZED FREE ENERGY PREDICTED BY IDOCK:   -3.63 KCAL/MOL
REMARK 922        TOTAL FREE ENERGY PREDICTED BY IDOCK:   -7.87 KCAL/MOL
REMARK 923 INTER-LIGAND FREE ENERGY PREDICTED BY IDOCK:   -7.21 KCAL/MOL
REMARK 924 INTRA-LIGAND FREE ENERGY PREDICTED BY IDOCK:   -0.66 KCAL/MOL
REMARK 927      BINDING AFFINITY PREDICTED BY RF-SCORE:    0.00 PKD
ROOT
HETATM    1  C   UNK A   0      -7.642   1.815  73.086  1.00  0.00    -0.037 C  
HETATM    2  C   UNK A   0      -7.826   2.478  71.735  1.00  0.00    -0.048 C  
ENDROOT
BRANCH   2   3
HETATM    3  O   UNK A   0      -8.946   3.365  71.810  1.00  0.00    -0.097 OA 
BRANCH   3   4
HETATM    4  C   UNK A   0      -8.674   4.678  72.061  1.00  0.00    -0.122 C  
HETATM    5  O   UNK A   0      -8.383   5.157  73.153  1.00  0.00    -0.108 OA 
BRANCH   4   6
HETATM    6  C   UNK A   0      -8.715   5.453  70.744  1.00  0.00    -0.132 C  
BRANCH   6   7
HETATM    7  C   UNK A   0      -9.983   6.308  70.687  1.00  0.00    -0.221 C  
BRANCH   7   8
HETATM    8  C   UNK A   0     -10.005   7.707  71.321  1.00  0.00    -0.195 C  
BRANCH   8   9
HETATM    9  C   UNK A   0     -11.438   8.247  71.460  1.00  0.00    -0.325 A  
HETATM   10  C   UNK A   0     -11.672   9.629  71.455  1.00  0.00    -0.478 A  
HETATM   11  C   UNK A   0     -12.985  10.135  71.463  1.00  0.00    -0.547 A  
HETATM   12  C   UNK A   0     -12.569   7.404  71.520  1.00  0.00    -0.401 A  
HETATM   13  C   UNK A   0     -14.081   9.273  71.471  1.00  0.00    -0.195 A  
HETATM   14  C   UNK A   0     -13.871   7.905  71.510  1.00  0.00    -0.415 A  
ENDBRANCH   8   9
ENDBRANCH   7   8
ENDBRANCH   6   7
BRANCH   6  15
ATOM     15  N   ALA A   1      -8.661   4.517  69.595  1.00  0.00    -0.079 NA 
ATOM     16  H   ALA A   1      -8.285   3.579  69.735  1.00  0.00     0.000 HD 
BRANCH  15  17
ATOM     17  CA  ALA A   1      -9.143   4.912  68.239  1.00  0.00    -0.114 C  
ATOM     18  CB  ALA A   1     -10.569   5.455  68.038  1.00  0.00    -0.157 C  
BRANCH  17  19
ATOM     19  C   ALA A   1      -8.096   5.626  67.323  1.00  0.00    -0.102 C  
ATOM     20  O   ALA A   1      -7.330   4.930  66.645  1.00  0.00    -0.079 OA 
HETATM   21  C   UNK A   2      -9.578   8.973  67.159  1.00  0.00    -0.218 A  
HETATM   22  C   UNK A   2     -10.502   9.769  67.847  1.00  0.00    -0.288 A  
HETATM   23  N   UNK A   2      -8.099   7.001  67.152  1.00  0.00    -0.116 N  
HETATM   24  C   UNK A   2     -11.230  10.737  67.178  1.00  0.00    -0.147 A  
HETATM   25  C   UNK A   2      -8.845   7.944  67.946  1.00  0.00    -0.123 C  
HETATM   26  O   UNK A   2      -5.138   8.632  65.751  1.00  0.00    -0.027 OA 
HETATM   27  C   UNK A   2     -11.058  10.905  65.802  1.00  0.00     0.122 A  
HETATM   28  C   UNK A   2     -10.120  10.109  65.113  1.00  0.00    -0.329 A  
HETATM   29  O   UNK A   2      -6.336   9.370  67.499  1.00  0.00    -0.060 OA 
HETATM   30  C   UNK A   2      -6.236   8.616  66.535  1.00  0.00    -0.058 C  
HETATM   31  C   UNK A   2      -9.349   9.160  65.797  1.00  0.00    -0.309 A  
HETATM   32  C   UNK A   2      -7.328   7.622  66.062  1.00  0.00    -0.077 C  
HETATM   33  C   UNK A   2      -8.317   8.307  65.092  1.00  0.00    -0.167 C  
BRANCH  24  34
HETATM   34  O   UNK A   2     -12.100  11.599  67.798  1.00  0.00    -0.613 OA 
HETATM   35  C   UNK A   2     -11.503  12.391  68.806  1.00  0.00    -0.304 C  
ENDBRANCH  24  34
BRANCH  27  36
HETATM   36  O   UNK A   2     -11.866  11.846  65.239  1.00  0.00    -0.267 OA 
HETATM   37  C   UNK A   2     -11.365  12.555  64.123  1.00  0.00    -0.380 C  
ENDBRANCH  27  36
ENDBRANCH  17  19
ENDBRANCH  15  17
ENDBRANCH   6  15
ENDBRANCH   4   6
ENDBRANCH   3   4
ENDBRANCH   2   3
TORSDOF 11
ENDMDL
MODEL      187
REMARK 921   NORMALIZED FREE ENERGY PREDICTED BY IDOCK:   -3.63 KCAL/MOL
REMARK 922        TOTAL FREE ENERGY PREDICTED BY IDOCK:   -7.86 KCAL/MOL
REMARK 923 INTER-LIGAND FREE ENERGY PREDICTED BY IDOCK:   -6.88 KCAL/MOL
REMARK 924 INTRA-LIGAND FREE ENERGY PREDICTED BY IDOCK:   -0.98 KCAL/MOL
REMARK 927      BINDING AFFINITY PREDICTED BY RF-SCORE:    0.00 PKD
ROOT
HETATM    1  C   UNK A   0     -12.317  11.859  63.937  1.00  0.00    -0.488 C  
HETATM    2  C   UNK A   0     -10.909  12.206  64.382  1.00  0.00    -0.328 C  
ENDROOT
BRANCH   2   3
HETATM    3  O   UNK A   0     -10.935  12.513  65.780  1.00  0.00    -0.277 OA 
BRANCH   3   4
HETATM    4  C   UNK A   0     -10.764  11.469  66.641  1.00  0.00    -0.268 C  
HETATM    5  O   UNK A   0     -11.211  10.335  66.497  1.00  0.00     0.082 OA 
BRANCH   4   6
HETATM    6  C   UNK A   0      -9.858  11.917  67.789  1.00  0.00    -0.184 C  
BRANCH   6   7
HETATM    7  C   UNK A   0      -9.658  13.433  67.726  1.00  0.00    -0.213 C  
BRANCH   7   8
HETATM    8  C   UNK A   0      -8.269  14.019  67.427  1.00  0.00    -0.203 C  
BRANCH   8   9
HETATM    9  C   UNK A   0      -8.346  15.516  67.085  1.00  0.00    -0.243 A  
HETATM   10  C   UNK A   0      -7.213  16.185  66.597  1.00  0.00    -0.098 A  
HETATM   11  C   UNK A   0      -7.297  17.522  66.169  1.00  0.00    -0.347 A  
HETATM   12  C   UNK A   0      -9.544  16.258  67.164  1.00  0.00    -0.238 A  
HETATM   13  C   UNK A   0      -8.510  18.210  66.214  1.00  0.00    -0.213 A  
HETATM   14  C   UNK A   0      -9.633  17.578  66.723  1.00  0.00    -0.286 A  
ENDBRANCH   8   9
ENDBRANCH   7   8
ENDBRANCH   6   7
BRANCH   6  15
ATOM     15  N   ALA A   1      -8.554  11.212  67.719  1.00  0.00    -0.129 NA 
ATOM     16  H   ALA A   1      -7.954  11.357  66.908  1.00  0.00     0.000 HD 
BRANCH  15  17
ATOM     17  CA  ALA A   1      -8.101  10.296  68.807  1.00  0.00    -0.120 C  
ATOM     18  CB  ALA A   1      -7.004  10.729  69.794  1.00  0.00    -0.141 C  
BRANCH  17  19
ATOM     19  C   ALA A   1      -9.218   9.441  69.490  1.00  0.00    -0.176 C  
ATOM     20  O   ALA A   1     -10.145  10.027  70.064  1.00  0.00    -0.248 OA 
HETATM   21  C   UNK A   2      -8.663   6.226  67.822  1.00  0.00    -0.113 A  
HETATM   22  C   UNK A   2      -7.672   5.555  67.095  1.00  0.00    -0.100 A  
HETATM   23  N   UNK A   2      -9.264   8.063  69.352  1.00  0.00    -0.152 N  
HETATM   24  C   UNK A   2      -8.018   4.612  66.143  1.00  0.00    -0.103 A  
HETATM   25  C   UNK A   2      -8.212   7.238  68.817  1.00  0.00    -0.129 C  
HETATM   26  O   UNK A   2     -11.321   6.106  71.660  1.00  0.00    -0.278 OA 
HETATM   27  C   UNK A   2      -9.365   4.345  65.891  1.00  0.00    -0.161 A  
HETATM   28  C   UNK A   2     -10.360   5.015  66.631  1.00  0.00    -0.312 A  
HETATM   29  O   UNK A   2      -9.245   5.582  70.988  1.00  0.00    -0.145 OA 
HETATM   30  C   UNK A   2     -10.257   6.263  70.846  1.00  0.00    -0.193 C  
HETATM   31  C   UNK A   2     -10.012   5.937  67.626  1.00  0.00    -0.159 A  
HETATM   32  C   UNK A   2     -10.475   7.314  69.727  1.00  0.00    -0.227 C  
HETATM   33  C   UNK A   2     -11.055   6.654  68.455  1.00  0.00    -0.284 C  
BRANCH  24  34
HETATM   34  O   UNK A   2      -7.102   3.866  65.444  1.00  0.00    -0.060 OA 
HETATM   35  C   UNK A   2      -6.332   2.997  66.251  1.00  0.00    -0.028 C  
ENDBRANCH  24  34
BRANCH  27  36
HETATM   36  O   UNK A   2      -9.588   3.442  64.896  1.00  0.00    -0.155 OA 
HETATM   37  C   UNK A   2      -9.902   3.945  63.613  1.00  0.00    -0.165 C  
ENDBRANCH  27  36
ENDBRANCH  17  19
ENDBRANCH  15  17
ENDBRANCH   6  15
ENDBRANCH   4   6
ENDBRANCH   3   4
ENDBRANCH   2   3
TORSDOF 11
ENDMDL
MODEL      188
REMARK 921   NORMALIZED FREE ENERGY PREDICTED BY IDOCK:   -3.62 KCAL/MOL
REMARK 922        TOTAL FREE ENERGY PREDICTED BY IDOCK:   -7.86 KCAL/MOL
REMARK 923 INTER-LIGAND FREE ENERGY PREDICTED BY IDOCK:   -5.82 KCAL/MOL
REMARK 924 INTRA-LIGAND FREE ENERGY PREDICTED BY IDOCK:   -2.04 KCAL/MOL
REMARK 927      BINDING AFFINITY PREDICTED BY RF-SCORE:    0.00 PKD
ROOT
HETATM    1  C   UNK A   0     -10.826   5.995  68.903  1.00  0.00    -0.400 C  
HETATM    2  C   UNK A   0      -9.657   5.589  69.780  1.00  0.00    -0.163 C  
ENDROOT
BRANCH   2   3
HETATM    3  O   UNK A   0      -8.471   5.571  68.979  1.00  0.00    -0.100 OA 
BRANCH   3   4
HETATM    4  C   UNK A   0      -8.421   4.648  67.975  1.00  0.00    -0.102 C  
HETATM    5  O   UNK A   0      -8.805   3.485  68.046  1.00  0.00    -0.100 OA 
BRANCH   4   6
HETATM    6  C   UNK A   0      -7.876   5.319  66.714  1.00  0.00    -0.100 C  
BRANCH   6   7
HETATM    7  C   UNK A   0      -6.619   4.586  66.241  1.00  0.00    -0.045 C  
BRANCH   7   8
HETATM    8  C   UNK A   0      -6.404   4.302  64.746  1.00  0.00    -0.034 C  
BRANCH   8   9
HETATM    9  C   UNK A   0      -6.691   5.542  63.884  1.00  0.00    -0.037 A  
HETATM   10  C   UNK A   0      -7.973   5.749  63.354  1.00  0.00    -0.108 A  
HETATM   11  C   UNK A   0      -8.283   6.934  62.664  1.00  0.00    -0.007 A  
HETATM   12  C   UNK A   0      -5.731   6.550  63.651  1.00  0.00    -0.030 A  
HETATM   13  C   UNK A   0      -7.323   7.933  62.496  1.00  0.00    -0.100 A  
HETATM   14  C   UNK A   0      -6.042   7.734  62.982  1.00  0.00    -0.067 A  
ENDBRANCH   8   9
ENDBRANCH   7   8
ENDBRANCH   6   7
BRANCH   6  15
ATOM     15  N   ALA A   1      -7.581   6.749  66.980  1.00  0.00    -0.094 NA 
ATOM     16  H   ALA A   1      -6.832   6.990  67.629  1.00  0.00     0.000 HD 
BRANCH  15  17
ATOM     17  CA  ALA A   1      -8.352   7.843  66.321  1.00  0.00    -0.126 C  
ATOM     18  CB  ALA A   1      -9.872   7.722  66.116  1.00  0.00     0.012 C  
BRANCH  17  19
ATOM     19  C   ALA A   1      -7.910   9.301  66.676  1.00  0.00    -0.104 C  
ATOM     20  O   ALA A   1      -7.366   9.985  65.800  1.00  0.00    -0.105 OA 
HETATM   21  C   UNK A   2      -9.919   9.853  69.690  1.00  0.00    -0.255 A  
HETATM   22  C   UNK A   2     -10.619   9.122  70.659  1.00  0.00    -0.305 A  
HETATM   23  N   UNK A   2      -8.233   9.881  67.893  1.00  0.00    -0.113 N  
HETATM   24  C   UNK A   2     -11.718   9.672  71.295  1.00  0.00    -0.382 A  
HETATM   25  C   UNK A   2      -8.757   9.186  69.041  1.00  0.00    -0.135 C  
HETATM   26  O   UNK A   2      -6.436  12.879  68.973  1.00  0.00    -0.092 OA 
HETATM   27  C   UNK A   2     -12.145  10.956  70.951  1.00  0.00    -0.349 A  
HETATM   28  C   UNK A   2     -11.433  11.694  69.983  1.00  0.00    -0.266 A  
HETATM   29  O   UNK A   2      -6.945  11.119  70.268  1.00  0.00    -0.128 OA 
HETATM   30  C   UNK A   2      -7.104  11.733  69.217  1.00  0.00    -0.032 C  
HETATM   31  C   UNK A   2     -10.294  11.157  69.371  1.00  0.00    -0.090 A  
HETATM   32  C   UNK A   2      -8.091  11.333  68.090  1.00  0.00    -0.134 C  
HETATM   33  C   UNK A   2      -9.493  11.931  68.346  1.00  0.00    -0.189 C  
BRANCH  24  34
HETATM   34  O   UNK A   2     -12.407   9.043  72.301  1.00  0.00    -0.364 OA 
HETATM   35  C   UNK A   2     -13.067   7.861  71.895  1.00  0.00    -0.289 C  
ENDBRANCH  24  34
BRANCH  27  36
HETATM   36  O   UNK A   2     -13.268  11.373  71.599  1.00  0.00    -0.419 OA 
HETATM   37  C   UNK A   2     -13.340  12.735  71.973  1.00  0.00    -0.466 C  
ENDBRANCH  27  36
ENDBRANCH  17  19
ENDBRANCH  15  17
ENDBRANCH   6  15
ENDBRANCH   4   6
ENDBRANCH   3   4
ENDBRANCH   2   3
TORSDOF 11
ENDMDL
MODEL      189
REMARK 921   NORMALIZED FREE ENERGY PREDICTED BY IDOCK:   -3.58 KCAL/MOL
REMARK 922        TOTAL FREE ENERGY PREDICTED BY IDOCK:   -7.79 KCAL/MOL
REMARK 923 INTER-LIGAND FREE ENERGY PREDICTED BY IDOCK:   -7.02 KCAL/MOL
REMARK 924 INTRA-LIGAND FREE ENERGY PREDICTED BY IDOCK:   -0.77 KCAL/MOL
REMARK 927      BINDING AFFINITY PREDICTED BY RF-SCORE:    0.00 PKD
ROOT
HETATM    1  C   UNK A   0     -13.200  11.626  71.951  1.00  0.00    -0.475 C  
HETATM    2  C   UNK A   0     -12.554  10.657  70.981  1.00  0.00    -0.416 C  
ENDROOT
BRANCH   2   3
HETATM    3  O   UNK A   0     -11.321  11.222  70.523  1.00  0.00    -0.150 OA 
BRANCH   3   4
HETATM    4  C   UNK A   0     -11.263  11.587  69.210  1.00  0.00    -0.272 C  
HETATM    5  O   UNK A   0     -12.085  11.300  68.345  1.00  0.00    -0.598 OA 
BRANCH   4   6
HETATM    6  C   UNK A   0     -10.040  12.481  68.999  1.00  0.00     0.175 C  
BRANCH   6   7
HETATM    7  C   UNK A   0     -10.193  13.266  67.694  1.00  0.00    -0.228 C  
BRANCH   7   8
HETATM    8  C   UNK A   0     -11.169  14.451  67.612  1.00  0.00    -0.328 C  
BRANCH   8   9
HETATM    9  C   UNK A   0     -10.472  15.784  67.928  1.00  0.00    -0.270 A  
HETATM   10  C   UNK A   0      -9.296  15.799  68.692  1.00  0.00    -0.206 A  
HETATM   11  C   UNK A   0      -8.584  16.996  68.890  1.00  0.00    -0.196 A  
HETATM   12  C   UNK A   0     -10.920  17.021  67.415  1.00  0.00    -0.065 A  
HETATM   13  C   UNK A   0      -9.028  18.192  68.327  1.00  0.00    -0.306 A  
HETATM   14  C   UNK A   0     -10.204  18.205  67.596  1.00  0.00    -0.385 A  
ENDBRANCH   8   9
ENDBRANCH   7   8
ENDBRANCH   6   7
BRANCH   6  15
ATOM     15  N   ALA A   1      -8.803  11.662  68.977  1.00  0.00    -0.373 NA 
ATOM     16  H   ALA A   1      -8.768  10.799  69.519  1.00  0.00     0.000 HD 
BRANCH  15  17
ATOM     17  CA  ALA A   1      -7.608  12.071  68.181  1.00  0.00    -0.120 C  
ATOM     18  CB  ALA A   1      -6.500  12.931  68.811  1.00  0.00    -0.085 C  
BRANCH  17  19
ATOM     19  C   ALA A   1      -7.045  10.996  67.194  1.00  0.00    -0.104 C  
ATOM     20  O   ALA A   1      -5.916  11.166  66.715  1.00  0.00    -0.086 OA 
HETATM   21  C   UNK A   2      -9.259   8.187  67.986  1.00  0.00    -0.137 A  
HETATM   22  C   UNK A   2     -10.495   7.937  68.596  1.00  0.00    -0.196 A  
HETATM   23  N   UNK A   2      -7.716   9.808  66.954  1.00  0.00    -0.098 N  
HETATM   24  C   UNK A   2     -10.736   6.728  69.225  1.00  0.00    -0.253 A  
HETATM   25  C   UNK A   2      -9.072   9.517  67.343  1.00  0.00    -0.130 C  
HETATM   26  O   UNK A   2      -6.810   7.807  64.028  1.00  0.00    -0.059 OA 
HETATM   27  C   UNK A   2      -9.731   5.760  69.272  1.00  0.00    -0.144 A  
HETATM   28  C   UNK A   2      -8.491   6.010  68.649  1.00  0.00    -0.113 A  
HETATM   29  O   UNK A   2      -8.899   8.241  64.723  1.00  0.00    -0.011 OA 
HETATM   30  C   UNK A   2      -7.692   8.247  64.949  1.00  0.00    -0.115 C  
HETATM   31  C   UNK A   2      -8.260   7.214  67.973  1.00  0.00    -0.120 A  
HETATM   32  C   UNK A   2      -7.036   8.687  66.283  1.00  0.00    -0.078 C  
HETATM   33  C   UNK A   2      -6.950   7.504  67.273  1.00  0.00    -0.083 C  
BRANCH  24  34
HETATM   34  O   UNK A   2     -11.944   6.388  69.780  1.00  0.00    -0.257 OA 
HETATM   35  C   UNK A   2     -12.139   6.892  71.086  1.00  0.00    -0.381 C  
ENDBRANCH  24  34
BRANCH  27  36
HETATM   36  O   UNK A   2     -10.059   4.634  69.963  1.00  0.00    -0.238 OA 
HETATM   37  C   UNK A   2      -9.160   4.195  70.963  1.00  0.00    -0.117 C  
ENDBRANCH  27  36
ENDBRANCH  17  19
ENDBRANCH  15  17
ENDBRANCH   6  15
ENDBRANCH   4   6
ENDBRANCH   3   4
ENDBRANCH   2   3
TORSDOF 11
ENDMDL
MODEL      190
REMARK 921   NORMALIZED FREE ENERGY PREDICTED BY IDOCK:   -3.57 KCAL/MOL
REMARK 922        TOTAL FREE ENERGY PREDICTED BY IDOCK:   -7.76 KCAL/MOL
REMARK 923 INTER-LIGAND FREE ENERGY PREDICTED BY IDOCK:   -6.45 KCAL/MOL
REMARK 924 INTRA-LIGAND FREE ENERGY PREDICTED BY IDOCK:   -1.31 KCAL/MOL
REMARK 927      BINDING AFFINITY PREDICTED BY RF-SCORE:    0.00 PKD
ROOT
HETATM    1  C   UNK A   0      -6.875   8.308  71.099  1.00  0.00    -0.052 C  
HETATM    2  C   UNK A   0      -6.116   9.620  71.130  1.00  0.00    -0.060 C  
ENDROOT
BRANCH   2   3
HETATM    3  O   UNK A   0      -6.863  10.598  70.398  1.00  0.00    -0.280 OA 
BRANCH   3   4
HETATM    4  C   UNK A   0      -6.153  11.617  69.834  1.00  0.00    -0.147 C  
HETATM    5  O   UNK A   0      -5.462  12.433  70.436  1.00  0.00    -0.118 OA 
BRANCH   4   6
HETATM    6  C   UNK A   0      -6.296  11.538  68.314  1.00  0.00    -0.046 C  
BRANCH   6   7
HETATM    7  C   UNK A   0      -6.824  12.869  67.774  1.00  0.00    -0.138 C  
BRANCH   7   8
HETATM    8  C   UNK A   0      -8.037  13.546  68.432  1.00  0.00    -0.145 C  
BRANCH   8   9
HETATM    9  C   UNK A   0      -7.880  15.074  68.477  1.00  0.00    -0.137 A  
HETATM   10  C   UNK A   0      -6.937  15.659  69.335  1.00  0.00    -0.196 A  
HETATM   11  C   UNK A   0      -6.698  17.045  69.303  1.00  0.00    -0.234 A  
HETATM   12  C   UNK A   0      -8.597  15.942  67.626  1.00  0.00    -0.172 A  
HETATM   13  C   UNK A   0      -7.390  17.867  68.413  1.00  0.00    -0.259 A  
HETATM   14  C   UNK A   0      -8.349  17.314  67.580  1.00  0.00    -0.209 A  
ENDBRANCH   8   9
ENDBRANCH   7   8
ENDBRANCH   6   7
BRANCH   6  15
ATOM     15  N   ALA A   1      -7.202  10.423  67.941  1.00  0.00    -0.084 NA 
ATOM     16  H   ALA A   1      -7.830  10.036  68.645  1.00  0.00     0.000 HD 
BRANCH  15  17
ATOM     17  CA  ALA A   1      -7.217   9.856  66.561  1.00  0.00    -0.095 C  
ATOM     18  CB  ALA A   1      -6.114  10.214  65.550  1.00  0.00    -0.099 C  
BRANCH  17  19
ATOM     19  C   ALA A   1      -7.678   8.366  66.440  1.00  0.00    -0.094 C  
ATOM     20  O   ALA A   1      -6.968   7.576  65.805  1.00  0.00    -0.058 OA 
HETATM   21  C   UNK A   2     -10.102   8.230  69.184  1.00  0.00    -0.205 A  
HETATM   22  C   UNK A   2     -10.863   9.092  69.984  1.00  0.00    -0.256 A  
HETATM   23  N   UNK A   2      -8.779   7.889  67.132  1.00  0.00    -0.130 N  
HETATM   24  C   UNK A   2     -11.209   8.731  71.274  1.00  0.00    -0.284 A  
HETATM   25  C   UNK A   2      -9.758   8.698  67.813  1.00  0.00    -0.165 C  
HETATM   26  O   UNK A   2     -10.287   4.713  66.117  1.00  0.00    -0.269 OA 
HETATM   27  C   UNK A   2     -10.776   7.507  71.789  1.00  0.00    -0.211 A  
HETATM   28  C   UNK A   2     -10.019   6.637  70.979  1.00  0.00    -0.200 A  
HETATM   29  O   UNK A   2     -11.406   6.580  66.663  1.00  0.00    -0.171 OA 
HETATM   30  C   UNK A   2     -10.351   5.951  66.648  1.00  0.00    -0.226 C  
HETATM   31  C   UNK A   2      -9.706   6.981  69.658  1.00  0.00    -0.157 A  
HETATM   32  C   UNK A   2      -9.013   6.441  67.260  1.00  0.00    -0.107 C  
HETATM   33  C   UNK A   2      -8.916   6.059  68.754  1.00  0.00    -0.118 C  
BRANCH  24  34
HETATM   34  O   UNK A   2     -12.009   9.492  72.088  1.00  0.00    -0.304 OA 
HETATM   35  C   UNK A   2     -13.361   9.546  71.678  1.00  0.00    -0.407 C  
ENDBRANCH  24  34
BRANCH  27  36
HETATM   36  O   UNK A   2     -11.127   7.281  73.085  1.00  0.00    -0.331 OA 
HETATM   37  C   UNK A   2     -10.393   6.307  73.801  1.00  0.00    -0.290 C  
ENDBRANCH  27  36
ENDBRANCH  17  19
ENDBRANCH  15  17
ENDBRANCH   6  15
ENDBRANCH   4   6
ENDBRANCH   3   4
ENDBRANCH   2   3
TORSDOF 11
ENDMDL
MODEL      191
REMARK 921   NORMALIZED FREE ENERGY PREDICTED BY IDOCK:   -3.56 KCAL/MOL
REMARK 922        TOTAL FREE ENERGY PREDICTED BY IDOCK:   -7.76 KCAL/MOL
REMARK 923 INTER-LIGAND FREE ENERGY PREDICTED BY IDOCK:   -7.13 KCAL/MOL
REMARK 924 INTRA-LIGAND FREE ENERGY PREDICTED BY IDOCK:   -0.62 KCAL/MOL
REMARK 927      BINDING AFFINITY PREDICTED BY RF-SCORE:    0.00 PKD
ROOT
HETATM    1  C   UNK A   0      -5.877  13.478  70.010  1.00  0.00    -0.135 C  
HETATM    2  C   UNK A   0      -6.342  13.105  68.616  1.00  0.00    -0.083 C  
ENDROOT
BRANCH   2   3
HETATM    3  O   UNK A   0      -7.750  13.348  68.525  1.00  0.00    -0.131 OA 
BRANCH   3   4
HETATM    4  C   UNK A   0      -8.549  12.261  68.321  1.00  0.00    -0.172 C  
HETATM    5  O   UNK A   0      -9.719  12.151  68.672  1.00  0.00    -0.178 OA 
BRANCH   4   6
HETATM    6  C   UNK A   0      -7.772  11.220  67.514  1.00  0.00    -0.122 C  
BRANCH   6   7
HETATM    7  C   UNK A   0      -8.343  11.133  66.097  1.00  0.00    -0.144 C  
BRANCH   7   8
HETATM    8  C   UNK A   0      -9.846  10.899  65.880  1.00  0.00    -0.285 C  
BRANCH   8   9
HETATM    9  C   UNK A   0     -10.504  12.075  65.142  1.00  0.00    -0.328 A  
HETATM   10  C   UNK A   0     -11.449  11.833  64.134  1.00  0.00    -0.409 A  
HETATM   11  C   UNK A   0     -12.146  12.897  63.532  1.00  0.00    -0.633 A  
HETATM   12  C   UNK A   0     -10.261  13.424  65.483  1.00  0.00    -0.300 A  
HETATM   13  C   UNK A   0     -11.917  14.214  63.928  1.00  0.00    -0.278 A  
HETATM   14  C   UNK A   0     -10.965  14.478  64.899  1.00  0.00    -0.421 A  
ENDBRANCH   8   9
ENDBRANCH   7   8
ENDBRANCH   6   7
BRANCH   6  15
ATOM     15  N   ALA A   1      -7.832   9.899  68.186  1.00  0.00    -0.086 NA 
ATOM     16  H   ALA A   1      -7.127   9.664  68.885  1.00  0.00     0.000 HD 
BRANCH  15  17
ATOM     17  CA  ALA A   1      -8.899   8.906  67.866  1.00  0.00    -0.133 C  
ATOM     18  CB  ALA A   1      -8.547   7.549  67.231  1.00  0.00    -0.118 C  
BRANCH  17  19
ATOM     19  C   ALA A   1     -10.065   8.797  68.902  1.00  0.00    -0.198 C  
ATOM     20  O   ALA A   1     -11.157   9.307  68.620  1.00  0.00    -0.054 OA 
HETATM   21  C   UNK A   2      -8.810   6.054  70.982  1.00  0.00    -0.139 A  
HETATM   22  C   UNK A   2      -7.609   5.392  71.269  1.00  0.00    -0.101 A  
HETATM   23  N   UNK A   2      -9.944   8.035  70.053  1.00  0.00    -0.189 N  
HETATM   24  C   UNK A   2      -7.615   4.060  71.645  1.00  0.00    -0.064 A  
HETATM   25  C   UNK A   2      -8.718   7.482  70.569  1.00  0.00    -0.146 C  
HETATM   26  O   UNK A   2     -12.318   8.549  72.790  1.00  0.00    -0.327 OA 
HETATM   27  C   UNK A   2      -8.825   3.367  71.717  1.00  0.00    -0.091 A  
HETATM   28  C   UNK A   2     -10.032   4.038  71.436  1.00  0.00    -0.210 A  
HETATM   29  O   UNK A   2     -10.100   8.289  73.011  1.00  0.00    -0.271 OA 
HETATM   30  C   UNK A   2     -11.104   8.213  72.308  1.00  0.00    -0.344 C  
HETATM   31  C   UNK A   2     -10.033   5.397  71.099  1.00  0.00    -0.257 A  
HETATM   32  C   UNK A   2     -11.134   7.688  70.849  1.00  0.00    -0.263 C  
HETATM   33  C   UNK A   2     -11.313   6.154  70.817  1.00  0.00    -0.364 C  
BRANCH  24  34
HETATM   34  O   UNK A   2      -6.487   3.368  72.009  1.00  0.00    -0.014 OA 
HETATM   35  C   UNK A   2      -5.510   3.285  70.991  1.00  0.00    -0.008 C  
ENDBRANCH  24  34
BRANCH  27  36
HETATM   36  O   UNK A   2      -8.706   2.050  72.042  1.00  0.00    -0.066 OA 
HETATM   37  C   UNK A   2      -9.508   1.562  73.100  1.00  0.00    -0.072 C  
ENDBRANCH  27  36
ENDBRANCH  17  19
ENDBRANCH  15  17
ENDBRANCH   6  15
ENDBRANCH   4   6
ENDBRANCH   3   4
ENDBRANCH   2   3
TORSDOF 11
ENDMDL
MODEL      192
REMARK 921   NORMALIZED FREE ENERGY PREDICTED BY IDOCK:   -3.55 KCAL/MOL
REMARK 922        TOTAL FREE ENERGY PREDICTED BY IDOCK:   -7.74 KCAL/MOL
REMARK 923 INTER-LIGAND FREE ENERGY PREDICTED BY IDOCK:   -6.16 KCAL/MOL
REMARK 924 INTRA-LIGAND FREE ENERGY PREDICTED BY IDOCK:   -1.58 KCAL/MOL
REMARK 927      BINDING AFFINITY PREDICTED BY RF-SCORE:    0.00 PKD
ROOT
HETATM    1  C   UNK A   0      -8.194   3.229  71.160  1.00  0.00    -0.076 C  
HETATM    2  C   UNK A   0      -7.066   3.559  70.202  1.00  0.00    -0.041 C  
ENDROOT
BRANCH   2   3
HETATM    3  O   UNK A   0      -7.564   4.449  69.197  1.00  0.00    -0.055 OA 
BRANCH   3   4
HETATM    4  C   UNK A   0      -6.803   5.545  68.915  1.00  0.00    -0.055 C  
HETATM    5  O   UNK A   0      -5.577   5.576  68.858  1.00  0.00    -0.009 OA 
BRANCH   4   6
HETATM    6  C   UNK A   0      -7.727   6.722  68.603  1.00  0.00    -0.113 C  
BRANCH   6   7
HETATM    7  C   UNK A   0      -7.757   7.685  69.792  1.00  0.00    -0.098 C  
BRANCH   7   8
HETATM    8  C   UNK A   0      -7.552   7.159  71.221  1.00  0.00    -0.081 C  
BRANCH   8   9
HETATM    9  C   UNK A   0      -8.881   7.058  71.986  1.00  0.00    -0.133 A  
HETATM   10  C   UNK A   0      -9.022   6.136  73.034  1.00  0.00    -0.131 A  
HETATM   11  C   UNK A   0     -10.189   6.112  73.818  1.00  0.00    -0.268 A  
HETATM   12  C   UNK A   0      -9.973   7.917  71.737  1.00  0.00    -0.228 A  
HETATM   13  C   UNK A   0     -11.229   7.009  73.577  1.00  0.00     0.142 A  
HETATM   14  C   UNK A   0     -11.124   7.907  72.527  1.00  0.00    -0.423 A  
ENDBRANCH   8   9
ENDBRANCH   7   8
ENDBRANCH   6   7
BRANCH   6  15
ATOM     15  N   ALA A   1      -9.093   6.234  68.289  1.00  0.00    -0.115 NA 
ATOM     16  H   ALA A   1      -9.533   5.555  68.910  1.00  0.00     0.000 HD 
BRANCH  15  17
ATOM     17  CA  ALA A   1      -9.838   6.712  67.088  1.00  0.00    -0.151 C  
ATOM     18  CB  ALA A   1     -11.196   7.420  67.235  1.00  0.00     0.160 C  
BRANCH  17  19
ATOM     19  C   ALA A   1      -8.967   7.320  65.941  1.00  0.00    -0.068 C  
ATOM     20  O   ALA A   1      -8.520   6.561  65.071  1.00  0.00    -0.111 OA 
HETATM   21  C   UNK A   2      -9.902  10.850  66.239  1.00  0.00    -0.261 A  
HETATM   22  C   UNK A   2     -10.481  11.729  67.162  1.00  0.00    -0.250 A  
HETATM   23  N   UNK A   2      -8.800   8.689  65.803  1.00  0.00    -0.183 N  
HETATM   24  C   UNK A   2     -11.199  12.830  66.729  1.00  0.00    -0.295 A  
HETATM   25  C   UNK A   2      -9.159   9.681  66.784  1.00  0.00    -0.146 C  
HETATM   26  O   UNK A   2      -6.088   9.953  63.697  1.00  0.00    -0.107 OA 
HETATM   27  C   UNK A   2     -11.365  13.052  65.360  1.00  0.00    -0.297 A  
HETATM   28  C   UNK A   2     -10.773  12.171  64.432  1.00  0.00    -0.366 A  
HETATM   29  O   UNK A   2      -6.663  10.752  65.714  1.00  0.00    -0.118 OA 
HETATM   30  C   UNK A   2      -6.934  10.050  64.744  1.00  0.00    -0.137 C  
HETATM   31  C   UNK A   2     -10.009  11.082  64.869  1.00  0.00    -0.343 A  
HETATM   32  C   UNK A   2      -8.252   9.254  64.559  1.00  0.00    -0.151 C  
HETATM   33  C   UNK A   2      -9.339  10.132  63.900  1.00  0.00    -0.336 C  
BRANCH  24  34
HETATM   34  O   UNK A   2     -11.733  13.771  67.574  1.00  0.00    -0.332 OA 
HETATM   35  C   UNK A   2     -10.773  14.446  68.363  1.00  0.00    -0.245 C  
ENDBRANCH  24  34
BRANCH  27  36
HETATM   36  O   UNK A   2     -12.135  14.132  65.050  1.00  0.00    -0.382 OA 
HETATM   37  C   UNK A   2     -11.473  15.303  64.613  1.00  0.00    -0.354 C  
ENDBRANCH  27  36
ENDBRANCH  17  19
ENDBRANCH  15  17
ENDBRANCH   6  15
ENDBRANCH   4   6
ENDBRANCH   3   4
ENDBRANCH   2   3
TORSDOF 11
ENDMDL
MODEL      193
REMARK 921   NORMALIZED FREE ENERGY PREDICTED BY IDOCK:   -3.54 KCAL/MOL
REMARK 922        TOTAL FREE ENERGY PREDICTED BY IDOCK:   -7.73 KCAL/MOL
REMARK 923 INTER-LIGAND FREE ENERGY PREDICTED BY IDOCK:   -6.64 KCAL/MOL
REMARK 924 INTRA-LIGAND FREE ENERGY PREDICTED BY IDOCK:   -1.09 KCAL/MOL
REMARK 927      BINDING AFFINITY PREDICTED BY RF-SCORE:    0.00 PKD
ROOT
HETATM    1  C   UNK A   0      -7.869   7.586  69.389  1.00  0.00    -0.121 C  
HETATM    2  C   UNK A   0      -8.740   8.798  69.652  1.00  0.00    -0.136 C  
ENDROOT
BRANCH   2   3
HETATM    3  O   UNK A   0      -9.078   9.400  68.398  1.00  0.00    -0.128 OA 
BRANCH   3   4
HETATM    4  C   UNK A   0     -10.261  10.076  68.339  1.00  0.00    -0.172 C  
HETATM    5  O   UNK A   0     -10.837  10.604  69.286  1.00  0.00    -0.208 OA 
BRANCH   4   6
HETATM    6  C   UNK A   0     -10.724  10.137  66.884  1.00  0.00    -0.161 C  
BRANCH   6   7
HETATM    7  C   UNK A   0      -9.528  10.420  65.972  1.00  0.00    -0.232 C  
BRANCH   7   8
HETATM    8  C   UNK A   0      -9.147   9.428  64.862  1.00  0.00    -0.258 C  
BRANCH   8   9
HETATM    9  C   UNK A   0      -8.666   8.087  65.439  1.00  0.00    -0.101 A  
HETATM   10  C   UNK A   0      -9.518   7.324  66.251  1.00  0.00    -0.133 A  
HETATM   11  C   UNK A   0      -9.138   6.043  66.689  1.00  0.00    -0.142 A  
HETATM   12  C   UNK A   0      -7.408   7.528  65.128  1.00  0.00    -0.073 A  
HETATM   13  C   UNK A   0      -7.907   5.500  66.321  1.00  0.00    -0.100 A  
HETATM   14  C   UNK A   0      -7.036   6.250  65.547  1.00  0.00    -0.068 A  
ENDBRANCH   8   9
ENDBRANCH   7   8
ENDBRANCH   6   7
BRANCH   6  15
ATOM     15  N   ALA A   1     -11.768  11.179  66.719  1.00  0.00    -0.247 NA 
ATOM     16  H   ALA A   1     -12.517  11.245  67.407  1.00  0.00     0.000 HD 
BRANCH  15  17
ATOM     17  CA  ALA A   1     -11.747  12.133  65.572  1.00  0.00    -0.324 C  
ATOM     18  CB  ALA A   1     -12.480  11.804  64.261  1.00  0.00    -0.154 C  
BRANCH  17  19
ATOM     19  C   ALA A   1     -11.836  13.650  65.943  1.00  0.00    -0.378 C  
ATOM     20  O   ALA A   1     -12.952  14.182  65.995  1.00  0.00    -0.357 OA 
HETATM   21  C   UNK A   2      -8.533  14.127  67.454  1.00  0.00    -0.214 A  
HETATM   22  C   UNK A   2      -7.275  13.513  67.493  1.00  0.00    -0.165 A  
HETATM   23  N   UNK A   2     -10.719  14.367  66.343  1.00  0.00    -0.301 N  
HETATM   24  C   UNK A   2      -6.462  13.646  68.605  1.00  0.00    -0.094 A  
HETATM   25  C   UNK A   2      -9.353  13.924  66.229  1.00  0.00    -0.156 C  
HETATM   26  O   UNK A   2     -10.843  18.023  66.319  1.00  0.00    -0.189 OA 
HETATM   27  C   UNK A   2      -6.911  14.379  69.706  1.00  0.00    -0.095 A  
HETATM   28  C   UNK A   2      -8.173  15.005  69.661  1.00  0.00    -0.029 A  
HETATM   29  O   UNK A   2      -9.132  16.765  65.594  1.00  0.00    -0.489 OA 
HETATM   30  C   UNK A   2     -10.188  16.849  66.215  1.00  0.00    -0.329 C  
HETATM   31  C   UNK A   2      -8.978  14.909  68.519  1.00  0.00    -0.179 A  
HETATM   32  C   UNK A   2     -10.866  15.685  66.983  1.00  0.00    -0.294 C  
HETATM   33  C   UNK A   2     -10.327  15.589  68.428  1.00  0.00    -0.230 C  
BRANCH  24  34
HETATM   34  O   UNK A   2      -5.192  13.132  68.685  1.00  0.00    -0.064 OA 
HETATM   35  C   UNK A   2      -5.145  11.772  69.070  1.00  0.00    -0.047 C  
ENDBRANCH  24  34
BRANCH  27  36
HETATM   36  O   UNK A   2      -6.054  14.396  70.764  1.00  0.00    -0.194 OA 
HETATM   37  C   UNK A   2      -5.331  15.588  71.001  1.00  0.00    -0.077 C  
ENDBRANCH  27  36
ENDBRANCH  17  19
ENDBRANCH  15  17
ENDBRANCH   6  15
ENDBRANCH   4   6
ENDBRANCH   3   4
ENDBRANCH   2   3
TORSDOF 11
ENDMDL
MODEL      194
REMARK 921   NORMALIZED FREE ENERGY PREDICTED BY IDOCK:   -3.49 KCAL/MOL
REMARK 922        TOTAL FREE ENERGY PREDICTED BY IDOCK:   -7.63 KCAL/MOL
REMARK 923 INTER-LIGAND FREE ENERGY PREDICTED BY IDOCK:   -5.10 KCAL/MOL
REMARK 924 INTRA-LIGAND FREE ENERGY PREDICTED BY IDOCK:   -2.53 KCAL/MOL
REMARK 927      BINDING AFFINITY PREDICTED BY RF-SCORE:    0.00 PKD
ROOT
HETATM    1  C   UNK A   0      -5.277   9.175  70.419  1.00  0.00    -0.027 C  
HETATM    2  C   UNK A   0      -5.143   9.783  69.036  1.00  0.00    -0.036 C  
ENDROOT
BRANCH   2   3
HETATM    3  O   UNK A   0      -5.426   8.772  68.064  1.00  0.00    -0.034 OA 
BRANCH   3   4
HETATM    4  C   UNK A   0      -6.147   9.156  66.971  1.00  0.00    -0.057 C  
HETATM    5  O   UNK A   0      -6.539  10.293  66.729  1.00  0.00    -0.069 OA 
BRANCH   4   6
HETATM    6  C   UNK A   0      -6.329   7.949  66.050  1.00  0.00    -0.045 C  
BRANCH   6   7
HETATM    7  C   UNK A   0      -7.514   8.189  65.111  1.00  0.00    -0.081 C  
BRANCH   7   8
HETATM    8  C   UNK A   0      -7.437   7.753  63.639  1.00  0.00    -0.108 C  
BRANCH   8   9
HETATM    9  C   UNK A   0      -7.178   6.244  63.506  1.00  0.00    -0.058 A  
HETATM   10  C   UNK A   0      -5.947   5.783  63.017  1.00  0.00    -0.021 A  
HETATM   11  C   UNK A   0      -5.651   4.408  62.999  1.00  0.00    -0.013 A  
HETATM   12  C   UNK A   0      -8.106   5.268  63.931  1.00  0.00    -0.117 A  
HETATM   13  C   UNK A   0      -6.571   3.474  63.473  1.00  0.00    -0.034 A  
HETATM   14  C   UNK A   0      -7.805   3.906  63.930  1.00  0.00    -0.084 A  
ENDBRANCH   8   9
ENDBRANCH   7   8
ENDBRANCH   6   7
BRANCH   6  15
ATOM     15  N   ALA A   1      -6.536   6.717  66.851  1.00  0.00    -0.043 NA 
ATOM     16  H   ALA A   1      -5.747   6.092  67.014  1.00  0.00     0.000 HD 
BRANCH  15  17
ATOM     17  CA  ALA A   1      -7.870   6.370  67.422  1.00  0.00    -0.105 C  
ATOM     18  CB  ALA A   1      -8.437   4.946  67.290  1.00  0.00    -0.105 C  
BRANCH  17  19
ATOM     19  C   ALA A   1      -8.215   7.026  68.800  1.00  0.00    -0.122 C  
ATOM     20  O   ALA A   1      -7.592   6.659  69.803  1.00  0.00    -0.099 OA 
HETATM   21  C   UNK A   2      -9.972  10.028  67.647  1.00  0.00    -0.214 A  
HETATM   22  C   UNK A   2     -10.615  10.519  66.503  1.00  0.00    -0.240 A  
HETATM   23  N   UNK A   2      -9.096   8.092  68.895  1.00  0.00    -0.145 N  
HETATM   24  C   UNK A   2     -10.643  11.877  66.242  1.00  0.00    -0.253 A  
HETATM   25  C   UNK A   2      -9.972   8.553  67.849  1.00  0.00    -0.181 C  
HETATM   26  O   UNK A   2     -10.504   8.955  72.160  1.00  0.00    -0.336 OA 
HETATM   27  C   UNK A   2     -10.005  12.762  67.113  1.00  0.00    -0.218 A  
HETATM   28  C   UNK A   2      -9.366  12.267  68.269  1.00  0.00    -0.199 A  
HETATM   29  O   UNK A   2     -11.638   8.867  70.226  1.00  0.00    -0.178 OA 
HETATM   30  C   UNK A   2     -10.561   8.886  70.814  1.00  0.00    -0.226 C  
HETATM   31  C   UNK A   2      -9.376  10.897  68.559  1.00  0.00    -0.181 A  
HETATM   32  C   UNK A   2      -9.170   8.893  70.129  1.00  0.00    -0.180 C  
HETATM   33  C   UNK A   2      -8.722  10.335  69.802  1.00  0.00    -0.069 C  
BRANCH  24  34
HETATM   34  O   UNK A   2     -11.313  12.434  65.182  1.00  0.00    -0.305 OA 
HETATM   35  C   UNK A   2     -10.686  12.226  63.932  1.00  0.00    -0.420 C  
ENDBRANCH  24  34
BRANCH  27  36
HETATM   36  O   UNK A   2     -10.048  14.068  66.729  1.00  0.00    -0.254 OA 
HETATM   37  C   UNK A   2     -10.323  15.034  67.724  1.00  0.00    -0.245 C  
ENDBRANCH  27  36
ENDBRANCH  17  19
ENDBRANCH  15  17
ENDBRANCH   6  15
ENDBRANCH   4   6
ENDBRANCH   3   4
ENDBRANCH   2   3
TORSDOF 11
ENDMDL
MODEL      195
REMARK 921   NORMALIZED FREE ENERGY PREDICTED BY IDOCK:   -3.48 KCAL/MOL
REMARK 922        TOTAL FREE ENERGY PREDICTED BY IDOCK:   -7.62 KCAL/MOL
REMARK 923 INTER-LIGAND FREE ENERGY PREDICTED BY IDOCK:   -6.43 KCAL/MOL
REMARK 924 INTRA-LIGAND FREE ENERGY PREDICTED BY IDOCK:   -1.19 KCAL/MOL
REMARK 927      BINDING AFFINITY PREDICTED BY RF-SCORE:    0.00 PKD
ROOT
HETATM    1  C   UNK A   0      -8.675   1.800  63.682  1.00  0.00    -0.087 C  
HETATM    2  C   UNK A   0      -8.288   2.685  64.852  1.00  0.00    -0.089 C  
ENDROOT
BRANCH   2   3
HETATM    3  O   UNK A   0      -8.851   3.985  64.648  1.00  0.00    -0.121 OA 
BRANCH   3   4
HETATM    4  C   UNK A   0      -9.394   4.597  65.739  1.00  0.00    -0.158 C  
HETATM    5  O   UNK A   0     -10.559   4.504  66.112  1.00  0.00    -0.254 OA 
BRANCH   4   6
HETATM    6  C   UNK A   0      -8.295   5.366  66.472  1.00  0.00    -0.109 C  
BRANCH   6   7
HETATM    7  C   UNK A   0      -8.380   5.083  67.974  1.00  0.00    -0.100 C  
BRANCH   7   8
HETATM    8  C   UNK A   0      -8.149   3.661  68.509  1.00  0.00    -0.076 C  
BRANCH   8   9
HETATM    9  C   UNK A   0      -8.695   3.494  69.936  1.00  0.00    -0.132 A  
HETATM   10  C   UNK A   0      -8.778   4.603  70.791  1.00  0.00    -0.133 A  
HETATM   11  C   UNK A   0      -9.383   4.492  72.056  1.00  0.00    -0.184 A  
HETATM   12  C   UNK A   0      -9.203   2.270  70.423  1.00  0.00    -0.189 A  
HETATM   13  C   UNK A   0      -9.920   3.278  72.485  1.00  0.00    -0.227 A  
HETATM   14  C   UNK A   0      -9.820   2.163  71.670  1.00  0.00    -0.217 A  
ENDBRANCH   8   9
ENDBRANCH   7   8
ENDBRANCH   6   7
BRANCH   6  15
ATOM     15  N   ALA A   1      -8.419   6.821  66.205  1.00  0.00    -0.125 NA 
ATOM     16  H   ALA A   1      -9.113   7.145  65.532  1.00  0.00     0.000 HD 
BRANCH  15  17
ATOM     17  CA  ALA A   1      -7.554   7.820  66.897  1.00  0.00    -0.099 C  
ATOM     18  CB  ALA A   1      -6.608   8.731  66.096  1.00  0.00    -0.065 C  
BRANCH  17  19
ATOM     19  C   ALA A   1      -8.198   8.553  68.119  1.00  0.00    -0.120 C  
ATOM     20  O   ALA A   1      -7.741   8.336  69.248  1.00  0.00    -0.098 OA 
HETATM   21  C   UNK A   2      -9.959  11.254  66.380  1.00  0.00    -0.252 A  
HETATM   22  C   UNK A   2     -10.421  11.579  65.098  1.00  0.00    -0.340 A  
HETATM   23  N   UNK A   2      -9.168   9.529  67.951  1.00  0.00    -0.126 N  
HETATM   24  C   UNK A   2     -10.514  12.901  64.699  1.00  0.00    -0.363 A  
HETATM   25  C   UNK A   2      -9.873   9.809  66.727  1.00  0.00    -0.208 C  
HETATM   26  O   UNK A   2     -11.216  10.520  70.816  1.00  0.00    -0.300 OA 
HETATM   27  C   UNK A   2     -10.122  13.916  65.574  1.00  0.00    -0.298 A  
HETATM   28  C   UNK A   2      -9.667  13.587  66.867  1.00  0.00    -0.261 A  
HETATM   29  O   UNK A   2     -11.966  10.154  68.733  1.00  0.00    -0.016 OA 
HETATM   30  C   UNK A   2     -11.020  10.332  69.495  1.00  0.00    -0.258 C  
HETATM   31  C   UNK A   2      -9.615  12.253  67.289  1.00  0.00    -0.187 A  
HETATM   32  C   UNK A   2      -9.533  10.420  69.065  1.00  0.00    -0.197 C  
HETATM   33  C   UNK A   2      -9.154  11.867  68.677  1.00  0.00    -0.047 C  
BRANCH  24  34
HETATM   34  O   UNK A   2     -11.023  13.296  63.488  1.00  0.00    -0.095 OA 
HETATM   35  C   UNK A   2     -12.424  13.145  63.375  1.00  0.00    -0.242 C  
ENDBRANCH  24  34
BRANCH  27  36
HETATM   36  O   UNK A   2     -10.203  15.174  65.058  1.00  0.00    -0.364 OA 
HETATM   37  C   UNK A   2     -10.552  16.223  65.940  1.00  0.00    -0.297 C  
ENDBRANCH  27  36
ENDBRANCH  17  19
ENDBRANCH  15  17
ENDBRANCH   6  15
ENDBRANCH   4   6
ENDBRANCH   3   4
ENDBRANCH   2   3
TORSDOF 11
ENDMDL
MODEL      196
REMARK 921   NORMALIZED FREE ENERGY PREDICTED BY IDOCK:   -3.44 KCAL/MOL
REMARK 922        TOTAL FREE ENERGY PREDICTED BY IDOCK:   -7.56 KCAL/MOL
REMARK 923 INTER-LIGAND FREE ENERGY PREDICTED BY IDOCK:   -5.81 KCAL/MOL
REMARK 924 INTRA-LIGAND FREE ENERGY PREDICTED BY IDOCK:   -1.75 KCAL/MOL
REMARK 927      BINDING AFFINITY PREDICTED BY RF-SCORE:    0.00 PKD
ROOT
HETATM    1  C   UNK A   0      -6.892   3.352  63.636  1.00  0.00    -0.043 C  
HETATM    2  C   UNK A   0      -7.741   3.563  64.875  1.00  0.00    -0.078 C  
ENDROOT
BRANCH   2   3
HETATM    3  O   UNK A   0      -8.852   4.396  64.530  1.00  0.00    -0.136 OA 
BRANCH   3   4
HETATM    4  C   UNK A   0      -9.810   4.570  65.486  1.00  0.00    -0.208 C  
HETATM    5  O   UNK A   0     -11.023   4.531  65.306  1.00  0.00    -0.252 OA 
BRANCH   4   6
HETATM    6  C   UNK A   0      -9.128   4.748  66.842  1.00  0.00    -0.117 C  
BRANCH   6   7
HETATM    7  C   UNK A   0     -10.094   4.356  67.962  1.00  0.00     0.002 C  
BRANCH   7   8
HETATM    8  C   UNK A   0      -9.605   4.280  69.417  1.00  0.00    -0.267 C  
BRANCH   8   9
HETATM    9  C   UNK A   0     -10.443   5.172  70.346  1.00  0.00    -0.287 A  
HETATM   10  C   UNK A   0     -10.274   5.096  71.737  1.00  0.00    -0.271 A  
HETATM   11  C   UNK A   0     -10.946   5.986  72.593  1.00  0.00    -0.301 A  
HETATM   12  C   UNK A   0     -11.345   6.145  69.863  1.00  0.00    -0.454 A  
HETATM   13  C   UNK A   0     -11.791   6.969  72.078  1.00  0.00    -0.336 A  
HETATM   14  C   UNK A   0     -11.998   7.041  70.711  1.00  0.00    -0.392 A  
ENDBRANCH   8   9
ENDBRANCH   7   8
ENDBRANCH   6   7
BRANCH   6  15
ATOM     15  N   ALA A   1      -8.673   6.151  67.009  1.00  0.00    -0.107 NA 
ATOM     16  H   ALA A   1      -9.330   6.910  66.832  1.00  0.00     0.000 HD 
BRANCH  15  17
ATOM     17  CA  ALA A   1      -7.279   6.477  67.429  1.00  0.00    -0.085 C  
ATOM     18  CB  ALA A   1      -6.376   7.356  66.546  1.00  0.00    -0.045 C  
BRANCH  17  19
ATOM     19  C   ALA A   1      -7.071   6.749  68.955  1.00  0.00    -0.089 C  
ATOM     20  O   ALA A   1      -6.463   5.908  69.628  1.00  0.00    -0.038 OA 
HETATM   21  C   UNK A   2      -7.699  10.357  69.047  1.00  0.00    -0.116 A  
HETATM   22  C   UNK A   2      -8.304  11.358  68.276  1.00  0.00    -0.152 A  
HETATM   23  N   UNK A   2      -7.429   7.956  69.533  1.00  0.00    -0.091 N  
HETATM   24  C   UNK A   2      -7.847  12.663  68.337  1.00  0.00    -0.136 A  
HETATM   25  C   UNK A   2      -8.237   8.976  68.914  1.00  0.00    -0.120 C  
HETATM   26  O   UNK A   2      -7.738   8.170  73.172  1.00  0.00    -0.142 OA 
HETATM   27  C   UNK A   2      -6.761  12.978  69.155  1.00  0.00    -0.087 A  
HETATM   28  C   UNK A   2      -6.159  11.971  69.937  1.00  0.00    -0.150 A  
HETATM   29  O   UNK A   2      -9.162   9.057  71.682  1.00  0.00    -0.288 OA 
HETATM   30  C   UNK A   2      -8.072   8.544  71.920  1.00  0.00    -0.130 C  
HETATM   31  C   UNK A   2      -6.648  10.659  69.912  1.00  0.00    -0.137 A  
HETATM   32  C   UNK A   2      -6.948   8.314  70.878  1.00  0.00    -0.045 C  
HETATM   33  C   UNK A   2      -6.042   9.560  70.757  1.00  0.00    -0.073 C  
BRANCH  24  34
HETATM   34  O   UNK A   2      -8.435  13.706  67.666  1.00  0.00    -0.158 OA 
HETATM   35  C   UNK A   2      -9.789  13.922  68.011  1.00  0.00    -0.234 C  
ENDBRANCH  24  34
BRANCH  27  36
HETATM   36  O   UNK A   2      -6.362  14.279  69.094  1.00  0.00    -0.093 OA 
HETATM   37  C   UNK A   2      -5.870  14.869  70.281  1.00  0.00    -0.149 C  
ENDBRANCH  27  36
ENDBRANCH  17  19
ENDBRANCH  15  17
ENDBRANCH   6  15
ENDBRANCH   4   6
ENDBRANCH   3   4
ENDBRANCH   2   3
TORSDOF 11
ENDMDL
MODEL      197
REMARK 921   NORMALIZED FREE ENERGY PREDICTED BY IDOCK:   -3.40 KCAL/MOL
REMARK 922        TOTAL FREE ENERGY PREDICTED BY IDOCK:   -7.48 KCAL/MOL
REMARK 923 INTER-LIGAND FREE ENERGY PREDICTED BY IDOCK:   -5.97 KCAL/MOL
REMARK 924 INTRA-LIGAND FREE ENERGY PREDICTED BY IDOCK:   -1.51 KCAL/MOL
REMARK 927      BINDING AFFINITY PREDICTED BY RF-SCORE:    0.00 PKD
ROOT
HETATM    1  C   UNK A   0      -7.193   8.238  63.433  1.00  0.00    -0.093 C  
HETATM    2  C   UNK A   0      -8.298   8.178  64.469  1.00  0.00    -0.058 C  
ENDROOT
BRANCH   2   3
HETATM    3  O   UNK A   0      -8.189   6.942  65.183  1.00  0.00    -0.134 OA 
BRANCH   3   4
HETATM    4  C   UNK A   0      -8.977   6.798  66.287  1.00  0.00    -0.152 C  
HETATM    5  O   UNK A   0     -10.192   6.964  66.331  1.00  0.00    -0.093 OA 
BRANCH   4   6
HETATM    6  C   UNK A   0      -8.111   6.321  67.453  1.00  0.00    -0.109 C  
BRANCH   6   7
HETATM    7  C   UNK A   0      -8.207   4.799  67.579  1.00  0.00    -0.105 C  
BRANCH   7   8
HETATM    8  C   UNK A   0      -7.281   3.892  66.753  1.00  0.00    -0.068 C  
BRANCH   8   9
HETATM    9  C   UNK A   0      -7.918   3.501  65.410  1.00  0.00    -0.090 A  
HETATM   10  C   UNK A   0      -7.108   3.261  64.290  1.00  0.00    -0.057 A  
HETATM   11  C   UNK A   0      -7.664   2.789  63.088  1.00  0.00    -0.063 A  
HETATM   12  C   UNK A   0      -9.305   3.290  65.254  1.00  0.00    -0.146 A  
HETATM   13  C   UNK A   0      -9.034   2.543  62.984  1.00  0.00    -0.088 A  
HETATM   14  C   UNK A   0      -9.856   2.805  64.068  1.00  0.00    -0.152 A  
ENDBRANCH   8   9
ENDBRANCH   7   8
ENDBRANCH   6   7
BRANCH   6  15
ATOM     15  N   ALA A   1      -8.538   6.979  68.713  1.00  0.00    -0.125 NA 
ATOM     16  H   ALA A   1      -9.251   6.533  69.290  1.00  0.00     0.000 HD 
BRANCH  15  17
ATOM     17  CA  ALA A   1      -7.951   8.277  69.156  1.00  0.00    -0.112 C  
ATOM     18  CB  ALA A   1      -6.938   9.025  68.272  1.00  0.00    -0.076 C  
BRANCH  17  19
ATOM     19  C   ALA A   1      -8.922   9.246  69.906  1.00  0.00    -0.183 C  
ATOM     20  O   ALA A   1      -8.765   9.418  71.122  1.00  0.00    -0.284 OA 
HETATM   21  C   UNK A   2     -10.285  11.105  67.058  1.00  0.00    -0.251 A  
HETATM   22  C   UNK A   2     -10.412  10.991  65.668  1.00  0.00    -0.293 A  
HETATM   23  N   UNK A   2      -9.856  10.009  69.224  1.00  0.00    -0.202 N  
HETATM   24  C   UNK A   2     -10.455  12.122  64.872  1.00  0.00    -0.288 A  
HETATM   25  C   UNK A   2     -10.230   9.841  67.843  1.00  0.00    -0.194 C  
HETATM   26  O   UNK A   2     -12.620  11.527  71.081  1.00  0.00    -0.389 OA 
HETATM   27  C   UNK A   2     -10.349  13.385  65.459  1.00  0.00    -0.295 A  
HETATM   28  C   UNK A   2     -10.231  13.497  66.860  1.00  0.00    -0.256 A  
HETATM   29  O   UNK A   2     -12.786  10.492  69.096  1.00  0.00    -0.075 OA 
HETATM   30  C   UNK A   2     -12.079  10.993  69.966  1.00  0.00    -0.364 C  
HETATM   31  C   UNK A   2     -10.233  12.355  67.671  1.00  0.00    -0.210 A  
HETATM   32  C   UNK A   2     -10.536  11.132  69.892  1.00  0.00     0.206 C  
HETATM   33  C   UNK A   2     -10.133  12.442  69.178  1.00  0.00     0.276 C  
BRANCH  24  34
HETATM   34  O   UNK A   2     -10.648  12.089  63.514  1.00  0.00    -0.401 OA 
HETATM   35  C   UNK A   2      -9.800  11.187  62.834  1.00  0.00    -0.289 C  
ENDBRANCH  24  34
BRANCH  27  36
HETATM   36  O   UNK A   2     -10.347  14.422  64.577  1.00  0.00    -0.314 OA 
HETATM   37  C   UNK A   2     -10.850  15.665  65.027  1.00  0.00    -0.450 C  
ENDBRANCH  27  36
ENDBRANCH  17  19
ENDBRANCH  15  17
ENDBRANCH   6  15
ENDBRANCH   4   6
ENDBRANCH   3   4
ENDBRANCH   2   3
TORSDOF 11
ENDMDL
MODEL      198
REMARK 921   NORMALIZED FREE ENERGY PREDICTED BY IDOCK:   -3.36 KCAL/MOL
REMARK 922        TOTAL FREE ENERGY PREDICTED BY IDOCK:   -7.43 KCAL/MOL
REMARK 923 INTER-LIGAND FREE ENERGY PREDICTED BY IDOCK:   -6.27 KCAL/MOL
REMARK 924 INTRA-LIGAND FREE ENERGY PREDICTED BY IDOCK:   -1.16 KCAL/MOL
REMARK 927      BINDING AFFINITY PREDICTED BY RF-SCORE:    0.00 PKD
ROOT
HETATM    1  C   UNK A   0      -7.562  11.396  67.107  1.00  0.00    -0.145 C  
HETATM    2  C   UNK A   0      -7.856  11.477  68.593  1.00  0.00    -0.137 C  
ENDROOT
BRANCH   2   3
HETATM    3  O   UNK A   0      -6.787  10.846  69.305  1.00  0.00    -0.081 OA 
BRANCH   3   4
HETATM    4  C   UNK A   0      -6.210   9.761  68.713  1.00  0.00    -0.042 C  
HETATM    5  O   UNK A   0      -5.324   9.789  67.865  1.00  0.00    -0.039 OA 
BRANCH   4   6
HETATM    6  C   UNK A   0      -6.796   8.491  69.331  1.00  0.00    -0.046 C  
BRANCH   6   7
HETATM    7  C   UNK A   0      -6.988   7.429  68.246  1.00  0.00    -0.079 C  
BRANCH   7   8
HETATM    8  C   UNK A   0      -8.310   7.348  67.466  1.00  0.00    -0.113 C  
BRANCH   8   9
HETATM    9  C   UNK A   0      -8.732   5.892  67.211  1.00  0.00    -0.108 A  
HETATM   10  C   UNK A   0      -9.227   5.513  65.955  1.00  0.00    -0.168 A  
HETATM   11  C   UNK A   0      -9.507   4.164  65.671  1.00  0.00    -0.177 A  
HETATM   12  C   UNK A   0      -8.574   4.872  68.174  1.00  0.00    -0.104 A  
HETATM   13  C   UNK A   0      -9.292   3.174  66.629  1.00  0.00    -0.131 A  
HETATM   14  C   UNK A   0      -8.834   3.531  67.886  1.00  0.00    -0.147 A  
ENDBRANCH   8   9
ENDBRANCH   7   8
ENDBRANCH   6   7
BRANCH   6  15
ATOM     15  N   ALA A   1      -8.084   8.793  70.004  1.00  0.00    -0.104 NA 
ATOM     16  H   ALA A   1      -8.489   9.723  69.905  1.00  0.00     0.000 HD 
BRANCH  15  17
ATOM     17  CA  ALA A   1      -8.800   7.769  70.819  1.00  0.00    -0.139 C  
ATOM     18  CB  ALA A   1      -8.021   6.677  71.572  1.00  0.00    -0.103 C  
BRANCH  17  19
ATOM     19  C   ALA A   1     -10.040   8.281  71.623  1.00  0.00    -0.215 C  
ATOM     20  O   ALA A   1     -10.039   8.160  72.854  1.00  0.00    -0.299 OA 
HETATM   21  C   UNK A   2     -11.551  10.486  69.117  1.00  0.00    -0.295 A  
HETATM   22  C   UNK A   2     -11.521  10.715  67.735  1.00  0.00    -0.219 A  
HETATM   23  N   UNK A   2     -11.066   8.981  71.007  1.00  0.00    -0.266 N  
HETATM   24  C   UNK A   2     -11.765  11.979  67.228  1.00  0.00    -0.269 A  
HETATM   25  C   UNK A   2     -11.263   9.102  69.585  1.00  0.00    -0.009 C  
HETATM   26  O   UNK A   2     -14.269   9.341  72.737  1.00  0.00    -0.502 OA 
HETATM   27  C   UNK A   2     -12.020  13.037  68.101  1.00  0.00    -0.280 A  
HETATM   28  C   UNK A   2     -12.059  12.803  69.491  1.00  0.00    -0.265 A  
HETATM   29  O   UNK A   2     -14.002   8.849  70.564  1.00  0.00     0.457 OA 
HETATM   30  C   UNK A   2     -13.518   9.244  71.621  1.00  0.00    -0.398 C  
HETATM   31  C   UNK A   2     -11.857  11.516  70.004  1.00  0.00    -0.435 A  
HETATM   32  C   UNK A   2     -12.054   9.720  71.810  1.00  0.00    -0.346 C  
HETATM   33  C   UNK A   2     -11.917  11.225  71.488  1.00  0.00     0.370 C  
BRANCH  24  34
HETATM   34  O   UNK A   2     -11.821  12.261  65.886  1.00  0.00    -0.473 OA 
HETATM   35  C   UNK A   2     -10.591  12.095  65.210  1.00  0.00    -0.281 C  
ENDBRANCH  24  34
BRANCH  27  36
HETATM   36  O   UNK A   2     -12.190  14.245  67.495  1.00  0.00    -0.354 OA 
HETATM   37  C   UNK A   2     -11.214  15.240  67.732  1.00  0.00    -0.326 C  
ENDBRANCH  27  36
ENDBRANCH  17  19
ENDBRANCH  15  17
ENDBRANCH   6  15
ENDBRANCH   4   6
ENDBRANCH   3   4
ENDBRANCH   2   3
TORSDOF 11
ENDMDL
MODEL      199
REMARK 921   NORMALIZED FREE ENERGY PREDICTED BY IDOCK:   -3.34 KCAL/MOL
REMARK 922        TOTAL FREE ENERGY PREDICTED BY IDOCK:   -7.40 KCAL/MOL
REMARK 923 INTER-LIGAND FREE ENERGY PREDICTED BY IDOCK:   -6.23 KCAL/MOL
REMARK 924 INTRA-LIGAND FREE ENERGY PREDICTED BY IDOCK:   -1.17 KCAL/MOL
REMARK 927      BINDING AFFINITY PREDICTED BY RF-SCORE:    0.00 PKD
ROOT
HETATM    1  C   UNK A   0      -9.012   2.565  72.421  1.00  0.00    -0.111 C  
HETATM    2  C   UNK A   0     -10.034   3.410  71.686  1.00  0.00    -0.107 C  
ENDROOT
BRANCH   2   3
HETATM    3  O   UNK A   0      -9.561   3.644  70.356  1.00  0.00    -0.177 OA 
BRANCH   3   4
HETATM    4  C   UNK A   0      -9.538   4.940  69.931  1.00  0.00    -0.182 C  
HETATM    5  O   UNK A   0     -10.209   5.861  70.388  1.00  0.00    -0.189 OA 
BRANCH   4   6
HETATM    6  C   UNK A   0      -8.480   5.083  68.837  1.00  0.00    -0.086 C  
BRANCH   6   7
HETATM    7  C   UNK A   0      -7.110   5.334  69.472  1.00  0.00    -0.060 C  
BRANCH   7   8
HETATM    8  C   UNK A   0      -6.843   4.922  70.928  1.00  0.00    -0.040 C  
BRANCH   8   9
HETATM    9  C   UNK A   0      -6.669   6.144  71.843  1.00  0.00    -0.064 A  
HETATM   10  C   UNK A   0      -5.527   6.951  71.730  1.00  0.00    -0.036 A  
HETATM   11  C   UNK A   0      -5.409   8.137  72.476  1.00  0.00    -0.037 A  
HETATM   12  C   UNK A   0      -7.657   6.557  72.763  1.00  0.00    -0.097 A  
HETATM   13  C   UNK A   0      -6.427   8.541  73.340  1.00  0.00    -0.103 A  
HETATM   14  C   UNK A   0      -7.549   7.743  73.490  1.00  0.00    -0.166 A  
ENDBRANCH   8   9
ENDBRANCH   7   8
ENDBRANCH   6   7
BRANCH   6  15
ATOM     15  N   ALA A   1      -8.840   6.188  67.914  1.00  0.00    -0.112 NA 
ATOM     16  H   ALA A   1      -9.538   6.022  67.189  1.00  0.00     0.000 HD 
BRANCH  15  17
ATOM     17  CA  ALA A   1      -8.207   7.535  68.021  1.00  0.00    -0.124 C  
ATOM     18  CB  ALA A   1      -7.691   8.264  66.769  1.00  0.00    -0.094 C  
BRANCH  17  19
ATOM     19  C   ALA A   1      -8.850   8.512  69.060  1.00  0.00    -0.145 C  
ATOM     20  O   ALA A   1      -8.487   8.443  70.241  1.00  0.00    -0.119 OA 
HETATM   21  C   UNK A   2     -10.222  11.038  66.789  1.00  0.00    -0.272 A  
HETATM   22  C   UNK A   2     -10.569  11.189  65.440  1.00  0.00    -0.291 A  
HETATM   23  N   UNK A   2      -9.706   9.529  68.668  1.00  0.00    -0.152 N  
HETATM   24  C   UNK A   2     -10.506  12.431  64.834  1.00  0.00    -0.298 A  
HETATM   25  C   UNK A   2     -10.303   9.667  67.364  1.00  0.00    -0.247 C  
HETATM   26  O   UNK A   2     -11.818  11.152  71.176  1.00  0.00    -0.184 OA 
HETATM   27  C   UNK A   2     -10.070  13.537  65.566  1.00  0.00    -0.268 A  
HETATM   28  C   UNK A   2      -9.730  13.384  66.926  1.00  0.00    -0.253 A  
HETATM   29  O   UNK A   2     -12.471  10.519  69.124  1.00  0.00    -0.230 OA 
HETATM   30  C   UNK A   2     -11.560  10.734  69.919  1.00  0.00    -0.331 C  
HETATM   31  C   UNK A   2      -9.837  12.137  67.554  1.00  0.00    -0.193 A  
HETATM   32  C   UNK A   2     -10.048  10.618  69.597  1.00  0.00    -0.080 C  
HETATM   33  C   UNK A   2      -9.504  11.944  69.017  1.00  0.00     0.221 C  
BRANCH  24  34
HETATM   34  O   UNK A   2     -10.897  12.666  63.540  1.00  0.00    -0.429 OA 
HETATM   35  C   UNK A   2     -12.294  12.593  63.338  1.00  0.00    -0.456 C  
ENDBRANCH  24  34
BRANCH  27  36
HETATM   36  O   UNK A   2      -9.993  14.695  64.854  1.00  0.00    -0.301 OA 
HETATM   37  C   UNK A   2     -10.554  15.857  65.433  1.00  0.00    -0.419 C  
ENDBRANCH  27  36
ENDBRANCH  17  19
ENDBRANCH  15  17
ENDBRANCH   6  15
ENDBRANCH   4   6
ENDBRANCH   3   4
ENDBRANCH   2   3
TORSDOF 11
ENDMDL
MODEL      200
REMARK 921   NORMALIZED FREE ENERGY PREDICTED BY IDOCK:   -3.33 KCAL/MOL
REMARK 922        TOTAL FREE ENERGY PREDICTED BY IDOCK:   -7.37 KCAL/MOL
REMARK 923 INTER-LIGAND FREE ENERGY PREDICTED BY IDOCK:   -6.65 KCAL/MOL
REMARK 924 INTRA-LIGAND FREE ENERGY PREDICTED BY IDOCK:   -0.72 KCAL/MOL
REMARK 927      BINDING AFFINITY PREDICTED BY RF-SCORE:    0.00 PKD
ROOT
HETATM    1  C   UNK A   0      -6.276  14.842  69.587  1.00  0.00    -0.133 C  
HETATM    2  C   UNK A   0      -5.717  13.907  68.533  1.00  0.00    -0.093 C  
ENDROOT
BRANCH   2   3
HETATM    3  O   UNK A   0      -6.805  13.200  67.926  1.00  0.00    -0.101 OA 
BRANCH   3   4
HETATM    4  C   UNK A   0      -6.479  12.222  67.032  1.00  0.00    -0.048 C  
HETATM    5  O   UNK A   0      -5.364  12.016  66.563  1.00  0.00    -0.331 OA 
BRANCH   4   6
HETATM    6  C   UNK A   0      -7.718  11.369  66.761  1.00  0.00    -0.150 C  
BRANCH   6   7
HETATM    7  C   UNK A   0      -8.857  11.801  67.688  1.00  0.00    -0.162 C  
BRANCH   7   8
HETATM    8  C   UNK A   0     -10.051  12.592  67.133  1.00  0.00    -0.224 C  
BRANCH   8   9
HETATM    9  C   UNK A   0     -10.614  13.576  68.171  1.00  0.00    -0.253 A  
HETATM   10  C   UNK A   0     -10.127  14.890  68.232  1.00  0.00    -0.221 A  
HETATM   11  C   UNK A   0     -10.711  15.834  69.095  1.00  0.00    -0.246 A  
HETATM   12  C   UNK A   0     -11.676  13.245  69.040  1.00  0.00    -0.368 A  
HETATM   13  C   UNK A   0     -11.793  15.486  69.904  1.00  0.00    -0.380 A  
HETATM   14  C   UNK A   0     -12.269  14.186  69.883  1.00  0.00    -0.416 A  
ENDBRANCH   8   9
ENDBRANCH   7   8
ENDBRANCH   6   7
BRANCH   6  15
ATOM     15  N   ALA A   1      -7.404   9.931  66.952  1.00  0.00    -0.091 NA 
ATOM     16  H   ALA A   1      -7.250   9.343  66.133  1.00  0.00     0.000 HD 
BRANCH  15  17
ATOM     17  CA  ALA A   1      -7.306   9.325  68.312  1.00  0.00    -0.078 C  
ATOM     18  CB  ALA A   1      -6.403   9.948  69.389  1.00  0.00    -0.045 C  
BRANCH  17  19
ATOM     19  C   ALA A   1      -8.638   8.756  68.903  1.00  0.00    -0.136 C  
ATOM     20  O   ALA A   1      -9.426   9.539  69.448  1.00  0.00    -0.159 OA 
HETATM   21  C   UNK A   2      -8.786   5.541  67.152  1.00  0.00    -0.107 A  
HETATM   22  C   UNK A   2      -7.947   4.663  66.454  1.00  0.00    -0.103 A  
HETATM   23  N   UNK A   2      -9.011   7.435  68.713  1.00  0.00    -0.130 N  
HETATM   24  C   UNK A   2      -8.454   3.855  65.452  1.00  0.00    -0.109 A  
HETATM   25  C   UNK A   2      -8.162   6.388  68.206  1.00  0.00    -0.116 C  
HETATM   26  O   UNK A   2     -11.620   5.994  70.836  1.00  0.00    -0.258 OA 
HETATM   27  C   UNK A   2      -9.808   3.934  65.119  1.00  0.00    -0.184 A  
HETATM   28  C   UNK A   2     -10.652   4.812  65.829  1.00  0.00    -0.262 A  
HETATM   29  O   UNK A   2      -9.698   4.990  70.257  1.00  0.00    -0.179 OA 
HETATM   30  C   UNK A   2     -10.502   5.902  70.086  1.00  0.00    -0.262 C  
HETATM   31  C   UNK A   2     -10.150   5.597  66.874  1.00  0.00    -0.230 A  
HETATM   32  C   UNK A   2     -10.388   6.999  68.996  1.00  0.00    -0.200 C  
HETATM   33  C   UNK A   2     -11.034   6.531  67.672  1.00  0.00    -0.426 C  
BRANCH  24  34
HETATM   34  O   UNK A   2      -7.707   2.923  64.776  1.00  0.00    -0.075 OA 
HETATM   35  C   UNK A   2      -6.733   2.279  65.573  1.00  0.00    -0.035 C  
ENDBRANCH  24  34
BRANCH  27  36
HETATM   36  O   UNK A   2     -10.184   3.135  64.082  1.00  0.00    -0.172 OA 
HETATM   37  C   UNK A   2     -10.691   3.765  62.922  1.00  0.00    -0.169 C  
ENDBRANCH  27  36
ENDBRANCH  17  19
ENDBRANCH  15  17
ENDBRANCH   6  15
ENDBRANCH   4   6
ENDBRANCH   3   4
ENDBRANCH   2   3
TORSDOF 11
ENDMDL
MODEL      201
REMARK 921   NORMALIZED FREE ENERGY PREDICTED BY IDOCK:   -3.31 KCAL/MOL
REMARK 922        TOTAL FREE ENERGY PREDICTED BY IDOCK:   -7.34 KCAL/MOL
REMARK 923 INTER-LIGAND FREE ENERGY PREDICTED BY IDOCK:   -6.91 KCAL/MOL
REMARK 924 INTRA-LIGAND FREE ENERGY PREDICTED BY IDOCK:   -0.44 KCAL/MOL
REMARK 927      BINDING AFFINITY PREDICTED BY RF-SCORE:    0.00 PKD
ROOT
HETATM    1  C   UNK A   0     -12.047  12.010  63.610  1.00  0.00    -0.627 C  
HETATM    2  C   UNK A   0     -11.376  12.708  64.777  1.00  0.00    -0.312 C  
ENDROOT
BRANCH   2   3
HETATM    3  O   UNK A   0     -10.887  11.714  65.683  1.00  0.00    -0.276 OA 
BRANCH   3   4
HETATM    4  C   UNK A   0      -9.682  11.960  66.273  1.00  0.00    -0.229 C  
HETATM    5  O   UNK A   0      -8.585  11.890  65.727  1.00  0.00     0.089 OA 
BRANCH   4   6
HETATM    6  C   UNK A   0      -9.919  12.413  67.713  1.00  0.00    -0.205 C  
BRANCH   6   7
HETATM    7  C   UNK A   0      -9.487  13.873  67.874  1.00  0.00    -0.212 C  
BRANCH   7   8
HETATM    8  C   UNK A   0      -9.318  14.772  66.640  1.00  0.00    -0.291 C  
BRANCH   8   9
HETATM    9  C   UNK A   0      -8.037  15.616  66.722  1.00  0.00    -0.280 A  
HETATM   10  C   UNK A   0      -7.989  16.882  66.120  1.00  0.00    -0.290 A  
HETATM   11  C   UNK A   0      -6.867  17.715  66.287  1.00  0.00    -0.322 A  
HETATM   12  C   UNK A   0      -6.900  15.210  67.454  1.00  0.00    -0.166 A  
HETATM   13  C   UNK A   0      -5.781  17.302  67.059  1.00  0.00    -0.198 A  
HETATM   14  C   UNK A   0      -5.795  16.043  67.635  1.00  0.00    -0.174 A  
ENDBRANCH   8   9
ENDBRANCH   7   8
ENDBRANCH   6   7
BRANCH   6  15
ATOM     15  N   ALA A   1      -9.176  11.540  68.656  1.00  0.00    -0.315 NA 
ATOM     16  H   ALA A   1      -9.697  10.985  69.335  1.00  0.00     0.000 HD 
BRANCH  15  17
ATOM     17  CA  ALA A   1      -7.687  11.453  68.634  1.00  0.00    -0.137 C  
ATOM     18  CB  ALA A   1      -6.844  12.098  69.748  1.00  0.00     0.197 C  
BRANCH  17  19
ATOM     19  C   ALA A   1      -7.089  10.095  68.141  1.00  0.00    -0.079 C  
ATOM     20  O   ALA A   1      -5.890  10.051  67.837  1.00  0.00    -0.039 OA 
HETATM   21  C   UNK A   2      -9.661   7.790  69.365  1.00  0.00    -0.156 A  
HETATM   22  C   UNK A   2     -10.993   7.805  69.797  1.00  0.00    -0.162 A  
HETATM   23  N   UNK A   2      -7.829   8.923  68.167  1.00  0.00    -0.100 N  
HETATM   24  C   UNK A   2     -11.443   6.874  70.717  1.00  0.00    -0.335 A  
HETATM   25  C   UNK A   2      -9.250   8.833  68.386  1.00  0.00    -0.137 C  
HETATM   26  O   UNK A   2      -6.693   6.050  66.207  1.00  0.00    -0.056 OA 
HETATM   27  C   UNK A   2     -10.556   5.928  71.234  1.00  0.00    -0.252 A  
HETATM   28  C   UNK A   2      -9.218   5.909  70.791  1.00  0.00    -0.167 A  
HETATM   29  O   UNK A   2      -8.811   6.778  66.360  1.00  0.00    -0.135 OA 
HETATM   30  C   UNK A   2      -7.656   6.802  66.778  1.00  0.00    -0.090 C  
HETATM   31  C   UNK A   2      -8.771   6.821  69.826  1.00  0.00    -0.141 A  
HETATM   32  C   UNK A   2      -7.169   7.617  68.004  1.00  0.00    -0.097 C  
HETATM   33  C   UNK A   2      -7.349   6.812  69.310  1.00  0.00    -0.093 C  
BRANCH  24  34
HETATM   34  O   UNK A   2     -12.748   6.784  71.131  1.00  0.00    -0.332 OA 
HETATM   35  C   UNK A   2     -13.215   7.931  71.814  1.00  0.00    -0.329 C  
ENDBRANCH  24  34
BRANCH  27  36
HETATM   36  O   UNK A   2     -11.093   5.099  72.172  1.00  0.00    -0.171 OA 
HETATM   37  C   UNK A   2     -10.754   5.335  73.525  1.00  0.00    -0.289 C  
ENDBRANCH  27  36
ENDBRANCH  17  19
ENDBRANCH  15  17
ENDBRANCH   6  15
ENDBRANCH   4   6
ENDBRANCH   3   4
ENDBRANCH   2   3
TORSDOF 11
ENDMDL
MODEL      202
REMARK 921   NORMALIZED FREE ENERGY PREDICTED BY IDOCK:   -3.28 KCAL/MOL
REMARK 922        TOTAL FREE ENERGY PREDICTED BY IDOCK:   -7.30 KCAL/MOL
REMARK 923 INTER-LIGAND FREE ENERGY PREDICTED BY IDOCK:   -6.61 KCAL/MOL
REMARK 924 INTRA-LIGAND FREE ENERGY PREDICTED BY IDOCK:   -0.69 KCAL/MOL
REMARK 927      BINDING AFFINITY PREDICTED BY RF-SCORE:    0.00 PKD
ROOT
HETATM    1  C   UNK A   0     -11.032   6.368  67.189  1.00  0.00    -0.476 C  
HETATM    2  C   UNK A   0     -10.114   5.478  66.373  1.00  0.00    -0.182 C  
ENDROOT
BRANCH   2   3
HETATM    3  O   UNK A   0      -8.872   6.162  66.174  1.00  0.00    -0.145 OA 
BRANCH   3   4
HETATM    4  C   UNK A   0      -8.055   5.680  65.195  1.00  0.00    -0.127 C  
HETATM    5  O   UNK A   0      -8.406   5.322  64.074  1.00  0.00    -0.128 OA 
BRANCH   4   6
HETATM    6  C   UNK A   0      -6.609   5.724  65.691  1.00  0.00    -0.044 C  
BRANCH   6   7
HETATM    7  C   UNK A   0      -6.589   5.921  67.208  1.00  0.00    -0.056 C  
BRANCH   7   8
HETATM    8  C   UNK A   0      -6.670   4.708  68.148  1.00  0.00    -0.054 C  
BRANCH   8   9
HETATM    9  C   UNK A   0      -7.737   4.902  69.237  1.00  0.00    -0.074 A  
HETATM   10  C   UNK A   0      -7.950   6.171  69.795  1.00  0.00    -0.110 A  
HETATM   11  C   UNK A   0      -9.000   6.389  70.705  1.00  0.00    -0.144 A  
HETATM   12  C   UNK A   0      -8.591   3.862  69.664  1.00  0.00    -0.107 A  
HETATM   13  C   UNK A   0      -9.857   5.350  71.067  1.00  0.00    -0.246 A  
HETATM   14  C   UNK A   0      -9.644   4.081  70.553  1.00  0.00    -0.261 A  
ENDBRANCH   8   9
ENDBRANCH   7   8
ENDBRANCH   6   7
BRANCH   6  15
ATOM     15  N   ALA A   1      -5.866   6.814  65.011  1.00  0.00    -0.034 NA 
ATOM     16  H   ALA A   1      -5.033   6.584  64.469  1.00  0.00     0.000 HD 
BRANCH  15  17
ATOM     17  CA  ALA A   1      -6.307   8.236  65.101  1.00  0.00    -0.048 C  
ATOM     18  CB  ALA A   1      -7.502   8.744  64.276  1.00  0.00    -0.108 C  
BRANCH  17  19
ATOM     19  C   ALA A   1      -6.243   8.883  66.523  1.00  0.00    -0.061 C  
ATOM     20  O   ALA A   1      -5.165   8.876  67.129  1.00  0.00    -0.035 OA 
HETATM   21  C   UNK A   2      -9.287  10.921  66.428  1.00  0.00    -0.199 A  
HETATM   22  C   UNK A   2     -10.487  11.019  65.712  1.00  0.00    -0.290 A  
HETATM   23  N   UNK A   2      -7.321   9.574  67.055  1.00  0.00    -0.087 N  
HETATM   24  C   UNK A   2     -11.119  12.242  65.566  1.00  0.00    -0.307 A  
HETATM   25  C   UNK A   2      -8.661   9.574  66.528  1.00  0.00    -0.134 C  
HETATM   26  O   UNK A   2      -7.405  10.255  70.649  1.00  0.00    -0.267 OA 
HETATM   27  C   UNK A   2     -10.543  13.388  66.116  1.00  0.00    -0.292 A  
HETATM   28  C   UNK A   2      -9.340  13.285  66.844  1.00  0.00    -0.244 A  
HETATM   29  O   UNK A   2      -9.137   9.552  69.408  1.00  0.00    -0.148 OA 
HETATM   30  C   UNK A   2      -8.002  10.017  69.463  1.00  0.00    -0.158 C  
HETATM   31  C   UNK A   2      -8.722  12.043  67.032  1.00  0.00    -0.188 A  
HETATM   32  C   UNK A   2      -7.148  10.433  68.238  1.00  0.00    -0.078 C  
HETATM   33  C   UNK A   2      -7.444  11.894  67.829  1.00  0.00    -0.121 C  
BRANCH  24  34
HETATM   34  O   UNK A   2     -12.330  12.401  64.940  1.00  0.00    -0.456 OA 
HETATM   35  C   UNK A   2     -12.273  12.267  63.534  1.00  0.00    -0.568 C  
ENDBRANCH  24  34
BRANCH  27  36
HETATM   36  O   UNK A   2     -11.221  14.542  65.863  1.00  0.00    -0.321 OA 
HETATM   37  C   UNK A   2     -10.659  15.749  66.340  1.00  0.00    -0.307 C  
ENDBRANCH  27  36
ENDBRANCH  17  19
ENDBRANCH  15  17
ENDBRANCH   6  15
ENDBRANCH   4   6
ENDBRANCH   3   4
ENDBRANCH   2   3
TORSDOF 11
ENDMDL
MODEL      203
REMARK 921   NORMALIZED FREE ENERGY PREDICTED BY IDOCK:   -3.27 KCAL/MOL
REMARK 922        TOTAL FREE ENERGY PREDICTED BY IDOCK:   -7.27 KCAL/MOL
REMARK 923 INTER-LIGAND FREE ENERGY PREDICTED BY IDOCK:   -6.41 KCAL/MOL
REMARK 924 INTRA-LIGAND FREE ENERGY PREDICTED BY IDOCK:   -0.86 KCAL/MOL
REMARK 927      BINDING AFFINITY PREDICTED BY RF-SCORE:    0.00 PKD
ROOT
HETATM    1  C   UNK A   0     -12.202   9.858  71.468  1.00  0.00    -0.505 C  
HETATM    2  C   UNK A   0     -11.050  10.459  70.685  1.00  0.00    -0.204 C  
ENDROOT
BRANCH   2   3
HETATM    3  O   UNK A   0     -10.182   9.401  70.265  1.00  0.00    -0.211 OA 
BRANCH   3   4
HETATM    4  C   UNK A   0      -9.312   9.685  69.254  1.00  0.00    -0.180 C  
HETATM    5  O   UNK A   0      -9.617  10.008  68.110  1.00  0.00    -0.138 OA 
BRANCH   4   6
HETATM    6  C   UNK A   0      -7.884   9.611  69.794  1.00  0.00    -0.142 C  
BRANCH   6   7
HETATM    7  C   UNK A   0      -7.863   8.794  71.088  1.00  0.00    -0.161 C  
BRANCH   7   8
HETATM    8  C   UNK A   0      -7.761   7.261  71.036  1.00  0.00    -0.089 C  
BRANCH   8   9
HETATM    9  C   UNK A   0      -8.903   6.589  71.814  1.00  0.00    -0.138 A  
HETATM   10  C   UNK A   0      -9.126   5.210  71.683  1.00  0.00    -0.163 A  
HETATM   11  C   UNK A   0     -10.089   4.560  72.476  1.00  0.00    -0.233 A  
HETATM   12  C   UNK A   0      -9.714   7.285  72.736  1.00  0.00    -0.203 A  
HETATM   13  C   UNK A   0     -10.839   5.270  73.414  1.00  0.00    -0.355 A  
HETATM   14  C   UNK A   0     -10.657   6.638  73.536  1.00  0.00    -0.334 A  
ENDBRANCH   8   9
ENDBRANCH   7   8
ENDBRANCH   6   7
BRANCH   6  15
ATOM     15  N   ALA A   1      -7.351  10.976  70.028  1.00  0.00    -0.420 NA 
ATOM     16  H   ALA A   1      -7.568  11.452  70.903  1.00  0.00     0.000 HD 
BRANCH  15  17
ATOM     17  CA  ALA A   1      -6.504  11.669  69.013  1.00  0.00    -0.082 C  
ATOM     18  CB  ALA A   1      -6.322  11.080  67.604  1.00  0.00    -0.060 C  
BRANCH  17  19
ATOM     19  C   ALA A   1      -6.592  13.231  69.002  1.00  0.00    -0.104 C  
ATOM     20  O   ALA A   1      -5.562  13.883  69.215  1.00  0.00    -0.081 OA 
HETATM   21  C   UNK A   2      -9.763  13.675  67.222  1.00  0.00    -0.243 A  
HETATM   22  C   UNK A   2     -10.912  12.948  66.886  1.00  0.00    -0.294 A  
HETATM   23  N   UNK A   2      -7.752  13.891  68.631  1.00  0.00    -0.136 N  
HETATM   24  C   UNK A   2     -11.621  13.248  65.736  1.00  0.00    -0.337 A  
HETATM   25  C   UNK A   2      -9.048  13.282  68.467  1.00  0.00    -0.064 C  
HETATM   26  O   UNK A   2      -8.145  17.428  69.481  1.00  0.00     0.214 OA 
HETATM   27  C   UNK A   2     -11.173  14.266  64.893  1.00  0.00    -0.379 A  
HETATM   28  C   UNK A   2     -10.021  15.003  65.238  1.00  0.00    -0.325 A  
HETATM   29  O   UNK A   2      -9.727  15.848  69.682  1.00  0.00    -0.265 OA 
HETATM   30  C   UNK A   2      -8.636  16.195  69.237  1.00  0.00    -0.191 C  
HETATM   31  C   UNK A   2      -9.328  14.731  66.424  1.00  0.00    -0.320 A  
HETATM   32  C   UNK A   2      -7.729  15.330  68.324  1.00  0.00    -0.112 C  
HETATM   33  C   UNK A   2      -8.103  15.519  66.836  1.00  0.00    -0.284 C  
BRANCH  24  34
HETATM   34  O   UNK A   2     -12.792  12.627  65.381  1.00  0.00    -0.582 OA 
HETATM   35  C   UNK A   2     -12.699  11.852  64.203  1.00  0.00    -0.170 C  
ENDBRANCH  24  34
BRANCH  27  36
HETATM   36  O   UNK A   2     -11.914  14.436  63.763  1.00  0.00    -0.332 OA 
HETATM   37  C   UNK A   2     -12.593  15.667  63.605  1.00  0.00     1.212 C  
ENDBRANCH  27  36
ENDBRANCH  17  19
ENDBRANCH  15  17
ENDBRANCH   6  15
ENDBRANCH   4   6
ENDBRANCH   3   4
ENDBRANCH   2   3
TORSDOF 11
ENDMDL
MODEL      204
REMARK 921   NORMALIZED FREE ENERGY PREDICTED BY IDOCK:   -3.23 KCAL/MOL
REMARK 922        TOTAL FREE ENERGY PREDICTED BY IDOCK:   -7.22 KCAL/MOL
REMARK 923 INTER-LIGAND FREE ENERGY PREDICTED BY IDOCK:   -6.41 KCAL/MOL
REMARK 924 INTRA-LIGAND FREE ENERGY PREDICTED BY IDOCK:   -0.81 KCAL/MOL
REMARK 927      BINDING AFFINITY PREDICTED BY RF-SCORE:    0.00 PKD
ROOT
HETATM    1  C   UNK A   0      -5.852  13.260  67.341  1.00  0.00     0.051 C  
HETATM    2  C   UNK A   0      -5.574  11.793  67.075  1.00  0.00    -0.131 C  
ENDROOT
BRANCH   2   3
HETATM    3  O   UNK A   0      -5.704  11.552  65.670  1.00  0.00    -0.062 OA 
BRANCH   3   4
HETATM    4  C   UNK A   0      -5.826  10.250  65.279  1.00  0.00    -0.125 C  
HETATM    5  O   UNK A   0      -5.204   9.709  64.370  1.00  0.00    -0.056 OA 
BRANCH   4   6
HETATM    6  C   UNK A   0      -6.815   9.546  66.208  1.00  0.00    -0.086 C  
BRANCH   6   7
HETATM    7  C   UNK A   0      -6.227   8.211  66.672  1.00  0.00    -0.054 C  
BRANCH   7   8
HETATM    8  C   UNK A   0      -6.396   7.754  68.129  1.00  0.00    -0.050 C  
BRANCH   8   9
HETATM    9  C   UNK A   0      -6.913   6.309  68.216  1.00  0.00    -0.080 A  
HETATM   10  C   UNK A   0      -7.940   5.877  67.363  1.00  0.00    -0.102 A  
HETATM   11  C   UNK A   0      -8.343   4.529  67.349  1.00  0.00    -0.104 A  
HETATM   12  C   UNK A   0      -6.346   5.344  69.077  1.00  0.00    -0.034 A  
HETATM   13  C   UNK A   0      -7.726   3.592  68.177  1.00  0.00    -0.064 A  
HETATM   14  C   UNK A   0      -6.732   4.004  69.050  1.00  0.00    -0.045 A  
ENDBRANCH   8   9
ENDBRANCH   7   8
ENDBRANCH   6   7
BRANCH   6  15
ATOM     15  N   ALA A   1      -8.111   9.337  65.516  1.00  0.00    -0.110 NA 
ATOM     16  H   ALA A   1      -8.736   8.601  65.844  1.00  0.00     0.000 HD 
BRANCH  15  17
ATOM     17  CA  ALA A   1      -8.521  10.176  64.353  1.00  0.00    -0.175 C  
ATOM     18  CB  ALA A   1      -8.841   9.533  62.992  1.00  0.00    -0.242 C  
BRANCH  17  19
ATOM     19  C   ALA A   1      -9.459  11.385  64.679  1.00  0.00    -0.148 C  
ATOM     20  O   ALA A   1     -10.052  11.942  63.748  1.00  0.00    -0.343 OA 
HETATM   21  C   UNK A   2      -9.941  10.858  68.273  1.00  0.00    -0.187 A  
HETATM   22  C   UNK A   2      -9.350  10.175  69.344  1.00  0.00    -0.235 A  
HETATM   23  N   UNK A   2      -9.740  11.753  65.985  1.00  0.00    -0.227 N  
HETATM   24  C   UNK A   2     -10.118   9.740  70.409  1.00  0.00    -0.252 A  
HETATM   25  C   UNK A   2      -9.049  11.281  67.158  1.00  0.00    -0.157 C  
HETATM   26  O   UNK A   2     -11.173  15.056  66.639  1.00  0.00    -0.335 OA 
HETATM   27  C   UNK A   2     -11.496   9.964  70.404  1.00  0.00    -0.301 A  
HETATM   28  C   UNK A   2     -12.088  10.660  69.330  1.00  0.00    -0.250 A  
HETATM   29  O   UNK A   2      -9.530  14.084  67.818  1.00  0.00    -0.198 OA 
HETATM   30  C   UNK A   2     -10.426  13.987  66.984  1.00  0.00    -0.275 C  
HETATM   31  C   UNK A   2     -11.306  11.141  68.273  1.00  0.00    -0.365 A  
HETATM   32  C   UNK A   2     -10.851  12.672  66.280  1.00  0.00    -0.273 C  
HETATM   33  C   UNK A   2     -11.905  11.913  67.118  1.00  0.00    -0.216 C  
BRANCH  24  34
HETATM   34  O   UNK A   2      -9.598   9.129  71.522  1.00  0.00    -0.283 OA 
HETATM   35  C   UNK A   2      -9.011   7.868  71.265  1.00  0.00    -0.135 C  
ENDBRANCH  24  34
BRANCH  27  36
HETATM   36  O   UNK A   2     -12.159   9.444  71.474  1.00  0.00    -0.329 OA 
HETATM   37  C   UNK A   2     -13.243  10.187  71.997  1.00  0.00    -0.430 C  
ENDBRANCH  27  36
ENDBRANCH  17  19
ENDBRANCH  15  17
ENDBRANCH   6  15
ENDBRANCH   4   6
ENDBRANCH   3   4
ENDBRANCH   2   3
TORSDOF 11
ENDMDL
MODEL      205
REMARK 921   NORMALIZED FREE ENERGY PREDICTED BY IDOCK:   -3.21 KCAL/MOL
REMARK 922        TOTAL FREE ENERGY PREDICTED BY IDOCK:   -7.18 KCAL/MOL
REMARK 923 INTER-LIGAND FREE ENERGY PREDICTED BY IDOCK:   -5.66 KCAL/MOL
REMARK 924 INTRA-LIGAND FREE ENERGY PREDICTED BY IDOCK:   -1.52 KCAL/MOL
REMARK 927      BINDING AFFINITY PREDICTED BY RF-SCORE:    0.00 PKD
ROOT
HETATM    1  C   UNK A   0     -10.228   3.819  63.415  1.00  0.00    -0.202 C  
HETATM    2  C   UNK A   0      -9.546   3.428  64.712  1.00  0.00    -0.159 C  
ENDROOT
BRANCH   2   3
HETATM    3  O   UNK A   0      -9.812   4.438  65.690  1.00  0.00    -0.187 OA 
BRANCH   3   4
HETATM    4  C   UNK A   0      -9.314   4.227  66.943  1.00  0.00    -0.166 C  
HETATM    5  O   UNK A   0      -9.826   3.530  67.813  1.00  0.00    -0.098 OA 
BRANCH   4   6
HETATM    6  C   UNK A   0      -7.968   4.941  67.067  1.00  0.00    -0.103 C  
BRANCH   6   7
HETATM    7  C   UNK A   0      -7.140   4.293  68.179  1.00  0.00    -0.059 C  
BRANCH   7   8
HETATM    8  C   UNK A   0      -6.888   5.045  69.495  1.00  0.00    -0.053 C  
BRANCH   8   9
HETATM    9  C   UNK A   0      -8.053   4.869  70.482  1.00  0.00    -0.084 A  
HETATM   10  C   UNK A   0      -8.832   5.974  70.854  1.00  0.00    -0.136 A  
HETATM   11  C   UNK A   0      -9.972   5.811  71.662  1.00  0.00    -0.218 A  
HETATM   12  C   UNK A   0      -8.440   3.611  70.992  1.00  0.00    -0.100 A  
HETATM   13  C   UNK A   0     -10.355   4.545  72.107  1.00  0.00    -0.233 A  
HETATM   14  C   UNK A   0      -9.581   3.445  71.778  1.00  0.00    -0.225 A  
ENDBRANCH   8   9
ENDBRANCH   7   8
ENDBRANCH   6   7
BRANCH   6  15
ATOM     15  N   ALA A   1      -8.176   6.385  67.340  1.00  0.00    -0.116 NA 
ATOM     16  H   ALA A   1      -8.606   6.667  68.220  1.00  0.00     0.000 HD 
BRANCH  15  17
ATOM     17  CA  ALA A   1      -7.770   7.433  66.359  1.00  0.00    -0.093 C  
ATOM     18  CB  ALA A   1      -8.731   7.883  65.245  1.00  0.00    -0.032 C  
BRANCH  17  19
ATOM     19  C   ALA A   1      -6.924   8.616  66.934  1.00  0.00    -0.077 C  
ATOM     20  O   ALA A   1      -5.822   8.858  66.425  1.00  0.00    -0.052 OA 
HETATM   21  C   UNK A   2      -9.537  10.444  68.739  1.00  0.00    -0.178 A  
HETATM   22  C   UNK A   2     -10.822  10.240  69.258  1.00  0.00    -0.275 A  
HETATM   23  N   UNK A   2      -7.434   9.473  67.897  1.00  0.00    -0.083 N  
HETATM   24  C   UNK A   2     -11.716  11.292  69.352  1.00  0.00    -0.339 A  
HETATM   25  C   UNK A   2      -8.639   9.259  68.657  1.00  0.00    -0.127 C  
HETATM   26  O   UNK A   2      -5.136  11.599  69.790  1.00  0.00    -0.059 OA 
HETATM   27  C   UNK A   2     -11.341  12.560  68.904  1.00  0.00    -0.297 A  
HETATM   28  C   UNK A   2     -10.044  12.765  68.391  1.00  0.00    -0.226 A  
HETATM   29  O   UNK A   2      -6.864  10.450  70.645  1.00  0.00    -0.328 OA 
HETATM   30  C   UNK A   2      -6.275  10.889  69.661  1.00  0.00    -0.085 C  
HETATM   31  C   UNK A   2      -9.122  11.712  68.337  1.00  0.00    -0.180 A  
HETATM   32  C   UNK A   2      -6.761  10.748  68.195  1.00  0.00    -0.063 C  
HETATM   33  C   UNK A   2      -7.715  11.904  67.816  1.00  0.00    -0.136 C  
BRANCH  24  34
HETATM   34  O   UNK A   2     -12.963  11.181  69.913  1.00  0.00    -0.001 OA 
HETATM   35  C   UNK A   2     -12.974  11.307  71.321  1.00  0.00    -0.327 C  
ENDBRANCH  24  34
BRANCH  27  36
HETATM   36  O   UNK A   2     -12.318  13.505  68.993  1.00  0.00    -0.252 OA 
HETATM   37  C   UNK A   2     -11.961  14.767  69.521  1.00  0.00    -0.311 C  
ENDBRANCH  27  36
ENDBRANCH  17  19
ENDBRANCH  15  17
ENDBRANCH   6  15
ENDBRANCH   4   6
ENDBRANCH   3   4
ENDBRANCH   2   3
TORSDOF 11
ENDMDL
MODEL      206
REMARK 921   NORMALIZED FREE ENERGY PREDICTED BY IDOCK:   -3.20 KCAL/MOL
REMARK 922        TOTAL FREE ENERGY PREDICTED BY IDOCK:   -7.16 KCAL/MOL
REMARK 923 INTER-LIGAND FREE ENERGY PREDICTED BY IDOCK:   -5.46 KCAL/MOL
REMARK 924 INTRA-LIGAND FREE ENERGY PREDICTED BY IDOCK:   -1.70 KCAL/MOL
REMARK 927      BINDING AFFINITY PREDICTED BY RF-SCORE:    0.00 PKD
ROOT
HETATM    1  C   UNK A   0      -9.776   2.395  70.673  1.00  0.00    -0.075 C  
HETATM    2  C   UNK A   0      -9.647   3.435  71.769  1.00  0.00    -0.155 C  
ENDROOT
BRANCH   2   3
HETATM    3  O   UNK A   0      -9.519   4.725  71.163  1.00  0.00    -0.140 OA 
BRANCH   3   4
HETATM    4  C   UNK A   0      -8.285   5.061  70.688  1.00  0.00    -0.102 C  
HETATM    5  O   UNK A   0      -7.212   4.815  71.231  1.00  0.00    -0.052 OA 
BRANCH   4   6
HETATM    6  C   UNK A   0      -8.446   5.732  69.324  1.00  0.00    -0.108 C  
BRANCH   6   7
HETATM    7  C   UNK A   0      -7.110   5.713  68.577  1.00  0.00    -0.070 C  
BRANCH   7   8
HETATM    8  C   UNK A   0      -7.060   5.999  67.068  1.00  0.00    -0.070 C  
BRANCH   8   9
HETATM    9  C   UNK A   0      -7.517   7.431  66.746  1.00  0.00    -0.096 A  
HETATM   10  C   UNK A   0      -6.753   8.526  67.173  1.00  0.00    -0.063 A  
HETATM   11  C   UNK A   0      -7.093   9.835  66.786  1.00  0.00    -0.089 A  
HETATM   12  C   UNK A   0      -8.654   7.711  65.957  1.00  0.00    -0.165 A  
HETATM   13  C   UNK A   0      -8.195  10.072  65.964  1.00  0.00    -0.126 A  
HETATM   14  C   UNK A   0      -8.982   9.007  65.558  1.00  0.00    -0.252 A  
ENDBRANCH   8   9
ENDBRANCH   7   8
ENDBRANCH   6   7
BRANCH   6  15
ATOM     15  N   ALA A   1      -8.935   7.123  69.490  1.00  0.00    -0.141 NA 
ATOM     16  H   ALA A   1      -9.403   7.582  68.709  1.00  0.00     0.000 HD 
BRANCH  15  17
ATOM     17  CA  ALA A   1      -8.757   7.867  70.771  1.00  0.00    -0.134 C  
ATOM     18  CB  ALA A   1      -7.639   8.912  70.926  1.00  0.00    -0.122 C  
BRANCH  17  19
ATOM     19  C   ALA A   1     -10.073   8.284  71.507  1.00  0.00    -0.208 C  
ATOM     20  O   ALA A   1     -10.196   8.001  72.705  1.00  0.00    -0.265 OA 
HETATM   21  C   UNK A   2     -11.324  10.820  69.177  1.00  0.00    -0.348 A  
HETATM   22  C   UNK A   2     -11.154  11.230  67.848  1.00  0.00    -0.325 A  
HETATM   23  N   UNK A   2     -11.031   9.072  70.890  1.00  0.00    -0.248 N  
HETATM   24  C   UNK A   2     -11.347  12.553  67.492  1.00  0.00    -0.312 A  
HETATM   25  C   UNK A   2     -11.084   9.383  69.484  1.00  0.00    -0.112 C  
HETATM   26  O   UNK A   2     -14.394   9.241  72.321  1.00  0.00    -0.319 OA 
HETATM   27  C   UNK A   2     -11.690  13.490  68.468  1.00  0.00    -0.357 A  
HETATM   28  C   UNK A   2     -11.869  13.074  69.803  1.00  0.00    -0.381 A  
HETATM   29  O   UNK A   2     -13.908   9.038  70.140  1.00  0.00     1.233 OA 
HETATM   30  C   UNK A   2     -13.533   9.283  71.284  1.00  0.00    -0.249 C  
HETATM   31  C   UNK A   2     -11.720  11.728  70.159  1.00  0.00    -0.354 A  
HETATM   32  C   UNK A   2     -12.097   9.711  71.680  1.00  0.00    -0.402 C  
HETATM   33  C   UNK A   2     -11.929  11.244  71.577  1.00  0.00     0.370 C  
BRANCH  24  34
HETATM   34  O   UNK A   2     -11.268  13.011  66.200  1.00  0.00    -0.280 OA 
HETATM   35  C   UNK A   2     -11.908  12.178  65.254  1.00  0.00    -0.295 C  
ENDBRANCH  24  34
BRANCH  27  36
HETATM   36  O   UNK A   2     -11.799  14.769  68.014  1.00  0.00    -0.336 OA 
HETATM   37  C   UNK A   2     -10.976  15.749  68.616  1.00  0.00    -0.307 C  
ENDBRANCH  27  36
ENDBRANCH  17  19
ENDBRANCH  15  17
ENDBRANCH   6  15
ENDBRANCH   4   6
ENDBRANCH   3   4
ENDBRANCH   2   3
TORSDOF 11
ENDMDL
MODEL      207
REMARK 921   NORMALIZED FREE ENERGY PREDICTED BY IDOCK:   -3.18 KCAL/MOL
REMARK 922        TOTAL FREE ENERGY PREDICTED BY IDOCK:   -7.12 KCAL/MOL
REMARK 923 INTER-LIGAND FREE ENERGY PREDICTED BY IDOCK:   -5.62 KCAL/MOL
REMARK 924 INTRA-LIGAND FREE ENERGY PREDICTED BY IDOCK:   -1.50 KCAL/MOL
REMARK 927      BINDING AFFINITY PREDICTED BY RF-SCORE:    0.00 PKD
ROOT
HETATM    1  C   UNK A   0      -8.785  14.596  66.838  1.00  0.00    -0.251 C  
HETATM    2  C   UNK A   0      -7.729  13.783  67.562  1.00  0.00    -0.176 C  
ENDROOT
BRANCH   2   3
HETATM    3  O   UNK A   0      -8.028  12.394  67.396  1.00  0.00    -0.159 OA 
BRANCH   3   4
HETATM    4  C   UNK A   0      -6.995  11.582  67.028  1.00  0.00    -0.145 C  
HETATM    5  O   UNK A   0      -5.822  11.920  66.905  1.00  0.00    -0.142 OA 
BRANCH   4   6
HETATM    6  C   UNK A   0      -7.521  10.156  66.864  1.00  0.00    -0.096 C  
BRANCH   6   7
HETATM    7  C   UNK A   0      -9.044  10.146  67.011  1.00  0.00    -0.155 C  
BRANCH   7   8
HETATM    8  C   UNK A   0      -9.936   9.770  65.818  1.00  0.00    -0.349 C  
BRANCH   8   9
HETATM    9  C   UNK A   0      -9.157   8.986  64.750  1.00  0.00    -0.088 A  
HETATM   10  C   UNK A   0      -9.249   9.354  63.400  1.00  0.00     0.091 A  
HETATM   11  C   UNK A   0      -8.453   8.724  62.427  1.00  0.00    -0.204 A  
HETATM   12  C   UNK A   0      -8.270   7.935  65.069  1.00  0.00    -0.134 A  
HETATM   13  C   UNK A   0      -7.549   7.723  62.784  1.00  0.00    -0.124 A  
HETATM   14  C   UNK A   0      -7.466   7.322  64.107  1.00  0.00    -0.099 A  
ENDBRANCH   8   9
ENDBRANCH   7   8
ENDBRANCH   6   7
BRANCH   6  15
ATOM     15  N   ALA A   1      -6.892   9.258  67.864  1.00  0.00    -0.071 NA 
ATOM     16  H   ALA A   1      -6.188   8.588  67.556  1.00  0.00     0.000 HD 
BRANCH  15  17
ATOM     17  CA  ALA A   1      -7.264   9.311  69.307  1.00  0.00    -0.065 C  
ATOM     18  CB  ALA A   1      -6.804  10.479  70.197  1.00  0.00    -0.145 C  
BRANCH  17  19
ATOM     19  C   ALA A   1      -8.708   8.824  69.659  1.00  0.00    -0.136 C  
ATOM     20  O   ALA A   1      -9.516   9.645  70.111  1.00  0.00    -0.229 OA 
HETATM   21  C   UNK A   2      -8.800   5.693  67.759  1.00  0.00    -0.105 A  
HETATM   22  C   UNK A   2      -7.924   4.779  67.159  1.00  0.00    -0.102 A  
HETATM   23  N   UNK A   2      -9.137   7.542  69.353  1.00  0.00    -0.143 N  
HETATM   24  C   UNK A   2      -8.322   4.047  66.054  1.00  0.00    -0.109 A  
HETATM   25  C   UNK A   2      -8.293   6.453  68.934  1.00  0.00    -0.121 C  
HETATM   26  O   UNK A   2     -12.140   6.229  70.978  1.00  0.00    -0.213 OA 
HETATM   27  C   UNK A   2      -9.597   4.239  65.520  1.00  0.00    -0.188 A  
HETATM   28  C   UNK A   2     -10.481   5.153  66.131  1.00  0.00    -0.301 A  
HETATM   29  O   UNK A   2     -10.225   5.104  70.657  1.00  0.00    -0.237 OA 
HETATM   30  C   UNK A   2     -10.928   6.079  70.406  1.00  0.00    -0.328 C  
HETATM   31  C   UNK A   2     -10.097   5.861  67.276  1.00  0.00    -0.208 A  
HETATM   32  C   UNK A   2     -10.568   7.201  69.398  1.00  0.00    -0.233 C  
HETATM   33  C   UNK A   2     -11.028   6.830  67.970  1.00  0.00    -0.289 C  
BRANCH  24  34
HETATM   34  O   UNK A   2      -7.544   3.085  65.460  1.00  0.00    -0.072 OA 
HETATM   35  C   UNK A   2      -6.434   3.599  64.752  1.00  0.00    -0.035 C  
ENDBRANCH  24  34
BRANCH  27  36
HETATM   36  O   UNK A   2      -9.860   3.508  64.401  1.00  0.00    -0.159 OA 
HETATM   37  C   UNK A   2      -9.793   4.172  63.155  1.00  0.00    -0.103 C  
ENDBRANCH  27  36
ENDBRANCH  17  19
ENDBRANCH  15  17
ENDBRANCH   6  15
ENDBRANCH   4   6
ENDBRANCH   3   4
ENDBRANCH   2   3
TORSDOF 11
ENDMDL
MODEL      208
REMARK 921   NORMALIZED FREE ENERGY PREDICTED BY IDOCK:   -3.14 KCAL/MOL
REMARK 922        TOTAL FREE ENERGY PREDICTED BY IDOCK:   -7.06 KCAL/MOL
REMARK 923 INTER-LIGAND FREE ENERGY PREDICTED BY IDOCK:   -6.11 KCAL/MOL
REMARK 924 INTRA-LIGAND FREE ENERGY PREDICTED BY IDOCK:   -0.94 KCAL/MOL
REMARK 927      BINDING AFFINITY PREDICTED BY RF-SCORE:    0.00 PKD
ROOT
HETATM    1  C   UNK A   0      -7.417   8.927  63.886  1.00  0.00    -0.112 C  
HETATM    2  C   UNK A   0      -8.539   8.893  64.905  1.00  0.00    -0.172 C  
ENDROOT
BRANCH   2   3
HETATM    3  O   UNK A   0      -8.603   7.579  65.470  1.00  0.00    -0.141 OA 
BRANCH   3   4
HETATM    4  C   UNK A   0      -9.335   7.436  66.612  1.00  0.00    -0.170 C  
HETATM    5  O   UNK A   0     -10.525   7.708  66.745  1.00  0.00    -0.314 OA 
BRANCH   4   6
HETATM    6  C   UNK A   0      -8.451   6.810  67.691  1.00  0.00    -0.122 C  
BRANCH   6   7
HETATM    7  C   UNK A   0      -8.552   5.284  67.620  1.00  0.00    -0.104 C  
BRANCH   7   8
HETATM    8  C   UNK A   0      -7.306   4.438  67.314  1.00  0.00    -0.073 C  
BRANCH   8   9
HETATM    9  C   UNK A   0      -6.580   4.010  68.599  1.00  0.00    -0.045 A  
HETATM   10  C   UNK A   0      -6.074   4.979  69.478  1.00  0.00    -0.022 A  
HETATM   11  C   UNK A   0      -5.512   4.607  70.712  1.00  0.00    -0.011 A  
HETATM   12  C   UNK A   0      -6.457   2.660  68.994  1.00  0.00    -0.029 A  
HETATM   13  C   UNK A   0      -5.452   3.266  71.093  1.00  0.00    -0.008 A  
HETATM   14  C   UNK A   0      -5.917   2.291  70.226  1.00  0.00    -0.019 A  
ENDBRANCH   8   9
ENDBRANCH   7   8
ENDBRANCH   6   7
BRANCH   6  15
ATOM     15  N   ALA A   1      -8.852   7.300  69.033  1.00  0.00    -0.132 NA 
ATOM     16  H   ALA A   1      -9.376   6.682  69.652  1.00  0.00     0.000 HD 
BRANCH  15  17
ATOM     17  CA  ALA A   1      -8.508   8.675  69.499  1.00  0.00    -0.129 C  
ATOM     18  CB  ALA A   1      -7.775   9.660  68.573  1.00  0.00    -0.081 C  
BRANCH  17  19
ATOM     19  C   ALA A   1      -9.578   9.380  70.396  1.00  0.00    -0.266 C  
ATOM     20  O   ALA A   1      -9.415   9.381  71.623  1.00  0.00    -0.262 OA 
HETATM   21  C   UNK A   2     -11.237  11.465  67.881  1.00  0.00    -0.352 A  
HETATM   22  C   UNK A   2     -11.382  11.553  66.491  1.00  0.00    -0.263 A  
HETATM   23  N   UNK A   2     -10.618  10.111  69.846  1.00  0.00    -0.269 N  
HETATM   24  C   UNK A   2     -11.590  12.779  65.883  1.00  0.00    -0.382 A  
HETATM   25  C   UNK A   2     -11.001  10.112  68.457  1.00  0.00    -0.232 C  
HETATM   26  O   UNK A   2     -13.509  10.947  71.928  1.00  0.00    -0.345 OA 
HETATM   27  C   UNK A   2     -11.632  13.938  66.661  1.00  0.00    -0.374 A  
HETATM   28  C   UNK A   2     -11.496  13.845  68.061  1.00  0.00    -0.339 A  
HETATM   29  O   UNK A   2     -13.588  10.221  69.806  1.00  0.00     0.385 OA 
HETATM   30  C   UNK A   2     -12.931  10.669  70.742  1.00  0.00    -0.311 C  
HETATM   31  C   UNK A   2     -11.331  12.601  68.682  1.00  0.00    -0.331 A  
HETATM   32  C   UNK A   2     -11.421  11.018  70.684  1.00  0.00    -0.034 C  
HETATM   33  C   UNK A   2     -11.207  12.464  70.184  1.00  0.00     0.351 C  
BRANCH  24  34
HETATM   34  O   UNK A   2     -11.810  12.932  64.537  1.00  0.00    -0.338 OA 
HETATM   35  C   UNK A   2     -10.858  12.281  63.720  1.00  0.00    -0.442 C  
ENDBRANCH  24  34
BRANCH  27  36
HETATM   36  O   UNK A   2     -11.786  15.091  65.953  1.00  0.00    -0.248 OA 
HETATM   37  C   UNK A   2     -10.627  15.860  65.696  1.00  0.00    -0.378 C  
ENDBRANCH  27  36
ENDBRANCH  17  19
ENDBRANCH  15  17
ENDBRANCH   6  15
ENDBRANCH   4   6
ENDBRANCH   3   4
ENDBRANCH   2   3
TORSDOF 11
ENDMDL
MODEL      209
REMARK 921   NORMALIZED FREE ENERGY PREDICTED BY IDOCK:   -3.11 KCAL/MOL
REMARK 922        TOTAL FREE ENERGY PREDICTED BY IDOCK:   -7.02 KCAL/MOL
REMARK 923 INTER-LIGAND FREE ENERGY PREDICTED BY IDOCK:   -5.33 KCAL/MOL
REMARK 924 INTRA-LIGAND FREE ENERGY PREDICTED BY IDOCK:   -1.69 KCAL/MOL
REMARK 927      BINDING AFFINITY PREDICTED BY RF-SCORE:    0.00 PKD
ROOT
HETATM    1  C   UNK A   0      -6.599  12.697  67.669  1.00  0.00    -0.143 C  
HETATM    2  C   UNK A   0      -5.690  11.818  68.505  1.00  0.00    -0.048 C  
ENDROOT
BRANCH   2   3
HETATM    3  O   UNK A   0      -6.334  10.556  68.707  1.00  0.00    -0.047 OA 
BRANCH   3   4
HETATM    4  C   UNK A   0      -6.664  10.233  69.990  1.00  0.00    -0.137 C  
HETATM    5  O   UNK A   0      -6.475  10.931  70.981  1.00  0.00    -0.265 OA 
BRANCH   4   6
HETATM    6  C   UNK A   0      -7.382   8.882  69.991  1.00  0.00    -0.056 C  
BRANCH   6   7
HETATM    7  C   UNK A   0      -8.753   9.026  70.654  1.00  0.00    -0.251 C  
BRANCH   7   8
HETATM    8  C   UNK A   0      -9.811   9.965  70.053  1.00  0.00    -0.291 C  
BRANCH   8   9
HETATM    9  C   UNK A   0      -9.925   9.791  68.530  1.00  0.00    -0.177 A  
HETATM   10  C   UNK A   0      -9.757  10.895  67.681  1.00  0.00    -0.188 A  
HETATM   11  C   UNK A   0      -9.742  10.732  66.284  1.00  0.00    -0.248 A  
HETATM   12  C   UNK A   0     -10.121   8.535  67.916  1.00  0.00    -0.258 A  
HETATM   13  C   UNK A   0      -9.887   9.468  65.712  1.00  0.00    -0.363 A  
HETATM   14  C   UNK A   0     -10.087   8.369  66.531  1.00  0.00    -0.317 A  
ENDBRANCH   8   9
ENDBRANCH   7   8
ENDBRANCH   6   7
BRANCH   6  15
ATOM     15  N   ALA A   1      -6.562   7.865  70.696  1.00  0.00    -0.037 NA 
ATOM     16  H   ALA A   1      -5.766   7.448  70.214  1.00  0.00     0.000 HD 
BRANCH  15  17
ATOM     17  CA  ALA A   1      -6.875   7.438  72.091  1.00  0.00    -0.059 C  
ATOM     18  CB  ALA A   1      -6.905   8.461  73.240  1.00  0.00    -0.113 C  
BRANCH  17  19
ATOM     19  C   ALA A   1      -7.979   6.340  72.238  1.00  0.00    -0.104 C  
ATOM     20  O   ALA A   1      -8.749   6.401  73.205  1.00  0.00    -0.123 OA 
HETATM   21  C   UNK A   2      -8.016   5.018  68.821  1.00  0.00    -0.081 A  
HETATM   22  C   UNK A   2      -7.212   4.995  67.674  1.00  0.00    -0.070 A  
HETATM   23  N   UNK A   2      -8.196   5.393  71.251  1.00  0.00    -0.118 N  
HETATM   24  C   UNK A   2      -7.786   4.910  66.417  1.00  0.00    -0.092 A  
HETATM   25  C   UNK A   2      -7.324   5.127  70.135  1.00  0.00    -0.062 C  
HETATM   26  O   UNK A   2     -10.131   2.392  72.051  1.00  0.00    -0.162 OA 
HETATM   27  C   UNK A   2      -9.176   4.869  66.292  1.00  0.00    -0.142 A  
HETATM   28  C   UNK A   2      -9.982   4.883  67.449  1.00  0.00    -0.209 A  
HETATM   29  O   UNK A   2      -8.236   2.448  70.851  1.00  0.00    -0.049 OA 
HETATM   30  C   UNK A   2      -9.175   3.050  71.364  1.00  0.00    -0.120 C  
HETATM   31  C   UNK A   2      -9.403   4.924  68.723  1.00  0.00    -0.184 A  
HETATM   32  C   UNK A   2      -9.422   4.577  71.254  1.00  0.00    -0.158 C  
HETATM   33  C   UNK A   2     -10.238   4.915  69.985  1.00  0.00    -0.313 C  
BRANCH  24  34
HETATM   34  O   UNK A   2      -7.061   4.811  65.256  1.00  0.00    -0.061 OA 
HETATM   35  C   UNK A   2      -6.259   5.943  64.981  1.00  0.00    -0.036 C  
ENDBRANCH  24  34
BRANCH  27  36
HETATM   36  O   UNK A   2      -9.630   4.842  65.009  1.00  0.00    -0.139 OA 
HETATM   37  C   UNK A   2     -10.325   3.686  64.585  1.00  0.00    -0.109 C  
ENDBRANCH  27  36
ENDBRANCH  17  19
ENDBRANCH  15  17
ENDBRANCH   6  15
ENDBRANCH   4   6
ENDBRANCH   3   4
ENDBRANCH   2   3
TORSDOF 11
ENDMDL
MODEL      210
REMARK 921   NORMALIZED FREE ENERGY PREDICTED BY IDOCK:   -3.11 KCAL/MOL
REMARK 922        TOTAL FREE ENERGY PREDICTED BY IDOCK:   -7.02 KCAL/MOL
REMARK 923 INTER-LIGAND FREE ENERGY PREDICTED BY IDOCK:   -5.54 KCAL/MOL
REMARK 924 INTRA-LIGAND FREE ENERGY PREDICTED BY IDOCK:   -1.48 KCAL/MOL
REMARK 927      BINDING AFFINITY PREDICTED BY RF-SCORE:    0.00 PKD
ROOT
HETATM    1  C   UNK A   0      -7.986  12.756  67.199  1.00  0.00    -0.112 C  
HETATM    2  C   UNK A   0      -7.594  12.371  68.612  1.00  0.00    -0.082 C  
ENDROOT
BRANCH   2   3
HETATM    3  O   UNK A   0      -6.229  11.942  68.607  1.00  0.00    -0.051 OA 
BRANCH   3   4
HETATM    4  C   UNK A   0      -5.902  10.942  67.740  1.00  0.00    -0.043 C  
HETATM    5  O   UNK A   0      -5.332  11.080  66.662  1.00  0.00    -0.064 OA 
BRANCH   4   6
HETATM    6  C   UNK A   0      -6.294   9.601  68.361  1.00  0.00    -0.051 C  
BRANCH   6   7
HETATM    7  C   UNK A   0      -5.712   8.456  67.528  1.00  0.00    -0.039 C  
BRANCH   7   8
HETATM    8  C   UNK A   0      -6.635   7.571  66.676  1.00  0.00    -0.054 C  
BRANCH   8   9
HETATM    9  C   UNK A   0      -7.054   8.273  65.374  1.00  0.00    -0.067 A  
HETATM   10  C   UNK A   0      -8.304   8.903  65.285  1.00  0.00    -0.168 A  
HETATM   11  C   UNK A   0      -8.654   9.648  64.145  1.00  0.00    -0.209 A  
HETATM   12  C   UNK A   0      -6.198   8.387  64.258  1.00  0.00    -0.066 A  
HETATM   13  C   UNK A   0      -7.763   9.783  63.081  1.00  0.00    -0.132 A  
HETATM   14  C   UNK A   0      -6.536   9.142  63.134  1.00  0.00    -0.090 A  
ENDBRANCH   8   9
ENDBRANCH   7   8
ENDBRANCH   6   7
BRANCH   6  15
ATOM     15  N   ALA A   1      -7.771   9.487  68.449  1.00  0.00    -0.085 NA 
ATOM     16  H   ALA A   1      -8.350  10.018  67.798  1.00  0.00     0.000 HD 
BRANCH  15  17
ATOM     17  CA  ALA A   1      -8.429   8.618  69.467  1.00  0.00    -0.129 C  
ATOM     18  CB  ALA A   1      -7.616   7.582  70.262  1.00  0.00    -0.090 C  
BRANCH  17  19
ATOM     19  C   ALA A   1      -9.540   9.298  70.332  1.00  0.00    -0.244 C  
ATOM     20  O   ALA A   1      -9.413   9.303  71.563  1.00  0.00    -0.266 OA 
HETATM   21  C   UNK A   2     -11.173  11.344  67.768  1.00  0.00    -0.346 A  
HETATM   22  C   UNK A   2     -11.279  11.428  66.373  1.00  0.00    -0.250 A  
HETATM   23  N   UNK A   2     -10.581  10.006  69.751  1.00  0.00    -0.248 N  
HETATM   24  C   UNK A   2     -11.497  12.649  65.759  1.00  0.00    -0.358 A  
HETATM   25  C   UNK A   2     -10.923   9.997  68.352  1.00  0.00    -0.217 C  
HETATM   26  O   UNK A   2     -13.549  10.775  71.747  1.00  0.00    -0.225 OA 
HETATM   27  C   UNK A   2     -11.589  13.807  66.534  1.00  0.00    -0.365 A  
HETATM   28  C   UNK A   2     -11.491  13.718  67.938  1.00  0.00    -0.347 A  
HETATM   29  O   UNK A   2     -13.550  10.048  69.624  1.00  0.00     0.779 OA 
HETATM   30  C   UNK A   2     -12.930  10.510  70.578  1.00  0.00    -0.219 C  
HETATM   31  C   UNK A   2     -11.316  12.478  68.565  1.00  0.00    -0.337 A  
HETATM   32  C   UNK A   2     -11.428  10.893  70.565  1.00  0.00    -0.220 C  
HETATM   33  C   UNK A   2     -11.233  12.344  70.070  1.00  0.00     0.187 C  
BRANCH  24  34
HETATM   34  O   UNK A   2     -11.681  12.797  64.407  1.00  0.00    -0.329 OA 
HETATM   35  C   UNK A   2     -12.779  12.070  63.893  1.00  0.00    -0.354 C  
ENDBRANCH  24  34
BRANCH  27  36
HETATM   36  O   UNK A   2     -11.748  14.956  65.821  1.00  0.00    -0.296 OA 
HETATM   37  C   UNK A   2     -10.631  15.817  65.709  1.00  0.00    -0.355 C  
ENDBRANCH  27  36
ENDBRANCH  17  19
ENDBRANCH  15  17
ENDBRANCH   6  15
ENDBRANCH   4   6
ENDBRANCH   3   4
ENDBRANCH   2   3
TORSDOF 11
ENDMDL
MODEL      211
REMARK 921   NORMALIZED FREE ENERGY PREDICTED BY IDOCK:   -3.11 KCAL/MOL
REMARK 922        TOTAL FREE ENERGY PREDICTED BY IDOCK:   -7.02 KCAL/MOL
REMARK 923 INTER-LIGAND FREE ENERGY PREDICTED BY IDOCK:   -5.53 KCAL/MOL
REMARK 924 INTRA-LIGAND FREE ENERGY PREDICTED BY IDOCK:   -1.49 KCAL/MOL
REMARK 927      BINDING AFFINITY PREDICTED BY RF-SCORE:    0.00 PKD
ROOT
HETATM    1  C   UNK A   0     -12.656  14.933  68.662  1.00  0.00     0.382 C  
HETATM    2  C   UNK A   0     -11.794  13.828  68.083  1.00  0.00    -0.376 C  
ENDROOT
BRANCH   2   3
HETATM    3  O   UNK A   0     -11.707  12.768  69.041  1.00  0.00    -0.288 OA 
BRANCH   3   4
HETATM    4  C   UNK A   0     -12.080  11.525  68.617  1.00  0.00    -0.129 C  
HETATM    5  O   UNK A   0     -12.065  11.125  67.458  1.00  0.00    -0.444 OA 
BRANCH   4   6
HETATM    6  C   UNK A   0     -12.452  10.679  69.835  1.00  0.00    -0.173 C  
BRANCH   6   7
HETATM    7  C   UNK A   0     -13.195  11.543  70.857  1.00  0.00     0.177 C  
BRANCH   7   8
HETATM    8  C   UNK A   0     -12.422  12.251  71.981  1.00  0.00     0.318 C  
BRANCH   8   9
HETATM    9  C   UNK A   0     -13.011  13.637  72.290  1.00  0.00    -0.419 A  
HETATM   10  C   UNK A   0     -12.564  14.358  73.407  1.00  0.00    -0.262 A  
HETATM   11  C   UNK A   0     -13.005  15.673  73.637  1.00  0.00    -0.655 A  
HETATM   12  C   UNK A   0     -13.947  14.275  71.447  1.00  0.00    -0.343 A  
HETATM   13  C   UNK A   0     -13.892  16.292  72.756  1.00  0.00     0.084 A  
HETATM   14  C   UNK A   0     -14.371  15.586  71.665  1.00  0.00    -0.510 A  
ENDBRANCH   8   9
ENDBRANCH   7   8
ENDBRANCH   6   7
BRANCH   6  15
ATOM     15  N   ALA A   1     -11.234  10.083  70.438  1.00  0.00    -0.300 NA 
ATOM     16  H   ALA A   1     -10.713  10.616  71.135  1.00  0.00     0.000 HD 
BRANCH  15  17
ATOM     17  CA  ALA A   1     -10.753   8.725  70.051  1.00  0.00    -0.228 C  
ATOM     18  CB  ALA A   1     -11.480   7.462  70.545  1.00  0.00    -0.281 C  
BRANCH  17  19
ATOM     19  C   ALA A   1     -10.227   8.578  68.586  1.00  0.00    -0.197 C  
ATOM     20  O   ALA A   1     -10.891   7.913  67.782  1.00  0.00    -0.152 OA 
HETATM   21  C   UNK A   2      -7.846  11.362  68.488  1.00  0.00    -0.140 A  
HETATM   22  C   UNK A   2      -7.137  12.195  69.363  1.00  0.00     0.112 A  
HETATM   23  N   UNK A   2      -9.118   9.280  68.139  1.00  0.00    -0.128 N  
HETATM   24  C   UNK A   2      -6.798  13.483  68.986  1.00  0.00    -0.107 A  
HETATM   25  C   UNK A   2      -8.187   9.996  68.973  1.00  0.00    -0.124 C  
HETATM   26  O   UNK A   2      -7.459   8.220  65.055  1.00  0.00    -0.082 OA 
HETATM   27  C   UNK A   2      -7.187  13.962  67.733  1.00  0.00    -0.164 A  
HETATM   28  C   UNK A   2      -7.893  13.118  66.851  1.00  0.00     0.172 A  
HETATM   29  O   UNK A   2      -6.430   8.828  66.954  1.00  0.00    -0.059 OA 
HETATM   30  C   UNK A   2      -7.457   8.780  66.282  1.00  0.00    -0.087 C  
HETATM   31  C   UNK A   2      -8.197  11.800  67.212  1.00  0.00    -0.163 A  
HETATM   32  C   UNK A   2      -8.825   9.378  66.700  1.00  0.00    -0.135 C  
HETATM   33  C   UNK A   2      -8.931  10.861  66.279  1.00  0.00    -0.188 C  
BRANCH  24  34
HETATM   34  O   UNK A   2      -6.045  14.328  69.761  1.00  0.00    -0.113 OA 
HETATM   35  C   UNK A   2      -5.631  13.766  70.991  1.00  0.00    -0.208 C  
ENDBRANCH  24  34
BRANCH  27  36
HETATM   36  O   UNK A   2      -6.849  15.259  67.492  1.00  0.00    -0.171 OA 
HETATM   37  C   UNK A   2      -7.869  16.232  67.598  1.00  0.00    -0.145 C  
ENDBRANCH  27  36
ENDBRANCH  17  19
ENDBRANCH  15  17
ENDBRANCH   6  15
ENDBRANCH   4   6
ENDBRANCH   3   4
ENDBRANCH   2   3
TORSDOF 11
ENDMDL
MODEL      212
REMARK 921   NORMALIZED FREE ENERGY PREDICTED BY IDOCK:   -3.00 KCAL/MOL
REMARK 922        TOTAL FREE ENERGY PREDICTED BY IDOCK:   -6.84 KCAL/MOL
REMARK 923 INTER-LIGAND FREE ENERGY PREDICTED BY IDOCK:   -6.20 KCAL/MOL
REMARK 924 INTRA-LIGAND FREE ENERGY PREDICTED BY IDOCK:   -0.64 KCAL/MOL
REMARK 927      BINDING AFFINITY PREDICTED BY RF-SCORE:    0.00 PKD
ROOT
HETATM    1  C   UNK A   0      -8.497  10.891  62.333  1.00  0.00    -0.323 C  
HETATM    2  C   UNK A   0      -9.473  10.485  63.421  1.00  0.00    -0.316 C  
ENDROOT
BRANCH   2   3
HETATM    3  O   UNK A   0      -8.798  10.537  64.682  1.00  0.00    -0.185 OA 
BRANCH   3   4
HETATM    4  C   UNK A   0      -9.419  11.226  65.683  1.00  0.00    -0.229 C  
HETATM    5  O   UNK A   0      -9.662  12.429  65.686  1.00  0.00    -0.240 OA 
BRANCH   4   6
HETATM    6  C   UNK A   0      -9.834  10.242  66.777  1.00  0.00    -0.197 C  
BRANCH   6   7
HETATM    7  C   UNK A   0      -9.595  10.868  68.153  1.00  0.00    -0.169 C  
BRANCH   7   8
HETATM    8  C   UNK A   0     -10.766  11.069  69.127  1.00  0.00    -0.274 C  
BRANCH   8   9
HETATM    9  C   UNK A   0     -11.107  12.557  69.307  1.00  0.00    -0.203 A  
HETATM   10  C   UNK A   0     -10.385  13.534  68.606  1.00  0.00    -0.220 A  
HETATM   11  C   UNK A   0     -10.759  14.888  68.670  1.00  0.00    -0.250 A  
HETATM   12  C   UNK A   0     -12.185  13.003  70.103  1.00  0.00    -0.342 A  
HETATM   13  C   UNK A   0     -11.861  15.288  69.425  1.00  0.00    -0.367 A  
HETATM   14  C   UNK A   0     -12.568  14.344  70.151  1.00  0.00    -0.340 A  
ENDBRANCH   8   9
ENDBRANCH   7   8
ENDBRANCH   6   7
BRANCH   6  15
ATOM     15  N   ALA A   1      -9.078   8.972  66.640  1.00  0.00    -0.153 NA 
ATOM     16  H   ALA A   1      -8.181   8.977  66.156  1.00  0.00     0.000 HD 
BRANCH  15  17
ATOM     17  CA  ALA A   1      -9.600   7.688  67.193  1.00  0.00    -0.162 C  
ATOM     18  CB  ALA A   1     -11.110   7.395  67.216  1.00  0.00    -0.068 C  
BRANCH  17  19
ATOM     19  C   ALA A   1      -8.748   6.414  66.880  1.00  0.00    -0.115 C  
ATOM     20  O   ALA A   1      -7.945   6.454  65.940  1.00  0.00    -0.106 OA 
HETATM   21  C   UNK A   2      -9.128   4.607  70.045  1.00  0.00    -0.161 A  
HETATM   22  C   UNK A   2      -9.963   4.582  71.169  1.00  0.00    -0.257 A  
HETATM   23  N   UNK A   2      -8.775   5.302  67.706  1.00  0.00    -0.104 N  
HETATM   24  C   UNK A   2      -9.472   4.183  72.400  1.00  0.00    -0.129 A  
HETATM   25  C   UNK A   2      -9.728   5.062  68.760  1.00  0.00    -0.161 C  
HETATM   26  O   UNK A   2      -7.489   2.114  66.453  1.00  0.00    -0.060 OA 
HETATM   27  C   UNK A   2      -8.128   3.826  72.525  1.00  0.00    -0.081 A  
HETATM   28  C   UNK A   2      -7.292   3.843  71.390  1.00  0.00    -0.040 A  
HETATM   29  O   UNK A   2      -9.376   2.392  67.634  1.00  0.00    -0.184 OA 
HETATM   30  C   UNK A   2      -8.310   2.849  67.230  1.00  0.00    -0.086 C  
HETATM   31  C   UNK A   2      -7.798   4.202  70.135  1.00  0.00    -0.051 A  
HETATM   32  C   UNK A   2      -7.751   4.251  67.582  1.00  0.00    -0.084 C  
HETATM   33  C   UNK A   2      -6.934   4.207  68.892  1.00  0.00    -0.047 C  
BRANCH  24  34
HETATM   34  O   UNK A   2     -10.247   4.066  73.526  1.00  0.00    -0.129 OA 
HETATM   35  C   UNK A   2     -10.381   5.267  74.259  1.00  0.00    -0.277 C  
ENDBRANCH  24  34
BRANCH  27  36
HETATM   36  O   UNK A   2      -7.742   3.505  73.791  1.00  0.00    -0.064 OA 
HETATM   37  C   UNK A   2      -6.810   2.452  73.943  1.00  0.00    -0.027 C  
ENDBRANCH  27  36
ENDBRANCH  17  19
ENDBRANCH  15  17
ENDBRANCH   6  15
ENDBRANCH   4   6
ENDBRANCH   3   4
ENDBRANCH   2   3
TORSDOF 11
ENDMDL
MODEL      213
REMARK 921   NORMALIZED FREE ENERGY PREDICTED BY IDOCK:   -2.98 KCAL/MOL
REMARK 922        TOTAL FREE ENERGY PREDICTED BY IDOCK:   -6.81 KCAL/MOL
REMARK 923 INTER-LIGAND FREE ENERGY PREDICTED BY IDOCK:   -6.26 KCAL/MOL
REMARK 924 INTRA-LIGAND FREE ENERGY PREDICTED BY IDOCK:   -0.54 KCAL/MOL
REMARK 927      BINDING AFFINITY PREDICTED BY RF-SCORE:    0.00 PKD
ROOT
HETATM    1  C   UNK A   0      -9.445   5.816  71.711  1.00  0.00    -0.167 C  
HETATM    2  C   UNK A   0      -8.853   7.152  72.114  1.00  0.00    -0.128 C  
ENDROOT
BRANCH   2   3
HETATM    3  O   UNK A   0      -8.932   8.043  70.997  1.00  0.00    -0.138 OA 
BRANCH   3   4
HETATM    4  C   UNK A   0      -7.865   8.060  70.147  1.00  0.00    -0.099 C  
HETATM    5  O   UNK A   0      -6.808   8.656  70.330  1.00  0.00    -0.038 OA 
BRANCH   4   6
HETATM    6  C   UNK A   0      -8.167   7.151  68.956  1.00  0.00    -0.125 C  
BRANCH   6   7
HETATM    7  C   UNK A   0      -6.859   6.730  68.282  1.00  0.00    -0.077 C  
BRANCH   7   8
HETATM    8  C   UNK A   0      -6.773   5.398  67.520  1.00  0.00    -0.055 C  
BRANCH   8   9
HETATM    9  C   UNK A   0      -7.393   4.243  68.321  1.00  0.00    -0.064 A  
HETATM   10  C   UNK A   0      -6.764   3.779  69.486  1.00  0.00    -0.037 A  
HETATM   11  C   UNK A   0      -7.377   2.804  70.294  1.00  0.00    -0.040 A  
HETATM   12  C   UNK A   0      -8.632   3.656  67.984  1.00  0.00    -0.116 A  
HETATM   13  C   UNK A   0      -8.626   2.282  69.957  1.00  0.00    -0.100 A  
HETATM   14  C   UNK A   0      -9.249   2.702  68.794  1.00  0.00    -0.228 A  
ENDBRANCH   8   9
ENDBRANCH   7   8
ENDBRANCH   6   7
BRANCH   6  15
ATOM     15  N   ALA A   1      -9.054   7.846  67.991  1.00  0.00    -0.133 NA 
ATOM     16  H   ALA A   1      -9.939   7.412  67.728  1.00  0.00     0.000 HD 
BRANCH  15  17
ATOM     17  CA  ALA A   1      -8.684   9.163  67.395  1.00  0.00    -0.115 C  
ATOM     18  CB  ALA A   1      -7.226   9.473  67.015  1.00  0.00    -0.087 C  
BRANCH  17  19
ATOM     19  C   ALA A   1      -9.709   9.766  66.380  1.00  0.00    -0.216 C  
ATOM     20  O   ALA A   1     -10.477   8.998  65.787  1.00  0.00     0.275 OA 
HETATM   21  C   UNK A   2      -9.667  13.271  67.446  1.00  0.00    -0.221 A  
HETATM   22  C   UNK A   2      -8.868  14.157  68.181  1.00  0.00    -0.183 A  
HETATM   23  N   UNK A   2      -9.864  11.135  66.232  1.00  0.00    -0.207 N  
HETATM   24  C   UNK A   2      -9.439  15.222  68.855  1.00  0.00    -0.218 A  
HETATM   25  C   UNK A   2      -8.980  12.142  66.761  1.00  0.00    -0.203 C  
HETATM   26  O   UNK A   2     -11.583  12.427  63.272  1.00  0.00    -0.449 OA 
HETATM   27  C   UNK A   2     -10.823  15.400  68.822  1.00  0.00    -0.252 A  
HETATM   28  C   UNK A   2     -11.624  14.513  68.073  1.00  0.00    -0.364 A  
HETATM   29  O   UNK A   2      -9.701  13.263  64.163  1.00  0.00    -0.063 OA 
HETATM   30  C   UNK A   2     -10.678  12.526  64.267  1.00  0.00    -0.369 C  
HETATM   31  C   UNK A   2     -11.044  13.461  67.353  1.00  0.00    -0.297 A  
HETATM   32  C   UNK A   2     -11.030  11.683  65.520  1.00  0.00    -0.270 C  
HETATM   33  C   UNK A   2     -11.872  12.507  66.520  1.00  0.00    -0.434 C  
BRANCH  24  34
HETATM   34  O   UNK A   2      -8.713  16.168  69.535  1.00  0.00    -0.173 OA 
HETATM   35  C   UNK A   2      -7.329  16.144  69.252  1.00  0.00    -0.231 C  
ENDBRANCH  24  34
BRANCH  27  36
HETATM   36  O   UNK A   2     -11.280  16.445  69.566  1.00  0.00    -0.308 OA 
HETATM   37  C   UNK A   2     -11.670  16.179  70.898  1.00  0.00    -0.334 C  
ENDBRANCH  27  36
ENDBRANCH  17  19
ENDBRANCH  15  17
ENDBRANCH   6  15
ENDBRANCH   4   6
ENDBRANCH   3   4
ENDBRANCH   2   3
TORSDOF 11
ENDMDL
MODEL      214
REMARK 921   NORMALIZED FREE ENERGY PREDICTED BY IDOCK:   -2.93 KCAL/MOL
REMARK 922        TOTAL FREE ENERGY PREDICTED BY IDOCK:   -6.72 KCAL/MOL
REMARK 923 INTER-LIGAND FREE ENERGY PREDICTED BY IDOCK:   -5.79 KCAL/MOL
REMARK 924 INTRA-LIGAND FREE ENERGY PREDICTED BY IDOCK:   -0.93 KCAL/MOL
REMARK 927      BINDING AFFINITY PREDICTED BY RF-SCORE:    0.00 PKD
ROOT
HETATM    1  C   UNK A   0      -6.339  14.016  69.546  1.00  0.00    -0.121 C  
HETATM    2  C   UNK A   0      -6.967  13.576  68.238  1.00  0.00    -0.108 C  
ENDROOT
BRANCH   2   3
HETATM    3  O   UNK A   0      -8.386  13.509  68.411  1.00  0.00    -0.156 OA 
BRANCH   3   4
HETATM    4  C   UNK A   0      -8.931  12.265  68.541  1.00  0.00    -0.070 C  
HETATM    5  O   UNK A   0      -9.866  11.961  69.276  1.00  0.00     0.165 OA 
BRANCH   4   6
HETATM    6  C   UNK A   0      -8.236  11.316  67.565  1.00  0.00    -0.124 C  
BRANCH   6   7
HETATM    7  C   UNK A   0      -9.118  11.106  66.332  1.00  0.00    -0.198 C  
BRANCH   7   8
HETATM    8  C   UNK A   0     -10.643  10.989  66.481  1.00  0.00    -0.310 C  
BRANCH   8   9
HETATM    9  C   UNK A   0     -11.377  12.088  65.697  1.00  0.00    -0.381 A  
HETATM   10  C   UNK A   0     -11.826  13.242  66.356  1.00  0.00    -0.446 A  
HETATM   11  C   UNK A   0     -12.393  14.308  65.634  1.00  0.00    -0.416 A  
HETATM   12  C   UNK A   0     -11.563  12.036  64.298  1.00  0.00    -0.435 A  
HETATM   13  C   UNK A   0     -12.516  14.244  64.247  1.00  0.00    -0.304 A  
HETATM   14  C   UNK A   0     -12.108  13.100  63.579  1.00  0.00    -0.585 A  
ENDBRANCH   8   9
ENDBRANCH   7   8
ENDBRANCH   6   7
BRANCH   6  15
ATOM     15  N   ALA A   1      -7.943  10.020  68.227  1.00  0.00    -0.096 NA 
ATOM     16  H   ALA A   1      -8.399   9.801  69.113  1.00  0.00     0.000 HD 
BRANCH  15  17
ATOM     17  CA  ALA A   1      -6.999   9.032  67.630  1.00  0.00    -0.075 C  
ATOM     18  CB  ALA A   1      -5.723   8.610  68.379  1.00  0.00    -0.038 C  
BRANCH  17  19
ATOM     19  C   ALA A   1      -7.654   7.846  66.850  1.00  0.00    -0.099 C  
ATOM     20  O   ALA A   1      -7.409   7.723  65.643  1.00  0.00    -0.070 OA 
HETATM   21  C   UNK A   2      -8.603   5.689  69.656  1.00  0.00    -0.110 A  
HETATM   22  C   UNK A   2      -8.811   5.762  71.039  1.00  0.00    -0.143 A  
HETATM   23  N   UNK A   2      -8.385   6.864  67.500  1.00  0.00    -0.122 N  
HETATM   24  C   UNK A   2      -8.592   4.656  71.841  1.00  0.00    -0.122 A  
HETATM   25  C   UNK A   2      -8.846   6.926  68.864  1.00  0.00    -0.129 C  
HETATM   26  O   UNK A   2     -10.583   4.687  65.547  1.00  0.00    -0.261 OA 
HETATM   27  C   UNK A   2      -8.138   3.466  71.269  1.00  0.00    -0.060 A  
HETATM   28  C   UNK A   2      -7.938   3.392  69.875  1.00  0.00    -0.053 A  
HETATM   29  O   UNK A   2     -11.092   5.637  67.516  1.00  0.00    -0.087 OA 
HETATM   30  C   UNK A   2     -10.245   5.339  66.678  1.00  0.00    -0.253 C  
HETATM   31  C   UNK A   2      -8.203   4.496  69.056  1.00  0.00    -0.082 A  
HETATM   32  C   UNK A   2      -8.723   5.606  66.815  1.00  0.00    -0.115 C  
HETATM   33  C   UNK A   2      -8.023   4.443  67.554  1.00  0.00    -0.096 C  
BRANCH  24  34
HETATM   34  O   UNK A   2      -8.841   4.634  73.190  1.00  0.00    -0.111 OA 
HETATM   35  C   UNK A   2      -8.277   5.720  73.898  1.00  0.00    -0.109 C  
ENDBRANCH  24  34
BRANCH  27  36
HETATM   36  O   UNK A   2      -7.903   2.462  72.159  1.00  0.00    -0.051 OA 
HETATM   37  C   UNK A   2      -6.653   2.453  72.820  1.00  0.00    -0.018 C  
ENDBRANCH  27  36
ENDBRANCH  17  19
ENDBRANCH  15  17
ENDBRANCH   6  15
ENDBRANCH   4   6
ENDBRANCH   3   4
ENDBRANCH   2   3
TORSDOF 11
ENDMDL
MODEL      215
REMARK 921   NORMALIZED FREE ENERGY PREDICTED BY IDOCK:   -2.93 KCAL/MOL
REMARK 922        TOTAL FREE ENERGY PREDICTED BY IDOCK:   -6.72 KCAL/MOL
REMARK 923 INTER-LIGAND FREE ENERGY PREDICTED BY IDOCK:   -5.97 KCAL/MOL
REMARK 924 INTRA-LIGAND FREE ENERGY PREDICTED BY IDOCK:   -0.75 KCAL/MOL
REMARK 927      BINDING AFFINITY PREDICTED BY RF-SCORE:    0.00 PKD
ROOT
HETATM    1  C   UNK A   0      -5.270  13.417  67.398  1.00  0.00     0.194 C  
HETATM    2  C   UNK A   0      -6.457  12.491  67.216  1.00  0.00    -0.121 C  
ENDROOT
BRANCH   2   3
HETATM    3  O   UNK A   0      -6.376  11.447  68.192  1.00  0.00    -0.049 OA 
BRANCH   3   4
HETATM    4  C   UNK A   0      -7.548  11.047  68.763  1.00  0.00    -0.127 C  
HETATM    5  O   UNK A   0      -7.869  11.203  69.937  1.00  0.00     0.304 OA 
BRANCH   4   6
HETATM    6  C   UNK A   0      -8.440  10.435  67.683  1.00  0.00    -0.114 C  
BRANCH   6   7
HETATM    7  C   UNK A   0      -9.027   9.114  68.184  1.00  0.00    -0.129 C  
BRANCH   7   8
HETATM    8  C   UNK A   0      -9.041   7.876  67.274  1.00  0.00    -0.152 C  
BRANCH   8   9
HETATM    9  C   UNK A   0      -9.209   6.578  68.080  1.00  0.00    -0.112 A  
HETATM   10  C   UNK A   0      -9.877   6.598  69.313  1.00  0.00    -0.157 A  
HETATM   11  C   UNK A   0     -10.143   5.404  70.006  1.00  0.00    -0.324 A  
HETATM   12  C   UNK A   0      -8.785   5.320  67.601  1.00  0.00    -0.106 A  
HETATM   13  C   UNK A   0      -9.754   4.172  69.480  1.00  0.00    -0.254 A  
HETATM   14  C   UNK A   0      -9.064   4.132  68.279  1.00  0.00    -0.176 A  
ENDBRANCH   8   9
ENDBRANCH   7   8
ENDBRANCH   6   7
BRANCH   6  15
ATOM     15  N   ALA A   1      -7.665  10.224  66.435  1.00  0.00    -0.111 NA 
ATOM     16  H   ALA A   1      -6.755   9.767  66.486  1.00  0.00     0.000 HD 
BRANCH  15  17
ATOM     17  CA  ALA A   1      -8.185  10.665  65.107  1.00  0.00    -0.092 C  
ATOM     18  CB  ALA A   1      -7.636  10.056  63.805  1.00  0.00    -0.141 C  
BRANCH  17  19
ATOM     19  C   ALA A   1      -9.721  10.948  65.034  1.00  0.00    -0.267 C  
ATOM     20  O   ALA A   1     -10.480  10.023  64.719  1.00  0.00     0.011 OA 
HETATM   21  C   UNK A   2      -9.886  14.044  66.988  1.00  0.00    -0.260 A  
HETATM   22  C   UNK A   2      -9.047  15.071  67.438  1.00  0.00    -0.194 A  
HETATM   23  N   UNK A   2     -10.255  12.160  65.441  1.00  0.00    -0.264 N  
HETATM   24  C   UNK A   2      -9.331  15.745  68.613  1.00  0.00    -0.206 A  
HETATM   25  C   UNK A   2      -9.504  13.357  65.723  1.00  0.00     0.056 C  
HETATM   26  O   UNK A   2     -13.655  13.046  64.418  1.00  0.00     0.288 OA 
HETATM   27  C   UNK A   2     -10.449  15.382  69.366  1.00  0.00    -0.257 A  
HETATM   28  C   UNK A   2     -11.298  14.354  68.905  1.00  0.00    -0.300 A  
HETATM   29  O   UNK A   2     -11.883  14.423  64.410  1.00  0.00    -0.425 OA 
HETATM   30  C   UNK A   2     -12.390  13.362  64.763  1.00  0.00    -0.396 C  
HETATM   31  C   UNK A   2     -11.037  13.701  67.694  1.00  0.00    -0.293 A  
HETATM   32  C   UNK A   2     -11.704  12.302  65.664  1.00  0.00    -0.382 C  
HETATM   33  C   UNK A   2     -11.941  12.611  67.159  1.00  0.00    -0.326 C  
BRANCH  24  34
HETATM   34  O   UNK A   2      -8.595  16.806  69.077  1.00  0.00    -0.232 OA 
HETATM   35  C   UNK A   2      -7.538  17.192  68.221  1.00  0.00    -0.224 C  
ENDBRANCH  24  34
BRANCH  27  36
HETATM   36  O   UNK A   2     -10.599  16.074  70.529  1.00  0.00    -0.213 OA 
HETATM   37  C   UNK A   2     -11.412  15.497  71.533  1.00  0.00    -0.421 C  
ENDBRANCH  27  36
ENDBRANCH  17  19
ENDBRANCH  15  17
ENDBRANCH   6  15
ENDBRANCH   4   6
ENDBRANCH   3   4
ENDBRANCH   2   3
TORSDOF 11
ENDMDL
MODEL      216
REMARK 921   NORMALIZED FREE ENERGY PREDICTED BY IDOCK:   -2.92 KCAL/MOL
REMARK 922        TOTAL FREE ENERGY PREDICTED BY IDOCK:   -6.70 KCAL/MOL
REMARK 923 INTER-LIGAND FREE ENERGY PREDICTED BY IDOCK:   -7.89 KCAL/MOL
REMARK 924 INTRA-LIGAND FREE ENERGY PREDICTED BY IDOCK:    1.19 KCAL/MOL
REMARK 927      BINDING AFFINITY PREDICTED BY RF-SCORE:    0.00 PKD
ROOT
HETATM    1  C   UNK A   0      -5.780   7.549  69.682  1.00  0.00    -0.023 C  
HETATM    2  C   UNK A   0      -6.259   8.940  69.317  1.00  0.00    -0.042 C  
ENDROOT
BRANCH   2   3
HETATM    3  O   UNK A   0      -6.315   9.045  67.891  1.00  0.00    -0.054 OA 
BRANCH   3   4
HETATM    4  C   UNK A   0      -7.505   9.436  67.350  1.00  0.00    -0.091 C  
HETATM    5  O   UNK A   0      -7.650  10.217  66.415  1.00  0.00    -0.101 OA 
BRANCH   4   6
HETATM    6  C   UNK A   0      -8.637   8.683  68.050  1.00  0.00    -0.137 C  
BRANCH   6   7
HETATM    7  C   UNK A   0      -9.661   8.210  67.015  1.00  0.00    -0.253 C  
BRANCH   7   8
HETATM    8  C   UNK A   0      -9.246   7.232  65.905  1.00  0.00    -0.004 C  
BRANCH   8   9
HETATM    9  C   UNK A   0      -9.206   5.781  66.410  1.00  0.00    -0.160 A  
HETATM   10  C   UNK A   0      -9.767   4.752  65.640  1.00  0.00    -0.188 A  
HETATM   11  C   UNK A   0      -9.636   3.408  66.031  1.00  0.00    -0.064 A  
HETATM   12  C   UNK A   0      -8.552   5.405  67.603  1.00  0.00    -0.104 A  
HETATM   13  C   UNK A   0      -8.939   3.068  67.190  1.00  0.00    -0.180 A  
HETATM   14  C   UNK A   0      -8.405   4.071  67.983  1.00  0.00    -0.099 A  
ENDBRANCH   8   9
ENDBRANCH   7   8
ENDBRANCH   6   7
BRANCH   6  15
ATOM     15  N   ALA A   1      -9.281   9.552  69.066  1.00  0.00    -0.150 NA 
ATOM     16  H   ALA A   1      -9.554   9.150  69.963  1.00  0.00     0.000 HD 
BRANCH  15  17
ATOM     17  CA  ALA A   1      -9.540  10.998  68.808  1.00  0.00    -0.187 C  
ATOM     18  CB  ALA A   1      -8.382  12.008  68.754  1.00  0.00     0.048 C  
BRANCH  17  19
ATOM     19  C   ALA A   1     -10.661  11.316  67.764  1.00  0.00    -0.201 C  
ATOM     20  O   ALA A   1     -11.734  10.706  67.843  1.00  0.00    -0.506 OA 
HETATM   21  C   UNK A   2      -9.464  14.546  66.516  1.00  0.00    -0.310 A  
HETATM   22  C   UNK A   2      -8.290  15.310  66.477  1.00  0.00    -0.124 A  
HETATM   23  N   UNK A   2     -10.528  12.349  66.849  1.00  0.00    -0.223 N  
HETATM   24  C   UNK A   2      -8.353  16.692  66.446  1.00  0.00    -0.318 A  
HETATM   25  C   UNK A   2      -9.312  13.066  66.563  1.00  0.00    -0.217 C  
HETATM   26  O   UNK A   2     -12.737  12.444  63.934  1.00  0.00    -0.673 OA 
HETATM   27  C   UNK A   2      -9.594  17.329  66.478  1.00  0.00    -0.273 A  
HETATM   28  C   UNK A   2     -10.775  16.558  66.508  1.00  0.00    -0.144 A  
HETATM   29  O   UNK A   2     -10.529  12.845  63.919  1.00  0.00    -0.413 OA 
HETATM   30  C   UNK A   2     -11.568  12.698  64.557  1.00  0.00    -0.345 C  
HETATM   31  C   UNK A   2     -10.715  15.159  66.493  1.00  0.00    -0.310 A  
HETATM   32  C   UNK A   2     -11.696  12.835  66.096  1.00  0.00    -0.403 C  
HETATM   33  C   UNK A   2     -11.962  14.302  66.500  1.00  0.00    -0.448 C  
BRANCH  24  34
HETATM   34  O   UNK A   2      -7.249  17.501  66.335  1.00  0.00    -0.234 OA 
HETATM   35  C   UNK A   2      -6.045  16.892  66.756  1.00  0.00    -0.181 C  
ENDBRANCH  24  34
BRANCH  27  36
HETATM   36  O   UNK A   2      -9.535  18.689  66.500  1.00  0.00    -0.306 OA 
HETATM   37  C   UNK A   2     -10.665  19.386  66.985  1.00  0.00    -0.474 C  
ENDBRANCH  27  36
ENDBRANCH  17  19
ENDBRANCH  15  17
ENDBRANCH   6  15
ENDBRANCH   4   6
ENDBRANCH   3   4
ENDBRANCH   2   3
TORSDOF 11
ENDMDL
MODEL      217
REMARK 921   NORMALIZED FREE ENERGY PREDICTED BY IDOCK:   -2.90 KCAL/MOL
REMARK 922        TOTAL FREE ENERGY PREDICTED BY IDOCK:   -6.67 KCAL/MOL
REMARK 923 INTER-LIGAND FREE ENERGY PREDICTED BY IDOCK:   -6.28 KCAL/MOL
REMARK 924 INTRA-LIGAND FREE ENERGY PREDICTED BY IDOCK:   -0.39 KCAL/MOL
REMARK 927      BINDING AFFINITY PREDICTED BY RF-SCORE:    0.00 PKD
ROOT
HETATM    1  C   UNK A   0     -12.764  13.496  72.198  1.00  0.00    -0.230 C  
HETATM    2  C   UNK A   0     -13.154  12.060  71.904  1.00  0.00    -0.370 C  
ENDROOT
BRANCH   2   3
HETATM    3  O   UNK A   0     -12.719  11.731  70.581  1.00  0.00    -0.217 OA 
BRANCH   3   4
HETATM    4  C   UNK A   0     -12.059  10.546  70.429  1.00  0.00    -0.329 C  
HETATM    5  O   UNK A   0     -12.402   9.465  70.896  1.00  0.00    -0.274 OA 
BRANCH   4   6
HETATM    6  C   UNK A   0     -10.853  10.766  69.515  1.00  0.00    -0.242 C  
BRANCH   6   7
HETATM    7  C   UNK A   0     -11.257  11.645  68.329  1.00  0.00    -0.320 C  
BRANCH   7   8
HETATM    8  C   UNK A   0     -11.980  12.980  68.564  1.00  0.00    -0.296 C  
BRANCH   8   9
HETATM    9  C   UNK A   0     -11.061  14.181  68.289  1.00  0.00    -0.274 A  
HETATM   10  C   UNK A   0      -9.689  13.982  68.076  1.00  0.00    -0.221 A  
HETATM   11  C   UNK A   0      -8.856  15.054  67.708  1.00  0.00    -0.172 A  
HETATM   12  C   UNK A   0     -11.545  15.501  68.162  1.00  0.00    -0.313 A  
HETATM   13  C   UNK A   0      -9.377  16.337  67.542  1.00  0.00    -0.217 A  
HETATM   14  C   UNK A   0     -10.723  16.562  67.780  1.00  0.00    -0.329 A  
ENDBRANCH   8   9
ENDBRANCH   7   8
ENDBRANCH   6   7
BRANCH   6  15
ATOM     15  N   ALA A   1     -10.320   9.463  69.045  1.00  0.00    -0.205 NA 
ATOM     16  H   ALA A   1     -10.751   9.012  68.238  1.00  0.00     0.000 HD 
BRANCH  15  17
ATOM     17  CA  ALA A   1      -9.171   8.797  69.724  1.00  0.00    -0.155 C  
ATOM     18  CB  ALA A   1      -8.327   9.550  70.766  1.00  0.00    -0.083 C  
BRANCH  17  19
ATOM     19  C   ALA A   1      -9.376   7.291  70.095  1.00  0.00    -0.155 C  
ATOM     20  O   ALA A   1     -10.092   7.013  71.065  1.00  0.00    -0.195 OA 
HETATM   21  C   UNK A   2      -8.332   5.718  66.956  1.00  0.00    -0.108 A  
HETATM   22  C   UNK A   2      -7.599   6.017  65.800  1.00  0.00    -0.084 A  
HETATM   23  N   UNK A   2      -8.890   6.273  69.291  1.00  0.00    -0.123 N  
HETATM   24  C   UNK A   2      -7.901   5.402  64.598  1.00  0.00    -0.105 A  
HETATM   25  C   UNK A   2      -7.956   6.433  68.206  1.00  0.00    -0.106 C  
HETATM   26  O   UNK A   2      -8.631   2.889  70.659  1.00  0.00    -0.055 OA 
HETATM   27  C   UNK A   2      -8.959   4.493  64.532  1.00  0.00    -0.152 A  
HETATM   28  C   UNK A   2      -9.689   4.186  65.699  1.00  0.00    -0.204 A  
HETATM   29  O   UNK A   2      -7.083   3.915  69.399  1.00  0.00    -0.045 OA 
HETATM   30  C   UNK A   2      -8.231   3.879  69.835  1.00  0.00    -0.053 C  
HETATM   31  C   UNK A   2      -9.357   4.773  66.926  1.00  0.00    -0.141 A  
HETATM   32  C   UNK A   2      -9.353   4.887  69.477  1.00  0.00    -0.130 C  
HETATM   33  C   UNK A   2     -10.104   4.447  68.200  1.00  0.00     0.014 C  
BRANCH  24  34
HETATM   34  O   UNK A   2      -7.182   5.593  63.445  1.00  0.00    -0.048 OA 
HETATM   35  C   UNK A   2      -5.882   6.108  63.656  1.00  0.00    -0.022 C  
ENDBRANCH  24  34
BRANCH  27  36
HETATM   36  O   UNK A   2      -9.201   3.992  63.289  1.00  0.00    -0.120 OA 
HETATM   37  C   UNK A   2     -10.461   3.394  63.059  1.00  0.00    -0.200 C  
ENDBRANCH  27  36
ENDBRANCH  17  19
ENDBRANCH  15  17
ENDBRANCH   6  15
ENDBRANCH   4   6
ENDBRANCH   3   4
ENDBRANCH   2   3
TORSDOF 11
ENDMDL
MODEL      218
REMARK 921   NORMALIZED FREE ENERGY PREDICTED BY IDOCK:   -2.89 KCAL/MOL
REMARK 922        TOTAL FREE ENERGY PREDICTED BY IDOCK:   -6.65 KCAL/MOL
REMARK 923 INTER-LIGAND FREE ENERGY PREDICTED BY IDOCK:   -7.13 KCAL/MOL
REMARK 924 INTRA-LIGAND FREE ENERGY PREDICTED BY IDOCK:    0.48 KCAL/MOL
REMARK 927      BINDING AFFINITY PREDICTED BY RF-SCORE:    0.00 PKD
ROOT
HETATM    1  C   UNK A   0      -5.894  13.091  67.509  1.00  0.00    -0.095 C  
HETATM    2  C   UNK A   0      -6.174  12.895  68.987  1.00  0.00    -0.095 C  
ENDROOT
BRANCH   2   3
HETATM    3  O   UNK A   0      -7.580  12.697  69.163  1.00  0.00     0.071 OA 
BRANCH   3   4
HETATM    4  C   UNK A   0      -8.407  13.613  68.582  1.00  0.00    -0.043 C  
HETATM    5  O   UNK A   0      -8.264  14.832  68.607  1.00  0.00    -0.145 OA 
BRANCH   4   6
HETATM    6  C   UNK A   0      -9.510  12.873  67.825  1.00  0.00    -0.202 C  
BRANCH   6   7
HETATM    7  C   UNK A   0     -10.861  13.540  68.096  1.00  0.00    -0.271 C  
BRANCH   7   8
HETATM    8  C   UNK A   0     -11.729  14.037  66.929  1.00  0.00    -0.435 C  
BRANCH   8   9
HETATM    9  C   UNK A   0     -11.559  13.158  65.680  1.00  0.00    -0.371 A  
HETATM   10  C   UNK A   0     -12.656  12.907  64.843  1.00  0.00    -0.525 A  
HETATM   11  C   UNK A   0     -12.492  12.204  63.636  1.00  0.00    -0.658 A  
HETATM   12  C   UNK A   0     -10.311  12.637  65.276  1.00  0.00    -0.309 A  
HETATM   13  C   UNK A   0     -11.235  11.746  63.242  1.00  0.00    -0.357 A  
HETATM   14  C   UNK A   0     -10.144  11.955  64.070  1.00  0.00    -0.361 A  
ENDBRANCH   8   9
ENDBRANCH   7   8
ENDBRANCH   6   7
BRANCH   6  15
ATOM     15  N   ALA A   1      -9.541  11.445  68.227  1.00  0.00    -0.186 NA 
ATOM     16  H   ALA A   1      -8.861  10.801  67.824  1.00  0.00     0.000 HD 
BRANCH  15  17
ATOM     17  CA  ALA A   1     -10.542  10.929  69.205  1.00  0.00    -0.217 C  
ATOM     18  CB  ALA A   1     -12.034  10.850  68.839  1.00  0.00    -0.277 C  
BRANCH  17  19
ATOM     19  C   ALA A   1     -10.077   9.722  70.086  1.00  0.00    -0.265 C  
ATOM     20  O   ALA A   1     -10.549   9.603  71.223  1.00  0.00    -0.320 OA 
HETATM   21  C   UNK A   2      -8.675   7.549  67.490  1.00  0.00    -0.125 A  
HETATM   22  C   UNK A   2      -8.208   7.621  66.171  1.00  0.00    -0.124 A  
HETATM   23  N   UNK A   2      -9.264   8.723  69.576  1.00  0.00    -0.148 N  
HETATM   24  C   UNK A   2      -8.302   6.524  65.333  1.00  0.00    -0.140 A  
HETATM   25  C   UNK A   2      -8.552   8.776  68.324  1.00  0.00    -0.134 C  
HETATM   26  O   UNK A   2      -7.532   6.478  71.889  1.00  0.00    -0.090 OA 
HETATM   27  C   UNK A   2      -8.888   5.345  65.799  1.00  0.00    -0.151 A  
HETATM   28  C   UNK A   2      -9.348   5.272  67.130  1.00  0.00    -0.124 A  
HETATM   29  O   UNK A   2      -6.636   7.420  70.060  1.00  0.00    -0.044 OA 
HETATM   30  C   UNK A   2      -7.634   7.143  70.721  1.00  0.00    -0.089 C  
HETATM   31  C   UNK A   2      -9.213   6.366  67.993  1.00  0.00    -0.110 A  
HETATM   32  C   UNK A   2      -9.095   7.453  70.302  1.00  0.00    -0.151 C  
HETATM   33  C   UNK A   2      -9.674   6.313  69.434  1.00  0.00    -0.162 C  
BRANCH  24  34
HETATM   34  O   UNK A   2      -7.803   6.500  64.055  1.00  0.00    -0.107 OA 
HETATM   35  C   UNK A   2      -7.988   7.706  63.341  1.00  0.00    -0.093 C  
ENDBRANCH  24  34
BRANCH  27  36
HETATM   36  O   UNK A   2      -8.977   4.351  64.872  1.00  0.00    -0.136 OA 
HETATM   37  C   UNK A   2      -9.170   3.032  65.344  1.00  0.00    -0.141 C  
ENDBRANCH  27  36
ENDBRANCH  17  19
ENDBRANCH  15  17
ENDBRANCH   6  15
ENDBRANCH   4   6
ENDBRANCH   3   4
ENDBRANCH   2   3
TORSDOF 11
ENDMDL
MODEL      219
REMARK 921   NORMALIZED FREE ENERGY PREDICTED BY IDOCK:   -2.81 KCAL/MOL
REMARK 922        TOTAL FREE ENERGY PREDICTED BY IDOCK:   -6.52 KCAL/MOL
REMARK 923 INTER-LIGAND FREE ENERGY PREDICTED BY IDOCK:   -6.27 KCAL/MOL
REMARK 924 INTRA-LIGAND FREE ENERGY PREDICTED BY IDOCK:   -0.25 KCAL/MOL
REMARK 927      BINDING AFFINITY PREDICTED BY RF-SCORE:    0.00 PKD
ROOT
HETATM    1  C   UNK A   0     -10.904   4.119  62.356  1.00  0.00    -0.060 C  
HETATM    2  C   UNK A   0     -10.086   3.529  63.489  1.00  0.00    -0.191 C  
ENDROOT
BRANCH   2   3
HETATM    3  O   UNK A   0     -10.619   4.001  64.731  1.00  0.00    -0.243 OA 
BRANCH   3   4
HETATM    4  C   UNK A   0      -9.730   4.194  65.747  1.00  0.00    -0.204 C  
HETATM    5  O   UNK A   0      -9.762   3.649  66.846  1.00  0.00    -0.196 OA 
BRANCH   4   6
HETATM    6  C   UNK A   0      -8.635   5.150  65.272  1.00  0.00    -0.148 C  
BRANCH   6   7
HETATM    7  C   UNK A   0      -7.292   4.418  65.230  1.00  0.00    -0.073 C  
BRANCH   7   8
HETATM    8  C   UNK A   0      -7.183   2.969  65.732  1.00  0.00    -0.070 C  
BRANCH   8   9
HETATM    9  C   UNK A   0      -6.552   2.898  67.132  1.00  0.00    -0.037 A  
HETATM   10  C   UNK A   0      -6.514   1.679  67.825  1.00  0.00    -0.025 A  
HETATM   11  C   UNK A   0      -5.838   1.572  69.054  1.00  0.00    -0.023 A  
HETATM   12  C   UNK A   0      -5.924   4.004  67.745  1.00  0.00    -0.027 A  
HETATM   13  C   UNK A   0      -5.184   2.674  69.607  1.00  0.00    -0.011 A  
HETATM   14  C   UNK A   0      -5.238   3.895  68.954  1.00  0.00    -0.011 A  
ENDBRANCH   8   9
ENDBRANCH   7   8
ENDBRANCH   6   7
BRANCH   6  15
ATOM     15  N   ALA A   1      -8.561   6.332  66.166  1.00  0.00    -0.137 NA 
ATOM     16  H   ALA A   1      -7.769   6.426  66.800  1.00  0.00     0.000 HD 
BRANCH  15  17
ATOM     17  CA  ALA A   1      -9.617   7.386  66.159  1.00  0.00     0.037 C  
ATOM     18  CB  ALA A   1     -10.912   7.208  66.970  1.00  0.00    -0.304 C  
BRANCH  17  19
ATOM     19  C   ALA A   1      -9.107   8.864  66.162  1.00  0.00    -0.203 C  
ATOM     20  O   ALA A   1      -8.719   9.359  65.096  1.00  0.00    -0.158 OA 
HETATM   21  C   UNK A   2     -10.551  10.026  69.322  1.00  0.00    -0.249 A  
HETATM   22  C   UNK A   2     -11.077   9.508  70.513  1.00  0.00    -0.342 A  
HETATM   23  N   UNK A   2      -9.206   9.665  67.289  1.00  0.00    -0.134 N  
HETATM   24  C   UNK A   2     -12.043  10.206  71.216  1.00  0.00    -0.394 A  
HETATM   25  C   UNK A   2      -9.527   9.207  68.617  1.00  0.00    -0.143 C  
HETATM   26  O   UNK A   2      -7.222  12.732  67.480  1.00  0.00    -0.133 OA 
HETATM   27  C   UNK A   2     -12.513  11.425  70.722  1.00  0.00    -0.365 A  
HETATM   28  C   UNK A   2     -11.975  11.949  69.528  1.00  0.00    -0.355 A  
HETATM   29  O   UNK A   2      -7.512  11.253  69.143  1.00  0.00    -0.120 OA 
HETATM   30  C   UNK A   2      -7.847  11.676  68.040  1.00  0.00    -0.128 C  
HETATM   31  C   UNK A   2     -10.965  11.266  68.839  1.00  0.00    -0.274 A  
HETATM   32  C   UNK A   2      -9.020  11.122  67.191  1.00  0.00    -0.145 C  
HETATM   33  C   UNK A   2     -10.350  11.812  67.569  1.00  0.00    -0.217 C  
BRANCH  24  34
HETATM   34  O   UNK A   2     -12.551   9.795  72.423  1.00  0.00    -0.254 OA 
HETATM   35  C   UNK A   2     -13.294   8.595  72.356  1.00  0.00    -0.343 C  
ENDBRANCH  24  34
BRANCH  27  36
HETATM   36  O   UNK A   2     -13.501  11.996  71.465  1.00  0.00    -0.140 OA 
HETATM   37  C   UNK A   2     -13.318  13.336  71.877  1.00  0.00    -0.451 C  
ENDBRANCH  27  36
ENDBRANCH  17  19
ENDBRANCH  15  17
ENDBRANCH   6  15
ENDBRANCH   4   6
ENDBRANCH   3   4
ENDBRANCH   2   3
TORSDOF 11
ENDMDL
MODEL      220
REMARK 921   NORMALIZED FREE ENERGY PREDICTED BY IDOCK:   -2.77 KCAL/MOL
REMARK 922        TOTAL FREE ENERGY PREDICTED BY IDOCK:   -6.46 KCAL/MOL
REMARK 923 INTER-LIGAND FREE ENERGY PREDICTED BY IDOCK:   -5.62 KCAL/MOL
REMARK 924 INTRA-LIGAND FREE ENERGY PREDICTED BY IDOCK:   -0.84 KCAL/MOL
REMARK 927      BINDING AFFINITY PREDICTED BY RF-SCORE:    0.00 PKD
ROOT
HETATM    1  C   UNK A   0     -11.227  13.128  67.809  1.00  0.00    -0.308 C  
HETATM    2  C   UNK A   0     -10.218  14.233  68.052  1.00  0.00    -0.226 C  
ENDROOT
BRANCH   2   3
HETATM    3  O   UNK A   0      -9.144  13.707  68.838  1.00  0.00    -0.003 OA 
BRANCH   3   4
HETATM    4  C   UNK A   0      -8.163  14.583  69.203  1.00  0.00    -0.017 C  
HETATM    5  O   UNK A   0      -7.970  15.018  70.334  1.00  0.00     0.431 OA 
BRANCH   4   6
HETATM    6  C   UNK A   0      -7.289  14.881  67.985  1.00  0.00    -0.130 C  
BRANCH   6   7
HETATM    7  C   UNK A   0      -7.877  16.057  67.202  1.00  0.00    -0.244 C  
BRANCH   7   8
HETATM    8  C   UNK A   0      -7.951  17.454  67.839  1.00  0.00    -0.218 C  
BRANCH   8   9
HETATM    9  C   UNK A   0      -7.151  18.490  67.034  1.00  0.00    -0.211 A  
HETATM   10  C   UNK A   0      -5.916  18.140  66.469  1.00  0.00    -0.197 A  
HETATM   11  C   UNK A   0      -5.228  19.038  65.632  1.00  0.00    -0.185 A  
HETATM   12  C   UNK A   0      -7.638  19.786  66.758  1.00  0.00    -0.278 A  
HETATM   13  C   UNK A   0      -5.763  20.293  65.340  1.00  0.00    -0.217 A  
HETATM   14  C   UNK A   0      -6.966  20.670  65.914  1.00  0.00    -0.164 A  
ENDBRANCH   8   9
ENDBRANCH   7   8
ENDBRANCH   6   7
BRANCH   6  15
ATOM     15  N   ALA A   1      -7.181  13.678  67.123  1.00  0.00    -0.362 NA 
ATOM     16  H   ALA A   1      -7.903  13.501  66.425  1.00  0.00     0.000 HD 
BRANCH  15  17
ATOM     17  CA  ALA A   1      -6.042  12.723  67.251  1.00  0.00    -0.035 C  
ATOM     18  CB  ALA A   1      -5.394  12.450  68.619  1.00  0.00    -0.054 C  
BRANCH  17  19
ATOM     19  C   ALA A   1      -6.123  11.440  66.360  1.00  0.00    -0.085 C  
ATOM     20  O   ALA A   1      -5.155  11.153  65.645  1.00  0.00    -0.193 OA 
HETATM   21  C   UNK A   2      -8.877   9.687  68.026  1.00  0.00    -0.119 A  
HETATM   22  C   UNK A   2      -9.938   9.949  68.902  1.00  0.00    -0.188 A  
HETATM   23  N   UNK A   2      -7.186  10.556  66.456  1.00  0.00    -0.117 N  
HETATM   24  C   UNK A   2     -10.403   8.964  69.755  1.00  0.00    -0.207 A  
HETATM   25  C   UNK A   2      -8.424  10.803  67.150  1.00  0.00    -0.126 C  
HETATM   26  O   UNK A   2      -7.734   8.127  63.775  1.00  0.00    -0.126 OA 
HETATM   27  C   UNK A   2      -9.794   7.707  69.758  1.00  0.00    -0.181 A  
HETATM   28  C   UNK A   2      -8.732   7.443  68.868  1.00  0.00    -0.132 A  
HETATM   29  O   UNK A   2      -9.327   9.337  64.793  1.00  0.00    -0.183 OA 
HETATM   30  C   UNK A   2      -8.169   8.929  64.769  1.00  0.00    -0.163 C  
HETATM   31  C   UNK A   2      -8.290   8.424  67.972  1.00  0.00    -0.128 A  
HETATM   32  C   UNK A   2      -7.100   9.214  65.855  1.00  0.00    -0.089 C  
HETATM   33  C   UNK A   2      -7.170   8.165  66.988  1.00  0.00    -0.083 C  
BRANCH  24  34
HETATM   34  O   UNK A   2     -11.481   9.127  70.588  1.00  0.00    -0.265 OA 
HETATM   35  C   UNK A   2     -11.753  10.473  70.921  1.00  0.00    -0.335 C  
ENDBRANCH  24  34
BRANCH  27  36
HETATM   36  O   UNK A   2     -10.296   6.835  70.676  1.00  0.00    -0.198 OA 
HETATM   37  C   UNK A   2     -10.868   5.635  70.194  1.00  0.00    -0.286 C  
ENDBRANCH  27  36
ENDBRANCH  17  19
ENDBRANCH  15  17
ENDBRANCH   6  15
ENDBRANCH   4   6
ENDBRANCH   3   4
ENDBRANCH   2   3
TORSDOF 11
ENDMDL
MODEL      221
REMARK 921   NORMALIZED FREE ENERGY PREDICTED BY IDOCK:   -2.76 KCAL/MOL
REMARK 922        TOTAL FREE ENERGY PREDICTED BY IDOCK:   -6.44 KCAL/MOL
REMARK 923 INTER-LIGAND FREE ENERGY PREDICTED BY IDOCK:   -4.98 KCAL/MOL
REMARK 924 INTRA-LIGAND FREE ENERGY PREDICTED BY IDOCK:   -1.45 KCAL/MOL
REMARK 927      BINDING AFFINITY PREDICTED BY RF-SCORE:    0.00 PKD
ROOT
HETATM    1  C   UNK A   0     -12.774  10.577  70.575  1.00  0.00    -0.385 C  
HETATM    2  C   UNK A   0     -11.726  11.376  69.826  1.00  0.00    -0.344 C  
ENDROOT
BRANCH   2   3
HETATM    3  O   UNK A   0     -10.724  10.476  69.342  1.00  0.00    -0.211 OA 
BRANCH   3   4
HETATM    4  C   UNK A   0     -10.686  10.265  67.995  1.00  0.00    -0.255 C  
HETATM    5  O   UNK A   0     -11.420  10.788  67.163  1.00  0.00    -0.400 OA 
BRANCH   4   6
HETATM    6  C   UNK A   0      -9.526   9.322  67.674  1.00  0.00    -0.132 C  
BRANCH   6   7
HETATM    7  C   UNK A   0      -9.790   7.948  68.295  1.00  0.00    -0.187 C  
BRANCH   7   8
HETATM    8  C   UNK A   0     -10.972   7.092  67.812  1.00  0.00    -0.187 C  
BRANCH   8   9
HETATM    9  C   UNK A   0     -10.496   5.789  67.151  1.00  0.00    -0.337 A  
HETATM   10  C   UNK A   0     -10.729   5.567  65.786  1.00  0.00     0.284 A  
HETATM   11  C   UNK A   0     -10.199   4.435  65.141  1.00  0.00    -0.199 A  
HETATM   12  C   UNK A   0      -9.752   4.808  67.842  1.00  0.00    -0.200 A  
HETATM   13  C   UNK A   0      -9.425   3.511  65.843  1.00  0.00    -0.143 A  
HETATM   14  C   UNK A   0      -9.210   3.695  67.199  1.00  0.00    -0.212 A  
ENDBRANCH   8   9
ENDBRANCH   7   8
ENDBRANCH   6   7
BRANCH   6  15
ATOM     15  N   ALA A   1      -8.250   9.888  68.176  1.00  0.00    -0.108 NA 
ATOM     16  H   ALA A   1      -8.071   9.896  69.180  1.00  0.00     0.000 HD 
BRANCH  15  17
ATOM     17  CA  ALA A   1      -7.222  10.446  67.249  1.00  0.00    -0.089 C  
ATOM     18  CB  ALA A   1      -7.473  10.491  65.732  1.00  0.00    -0.139 C  
BRANCH  17  19
ATOM     19  C   ALA A   1      -6.445  11.701  67.766  1.00  0.00    -0.067 C  
ATOM     20  O   ALA A   1      -5.209  11.659  67.798  1.00  0.00    -0.045 OA 
HETATM   21  C   UNK A   2      -9.066  14.242  67.451  1.00  0.00    -0.199 A  
HETATM   22  C   UNK A   2     -10.458  14.333  67.329  1.00  0.00    -0.269 A  
HETATM   23  N   UNK A   2      -7.096  12.889  68.055  1.00  0.00    -0.097 N  
HETATM   24  C   UNK A   2     -11.035  15.398  66.659  1.00  0.00    -0.275 A  
HETATM   25  C   UNK A   2      -8.522  13.058  68.173  1.00  0.00    -0.176 C  
HETATM   26  O   UNK A   2      -5.379  15.421  70.064  1.00  0.00    -0.108 OA 
HETATM   27  C   UNK A   2     -10.222  16.375  66.082  1.00  0.00    -0.348 A  
HETATM   28  C   UNK A   2      -8.821  16.285  66.215  1.00  0.00    -0.367 A  
HETATM   29  O   UNK A   2      -7.522  14.796  70.295  1.00  0.00     0.120 OA 
HETATM   30  C   UNK A   2      -6.490  14.790  69.630  1.00  0.00    -0.150 C  
HETATM   31  C   UNK A   2      -8.237  15.233  66.931  1.00  0.00    -0.263 A  
HETATM   32  C   UNK A   2      -6.333  14.136  68.233  1.00  0.00    -0.118 C  
HETATM   33  C   UNK A   2      -6.739  15.121  67.113  1.00  0.00     0.148 C  
BRANCH  24  34
HETATM   34  O   UNK A   2     -12.391  15.590  66.561  1.00  0.00     0.719 OA 
HETATM   35  C   UNK A   2     -13.026  14.742  65.625  1.00  0.00     0.343 C  
ENDBRANCH  24  34
BRANCH  27  36
HETATM   36  O   UNK A   2     -10.894  17.344  65.401  1.00  0.00    -0.512 OA 
HETATM   37  C   UNK A   2     -10.854  18.658  65.923  1.00  0.00    -0.073 C  
ENDBRANCH  27  36
ENDBRANCH  17  19
ENDBRANCH  15  17
ENDBRANCH   6  15
ENDBRANCH   4   6
ENDBRANCH   3   4
ENDBRANCH   2   3
TORSDOF 11
ENDMDL
MODEL      222
REMARK 921   NORMALIZED FREE ENERGY PREDICTED BY IDOCK:   -2.71 KCAL/MOL
REMARK 922        TOTAL FREE ENERGY PREDICTED BY IDOCK:   -6.36 KCAL/MOL
REMARK 923 INTER-LIGAND FREE ENERGY PREDICTED BY IDOCK:   -5.68 KCAL/MOL
REMARK 924 INTRA-LIGAND FREE ENERGY PREDICTED BY IDOCK:   -0.68 KCAL/MOL
REMARK 927      BINDING AFFINITY PREDICTED BY RF-SCORE:    0.00 PKD
ROOT
HETATM    1  C   UNK A   0      -8.758   6.023  72.560  1.00  0.00    -0.122 C  
HETATM    2  C   UNK A   0     -10.203   6.230  72.968  1.00  0.00    -0.197 C  
ENDROOT
BRANCH   2   3
HETATM    3  O   UNK A   0     -10.408   7.621  73.235  1.00  0.00    -0.323 OA 
BRANCH   3   4
HETATM    4  C   UNK A   0     -11.565   8.173  72.768  1.00  0.00    -0.304 C  
HETATM    5  O   UNK A   0     -12.702   7.847  73.096  1.00  0.00     0.335 OA 
BRANCH   4   6
HETATM    6  C   UNK A   0     -11.218   9.321  71.820  1.00  0.00    -0.343 C  
BRANCH   6   7
HETATM    7  C   UNK A   0     -12.244  10.446  71.975  1.00  0.00     0.157 C  
BRANCH   7   8
HETATM    8  C   UNK A   0     -12.979  11.000  70.744  1.00  0.00    -0.263 C  
BRANCH   8   9
HETATM    9  C   UNK A   0     -12.778  12.517  70.597  1.00  0.00    -0.132 A  
HETATM   10  C   UNK A   0     -13.643  13.408  71.248  1.00  0.00     0.008 A  
HETATM   11  C   UNK A   0     -13.403  14.793  71.219  1.00  0.00    -0.465 A  
HETATM   12  C   UNK A   0     -11.696  13.079  69.884  1.00  0.00    -0.326 A  
HETATM   13  C   UNK A   0     -12.296  15.311  70.547  1.00  0.00    -0.434 A  
HETATM   14  C   UNK A   0     -11.447  14.451  69.870  1.00  0.00    -0.314 A  
ENDBRANCH   8   9
ENDBRANCH   7   8
ENDBRANCH   6   7
BRANCH   6  15
ATOM     15  N   ALA A   1     -11.180   8.836  70.418  1.00  0.00    -0.308 NA 
ATOM     16  H   ALA A   1     -11.246   9.511  69.657  1.00  0.00     0.000 HD 
BRANCH  15  17
ATOM     17  CA  ALA A   1     -11.048   7.385  70.095  1.00  0.00    -0.246 C  
ATOM     18  CB  ALA A   1     -12.288   6.532  69.780  1.00  0.00     0.912 C  
BRANCH  17  19
ATOM     19  C   ALA A   1      -9.812   6.989  69.222  1.00  0.00    -0.159 C  
ATOM     20  O   ALA A   1      -9.481   5.798  69.169  1.00  0.00    -0.124 OA 
HETATM   21  C   UNK A   2      -9.547   9.972  67.111  1.00  0.00    -0.202 A  
HETATM   22  C   UNK A   2      -9.970  11.308  67.088  1.00  0.00    -0.219 A  
HETATM   23  N   UNK A   2      -9.171   7.912  68.410  1.00  0.00    -0.135 N  
HETATM   24  C   UNK A   2     -10.174  11.958  65.884  1.00  0.00    -0.236 A  
HETATM   25  C   UNK A   2      -9.365   9.339  68.446  1.00  0.00    -0.138 C  
HETATM   26  O   UNK A   2      -5.829   7.147  67.132  1.00  0.00    -0.026 OA 
HETATM   27  C   UNK A   2      -9.979  11.270  64.684  1.00  0.00    -0.281 A  
HETATM   28  C   UNK A   2      -9.544   9.929  64.711  1.00  0.00    -0.339 A  
HETATM   29  O   UNK A   2      -6.493   9.122  67.966  1.00  0.00    -0.058 OA 
HETATM   30  C   UNK A   2      -6.784   8.007  67.543  1.00  0.00    -0.069 C  
HETATM   31  C   UNK A   2      -9.293   9.283  65.927  1.00  0.00    -0.297 A  
HETATM   32  C   UNK A   2      -8.228   7.466  67.372  1.00  0.00    -0.113 C  
HETATM   33  C   UNK A   2      -8.802   7.853  65.990  1.00  0.00    -0.191 C  
BRANCH  24  34
HETATM   34  O   UNK A   2     -10.519  13.283  65.784  1.00  0.00    -0.275 OA 
HETATM   35  C   UNK A   2      -9.451  14.175  66.028  1.00  0.00    -0.160 C  
ENDBRANCH  24  34
BRANCH  27  36
HETATM   36  O   UNK A   2     -10.263  11.991  63.564  1.00  0.00    -0.406 OA 
HETATM   37  C   UNK A   2     -11.545  11.830  62.990  1.00  0.00     0.111 C  
ENDBRANCH  27  36
ENDBRANCH  17  19
ENDBRANCH  15  17
ENDBRANCH   6  15
ENDBRANCH   4   6
ENDBRANCH   3   4
ENDBRANCH   2   3
TORSDOF 11
ENDMDL
MODEL      223
REMARK 921   NORMALIZED FREE ENERGY PREDICTED BY IDOCK:   -2.68 KCAL/MOL
REMARK 922        TOTAL FREE ENERGY PREDICTED BY IDOCK:   -6.31 KCAL/MOL
REMARK 923 INTER-LIGAND FREE ENERGY PREDICTED BY IDOCK:   -6.18 KCAL/MOL
REMARK 924 INTRA-LIGAND FREE ENERGY PREDICTED BY IDOCK:   -0.14 KCAL/MOL
REMARK 927      BINDING AFFINITY PREDICTED BY RF-SCORE:    0.00 PKD
ROOT
HETATM    1  C   UNK A   0      -9.788   6.093  69.842  1.00  0.00    -0.205 C  
HETATM    2  C   UNK A   0     -10.412   7.469  69.714  1.00  0.00    -0.230 C  
ENDROOT
BRANCH   2   3
HETATM    3  O   UNK A   0     -10.523   7.794  68.325  1.00  0.00    -0.201 OA 
BRANCH   3   4
HETATM    4  C   UNK A   0     -10.792   9.095  68.018  1.00  0.00    -0.075 C  
HETATM    5  O   UNK A   0     -11.093   9.977  68.816  1.00  0.00    -0.226 OA 
BRANCH   4   6
HETATM    6  C   UNK A   0     -10.583   9.302  66.517  1.00  0.00    -0.047 C  
BRANCH   6   7
HETATM    7  C   UNK A   0      -9.705   8.182  65.958  1.00  0.00    -0.052 C  
BRANCH   7   8
HETATM    8  C   UNK A   0      -8.215   8.105  66.329  1.00  0.00    -0.114 C  
BRANCH   8   9
HETATM    9  C   UNK A   0      -7.632   6.709  66.058  1.00  0.00    -0.086 A  
HETATM   10  C   UNK A   0      -7.418   5.818  67.120  1.00  0.00    -0.081 A  
HETATM   11  C   UNK A   0      -6.997   4.498  66.877  1.00  0.00    -0.063 A  
HETATM   12  C   UNK A   0      -7.364   6.232  64.756  1.00  0.00    -0.075 A  
HETATM   13  C   UNK A   0      -6.789   4.045  65.574  1.00  0.00    -0.057 A  
HETATM   14  C   UNK A   0      -6.964   4.918  64.513  1.00  0.00    -0.050 A  
ENDBRANCH   8   9
ENDBRANCH   7   8
ENDBRANCH   6   7
BRANCH   6  15
ATOM     15  N   ALA A   1      -9.968  10.628  66.262  1.00  0.00    -0.214 NA 
ATOM     16  H   ALA A   1      -9.130  10.895  66.778  1.00  0.00     0.000 HD 
BRANCH  15  17
ATOM     17  CA  ALA A   1     -10.545  11.581  65.269  1.00  0.00    -0.283 C  
ATOM     18  CB  ALA A   1     -12.028  11.500  64.870  1.00  0.00     0.231 C  
BRANCH  17  19
ATOM     19  C   ALA A   1     -10.028  13.055  65.356  1.00  0.00    -0.188 C  
ATOM     20  O   ALA A   1      -9.801  13.665  64.304  1.00  0.00    -0.111 OA 
HETATM   21  C   UNK A   2     -10.968  13.853  68.806  1.00  0.00    -0.286 A  
HETATM   22  C   UNK A   2     -11.312  13.204  69.999  1.00  0.00     0.025 A  
HETATM   23  N   UNK A   2      -9.949  13.726  66.565  1.00  0.00    -0.281 N  
HETATM   24  C   UNK A   2     -12.154  13.814  70.912  1.00  0.00    -0.287 A  
HETATM   25  C   UNK A   2     -10.069  13.125  67.869  1.00  0.00    -0.232 C  
HETATM   26  O   UNK A   2      -7.932  16.771  66.788  1.00  0.00    -0.189 OA 
HETATM   27  C   UNK A   2     -12.683  15.075  70.630  1.00  0.00    -0.376 A  
HETATM   28  C   UNK A   2     -12.328  15.730  69.433  1.00  0.00    -0.034 A  
HETATM   29  O   UNK A   2      -7.980  15.117  68.304  1.00  0.00    -0.123 OA 
HETATM   30  C   UNK A   2      -8.474  15.655  67.317  1.00  0.00    -0.191 C  
HETATM   31  C   UNK A   2     -11.440  15.135  68.529  1.00  0.00    -0.335 A  
HETATM   32  C   UNK A   2      -9.767  15.187  66.599  1.00  0.00    -0.258 C  
HETATM   33  C   UNK A   2     -11.018  15.821  67.247  1.00  0.00    -0.259 C  
BRANCH  24  34
HETATM   34  O   UNK A   2     -12.477  13.270  72.129  1.00  0.00     0.007 OA 
HETATM   35  C   UNK A   2     -13.719  12.595  72.147  1.00  0.00    -0.312 C  
ENDBRANCH  24  34
BRANCH  27  36
HETATM   36  O   UNK A   2     -13.543  15.554  71.571  1.00  0.00    -0.488 OA 
HETATM   37  C   UNK A   2     -12.994  15.976  72.804  1.00  0.00    -0.431 C  
ENDBRANCH  27  36
ENDBRANCH  17  19
ENDBRANCH  15  17
ENDBRANCH   6  15
ENDBRANCH   4   6
ENDBRANCH   3   4
ENDBRANCH   2   3
TORSDOF 11
ENDMDL
MODEL      224
REMARK 921   NORMALIZED FREE ENERGY PREDICTED BY IDOCK:   -2.59 KCAL/MOL
REMARK 922        TOTAL FREE ENERGY PREDICTED BY IDOCK:   -6.17 KCAL/MOL
REMARK 923 INTER-LIGAND FREE ENERGY PREDICTED BY IDOCK:   -5.39 KCAL/MOL
REMARK 924 INTRA-LIGAND FREE ENERGY PREDICTED BY IDOCK:   -0.78 KCAL/MOL
REMARK 927      BINDING AFFINITY PREDICTED BY RF-SCORE:    0.00 PKD
ROOT
HETATM    1  C   UNK A   0     -10.648   3.546  63.364  1.00  0.00    -0.257 C  
HETATM    2  C   UNK A   0     -10.013   3.579  64.740  1.00  0.00    -0.126 C  
ENDROOT
BRANCH   2   3
HETATM    3  O   UNK A   0     -10.522   4.711  65.452  1.00  0.00    -0.215 OA 
BRANCH   3   4
HETATM    4  C   UNK A   0      -9.713   5.252  66.408  1.00  0.00    -0.169 C  
HETATM    5  O   UNK A   0      -9.834   5.108  67.620  1.00  0.00    -0.144 OA 
BRANCH   4   6
HETATM    6  C   UNK A   0      -8.577   6.011  65.722  1.00  0.00    -0.155 C  
BRANCH   6   7
HETATM    7  C   UNK A   0      -7.301   5.166  65.748  1.00  0.00    -0.077 C  
BRANCH   7   8
HETATM    8  C   UNK A   0      -5.978   5.773  66.242  1.00  0.00    -0.022 C  
BRANCH   8   9
HETATM    9  C   UNK A   0      -5.809   5.609  67.761  1.00  0.00    -0.013 A  
HETATM   10  C   UNK A   0      -5.762   6.739  68.590  1.00  0.00    -0.018 A  
HETATM   11  C   UNK A   0      -5.726   6.603  69.989  1.00  0.00    -0.019 A  
HETATM   12  C   UNK A   0      -5.773   4.347  68.394  1.00  0.00    -0.021 A  
HETATM   13  C   UNK A   0      -5.743   5.341  70.584  1.00  0.00    -0.016 A  
HETATM   14  C   UNK A   0      -5.756   4.211  69.782  1.00  0.00    -0.017 A  
ENDBRANCH   8   9
ENDBRANCH   7   8
ENDBRANCH   6   7
BRANCH   6  15
ATOM     15  N   ALA A   1      -8.354   7.317  66.390  1.00  0.00    -0.119 NA 
ATOM     16  H   ALA A   1      -7.701   7.371  67.171  1.00  0.00     0.000 HD 
BRANCH  15  17
ATOM     17  CA  ALA A   1      -9.063   8.553  65.948  1.00  0.00    -0.183 C  
ATOM     18  CB  ALA A   1     -10.561   8.749  66.241  1.00  0.00     0.383 C  
BRANCH  17  19
ATOM     19  C   ALA A   1      -8.251   9.885  66.063  1.00  0.00    -0.119 C  
ATOM     20  O   ALA A   1      -7.523  10.217  65.119  1.00  0.00    -0.134 OA 
HETATM   21  C   UNK A   2     -10.103  11.524  68.766  1.00  0.00    -0.191 A  
HETATM   22  C   UNK A   2     -10.996  11.206  69.797  1.00  0.00    -0.216 A  
HETATM   23  N   UNK A   2      -8.432  10.756  67.125  1.00  0.00    -0.125 N  
HETATM   24  C   UNK A   2     -11.919  12.138  70.238  1.00  0.00    -0.305 A  
HETATM   25  C   UNK A   2      -9.150  10.462  68.338  1.00  0.00    -0.147 C  
HETATM   26  O   UNK A   2      -5.915  13.332  67.768  1.00  0.00    -0.130 OA 
HETATM   27  C   UNK A   2     -11.975  13.395  69.634  1.00  0.00    -0.324 A  
HETATM   28  C   UNK A   2     -11.068  13.716  68.603  1.00  0.00    -0.299 A  
HETATM   29  O   UNK A   2      -6.911  12.056  69.323  1.00  0.00    -0.096 OA 
HETATM   30  C   UNK A   2      -6.874  12.472  68.167  1.00  0.00    -0.084 C  
HETATM   31  C   UNK A   2     -10.104  12.791  68.186  1.00  0.00    -0.239 A  
HETATM   32  C   UNK A   2      -7.907  12.130  67.063  1.00  0.00    -0.123 C  
HETATM   33  C   UNK A   2      -9.100  13.112  67.100  1.00  0.00    -0.230 C  
BRANCH  24  34
HETATM   34  O   UNK A   2     -12.776  11.922  71.288  1.00  0.00    -0.382 OA 
HETATM   35  C   UNK A   2     -13.112  10.563  71.486  1.00  0.00    -0.430 C  
ENDBRANCH  24  34
BRANCH  27  36
HETATM   36  O   UNK A   2     -12.957  14.211  70.109  1.00  0.00    -0.184 OA 
HETATM   37  C   UNK A   2     -12.561  15.391  70.780  1.00  0.00    -0.442 C  
ENDBRANCH  27  36
ENDBRANCH  17  19
ENDBRANCH  15  17
ENDBRANCH   6  15
ENDBRANCH   4   6
ENDBRANCH   3   4
ENDBRANCH   2   3
TORSDOF 11
ENDMDL
MODEL      225
REMARK 921   NORMALIZED FREE ENERGY PREDICTED BY IDOCK:   -2.53 KCAL/MOL
REMARK 922        TOTAL FREE ENERGY PREDICTED BY IDOCK:   -6.07 KCAL/MOL
REMARK 923 INTER-LIGAND FREE ENERGY PREDICTED BY IDOCK:   -6.07 KCAL/MOL
REMARK 924 INTRA-LIGAND FREE ENERGY PREDICTED BY IDOCK:    0.00 KCAL/MOL
REMARK 927      BINDING AFFINITY PREDICTED BY RF-SCORE:    0.00 PKD
ROOT
HETATM    1  C   UNK A   0      -8.444  12.021  68.125  1.00  0.00    -0.171 C  
HETATM    2  C   UNK A   0      -7.546  11.742  69.315  1.00  0.00     0.171 C  
ENDROOT
BRANCH   2   3
HETATM    3  O   UNK A   0      -7.239  10.344  69.338  1.00  0.00    -0.082 OA 
BRANCH   3   4
HETATM    4  C   UNK A   0      -7.004   9.787  70.560  1.00  0.00    -0.126 C  
HETATM    5  O   UNK A   0      -6.166  10.164  71.374  1.00  0.00    -0.316 OA 
BRANCH   4   6
HETATM    6  C   UNK A   0      -8.006   8.656  70.790  1.00  0.00    -0.118 C  
BRANCH   6   7
HETATM    7  C   UNK A   0      -9.250   9.203  71.494  1.00  0.00    -0.156 C  
BRANCH   7   8
HETATM    8  C   UNK A   0     -10.498   9.582  70.680  1.00  0.00    -0.374 C  
BRANCH   8   9
HETATM    9  C   UNK A   0     -11.713   8.725  71.070  1.00  0.00    -0.329 A  
HETATM   10  C   UNK A   0     -12.814   9.314  71.707  1.00  0.00    -0.461 A  
HETATM   11  C   UNK A   0     -13.979   8.569  71.964  1.00  0.00    -0.494 A  
HETATM   12  C   UNK A   0     -11.817   7.355  70.745  1.00  0.00    -0.288 A  
HETATM   13  C   UNK A   0     -14.067   7.230  71.584  1.00  0.00    -0.522 A  
HETATM   14  C   UNK A   0     -12.979   6.620  70.983  1.00  0.00     0.080 A  
ENDBRANCH   8   9
ENDBRANCH   7   8
ENDBRANCH   6   7
BRANCH   6  15
ATOM     15  N   ALA A   1      -7.384   7.573  71.591  1.00  0.00    -0.073 NA 
ATOM     16  H   ALA A   1      -6.369   7.540  71.679  1.00  0.00     0.000 HD 
BRANCH  15  17
ATOM     17  CA  ALA A   1      -8.208   6.531  72.271  1.00  0.00    -0.106 C  
ATOM     18  CB  ALA A   1      -9.055   6.879  73.507  1.00  0.00    -0.172 C  
BRANCH  17  19
ATOM     19  C   ALA A   1      -8.915   5.498  71.332  1.00  0.00    -0.139 C  
ATOM     20  O   ALA A   1      -9.784   4.760  71.812  1.00  0.00    -0.152 OA 
HETATM   21  C   UNK A   2      -8.079   6.937  68.068  1.00  0.00    -0.115 A  
HETATM   22  C   UNK A   2      -7.167   7.833  67.495  1.00  0.00    -0.091 A  
HETATM   23  N   UNK A   2      -8.688   5.487  69.965  1.00  0.00    -0.126 N  
HETATM   24  C   UNK A   2      -7.513   8.565  66.372  1.00  0.00    -0.087 A  
HETATM   25  C   UNK A   2      -7.638   6.198  69.282  1.00  0.00    -0.098 C  
HETATM   26  O   UNK A   2      -9.655   2.542  68.021  1.00  0.00    -0.198 OA 
HETATM   27  C   UNK A   2      -8.788   8.427  65.822  1.00  0.00    -0.165 A  
HETATM   28  C   UNK A   2      -9.702   7.518  66.395  1.00  0.00    -0.180 A  
HETATM   29  O   UNK A   2      -7.735   3.683  67.803  1.00  0.00    -0.069 OA 
HETATM   30  C   UNK A   2      -8.877   3.619  68.252  1.00  0.00    -0.115 C  
HETATM   31  C   UNK A   2      -9.339   6.743  67.503  1.00  0.00    -0.129 A  
HETATM   32  C   UNK A   2      -9.579   4.736  69.065  1.00  0.00    -0.165 C  
HETATM   33  C   UNK A   2     -10.286   5.741  68.127  1.00  0.00    -0.235 C  
BRANCH  24  34
HETATM   34  O   UNK A   2      -6.648   9.405  65.717  1.00  0.00    -0.070 OA 
HETATM   35  C   UNK A   2      -5.624   9.931  66.538  1.00  0.00    -0.046 C  
ENDBRANCH  24  34
BRANCH  27  36
HETATM   36  O   UNK A   2      -9.038   9.236  64.756  1.00  0.00    -0.212 OA 
HETATM   37  C   UNK A   2      -8.463   8.878  63.515  1.00  0.00    -0.140 C  
ENDBRANCH  27  36
ENDBRANCH  17  19
ENDBRANCH  15  17
ENDBRANCH   6  15
ENDBRANCH   4   6
ENDBRANCH   3   4
ENDBRANCH   2   3
TORSDOF 11
ENDMDL
MODEL      226
REMARK 921   NORMALIZED FREE ENERGY PREDICTED BY IDOCK:   -2.42 KCAL/MOL
REMARK 922        TOTAL FREE ENERGY PREDICTED BY IDOCK:   -5.88 KCAL/MOL
REMARK 923 INTER-LIGAND FREE ENERGY PREDICTED BY IDOCK:   -4.58 KCAL/MOL
REMARK 924 INTRA-LIGAND FREE ENERGY PREDICTED BY IDOCK:   -1.31 KCAL/MOL
REMARK 927      BINDING AFFINITY PREDICTED BY RF-SCORE:    0.00 PKD
ROOT
HETATM    1  C   UNK A   0      -9.370   2.139  70.091  1.00  0.00    -0.173 C  
HETATM    2  C   UNK A   0      -9.335   3.326  71.033  1.00  0.00    -0.143 C  
ENDROOT
BRANCH   2   3
HETATM    3  O   UNK A   0      -9.392   4.528  70.258  1.00  0.00    -0.121 OA 
BRANCH   3   4
HETATM    4  C   UNK A   0      -8.247   4.901  69.618  1.00  0.00    -0.080 C  
HETATM    5  O   UNK A   0      -7.104   4.744  70.036  1.00  0.00    -0.047 OA 
BRANCH   4   6
HETATM    6  C   UNK A   0      -8.611   5.483  68.251  1.00  0.00    -0.096 C  
BRANCH   6   7
HETATM    7  C   UNK A   0      -7.392   5.432  67.327  1.00  0.00    -0.083 C  
BRANCH   7   8
HETATM    8  C   UNK A   0      -7.455   6.062  65.926  1.00  0.00    -0.082 C  
BRANCH   8   9
HETATM    9  C   UNK A   0      -7.734   5.010  64.841  1.00  0.00    -0.084 A  
HETATM   10  C   UNK A   0      -6.747   4.695  63.896  1.00  0.00    -0.043 A  
HETATM   11  C   UNK A   0      -6.943   3.653  62.972  1.00  0.00    -0.039 A  
HETATM   12  C   UNK A   0      -8.934   4.267  64.787  1.00  0.00    -0.145 A  
HETATM   13  C   UNK A   0      -8.121   2.906  62.979  1.00  0.00    -0.073 A  
HETATM   14  C   UNK A   0      -9.122   3.222  63.882  1.00  0.00    -0.101 A  
ENDBRANCH   8   9
ENDBRANCH   7   8
ENDBRANCH   6   7
BRANCH   6  15
ATOM     15  N   ALA A   1      -9.099   6.876  68.400  1.00  0.00    -0.127 NA 
ATOM     16  H   ALA A   1      -9.745   7.253  67.707  1.00  0.00     0.000 HD 
BRANCH  15  17
ATOM     17  CA  ALA A   1      -8.668   7.740  69.538  1.00  0.00    -0.135 C  
ATOM     18  CB  ALA A   1      -7.617   8.844  69.334  1.00  0.00    -0.081 C  
BRANCH  17  19
ATOM     19  C   ALA A   1      -9.792   8.161  70.540  1.00  0.00    -0.186 C  
ATOM     20  O   ALA A   1      -9.702   7.794  71.718  1.00  0.00    -0.158 OA 
HETATM   21  C   UNK A   2     -11.307  10.922  68.667  1.00  0.00    -0.360 A  
HETATM   22  C   UNK A   2     -11.369  11.421  67.360  1.00  0.00    -0.359 A  
HETATM   23  N   UNK A   2     -10.801   9.037  70.173  1.00  0.00    -0.234 N  
HETATM   24  C   UNK A   2     -11.545  12.775  67.134  1.00  0.00    -0.364 A  
HETATM   25  C   UNK A   2     -11.100   9.456  68.827  1.00  0.00     0.051 C  
HETATM   26  O   UNK A   2     -13.814   9.256  72.237  1.00  0.00    -0.453 OA 
HETATM   27  C   UNK A   2     -11.639  13.651  68.217  1.00  0.00    -0.339 A  
HETATM   28  C   UNK A   2     -11.586  13.144  69.532  1.00  0.00    -0.347 A  
HETATM   29  O   UNK A   2     -13.764   9.195  69.995  1.00  0.00     1.414 OA 
HETATM   30  C   UNK A   2     -13.165   9.335  71.058  1.00  0.00    -0.090 C  
HETATM   31  C   UNK A   2     -11.454  11.770  69.763  1.00  0.00    -0.320 A  
HETATM   32  C   UNK A   2     -11.656   9.664  71.195  1.00  0.00    -0.381 C  
HETATM   33  C   UNK A   2     -11.419  11.191  71.161  1.00  0.00     0.703 C  
BRANCH  24  34
HETATM   34  O   UNK A   2     -11.685  13.325  65.884  1.00  0.00    -0.334 OA 
HETATM   35  C   UNK A   2     -12.390  12.507  64.971  1.00  0.00    -0.453 C  
ENDBRANCH  24  34
BRANCH  27  36
HETATM   36  O   UNK A   2     -11.754  14.965  67.877  1.00  0.00    -0.340 OA 
HETATM   37  C   UNK A   2     -11.388  15.926  68.846  1.00  0.00    -0.377 C  
ENDBRANCH  27  36
ENDBRANCH  17  19
ENDBRANCH  15  17
ENDBRANCH   6  15
ENDBRANCH   4   6
ENDBRANCH   3   4
ENDBRANCH   2   3
TORSDOF 11
ENDMDL
MODEL      227
REMARK 921   NORMALIZED FREE ENERGY PREDICTED BY IDOCK:   -2.32 KCAL/MOL
REMARK 922        TOTAL FREE ENERGY PREDICTED BY IDOCK:   -5.72 KCAL/MOL
REMARK 923 INTER-LIGAND FREE ENERGY PREDICTED BY IDOCK:   -7.18 KCAL/MOL
REMARK 924 INTRA-LIGAND FREE ENERGY PREDICTED BY IDOCK:    1.46 KCAL/MOL
REMARK 927      BINDING AFFINITY PREDICTED BY RF-SCORE:    0.00 PKD
ROOT
HETATM    1  C   UNK A   0      -8.462   5.807  71.058  1.00  0.00    -0.123 C  
HETATM    2  C   UNK A   0      -9.382   6.210  72.194  1.00  0.00    -0.151 C  
ENDROOT
BRANCH   2   3
HETATM    3  O   UNK A   0      -9.738   7.586  72.028  1.00  0.00    -0.156 OA 
BRANCH   3   4
HETATM    4  C   UNK A   0     -10.638   7.873  71.044  1.00  0.00    -0.213 C  
HETATM    5  O   UNK A   0     -11.769   7.409  70.944  1.00  0.00    -0.291 OA 
BRANCH   4   6
HETATM    6  C   UNK A   0     -10.037   8.931  70.117  1.00  0.00    -0.190 C  
BRANCH   6   7
HETATM    7  C   UNK A   0     -10.745  10.270  70.334  1.00  0.00    -0.270 C  
BRANCH   7   8
HETATM    8  C   UNK A   0     -11.565  10.906  69.200  1.00  0.00    -0.389 C  
BRANCH   8   9
HETATM    9  C   UNK A   0     -11.141  12.360  68.937  1.00  0.00    -0.307 A  
HETATM   10  C   UNK A   0     -12.113  13.359  68.785  1.00  0.00    -0.281 A  
HETATM   11  C   UNK A   0     -11.741  14.710  68.662  1.00  0.00    -0.362 A  
HETATM   12  C   UNK A   0      -9.790  12.770  68.916  1.00  0.00     0.140 A  
HETATM   13  C   UNK A   0     -10.398  15.086  68.696  1.00  0.00    -0.236 A  
HETATM   14  C   UNK A   0      -9.421  14.111  68.813  1.00  0.00    -0.102 A  
ENDBRANCH   8   9
ENDBRANCH   7   8
ENDBRANCH   6   7
BRANCH   6  15
ATOM     15  N   ALA A   1     -10.152   8.499  68.702  1.00  0.00    -0.186 NA 
ATOM     16  H   ALA A   1     -10.602   9.119  68.029  1.00  0.00     0.000 HD 
BRANCH  15  17
ATOM     17  CA  ALA A   1      -9.627   7.181  68.240  1.00  0.00    -0.136 C  
ATOM     18  CB  ALA A   1     -10.537   5.942  68.199  1.00  0.00    -0.312 C  
BRANCH  17  19
ATOM     19  C   ALA A   1      -8.623   7.227  67.042  1.00  0.00    -0.122 C  
ATOM     20  O   ALA A   1      -8.133   6.165  66.639  1.00  0.00    -0.107 OA 
HETATM   21  C   UNK A   2      -9.412  10.537  65.683  1.00  0.00    -0.259 A  
HETATM   22  C   UNK A   2     -10.034  11.732  66.069  1.00  0.00    -0.258 A  
HETATM   23  N   UNK A   2      -8.379   8.399  66.344  1.00  0.00    -0.112 N  
HETATM   24  C   UNK A   2     -10.653  12.536  65.128  1.00  0.00    -0.293 A  
HETATM   25  C   UNK A   2      -8.781   9.720  66.756  1.00  0.00    -0.131 C  
HETATM   26  O   UNK A   2      -5.423   8.616  64.199  1.00  0.00    -0.058 OA 
HETATM   27  C   UNK A   2     -10.679  12.141  63.790  1.00  0.00    -0.437 A  
HETATM   28  C   UNK A   2     -10.045  10.942  63.402  1.00  0.00    -0.398 A  
HETATM   29  O   UNK A   2      -6.146  10.214  65.599  1.00  0.00    -0.077 OA 
HETATM   30  C   UNK A   2      -6.358   9.161  65.005  1.00  0.00    -0.066 C  
HETATM   31  C   UNK A   2      -9.378  10.150  64.345  1.00  0.00    -0.348 A  
HETATM   32  C   UNK A   2      -7.689   8.366  65.044  1.00  0.00    -0.104 C  
HETATM   33  C   UNK A   2      -8.667   8.871  63.959  1.00  0.00    -0.068 C  
BRANCH  24  34
HETATM   34  O   UNK A   2     -11.219  13.751  65.422  1.00  0.00    -0.296 OA 
HETATM   35  C   UNK A   2     -10.282  14.795  65.598  1.00  0.00    -0.358 C  
ENDBRANCH  24  34
BRANCH  27  36
HETATM   36  O   UNK A   2     -11.364  12.979  62.963  1.00  0.00    -0.037 OA 
HETATM   37  C   UNK A   2     -12.527  13.598  63.476  1.00  0.00    -0.084 C  
ENDBRANCH  27  36
ENDBRANCH  17  19
ENDBRANCH  15  17
ENDBRANCH   6  15
ENDBRANCH   4   6
ENDBRANCH   3   4
ENDBRANCH   2   3
TORSDOF 11
ENDMDL
MODEL      228
REMARK 921   NORMALIZED FREE ENERGY PREDICTED BY IDOCK:   -2.23 KCAL/MOL
REMARK 922        TOTAL FREE ENERGY PREDICTED BY IDOCK:   -5.58 KCAL/MOL
REMARK 923 INTER-LIGAND FREE ENERGY PREDICTED BY IDOCK:   -5.90 KCAL/MOL
REMARK 924 INTRA-LIGAND FREE ENERGY PREDICTED BY IDOCK:    0.33 KCAL/MOL
REMARK 927      BINDING AFFINITY PREDICTED BY RF-SCORE:    0.00 PKD
ROOT
HETATM    1  C   UNK A   0      -5.166  13.549  72.986  1.00  0.00    -0.049 C  
HETATM    2  C   UNK A   0      -5.277  13.855  71.505  1.00  0.00    -0.185 C  
ENDROOT
BRANCH   2   3
HETATM    3  O   UNK A   0      -6.487  14.585  71.279  1.00  0.00     0.097 OA 
BRANCH   3   4
HETATM    4  C   UNK A   0      -7.017  14.521  70.024  1.00  0.00    -0.019 C  
HETATM    5  O   UNK A   0      -8.133  14.911  69.692  1.00  0.00    -0.121 OA 
BRANCH   4   6
HETATM    6  C   UNK A   0      -5.966  13.950  69.071  1.00  0.00    -0.086 C  
BRANCH   6   7
HETATM    7  C   UNK A   0      -6.105  14.606  67.695  1.00  0.00    -0.078 C  
BRANCH   7   8
HETATM    8  C   UNK A   0      -7.266  15.572  67.410  1.00  0.00    -0.241 C  
BRANCH   8   9
HETATM    9  C   UNK A   0      -6.775  17.018  67.239  1.00  0.00    -0.195 A  
HETATM   10  C   UNK A   0      -6.638  17.567  65.955  1.00  0.00    -0.241 A  
HETATM   11  C   UNK A   0      -6.303  18.922  65.785  1.00  0.00    -0.268 A  
HETATM   12  C   UNK A   0      -6.518  17.873  68.332  1.00  0.00    -0.198 A  
HETATM   13  C   UNK A   0      -6.105  19.752  66.889  1.00  0.00    -0.182 A  
HETATM   14  C   UNK A   0      -6.203  19.222  68.165  1.00  0.00    -0.238 A  
ENDBRANCH   8   9
ENDBRANCH   7   8
ENDBRANCH   6   7
BRANCH   6  15
ATOM     15  N   ALA A   1      -6.113  12.477  68.967  1.00  0.00    -0.075 NA 
ATOM     16  H   ALA A   1      -5.992  11.906  69.803  1.00  0.00     0.000 HD 
BRANCH  15  17
ATOM     17  CA  ALA A   1      -6.432  11.812  67.670  1.00  0.00    -0.082 C  
ATOM     18  CB  ALA A   1      -5.764  10.483  67.281  1.00  0.00    -0.041 C  
BRANCH  17  19
ATOM     19  C   ALA A   1      -7.927  11.887  67.214  1.00  0.00    -0.171 C  
ATOM     20  O   ALA A   1      -8.182  12.364  66.101  1.00  0.00     0.292 OA 
HETATM   21  C   UNK A   2      -9.421   9.487  69.544  1.00  0.00    -0.195 A  
HETATM   22  C   UNK A   2      -9.135   8.859  70.764  1.00  0.00    -0.260 A  
HETATM   23  N   UNK A   2      -8.943  11.315  67.961  1.00  0.00    -0.150 N  
HETATM   24  C   UNK A   2      -9.646   7.604  71.043  1.00  0.00    -0.163 A  
HETATM   25  C   UNK A   2      -8.821  10.830  69.312  1.00  0.00    -0.023 C  
HETATM   26  O   UNK A   2     -12.408  12.292  67.305  1.00  0.00    -0.363 OA 
HETATM   27  C   UNK A   2     -10.433   6.950  70.093  1.00  0.00    -0.209 A  
HETATM   28  C   UNK A   2     -10.727   7.588  68.871  1.00  0.00    -0.135 A  
HETATM   29  O   UNK A   2     -11.480  12.035  69.332  1.00  0.00    -0.273 OA 
HETATM   30  C   UNK A   2     -11.420  11.864  68.118  1.00  0.00    -0.320 C  
HETATM   31  C   UNK A   2     -10.249   8.877  68.604  1.00  0.00    -0.221 A  
HETATM   32  C   UNK A   2     -10.280  11.117  67.378  1.00  0.00    -0.190 C  
HETATM   33  C   UNK A   2     -10.566   9.600  67.313  1.00  0.00    -0.315 C  
BRANCH  24  34
HETATM   34  O   UNK A   2      -9.466   6.960  72.242  1.00  0.00    -0.142 OA 
HETATM   35  C   UNK A   2     -10.267   7.465  73.292  1.00  0.00    -0.335 C  
ENDBRANCH  24  34
BRANCH  27  36
HETATM   36  O   UNK A   2     -10.834   5.699  70.453  1.00  0.00    -0.292 OA 
HETATM   37  C   UNK A   2      -9.890   4.652  70.342  1.00  0.00    -0.236 C  
ENDBRANCH  27  36
ENDBRANCH  17  19
ENDBRANCH  15  17
ENDBRANCH   6  15
ENDBRANCH   4   6
ENDBRANCH   3   4
ENDBRANCH   2   3
TORSDOF 11
ENDMDL
MODEL      229
REMARK 921   NORMALIZED FREE ENERGY PREDICTED BY IDOCK:   -2.12 KCAL/MOL
REMARK 922        TOTAL FREE ENERGY PREDICTED BY IDOCK:   -5.39 KCAL/MOL
REMARK 923 INTER-LIGAND FREE ENERGY PREDICTED BY IDOCK:   -6.01 KCAL/MOL
REMARK 924 INTRA-LIGAND FREE ENERGY PREDICTED BY IDOCK:    0.62 KCAL/MOL
REMARK 927      BINDING AFFINITY PREDICTED BY RF-SCORE:    0.00 PKD
ROOT
HETATM    1  C   UNK A   0      -5.908   9.090  74.533  1.00  0.00    -0.133 C  
HETATM    2  C   UNK A   0      -5.956   8.533  73.123  1.00  0.00    -0.094 C  
ENDROOT
BRANCH   2   3
HETATM    3  O   UNK A   0      -7.318   8.511  72.686  1.00  0.00    -0.240 OA 
BRANCH   3   4
HETATM    4  C   UNK A   0      -7.559   7.984  71.451  1.00  0.00    -0.080 C  
HETATM    5  O   UNK A   0      -7.048   8.353  70.398  1.00  0.00    -0.036 OA 
BRANCH   4   6
HETATM    6  C   UNK A   0      -8.517   6.801  71.596  1.00  0.00    -0.115 C  
BRANCH   6   7
HETATM    7  C   UNK A   0      -8.270   5.795  70.470  1.00  0.00    -0.118 C  
BRANCH   7   8
HETATM    8  C   UNK A   0      -8.020   4.313  70.795  1.00  0.00    -0.060 C  
BRANCH   8   9
HETATM    9  C   UNK A   0      -8.022   3.445  69.527  1.00  0.00    -0.057 A  
HETATM   10  C   UNK A   0      -8.848   2.314  69.450  1.00  0.00    -0.146 A  
HETATM   11  C   UNK A   0      -8.949   1.578  68.256  1.00  0.00    -0.162 A  
HETATM   12  C   UNK A   0      -7.274   3.773  68.375  1.00  0.00    -0.054 A  
HETATM   13  C   UNK A   0      -8.235   1.960  67.120  1.00  0.00    -0.075 A  
HETATM   14  C   UNK A   0      -7.388   3.054  67.184  1.00  0.00    -0.062 A  
ENDBRANCH   8   9
ENDBRANCH   7   8
ENDBRANCH   6   7
BRANCH   6  15
ATOM     15  N   ALA A   1      -9.923   7.274  71.578  1.00  0.00    -0.182 NA 
ATOM     16  H   ALA A   1     -10.581   6.903  72.264  1.00  0.00     0.000 HD 
BRANCH  15  17
ATOM     17  CA  ALA A   1     -10.399   8.278  70.582  1.00  0.00    -0.199 C  
ATOM     18  CB  ALA A   1     -10.340   9.783  70.892  1.00  0.00    -0.245 C  
BRANCH  17  19
ATOM     19  C   ALA A   1     -10.074   7.962  69.085  1.00  0.00    -0.197 C  
ATOM     20  O   ALA A   1     -10.321   6.829  68.652  1.00  0.00    -0.166 OA 
HETATM   21  C   UNK A   2      -9.801  11.368  67.765  1.00  0.00    -0.186 A  
HETATM   22  C   UNK A   2      -9.608  12.680  68.218  1.00  0.00    -0.208 A  
HETATM   23  N   UNK A   2      -9.650   8.949  68.210  1.00  0.00    -0.144 N  
HETATM   24  C   UNK A   2     -10.134  13.750  67.516  1.00  0.00    -0.241 A  
HETATM   25  C   UNK A   2      -9.216  10.271  68.584  1.00  0.00    -0.159 C  
HETATM   26  O   UNK A   2      -8.087   7.979  65.047  1.00  0.00    -0.132 OA 
HETATM   27  C   UNK A   2     -10.883  13.518  66.361  1.00  0.00    -0.290 A  
HETATM   28  C   UNK A   2     -11.067  12.198  65.901  1.00  0.00    -0.360 A  
HETATM   29  O   UNK A   2      -7.378   9.613  66.413  1.00  0.00    -0.092 OA 
HETATM   30  C   UNK A   2      -8.258   8.820  66.088  1.00  0.00    -0.117 C  
HETATM   31  C   UNK A   2     -10.497  11.117  66.584  1.00  0.00    -0.298 A  
HETATM   32  C   UNK A   2      -9.653   8.712  66.757  1.00  0.00    -0.207 C  
HETATM   33  C   UNK A   2     -10.656   9.690  66.104  1.00  0.00     0.015 C  
BRANCH  24  34
HETATM   34  O   UNK A   2      -9.926  15.061  67.861  1.00  0.00    -0.220 OA 
HETATM   35  C   UNK A   2      -8.581  15.480  67.746  1.00  0.00    -0.152 C  
ENDBRANCH  24  34
BRANCH  27  36
HETATM   36  O   UNK A   2     -11.398  14.638  65.784  1.00  0.00    -0.335 OA 
HETATM   37  C   UNK A   2     -12.189  14.472  64.623  1.00  0.00    -0.460 C  
ENDBRANCH  27  36
ENDBRANCH  17  19
ENDBRANCH  15  17
ENDBRANCH   6  15
ENDBRANCH   4   6
ENDBRANCH   3   4
ENDBRANCH   2   3
TORSDOF 11
ENDMDL
MODEL      230
REMARK 921   NORMALIZED FREE ENERGY PREDICTED BY IDOCK:   -2.01 KCAL/MOL
REMARK 922        TOTAL FREE ENERGY PREDICTED BY IDOCK:   -5.21 KCAL/MOL
REMARK 923 INTER-LIGAND FREE ENERGY PREDICTED BY IDOCK:   -5.03 KCAL/MOL
REMARK 924 INTRA-LIGAND FREE ENERGY PREDICTED BY IDOCK:   -0.18 KCAL/MOL
REMARK 927      BINDING AFFINITY PREDICTED BY RF-SCORE:    0.00 PKD
ROOT
HETATM    1  C   UNK A   0     -12.374   8.582  72.089  1.00  0.00    -0.444 C  
HETATM    2  C   UNK A   0     -11.585   9.498  71.174  1.00  0.00    -0.367 C  
ENDROOT
BRANCH   2   3
HETATM    3  O   UNK A   0     -11.015   8.712  70.122  1.00  0.00    -0.246 OA 
BRANCH   3   4
HETATM    4  C   UNK A   0     -10.555   9.388  69.030  1.00  0.00    -0.213 C  
HETATM    5  O   UNK A   0     -11.217  10.130  68.311  1.00  0.00    -0.255 OA 
BRANCH   4   6
HETATM    6  C   UNK A   0      -9.055   9.132  68.886  1.00  0.00    -0.139 C  
BRANCH   6   7
HETATM    7  C   UNK A   0      -8.674   7.855  69.639  1.00  0.00    -0.134 C  
BRANCH   7   8
HETATM    8  C   UNK A   0      -9.362   6.523  69.304  1.00  0.00    -0.141 C  
BRANCH   8   9
HETATM    9  C   UNK A   0      -8.559   5.710  68.275  1.00  0.00    -0.107 A  
HETATM   10  C   UNK A   0      -9.135   5.371  67.042  1.00  0.00    -0.112 A  
HETATM   11  C   UNK A   0      -8.375   4.732  66.046  1.00  0.00    -0.112 A  
HETATM   12  C   UNK A   0      -7.211   5.341  68.477  1.00  0.00    -0.063 A  
HETATM   13  C   UNK A   0      -7.031   4.426  66.260  1.00  0.00    -0.066 A  
HETATM   14  C   UNK A   0      -6.452   4.723  67.483  1.00  0.00    -0.045 A  
ENDBRANCH   8   9
ENDBRANCH   7   8
ENDBRANCH   6   7
BRANCH   6  15
ATOM     15  N   ALA A   1      -8.284  10.292  69.397  1.00  0.00    -0.160 NA 
ATOM     16  H   ALA A   1      -8.611  10.777  70.232  1.00  0.00     0.000 HD 
BRANCH  15  17
ATOM     17  CA  ALA A   1      -7.042  10.766  68.720  1.00  0.00    -0.079 C  
ATOM     18  CB  ALA A   1      -6.593  10.156  67.381  1.00  0.00    -0.068 C  
BRANCH  17  19
ATOM     19  C   ALA A   1      -6.763  12.303  68.802  1.00  0.00    -0.089 C  
ATOM     20  O   ALA A   1      -5.608  12.684  69.029  1.00  0.00    -0.066 OA 
HETATM   21  C   UNK A   2      -9.756  13.579  67.118  1.00  0.00    -0.244 A  
HETATM   22  C   UNK A   2     -11.046  13.161  66.765  1.00  0.00    -0.314 A  
HETATM   23  N   UNK A   2      -7.740  13.235  68.494  1.00  0.00    -0.133 N  
HETATM   24  C   UNK A   2     -11.673  13.687  65.649  1.00  0.00    -0.342 A  
HETATM   25  C   UNK A   2      -9.143  12.955  68.323  1.00  0.00    -0.180 C  
HETATM   26  O   UNK A   2      -7.292  16.708  69.555  1.00  0.00    -0.174 OA 
HETATM   27  C   UNK A   2     -11.006  14.623  64.857  1.00  0.00    -0.407 A  
HETATM   28  C   UNK A   2      -9.712  15.049  65.220  1.00  0.00    -0.144 A  
HETATM   29  O   UNK A   2      -9.196  15.530  69.698  1.00  0.00    -0.275 OA 
HETATM   30  C   UNK A   2      -8.058  15.641  69.251  1.00  0.00    -0.244 C  
HETATM   31  C   UNK A   2      -9.093  14.553  66.373  1.00  0.00    -0.217 A  
HETATM   32  C   UNK A   2      -7.384  14.646  68.270  1.00  0.00    -0.117 C  
HETATM   33  C   UNK A   2      -7.715  15.007  66.804  1.00  0.00     0.174 C  
BRANCH  24  34
HETATM   34  O   UNK A   2     -12.960  13.378  65.285  1.00  0.00    -0.681 OA 
HETATM   35  C   UNK A   2     -13.052  12.363  64.304  1.00  0.00     0.001 C  
ENDBRANCH  24  34
BRANCH  27  36
HETATM   36  O   UNK A   2     -11.696  15.029  63.756  1.00  0.00    -0.098 OA 
HETATM   37  C   UNK A   2     -12.650  16.059  63.924  1.00  0.00     1.277 C  
ENDBRANCH  27  36
ENDBRANCH  17  19
ENDBRANCH  15  17
ENDBRANCH   6  15
ENDBRANCH   4   6
ENDBRANCH   3   4
ENDBRANCH   2   3
TORSDOF 11
ENDMDL
MODEL      231
REMARK 921   NORMALIZED FREE ENERGY PREDICTED BY IDOCK:   -1.98 KCAL/MOL
REMARK 922        TOTAL FREE ENERGY PREDICTED BY IDOCK:   -5.16 KCAL/MOL
REMARK 923 INTER-LIGAND FREE ENERGY PREDICTED BY IDOCK:   -4.04 KCAL/MOL
REMARK 924 INTRA-LIGAND FREE ENERGY PREDICTED BY IDOCK:   -1.12 KCAL/MOL
REMARK 927      BINDING AFFINITY PREDICTED BY RF-SCORE:    0.00 PKD
ROOT
HETATM    1  C   UNK A   0      -8.429  10.846  62.446  1.00  0.00    -0.323 C  
HETATM    2  C   UNK A   0      -9.520  10.549  63.456  1.00  0.00    -0.312 C  
ENDROOT
BRANCH   2   3
HETATM    3  O   UNK A   0      -8.927  10.455  64.755  1.00  0.00    -0.177 OA 
BRANCH   3   4
HETATM    4  C   UNK A   0      -9.569  11.100  65.772  1.00  0.00    -0.221 C  
HETATM    5  O   UNK A   0      -9.872  12.289  65.794  1.00  0.00    -0.249 OA 
BRANCH   4   6
HETATM    6  C   UNK A   0      -9.922  10.082  66.857  1.00  0.00    -0.209 C  
BRANCH   6   7
HETATM    7  C   UNK A   0      -9.900  10.761  68.228  1.00  0.00    -0.177 C  
BRANCH   7   8
HETATM    8  C   UNK A   0      -8.980  10.233  69.340  1.00  0.00    -0.190 C  
BRANCH   8   9
HETATM    9  C   UNK A   0      -7.806  11.188  69.607  1.00  0.00     0.306 A  
HETATM   10  C   UNK A   0      -6.642  10.715  70.231  1.00  0.00    -0.127 A  
HETATM   11  C   UNK A   0      -5.516  11.545  70.376  1.00  0.00    -0.131 A  
HETATM   12  C   UNK A   0      -7.802  12.534  69.180  1.00  0.00     0.366 A  
HETATM   13  C   UNK A   0      -5.529  12.855  69.897  1.00  0.00    -0.102 A  
HETATM   14  C   UNK A   0      -6.680  13.353  69.308  1.00  0.00    -0.072 A  
ENDBRANCH   8   9
ENDBRANCH   7   8
ENDBRANCH   6   7
BRANCH   6  15
ATOM     15  N   ALA A   1      -8.973   8.942  66.821  1.00  0.00    -0.126 NA 
ATOM     16  H   ALA A   1      -8.004   9.111  66.551  1.00  0.00     0.000 HD 
BRANCH  15  17
ATOM     17  CA  ALA A   1      -9.401   7.556  67.169  1.00  0.00    -0.142 C  
ATOM     18  CB  ALA A   1     -10.824   7.067  66.849  1.00  0.00    -0.350 C  
BRANCH  17  19
ATOM     19  C   ALA A   1      -8.325   6.438  66.970  1.00  0.00    -0.112 C  
ATOM     20  O   ALA A   1      -7.454   6.602  66.107  1.00  0.00    -0.078 OA 
HETATM   21  C   UNK A   2      -8.703   4.626  70.132  1.00  0.00    -0.113 A  
HETATM   22  C   UNK A   2      -9.626   4.474  71.174  1.00  0.00    -0.245 A  
HETATM   23  N   UNK A   2      -8.248   5.346  67.819  1.00  0.00    -0.100 N  
HETATM   24  C   UNK A   2      -9.195   4.175  72.455  1.00  0.00    -0.116 A  
HETATM   25  C   UNK A   2      -9.244   4.962  68.786  1.00  0.00    -0.119 C  
HETATM   26  O   UNK A   2      -6.340   2.404  66.772  1.00  0.00    -0.024 OA 
HETATM   27  C   UNK A   2      -7.829   4.047  72.713  1.00  0.00    -0.079 A  
HETATM   28  C   UNK A   2      -6.902   4.192  71.660  1.00  0.00    -0.033 A  
HETATM   29  O   UNK A   2      -8.352   2.376  67.767  1.00  0.00    -0.063 OA 
HETATM   30  C   UNK A   2      -7.342   3.000  67.451  1.00  0.00    -0.058 C  
HETATM   31  C   UNK A   2      -7.338   4.449  70.355  1.00  0.00    -0.049 A  
HETATM   32  C   UNK A   2      -7.057   4.479  67.816  1.00  0.00    -0.064 C  
HETATM   33  C   UNK A   2      -6.373   4.585  69.198  1.00  0.00    -0.032 C  
BRANCH  24  34
HETATM   34  O   UNK A   2     -10.044   3.942  73.508  1.00  0.00    -0.121 OA 
HETATM   35  C   UNK A   2     -11.286   4.609  73.403  1.00  0.00    -0.305 C  
ENDBRANCH  24  34
BRANCH  27  36
HETATM   36  O   UNK A   2      -7.517   3.808  74.017  1.00  0.00    -0.063 OA 
HETATM   37  C   UNK A   2      -6.322   3.103  74.285  1.00  0.00    -0.024 C  
ENDBRANCH  27  36
ENDBRANCH  17  19
ENDBRANCH  15  17
ENDBRANCH   6  15
ENDBRANCH   4   6
ENDBRANCH   3   4
ENDBRANCH   2   3
TORSDOF 11
ENDMDL
MODEL      232
REMARK 921   NORMALIZED FREE ENERGY PREDICTED BY IDOCK:   -1.98 KCAL/MOL
REMARK 922        TOTAL FREE ENERGY PREDICTED BY IDOCK:   -5.15 KCAL/MOL
REMARK 923 INTER-LIGAND FREE ENERGY PREDICTED BY IDOCK:   -4.69 KCAL/MOL
REMARK 924 INTRA-LIGAND FREE ENERGY PREDICTED BY IDOCK:   -0.46 KCAL/MOL
REMARK 927      BINDING AFFINITY PREDICTED BY RF-SCORE:    0.00 PKD
ROOT
HETATM    1  C   UNK A   0     -10.591  15.374  70.690  1.00  0.00    -0.165 C  
HETATM    2  C   UNK A   0      -9.531  14.471  70.088  1.00  0.00     1.067 C  
ENDROOT
BRANCH   2   3
HETATM    3  O   UNK A   0      -8.382  15.264  69.771  1.00  0.00    -0.194 OA 
BRANCH   3   4
HETATM    4  C   UNK A   0      -7.276  14.595  69.334  1.00  0.00    -0.146 C  
HETATM    5  O   UNK A   0      -6.355  14.190  70.035  1.00  0.00    -0.142 OA 
BRANCH   4   6
HETATM    6  C   UNK A   0      -7.403  14.362  67.828  1.00  0.00    -0.173 C  
BRANCH   6   7
HETATM    7  C   UNK A   0      -6.980  12.931  67.489  1.00  0.00    -0.151 C  
BRANCH   7   8
HETATM    8  C   UNK A   0      -7.979  11.772  67.635  1.00  0.00    -0.143 C  
BRANCH   8   9
HETATM    9  C   UNK A   0      -8.044  10.913  66.362  1.00  0.00    -0.164 A  
HETATM   10  C   UNK A   0      -6.968  10.082  66.019  1.00  0.00    -0.110 A  
HETATM   11  C   UNK A   0      -7.060   9.203  64.924  1.00  0.00    -0.096 A  
HETATM   12  C   UNK A   0      -9.188  10.856  65.537  1.00  0.00    -0.232 A  
HETATM   13  C   UNK A   0      -8.224   9.135  64.160  1.00  0.00    -0.162 A  
HETATM   14  C   UNK A   0      -9.286   9.972  64.462  1.00  0.00    -0.345 A  
ENDBRANCH   8   9
ENDBRANCH   7   8
ENDBRANCH   6   7
BRANCH   6  15
ATOM     15  N   ALA A   1      -6.574  15.344  67.085  1.00  0.00    -0.282 NA 
ATOM     16  H   ALA A   1      -6.051  15.033  66.267  1.00  0.00     0.000 HD 
BRANCH  15  17
ATOM     17  CA  ALA A   1      -6.488  16.773  67.505  1.00  0.00    -0.152 C  
ATOM     18  CB  ALA A   1      -5.130  17.419  67.826  1.00  0.00    -0.122 C  
BRANCH  17  19
ATOM     19  C   ALA A   1      -7.463  17.758  66.780  1.00  0.00    -0.211 C  
ATOM     20  O   ALA A   1      -6.984  18.700  66.138  1.00  0.00    -0.223 OA 
HETATM   21  C   UNK A   2     -10.506  15.718  66.737  1.00  0.00    -0.305 A  
HETATM   22  C   UNK A   2     -11.056  14.601  67.380  1.00  0.00    -0.331 A  
HETATM   23  N   UNK A   2      -8.828  17.523  66.730  1.00  0.00    -0.248 N  
HETATM   24  C   UNK A   2     -11.950  13.779  66.718  1.00  0.00    -0.426 A  
HETATM   25  C   UNK A   2      -9.540  16.544  67.512  1.00  0.00    -0.231 C  
HETATM   26  O   UNK A   2     -11.079  20.262  65.826  1.00  0.00     0.019 OA 
HETATM   27  C   UNK A   2     -12.289  14.052  65.391  1.00  0.00    -0.478 A  
HETATM   28  C   UNK A   2     -11.742  15.182  64.749  1.00  0.00    -0.331 A  
HETATM   29  O   UNK A   2     -11.412  18.784  67.481  1.00  0.00     0.213 OA 
HETATM   30  C   UNK A   2     -10.793  19.114  66.473  1.00  0.00    -0.256 C  
HETATM   31  C   UNK A   2     -10.872  16.041  65.431  1.00  0.00    -0.340 A  
HETATM   32  C   UNK A   2      -9.682  18.272  65.794  1.00  0.00     0.245 C  
HETATM   33  C   UNK A   2     -10.287  17.275  64.779  1.00  0.00     1.365 C  
BRANCH  24  34
HETATM   34  O   UNK A   2     -12.580  12.711  67.306  1.00  0.00     0.026 OA 
HETATM   35  C   UNK A   2     -11.853  12.127  68.368  1.00  0.00    -0.303 C  
ENDBRANCH  24  34
BRANCH  27  36
HETATM   36  O   UNK A   2     -13.132  13.146  64.822  1.00  0.00    -0.728 OA 
HETATM   37  C   UNK A   2     -12.572  12.196  63.938  1.00  0.00    -0.438 C  
ENDBRANCH  27  36
ENDBRANCH  17  19
ENDBRANCH  15  17
ENDBRANCH   6  15
ENDBRANCH   4   6
ENDBRANCH   3   4
ENDBRANCH   2   3
TORSDOF 11
ENDMDL
MODEL      233
REMARK 921   NORMALIZED FREE ENERGY PREDICTED BY IDOCK:   -1.97 KCAL/MOL
REMARK 922        TOTAL FREE ENERGY PREDICTED BY IDOCK:   -5.14 KCAL/MOL
REMARK 923 INTER-LIGAND FREE ENERGY PREDICTED BY IDOCK:   -4.79 KCAL/MOL
REMARK 924 INTRA-LIGAND FREE ENERGY PREDICTED BY IDOCK:   -0.36 KCAL/MOL
REMARK 927      BINDING AFFINITY PREDICTED BY RF-SCORE:    0.00 PKD
ROOT
HETATM    1  C   UNK A   0      -9.902   4.776  70.201  1.00  0.00    -0.308 C  
HETATM    2  C   UNK A   0      -9.588   6.250  70.371  1.00  0.00    -0.165 C  
ENDROOT
BRANCH   2   3
HETATM    3  O   UNK A   0     -10.524   7.008  69.599  1.00  0.00    -0.208 OA 
BRANCH   3   4
HETATM    4  C   UNK A   0     -11.672   7.393  70.228  1.00  0.00    -0.072 C  
HETATM    5  O   UNK A   0     -12.695   6.723  70.334  1.00  0.00    -0.053 OA 
BRANCH   4   6
HETATM    6  C   UNK A   0     -11.456   8.773  70.850  1.00  0.00    -0.284 C  
BRANCH   6   7
HETATM    7  C   UNK A   0     -12.799   9.493  70.988  1.00  0.00    -0.295 C  
BRANCH   7   8
HETATM    8  C   UNK A   0     -13.098  10.344  72.232  1.00  0.00    -0.284 C  
BRANCH   8   9
HETATM    9  C   UNK A   0     -13.077  11.847  71.912  1.00  0.00    -0.474 A  
HETATM   10  C   UNK A   0     -12.145  12.358  70.997  1.00  0.00    -0.024 A  
HETATM   11  C   UNK A   0     -12.189  13.708  70.604  1.00  0.00    -0.434 A  
HETATM   12  C   UNK A   0     -14.019  12.755  72.443  1.00  0.00    -0.236 A  
HETATM   13  C   UNK A   0     -13.164  14.567  71.111  1.00  0.00    -0.423 A  
HETATM   14  C   UNK A   0     -14.074  14.090  72.040  1.00  0.00    -0.600 A  
ENDBRANCH   8   9
ENDBRANCH   7   8
ENDBRANCH   6   7
BRANCH   6  15
ATOM     15  N   ALA A   1     -10.517   9.569  70.022  1.00  0.00    -0.228 NA 
ATOM     16  H   ALA A   1      -9.645   9.897  70.436  1.00  0.00     0.000 HD 
BRANCH  15  17
ATOM     17  CA  ALA A   1     -10.817   9.901  68.598  1.00  0.00    -0.209 C  
ATOM     18  CB  ALA A   1     -11.748  11.072  68.243  1.00  0.00    -0.301 C  
BRANCH  17  19
ATOM     19  C   ALA A   1      -9.623   9.760  67.598  1.00  0.00    -0.145 C  
ATOM     20  O   ALA A   1      -9.841   9.271  66.482  1.00  0.00    -0.220 OA 
HETATM   21  C   UNK A   2      -7.244  12.096  69.118  1.00  0.00     0.022 A  
HETATM   22  C   UNK A   2      -7.007  12.738  70.340  1.00  0.00     1.494 A  
HETATM   23  N   UNK A   2      -8.373  10.289  67.879  1.00  0.00    -0.113 N  
HETATM   24  C   UNK A   2      -6.378  13.970  70.375  1.00  0.00    -0.073 A  
HETATM   25  C   UNK A   2      -7.940  10.780  69.162  1.00  0.00    -0.134 C  
HETATM   26  O   UNK A   2      -5.481   9.160  65.944  1.00  0.00    -0.040 OA 
HETATM   27  C   UNK A   2      -5.999  14.587  69.182  1.00  0.00    -0.094 A  
HETATM   28  C   UNK A   2      -6.230  13.935  67.953  1.00  0.00    -0.164 A  
HETATM   29  O   UNK A   2      -5.533   9.460  68.167  1.00  0.00    -0.037 OA 
HETATM   30  C   UNK A   2      -6.056   9.631  67.069  1.00  0.00    -0.063 C  
HETATM   31  C   UNK A   2      -6.825  12.668  67.918  1.00  0.00    -0.112 A  
HETATM   32  C   UNK A   2      -7.363  10.427  66.817  1.00  0.00    -0.110 C  
HETATM   33  C   UNK A   2      -7.065  11.930  66.619  1.00  0.00     0.079 C  
BRANCH  24  34
HETATM   34  O   UNK A   2      -6.051  14.623  71.537  1.00  0.00     0.025 OA 
HETATM   35  C   UNK A   2      -5.211  13.879  72.398  1.00  0.00    -0.203 C  
ENDBRANCH  24  34
BRANCH  27  36
HETATM   36  O   UNK A   2      -5.440  15.820  69.333  1.00  0.00    -0.106 OA 
HETATM   37  C   UNK A   2      -6.268  16.945  69.117  1.00  0.00    -0.196 C  
ENDBRANCH  27  36
ENDBRANCH  17  19
ENDBRANCH  15  17
ENDBRANCH   6  15
ENDBRANCH   4   6
ENDBRANCH   3   4
ENDBRANCH   2   3
TORSDOF 11
ENDMDL
MODEL      234
REMARK 921   NORMALIZED FREE ENERGY PREDICTED BY IDOCK:   -1.83 KCAL/MOL
REMARK 922        TOTAL FREE ENERGY PREDICTED BY IDOCK:   -4.92 KCAL/MOL
REMARK 923 INTER-LIGAND FREE ENERGY PREDICTED BY IDOCK:   -5.09 KCAL/MOL
REMARK 924 INTRA-LIGAND FREE ENERGY PREDICTED BY IDOCK:    0.17 KCAL/MOL
REMARK 927      BINDING AFFINITY PREDICTED BY RF-SCORE:    0.00 PKD
ROOT
HETATM    1  C   UNK A   0      -9.724   3.989  69.598  1.00  0.00    -0.245 C  
HETATM    2  C   UNK A   0     -10.019   5.419  69.189  1.00  0.00    -0.197 C  
ENDROOT
BRANCH   2   3
HETATM    3  O   UNK A   0      -8.792   6.044  68.797  1.00  0.00    -0.117 OA 
BRANCH   3   4
HETATM    4  C   UNK A   0      -8.500   6.040  67.464  1.00  0.00    -0.107 C  
HETATM    5  O   UNK A   0      -9.295   5.836  66.552  1.00  0.00    -0.143 OA 
BRANCH   4   6
HETATM    6  C   UNK A   0      -7.027   6.408  67.280  1.00  0.00    -0.072 C  
BRANCH   6   7
HETATM    7  C   UNK A   0      -6.187   5.739  68.370  1.00  0.00    -0.032 C  
BRANCH   7   8
HETATM    8  C   UNK A   0      -5.934   4.224  68.334  1.00  0.00    -0.027 C  
BRANCH   8   9
HETATM    9  C   UNK A   0      -5.978   3.606  69.740  1.00  0.00    -0.023 A  
HETATM   10  C   UNK A   0      -6.360   4.387  70.840  1.00  0.00    -0.022 A  
HETATM   11  C   UNK A   0      -6.519   3.809  72.112  1.00  0.00    -0.014 A  
HETATM   12  C   UNK A   0      -5.722   2.239  69.983  1.00  0.00    -0.018 A  
HETATM   13  C   UNK A   0      -6.307   2.444  72.307  1.00  0.00    -0.014 A  
HETATM   14  C   UNK A   0      -5.897   1.660  71.240  1.00  0.00    -0.013 A  
ENDBRANCH   8   9
ENDBRANCH   7   8
ENDBRANCH   6   7
BRANCH   6  15
ATOM     15  N   ALA A   1      -6.857   7.882  67.317  1.00  0.00    -0.068 NA 
ATOM     16  H   ALA A   1      -5.951   8.271  67.575  1.00  0.00     0.000 HD 
BRANCH  15  17
ATOM     17  CA  ALA A   1      -7.979   8.808  66.985  1.00  0.00    -0.095 C  
ATOM     18  CB  ALA A   1      -8.894   8.536  65.779  1.00  0.00    -0.229 C  
BRANCH  17  19
ATOM     19  C   ALA A   1      -8.757   9.403  68.205  1.00  0.00    -0.124 C  
ATOM     20  O   ALA A   1      -8.380   9.112  69.347  1.00  0.00    -0.115 OA 
HETATM   21  C   UNK A   2     -10.516  12.158  66.549  1.00  0.00    -0.254 A  
HETATM   22  C   UNK A   2     -10.891  12.569  65.264  1.00  0.00    -0.321 A  
HETATM   23  N   UNK A   2      -9.761  10.343  68.036  1.00  0.00    -0.149 N  
HETATM   24  C   UNK A   2     -11.023  13.915  64.968  1.00  0.00    -0.368 A  
HETATM   25  C   UNK A   2     -10.381  10.694  66.784  1.00  0.00    -0.245 C  
HETATM   26  O   UNK A   2     -12.080  10.990  70.791  1.00  0.00    -0.335 OA 
HETATM   27  C   UNK A   2     -10.757  14.869  65.952  1.00  0.00    -0.323 A  
HETATM   28  C   UNK A   2     -10.388  14.452  67.248  1.00  0.00    -0.260 A  
HETATM   29  O   UNK A   2     -12.642  10.769  68.630  1.00  0.00    -0.176 OA 
HETATM   30  C   UNK A   2     -11.770  10.925  69.480  1.00  0.00    -0.328 C  
HETATM   31  C   UNK A   2     -10.299  13.090  67.562  1.00  0.00    -0.224 A  
HETATM   32  C   UNK A   2     -10.260  11.118  69.185  1.00  0.00    -0.141 C  
HETATM   33  C   UNK A   2      -9.930  12.609  68.949  1.00  0.00     0.090 C  
BRANCH  24  34
HETATM   34  O   UNK A   2     -11.454  14.387  63.754  1.00  0.00     0.112 OA 
HETATM   35  C   UNK A   2     -12.373  13.536  63.099  1.00  0.00     0.097 C  
ENDBRANCH  24  34
BRANCH  27  36
HETATM   36  O   UNK A   2     -10.863  16.160  65.534  1.00  0.00    -0.332 OA 
HETATM   37  C   UNK A   2     -10.476  17.175  66.439  1.00  0.00    -0.255 C  
ENDBRANCH  27  36
ENDBRANCH  17  19
ENDBRANCH  15  17
ENDBRANCH   6  15
ENDBRANCH   4   6
ENDBRANCH   3   4
ENDBRANCH   2   3
TORSDOF 11
ENDMDL
MODEL      235
REMARK 921   NORMALIZED FREE ENERGY PREDICTED BY IDOCK:   -1.69 KCAL/MOL
REMARK 922        TOTAL FREE ENERGY PREDICTED BY IDOCK:   -4.67 KCAL/MOL
REMARK 923 INTER-LIGAND FREE ENERGY PREDICTED BY IDOCK:   -4.59 KCAL/MOL
REMARK 924 INTRA-LIGAND FREE ENERGY PREDICTED BY IDOCK:   -0.09 KCAL/MOL
REMARK 927      BINDING AFFINITY PREDICTED BY RF-SCORE:    0.00 PKD
ROOT
HETATM    1  C   UNK A   0      -9.908   4.771  70.201  1.00  0.00    -0.308 C  
HETATM    2  C   UNK A   0      -9.657   6.258  70.355  1.00  0.00    -0.165 C  
ENDROOT
BRANCH   2   3
HETATM    3  O   UNK A   0     -10.691   6.970  69.667  1.00  0.00    -0.226 OA 
BRANCH   3   4
HETATM    4  C   UNK A   0     -11.784   7.326  70.402  1.00  0.00    -0.182 C  
HETATM    5  O   UNK A   0     -12.757   6.616  70.637  1.00  0.00    -0.148 OA 
BRANCH   4   6
HETATM    6  C   UNK A   0     -11.572   8.736  70.953  1.00  0.00    -0.277 C  
BRANCH   6   7
HETATM    7  C   UNK A   0     -12.921   9.354  71.325  1.00  0.00    -0.373 C  
BRANCH   7   8
HETATM    8  C   UNK A   0     -13.028  10.328  72.509  1.00  0.00     0.190 C  
BRANCH   8   9
HETATM    9  C   UNK A   0     -13.120  11.788  72.039  1.00  0.00    -0.436 A  
HETATM   10  C   UNK A   0     -12.356  12.224  70.946  1.00  0.00    -0.363 A  
HETATM   11  C   UNK A   0     -12.516  13.523  70.431  1.00  0.00    -0.345 A  
HETATM   12  C   UNK A   0     -14.011  12.722  72.612  1.00  0.00     0.094 A  
HETATM   13  C   UNK A   0     -13.442  14.404  70.990  1.00  0.00    -0.309 A  
HETATM   14  C   UNK A   0     -14.183  14.004  72.090  1.00  0.00    -0.628 A  
ENDBRANCH   8   9
ENDBRANCH   7   8
ENDBRANCH   6   7
BRANCH   6  15
ATOM     15  N   ALA A   1     -10.868   9.578  69.954  1.00  0.00    -0.236 NA 
ATOM     16  H   ALA A   1      -9.949   9.956  70.182  1.00  0.00     0.000 HD 
BRANCH  15  17
ATOM     17  CA  ALA A   1     -11.470   9.883  68.623  1.00  0.00     0.111 C  
ATOM     18  CB  ALA A   1     -12.556  10.963  68.481  1.00  0.00     1.275 C  
BRANCH  17  19
ATOM     19  C   ALA A   1     -10.489   9.857  67.406  1.00  0.00    -0.267 C  
ATOM     20  O   ALA A   1     -10.506   8.875  66.653  1.00  0.00    -0.249 OA 
HETATM   21  C   UNK A   2      -9.635  13.414  67.204  1.00  0.00    -0.241 A  
HETATM   22  C   UNK A   2      -9.674  14.571  67.994  1.00  0.00    -0.218 A  
HETATM   23  N   UNK A   2      -9.707  10.953  67.079  1.00  0.00    -0.173 N  
HETATM   24  C   UNK A   2      -9.815  15.816  67.407  1.00  0.00    -0.233 A  
HETATM   25  C   UNK A   2      -9.496  12.111  67.911  1.00  0.00    -0.195 C  
HETATM   26  O   UNK A   2      -6.856  10.507  64.830  1.00  0.00    -0.073 OA 
HETATM   27  C   UNK A   2      -9.943  15.917  66.021  1.00  0.00    -0.334 A  
HETATM   28  C   UNK A   2      -9.893  14.753  65.227  1.00  0.00    -0.235 A  
HETATM   29  O   UNK A   2      -6.861  11.727  66.713  1.00  0.00    -0.127 OA 
HETATM   30  C   UNK A   2      -7.490  11.123  65.849  1.00  0.00     0.101 C  
HETATM   31  C   UNK A   2      -9.705  13.495  65.815  1.00  0.00    -0.156 A  
HETATM   32  C   UNK A   2      -9.036  11.031  65.771  1.00  0.00    -0.202 C  
HETATM   33  C   UNK A   2      -9.623  12.229  64.991  1.00  0.00     0.018 C  
BRANCH  24  34
HETATM   34  O   UNK A   2      -9.791  16.994  68.110  1.00  0.00    -0.254 OA 
HETATM   35  C   UNK A   2      -8.606  17.195  68.855  1.00  0.00    -0.190 C  
ENDBRANCH  24  34
BRANCH  27  36
HETATM   36  O   UNK A   2     -10.132  17.184  65.559  1.00  0.00    -0.576 OA 
HETATM   37  C   UNK A   2     -11.455  17.578  65.253  1.00  0.00     1.342 C  
ENDBRANCH  27  36
ENDBRANCH  17  19
ENDBRANCH  15  17
ENDBRANCH   6  15
ENDBRANCH   4   6
ENDBRANCH   3   4
ENDBRANCH   2   3
TORSDOF 11
ENDMDL
MODEL      236
REMARK 921   NORMALIZED FREE ENERGY PREDICTED BY IDOCK:   -1.56 KCAL/MOL
REMARK 922        TOTAL FREE ENERGY PREDICTED BY IDOCK:   -4.47 KCAL/MOL
REMARK 923 INTER-LIGAND FREE ENERGY PREDICTED BY IDOCK:   -4.91 KCAL/MOL
REMARK 924 INTRA-LIGAND FREE ENERGY PREDICTED BY IDOCK:    0.44 KCAL/MOL
REMARK 927      BINDING AFFINITY PREDICTED BY RF-SCORE:    0.00 PKD
ROOT
HETATM    1  C   UNK A   0      -5.384  10.295  71.864  1.00  0.00     0.060 C  
HETATM    2  C   UNK A   0      -6.278   9.970  70.683  1.00  0.00    -0.103 C  
ENDROOT
BRANCH   2   3
HETATM    3  O   UNK A   0      -6.935  11.170  70.265  1.00  0.00    -0.128 OA 
BRANCH   3   4
HETATM    4  C   UNK A   0      -7.703  11.089  69.140  1.00  0.00    -0.102 C  
HETATM    5  O   UNK A   0      -8.536  10.221  68.896  1.00  0.00    -0.120 OA 
BRANCH   4   6
HETATM    6  C   UNK A   0      -7.414  12.302  68.255  1.00  0.00    -0.119 C  
BRANCH   6   7
HETATM    7  C   UNK A   0      -8.428  12.361  67.111  1.00  0.00    -0.185 C  
BRANCH   7   8
HETATM    8  C   UNK A   0      -9.202  13.657  66.826  1.00  0.00    -0.251 C  
BRANCH   8   9
HETATM    9  C   UNK A   0     -10.120  13.515  65.601  1.00  0.00    -0.292 A  
HETATM   10  C   UNK A   0      -9.912  12.474  64.684  1.00  0.00    -0.176 A  
HETATM   11  C   UNK A   0     -10.812  12.260  63.625  1.00  0.00    -0.522 A  
HETATM   12  C   UNK A   0     -11.237  14.349  65.382  1.00  0.00    -0.335 A  
HETATM   13  C   UNK A   0     -11.934  13.073  63.467  1.00  0.00    -0.615 A  
HETATM   14  C   UNK A   0     -12.141  14.126  64.342  1.00  0.00    -0.486 A  
ENDBRANCH   8   9
ENDBRANCH   7   8
ENDBRANCH   6   7
BRANCH   6  15
ATOM     15  N   ALA A   1      -6.029  12.234  67.727  1.00  0.00    -0.084 NA 
ATOM     16  H   ALA A   1      -5.438  13.064  67.774  1.00  0.00     0.000 HD 
BRANCH  15  17
ATOM     17  CA  ALA A   1      -5.481  10.983  67.128  1.00  0.00    -0.053 C  
ATOM     18  CB  ALA A   1      -5.229   9.738  67.996  1.00  0.00    -0.039 C  
BRANCH  17  19
ATOM     19  C   ALA A   1      -6.008  10.620  65.701  1.00  0.00    -0.128 C  
ATOM     20  O   ALA A   1      -5.534  11.215  64.725  1.00  0.00    -0.112 OA 
HETATM   21  C   UNK A   2      -7.561   7.377  66.407  1.00  0.00    -0.088 A  
HETATM   22  C   UNK A   2      -8.034   6.631  67.494  1.00  0.00    -0.115 A  
HETATM   23  N   UNK A   2      -6.885   9.566  65.497  1.00  0.00    -0.082 N  
HETATM   24  C   UNK A   2      -8.014   5.248  67.458  1.00  0.00    -0.100 A  
HETATM   25  C   UNK A   2      -7.603   8.860  66.528  1.00  0.00    -0.092 C  
HETATM   26  O   UNK A   2      -8.726   9.359  62.342  1.00  0.00    -0.198 OA 
HETATM   27  C   UNK A   2      -7.495   4.592  66.340  1.00  0.00    -0.082 A  
HETATM   28  C   UNK A   2      -7.028   5.345  65.243  1.00  0.00    -0.064 A  
HETATM   29  O   UNK A   2      -9.581   8.993  64.385  1.00  0.00     0.413 OA 
HETATM   30  C   UNK A   2      -8.595   9.139  63.667  1.00  0.00    -0.166 C  
HETATM   31  C   UNK A   2      -7.090   6.744  65.258  1.00  0.00    -0.067 A  
HETATM   32  C   UNK A   2      -7.122   9.041  64.142  1.00  0.00    -0.094 C  
HETATM   33  C   UNK A   2      -6.620   7.581  64.088  1.00  0.00    -0.048 C  
BRANCH  24  34
HETATM   34  O   UNK A   2      -8.525   4.454  68.454  1.00  0.00    -0.091 OA 
HETATM   35  C   UNK A   2      -9.018   5.173  69.567  1.00  0.00    -0.099 C  
ENDBRANCH  24  34
BRANCH  27  36
HETATM   36  O   UNK A   2      -7.473   3.234  66.437  1.00  0.00    -0.074 OA 
HETATM   37  C   UNK A   2      -7.508   2.491  65.234  1.00  0.00    -0.074 C  
ENDBRANCH  27  36
ENDBRANCH  17  19
ENDBRANCH  15  17
ENDBRANCH   6  15
ENDBRANCH   4   6
ENDBRANCH   3   4
ENDBRANCH   2   3
TORSDOF 11
ENDMDL
MODEL      237
REMARK 921   NORMALIZED FREE ENERGY PREDICTED BY IDOCK:   -1.27 KCAL/MOL
REMARK 922        TOTAL FREE ENERGY PREDICTED BY IDOCK:   -4.00 KCAL/MOL
REMARK 923 INTER-LIGAND FREE ENERGY PREDICTED BY IDOCK:   -4.33 KCAL/MOL
REMARK 924 INTRA-LIGAND FREE ENERGY PREDICTED BY IDOCK:    0.34 KCAL/MOL
REMARK 927      BINDING AFFINITY PREDICTED BY RF-SCORE:    0.00 PKD
ROOT
HETATM    1  C   UNK A   0      -7.965  11.824  66.659  1.00  0.00    -0.070 C  
HETATM    2  C   UNK A   0      -8.007  12.560  67.984  1.00  0.00    -0.153 C  
ENDROOT
BRANCH   2   3
HETATM    3  O   UNK A   0      -9.062  13.525  67.937  1.00  0.00    -0.186 OA 
BRANCH   3   4
HETATM    4  C   UNK A   0      -8.693  14.838  67.897  1.00  0.00    -0.167 C  
HETATM    5  O   UNK A   0      -7.636  15.276  67.452  1.00  0.00    -0.167 OA 
BRANCH   4   6
HETATM    6  C   UNK A   0      -9.843  15.692  68.429  1.00  0.00    -0.206 C  
BRANCH   6   7
HETATM    7  C   UNK A   0     -10.465  15.017  69.654  1.00  0.00    -0.226 C  
BRANCH   7   8
HETATM    8  C   UNK A   0     -10.265  15.616  71.055  1.00  0.00     0.759 C  
BRANCH   8   9
HETATM    9  C   UNK A   0     -11.548  15.535  71.897  1.00  0.00    -0.525 A  
HETATM   10  C   UNK A   0     -11.481  15.639  73.294  1.00  0.00     0.052 A  
HETATM   11  C   UNK A   0     -12.654  15.685  74.068  1.00  0.00    -0.767 A  
HETATM   12  C   UNK A   0     -12.834  15.436  71.322  1.00  0.00    -0.519 A  
HETATM   13  C   UNK A   0     -13.910  15.635  73.464  1.00  0.00     0.342 A  
HETATM   14  C   UNK A   0     -13.999  15.500  72.088  1.00  0.00    -0.620 A  
ENDBRANCH   8   9
ENDBRANCH   7   8
ENDBRANCH   6   7
BRANCH   6  15
ATOM     15  N   ALA A   1     -10.863  15.899  67.371  1.00  0.00    -0.313 NA 
ATOM     16  H   ALA A   1     -11.851  15.876  67.621  1.00  0.00     0.000 HD 
BRANCH  15  17
ATOM     17  CA  ALA A   1     -10.477  16.141  65.950  1.00  0.00    -0.352 C  
ATOM     18  CB  ALA A   1      -9.257  17.010  65.601  1.00  0.00     0.290 C  
BRANCH  17  19
ATOM     19  C   ALA A   1     -10.641  14.924  64.981  1.00  0.00    -0.422 C  
ATOM     20  O   ALA A   1     -10.037  14.940  63.902  1.00  0.00     1.429 OA 
HETATM   21  C   UNK A   2     -11.942  12.423  67.322  1.00  0.00    -0.246 A  
HETATM   22  C   UNK A   2     -12.554  12.351  68.580  1.00  0.00     0.959 A  
HETATM   23  N   UNK A   2     -11.332  13.783  65.359  1.00  0.00    -0.304 N  
HETATM   24  C   UNK A   2     -12.374  11.241  69.386  1.00  0.00    -0.149 A  
HETATM   25  C   UNK A   2     -12.173  13.658  66.522  1.00  0.00    -0.404 C  
HETATM   26  O   UNK A   2     -12.415  11.418  62.787  1.00  0.00     0.132 OA 
HETATM   27  C   UNK A   2     -11.557  10.195  68.950  1.00  0.00     0.009 A  
HETATM   28  C   UNK A   2     -10.950  10.266  67.679  1.00  0.00    -0.356 A  
HETATM   29  O   UNK A   2     -13.644  12.109  64.532  1.00  0.00    -0.477 OA 
HETATM   30  C   UNK A   2     -12.549  12.029  63.982  1.00  0.00    -0.359 C  
HETATM   31  C   UNK A   2     -11.168  11.368  66.843  1.00  0.00    -0.331 A  
HETATM   32  C   UNK A   2     -11.212  12.542  64.576  1.00  0.00    -0.325 C  
HETATM   33  C   UNK A   2     -10.552  11.464  65.465  1.00  0.00    -0.328 C  
BRANCH  24  34
HETATM   34  O   UNK A   2     -12.997  11.071  70.597  1.00  0.00    -0.254 OA 
HETATM   35  C   UNK A   2     -12.233  11.508  71.703  1.00  0.00     0.302 C  
ENDBRANCH  24  34
BRANCH  27  36
HETATM   36  O   UNK A   2     -11.407   9.181  69.846  1.00  0.00    -0.166 OA 
HETATM   37  C   UNK A   2     -10.604   8.082  69.461  1.00  0.00    -0.214 C  
ENDBRANCH  27  36
ENDBRANCH  17  19
ENDBRANCH  15  17
ENDBRANCH   6  15
ENDBRANCH   4   6
ENDBRANCH   3   4
ENDBRANCH   2   3
TORSDOF 11
ENDMDL
MODEL      238
REMARK 921   NORMALIZED FREE ENERGY PREDICTED BY IDOCK:   -1.18 KCAL/MOL
REMARK 922        TOTAL FREE ENERGY PREDICTED BY IDOCK:   -3.85 KCAL/MOL
REMARK 923 INTER-LIGAND FREE ENERGY PREDICTED BY IDOCK:   -4.74 KCAL/MOL
REMARK 924 INTRA-LIGAND FREE ENERGY PREDICTED BY IDOCK:    0.89 KCAL/MOL
REMARK 927      BINDING AFFINITY PREDICTED BY RF-SCORE:    0.00 PKD
ROOT
HETATM    1  C   UNK A   0     -10.457  15.343  70.799  1.00  0.00     0.038 C  
HETATM    2  C   UNK A   0      -9.312  14.820  69.954  1.00  0.00     0.425 C  
ENDROOT
BRANCH   2   3
HETATM    3  O   UNK A   0      -8.206  15.721  70.075  1.00  0.00     0.167 OA 
BRANCH   3   4
HETATM    4  C   UNK A   0      -6.971  15.219  69.789  1.00  0.00    -0.168 C  
HETATM    5  O   UNK A   0      -5.942  15.431  70.423  1.00  0.00    -0.141 OA 
BRANCH   4   6
HETATM    6  C   UNK A   0      -7.084  14.281  68.586  1.00  0.00    -0.111 C  
BRANCH   6   7
HETATM    7  C   UNK A   0      -6.022  13.183  68.685  1.00  0.00    -0.075 C  
BRANCH   7   8
HETATM    8  C   UNK A   0      -6.299  11.783  68.116  1.00  0.00    -0.051 C  
BRANCH   8   9
HETATM    9  C   UNK A   0      -6.719  10.795  69.216  1.00  0.00    -0.081 A  
HETATM   10  C   UNK A   0      -5.813  10.440  70.226  1.00  0.00    -0.082 A  
HETATM   11  C   UNK A   0      -6.218   9.631  71.303  1.00  0.00    -0.009 A  
HETATM   12  C   UNK A   0      -8.025  10.269  69.312  1.00  0.00    -0.149 A  
HETATM   13  C   UNK A   0      -7.531   9.169  71.393  1.00  0.00    -0.016 A  
HETATM   14  C   UNK A   0      -8.433   9.481  70.390  1.00  0.00    -0.238 A  
ENDBRANCH   8   9
ENDBRANCH   7   8
ENDBRANCH   6   7
BRANCH   6  15
ATOM     15  N   ALA A   1      -6.933  15.044  67.323  1.00  0.00    -0.244 NA 
ATOM     16  H   ALA A   1      -7.108  14.575  66.435  1.00  0.00     0.000 HD 
BRANCH  15  17
ATOM     17  CA  ALA A   1      -6.533  16.482  67.320  1.00  0.00    -0.181 C  
ATOM     18  CB  ALA A   1      -5.134  16.908  66.844  1.00  0.00    -0.149 C  
BRANCH  17  19
ATOM     19  C   ALA A   1      -7.644  17.500  66.902  1.00  0.00    -0.213 C  
ATOM     20  O   ALA A   1      -7.300  18.593  66.434  1.00  0.00    -0.223 OA 
HETATM   21  C   UNK A   2     -10.521  15.241  66.682  1.00  0.00    -0.290 A  
HETATM   22  C   UNK A   2     -10.921  13.972  67.120  1.00  0.00    -0.303 A  
HETATM   23  N   UNK A   2      -8.986  17.156  66.916  1.00  0.00    -0.226 N  
HETATM   24  C   UNK A   2     -11.815  13.223  66.376  1.00  0.00    -0.396 A  
HETATM   25  C   UNK A   2      -9.544  15.979  67.531  1.00  0.00    -0.222 C  
HETATM   26  O   UNK A   2     -11.508  19.804  66.797  1.00  0.00     0.090 OA 
HETATM   27  C   UNK A   2     -12.303  13.727  65.169  1.00  0.00    -0.448 A  
HETATM   28  C   UNK A   2     -11.907  15.009  64.735  1.00  0.00    -0.341 A  
HETATM   29  O   UNK A   2     -11.567  17.998  68.127  1.00  0.00     0.725 OA 
HETATM   30  C   UNK A   2     -11.077  18.580  67.163  1.00  0.00     0.118 C  
HETATM   31  C   UNK A   2     -11.037  15.787  65.509  1.00  0.00    -0.193 A  
HETATM   32  C   UNK A   2      -9.982  17.998  66.232  1.00  0.00    -0.337 C  
HETATM   33  C   UNK A   2     -10.611  17.176  65.085  1.00  0.00     0.031 C  
BRANCH  24  34
HETATM   34  O   UNK A   2     -12.305  12.005  66.777  1.00  0.00    -0.340 OA 
HETATM   35  C   UNK A   2     -11.792  11.559  68.016  1.00  0.00    -0.217 C  
ENDBRANCH  24  34
BRANCH  27  36
HETATM   36  O   UNK A   2     -13.132  12.882  64.494  1.00  0.00    -0.728 OA 
HETATM   37  C   UNK A   2     -12.719  12.445  63.214  1.00  0.00    -0.159 C  
ENDBRANCH  27  36
ENDBRANCH  17  19
ENDBRANCH  15  17
ENDBRANCH   6  15
ENDBRANCH   4   6
ENDBRANCH   3   4
ENDBRANCH   2   3
TORSDOF 11
ENDMDL
MODEL      239
REMARK 921   NORMALIZED FREE ENERGY PREDICTED BY IDOCK:   -1.10 KCAL/MOL
REMARK 922        TOTAL FREE ENERGY PREDICTED BY IDOCK:   -3.71 KCAL/MOL
REMARK 923 INTER-LIGAND FREE ENERGY PREDICTED BY IDOCK:   -4.35 KCAL/MOL
REMARK 924 INTRA-LIGAND FREE ENERGY PREDICTED BY IDOCK:    0.64 KCAL/MOL
REMARK 927      BINDING AFFINITY PREDICTED BY RF-SCORE:    0.00 PKD
ROOT
HETATM    1  C   UNK A   0      -6.962  11.058  69.486  1.00  0.00    -0.126 C  
HETATM    2  C   UNK A   0      -6.558  10.128  70.613  1.00  0.00    -0.064 C  
ENDROOT
BRANCH   2   3
HETATM    3  O   UNK A   0      -6.582   8.782  70.125  1.00  0.00    -0.037 OA 
BRANCH   3   4
HETATM    4  C   UNK A   0      -6.829   7.801  71.040  1.00  0.00    -0.045 C  
HETATM    5  O   UNK A   0      -6.206   7.611  72.080  1.00  0.00    -0.039 OA 
BRANCH   4   6
HETATM    6  C   UNK A   0      -8.064   7.014  70.598  1.00  0.00    -0.117 C  
BRANCH   6   7
HETATM    7  C   UNK A   0      -9.213   7.262  71.578  1.00  0.00    -0.150 C  
BRANCH   7   8
HETATM    8  C   UNK A   0      -9.378   8.636  72.247  1.00  0.00    -0.322 C  
BRANCH   8   9
HETATM    9  C   UNK A   0     -10.573   9.410  71.667  1.00  0.00    -0.248 A  
HETATM   10  C   UNK A   0     -10.458  10.059  70.429  1.00  0.00    -0.304 A  
HETATM   11  C   UNK A   0     -11.574  10.670  69.831  1.00  0.00    -0.396 A  
HETATM   12  C   UNK A   0     -11.839   9.443  72.293  1.00  0.00    -0.013 A  
HETATM   13  C   UNK A   0     -12.822  10.640  70.453  1.00  0.00    -0.277 A  
HETATM   14  C   UNK A   0     -12.951  10.033  71.692  1.00  0.00    -0.554 A  
ENDBRANCH   8   9
ENDBRANCH   7   8
ENDBRANCH   6   7
BRANCH   6  15
ATOM     15  N   ALA A   1      -7.748   5.566  70.517  1.00  0.00    -0.091 NA 
ATOM     16  H   ALA A   1      -6.772   5.270  70.507  1.00  0.00     0.000 HD 
BRANCH  15  17
ATOM     17  CA  ALA A   1      -8.822   4.533  70.449  1.00  0.00    -0.087 C  
ATOM     18  CB  ALA A   1     -10.017   4.575  71.418  1.00  0.00    -0.259 C  
BRANCH  17  19
ATOM     19  C   ALA A   1      -9.232   4.066  69.014  1.00  0.00    -0.152 C  
ATOM     20  O   ALA A   1      -9.908   3.037  68.896  1.00  0.00     0.046 OA 
HETATM   21  C   UNK A   2      -8.683   7.177  67.157  1.00  0.00    -0.121 A  
HETATM   22  C   UNK A   2      -8.000   8.393  67.284  1.00  0.00    -0.105 A  
HETATM   23  N   UNK A   2      -8.972   4.844  67.896  1.00  0.00    -0.107 N  
HETATM   24  C   UNK A   2      -8.483   9.537  66.672  1.00  0.00    -0.133 A  
HETATM   25  C   UNK A   2      -8.108   5.996  67.857  1.00  0.00    -0.106 C  
HETATM   26  O   UNK A   2      -9.143   3.311  64.578  1.00  0.00    -0.121 OA 
HETATM   27  C   UNK A   2      -9.672   9.481  65.943  1.00  0.00    -0.282 A  
HETATM   28  C   UNK A   2     -10.353   8.254  65.807  1.00  0.00     1.335 A  
HETATM   29  O   UNK A   2      -7.553   4.726  65.287  1.00  0.00    -0.079 OA 
HETATM   30  C   UNK A   2      -8.656   4.213  65.454  1.00  0.00    -0.118 C  
HETATM   31  C   UNK A   2      -9.842   7.086  66.388  1.00  0.00    -0.103 A  
HETATM   32  C   UNK A   2      -9.631   4.551  66.612  1.00  0.00    -0.190 C  
HETATM   33  C   UNK A   2     -10.534   5.748  66.241  1.00  0.00    -0.131 C  
BRANCH  24  34
HETATM   34  O   UNK A   2      -7.831  10.744  66.695  1.00  0.00    -0.128 OA 
HETATM   35  C   UNK A   2      -6.454  10.661  66.387  1.00  0.00    -0.117 C  
ENDBRANCH  24  34
BRANCH  27  36
HETATM   36  O   UNK A   2     -10.081  10.676  65.432  1.00  0.00    -0.264 OA 
HETATM   37  C   UNK A   2     -10.142  10.800  64.025  1.00  0.00    -0.345 C  
ENDBRANCH  27  36
ENDBRANCH  17  19
ENDBRANCH  15  17
ENDBRANCH   6  15
ENDBRANCH   4   6
ENDBRANCH   3   4
ENDBRANCH   2   3
TORSDOF 11
ENDMDL
MODEL      240
REMARK 921   NORMALIZED FREE ENERGY PREDICTED BY IDOCK:   -1.09 KCAL/MOL
REMARK 922        TOTAL FREE ENERGY PREDICTED BY IDOCK:   -3.69 KCAL/MOL
REMARK 923 INTER-LIGAND FREE ENERGY PREDICTED BY IDOCK:   -5.16 KCAL/MOL
REMARK 924 INTRA-LIGAND FREE ENERGY PREDICTED BY IDOCK:    1.47 KCAL/MOL
REMARK 927      BINDING AFFINITY PREDICTED BY RF-SCORE:    0.00 PKD
ROOT
HETATM    1  C   UNK A   0      -6.851   3.248  73.349  1.00  0.00    -0.035 C  
HETATM    2  C   UNK A   0      -7.232   3.910  72.039  1.00  0.00    -0.054 C  
ENDROOT
BRANCH   2   3
HETATM    3  O   UNK A   0      -8.359   4.761  72.268  1.00  0.00    -0.112 OA 
BRANCH   3   4
HETATM    4  C   UNK A   0      -8.225   5.711  73.238  1.00  0.00    -0.117 C  
HETATM    5  O   UNK A   0      -8.447   5.555  74.435  1.00  0.00    -0.109 OA 
BRANCH   4   6
HETATM    6  C   UNK A   0      -7.678   6.991  72.605  1.00  0.00    -0.089 C  
BRANCH   6   7
HETATM    7  C   UNK A   0      -8.781   7.682  71.800  1.00  0.00    -0.137 C  
BRANCH   7   8
HETATM    8  C   UNK A   0     -10.236   7.200  71.906  1.00  0.00    -0.208 C  
BRANCH   8   9
HETATM    9  C   UNK A   0     -11.228   8.374  71.878  1.00  0.00    -0.379 A  
HETATM   10  C   UNK A   0     -10.968   9.494  71.075  1.00  0.00    -0.424 A  
HETATM   11  C   UNK A   0     -11.919  10.522  70.947  1.00  0.00    -0.481 A  
HETATM   12  C   UNK A   0     -12.455   8.355  72.575  1.00  0.00    -0.337 A  
HETATM   13  C   UNK A   0     -13.144  10.447  71.611  1.00  0.00    -0.553 A  
HETATM   14  C   UNK A   0     -13.407   9.365  72.435  1.00  0.00    -0.503 A  
ENDBRANCH   8   9
ENDBRANCH   7   8
ENDBRANCH   6   7
BRANCH   6  15
ATOM     15  N   ALA A   1      -6.514   6.679  71.739  1.00  0.00    -0.049 NA 
ATOM     16  H   ALA A   1      -5.774   6.076  72.099  1.00  0.00     0.000 HD 
BRANCH  15  17
ATOM     17  CA  ALA A   1      -6.399   7.225  70.356  1.00  0.00    -0.035 C  
ATOM     18  CB  ALA A   1      -6.978   6.458  69.155  1.00  0.00    -0.068 C  
BRANCH  17  19
ATOM     19  C   ALA A   1      -6.572   8.774  70.216  1.00  0.00    -0.040 C  
ATOM     20  O   ALA A   1      -6.221   9.496  71.157  1.00  0.00    -0.080 OA 
HETATM   21  C   UNK A   2      -6.935   9.044  66.580  1.00  0.00    -0.081 A  
HETATM   22  C   UNK A   2      -7.246   8.243  65.473  1.00  0.00    -0.071 A  
HETATM   23  N   UNK A   2      -6.977   9.354  69.025  1.00  0.00    -0.058 N  
HETATM   24  C   UNK A   2      -6.726   8.539  64.225  1.00  0.00    -0.071 A  
HETATM   25  C   UNK A   2      -7.522   8.651  67.891  1.00  0.00    -0.097 C  
HETATM   26  O   UNK A   2      -8.197  12.804  69.045  1.00  0.00     0.169 OA 
HETATM   27  C   UNK A   2      -5.867   9.629  64.074  1.00  0.00    -0.093 A  
HETATM   28  C   UNK A   2      -5.564  10.439  65.188  1.00  0.00    -0.137 A  
HETATM   29  O   UNK A   2      -9.120  11.094  67.922  1.00  0.00    -0.143 OA 
HETATM   30  C   UNK A   2      -8.169  11.549  68.552  1.00  0.00    -0.148 C  
HETATM   31  C   UNK A   2      -6.124  10.169  66.442  1.00  0.00    -0.070 A  
HETATM   32  C   UNK A   2      -6.834  10.804  68.812  1.00  0.00    -0.067 C  
HETATM   33  C   UNK A   2      -5.839  11.032  67.652  1.00  0.00    -0.044 C  
BRANCH  24  34
HETATM   34  O   UNK A   2      -7.043   7.843  63.086  1.00  0.00    -0.081 OA 
HETATM   35  C   UNK A   2      -7.687   6.608  63.326  1.00  0.00    -0.106 C  
ENDBRANCH  24  34
BRANCH  27  36
HETATM   36  O   UNK A   2      -5.372   9.792  62.816  1.00  0.00    -0.085 OA 
HETATM   37  C   UNK A   2      -5.191  11.115  62.351  1.00  0.00    -0.165 C  
ENDBRANCH  27  36
ENDBRANCH  17  19
ENDBRANCH  15  17
ENDBRANCH   6  15
ENDBRANCH   4   6
ENDBRANCH   3   4
ENDBRANCH   2   3
TORSDOF 11
ENDMDL
MODEL      241
REMARK 921   NORMALIZED FREE ENERGY PREDICTED BY IDOCK:   -1.07 KCAL/MOL
REMARK 922        TOTAL FREE ENERGY PREDICTED BY IDOCK:   -3.66 KCAL/MOL
REMARK 923 INTER-LIGAND FREE ENERGY PREDICTED BY IDOCK:   -3.10 KCAL/MOL
REMARK 924 INTRA-LIGAND FREE ENERGY PREDICTED BY IDOCK:   -0.56 KCAL/MOL
REMARK 927      BINDING AFFINITY PREDICTED BY RF-SCORE:    0.00 PKD
ROOT
HETATM    1  C   UNK A   0      -6.411  11.744  67.116  1.00  0.00    -0.146 C  
HETATM    2  C   UNK A   0      -6.896  10.914  68.289  1.00  0.00    -0.067 C  
ENDROOT
BRANCH   2   3
HETATM    3  O   UNK A   0      -5.895   9.940  68.604  1.00  0.00    -0.039 OA 
BRANCH   3   4
HETATM    4  C   UNK A   0      -5.936   8.769  67.905  1.00  0.00    -0.050 C  
HETATM    5  O   UNK A   0      -5.720   8.639  66.704  1.00  0.00    -0.045 OA 
BRANCH   4   6
HETATM    6  C   UNK A   0      -6.224   7.624  68.875  1.00  0.00    -0.035 C  
BRANCH   6   7
HETATM    7  C   UNK A   0      -5.679   6.313  68.303  1.00  0.00    -0.012 C  
BRANCH   7   8
HETATM    8  C   UNK A   0      -6.643   5.227  67.800  1.00  0.00    -0.053 C  
BRANCH   8   9
HETATM    9  C   UNK A   0      -6.273   4.749  66.387  1.00  0.00    -0.032 A  
HETATM   10  C   UNK A   0      -6.452   5.600  65.287  1.00  0.00    -0.039 A  
HETATM   11  C   UNK A   0      -6.010   5.223  64.006  1.00  0.00    -0.021 A  
HETATM   12  C   UNK A   0      -5.677   3.494  66.136  1.00  0.00    -0.018 A  
HETATM   13  C   UNK A   0      -5.379   3.996  63.803  1.00  0.00    -0.012 A  
HETATM   14  C   UNK A   0      -5.222   3.126  64.870  1.00  0.00    -0.009 A  
ENDBRANCH   8   9
ENDBRANCH   7   8
ENDBRANCH   6   7
BRANCH   6  15
ATOM     15  N   ALA A   1      -7.682   7.519  69.130  1.00  0.00    -0.111 NA 
ATOM     16  H   ALA A   1      -8.335   7.887  68.439  1.00  0.00     0.000 HD 
BRANCH  15  17
ATOM     17  CA  ALA A   1      -8.216   6.889  70.373  1.00  0.00    -0.124 C  
ATOM     18  CB  ALA A   1      -7.289   6.113  71.324  1.00  0.00    -0.081 C  
BRANCH  17  19
ATOM     19  C   ALA A   1      -9.310   7.706  71.137  1.00  0.00    -0.154 C  
ATOM     20  O   ALA A   1      -9.276   7.728  72.373  1.00  0.00    -0.141 OA 
HETATM   21  C   UNK A   2     -10.515   9.847  68.419  1.00  0.00    -0.239 A  
HETATM   22  C   UNK A   2     -10.505   9.908  67.019  1.00  0.00    -0.296 A  
HETATM   23  N   UNK A   2     -10.221   8.505  70.465  1.00  0.00    -0.190 N  
HETATM   24  C   UNK A   2     -10.543  11.129  66.369  1.00  0.00    -0.261 A  
HETATM   25  C   UNK A   2     -10.456   8.497  69.043  1.00  0.00    -0.200 C  
HETATM   26  O   UNK A   2     -13.232   9.635  72.211  1.00  0.00    -0.433 OA 
HETATM   27  C   UNK A   2     -10.568  12.309  67.115  1.00  0.00    -0.225 A  
HETATM   28  C   UNK A   2     -10.587  12.245  68.523  1.00  0.00    -0.254 A  
HETATM   29  O   UNK A   2     -13.151   8.858  70.107  1.00  0.00     1.034 OA 
HETATM   30  C   UNK A   2     -12.559   9.276  71.098  1.00  0.00    -0.257 C  
HETATM   31  C   UNK A   2     -10.595  11.010  69.183  1.00  0.00    -0.253 A  
HETATM   32  C   UNK A   2     -11.027   9.497  71.195  1.00  0.00    -0.368 C  
HETATM   33  C   UNK A   2     -10.640  10.906  70.692  1.00  0.00     1.026 C  
BRANCH  24  34
HETATM   34  O   UNK A   2     -10.608  11.261  65.005  1.00  0.00    -0.294 OA 
HETATM   35  C   UNK A   2     -11.850  11.741  64.531  1.00  0.00    -0.152 C  
ENDBRANCH  24  34
BRANCH  27  36
HETATM   36  O   UNK A   2     -10.548  13.450  66.372  1.00  0.00    -0.280 OA 
HETATM   37  C   UNK A   2     -10.292  14.666  67.047  1.00  0.00    -0.263 C  
ENDBRANCH  27  36
ENDBRANCH  17  19
ENDBRANCH  15  17
ENDBRANCH   6  15
ENDBRANCH   4   6
ENDBRANCH   3   4
ENDBRANCH   2   3
TORSDOF 11
ENDMDL
MODEL      242
REMARK 921   NORMALIZED FREE ENERGY PREDICTED BY IDOCK:   -0.96 KCAL/MOL
REMARK 922        TOTAL FREE ENERGY PREDICTED BY IDOCK:   -3.49 KCAL/MOL
REMARK 923 INTER-LIGAND FREE ENERGY PREDICTED BY IDOCK:   -3.94 KCAL/MOL
REMARK 924 INTRA-LIGAND FREE ENERGY PREDICTED BY IDOCK:    0.46 KCAL/MOL
REMARK 927      BINDING AFFINITY PREDICTED BY RF-SCORE:    0.00 PKD
ROOT
HETATM    1  C   UNK A   0     -10.816   5.030  65.394  1.00  0.00     0.168 C  
HETATM    2  C   UNK A   0      -9.628   5.749  66.003  1.00  0.00    -0.050 C  
ENDROOT
BRANCH   2   3
HETATM    3  O   UNK A   0     -10.093   6.572  67.077  1.00  0.00    -0.150 OA 
BRANCH   3   4
HETATM    4  C   UNK A   0      -9.574   7.831  67.155  1.00  0.00    -0.170 C  
HETATM    5  O   UNK A   0      -8.420   8.153  66.890  1.00  0.00    -0.116 OA 
BRANCH   4   6
HETATM    6  C   UNK A   0     -10.686   8.800  67.558  1.00  0.00    -0.143 C  
BRANCH   6   7
HETATM    7  C   UNK A   0     -10.165  10.238  67.498  1.00  0.00    -0.254 C  
BRANCH   7   8
HETATM    8  C   UNK A   0      -8.815  10.547  66.832  1.00  0.00    -0.143 C  
BRANCH   8   9
HETATM    9  C   UNK A   0      -7.666  10.551  67.852  1.00  0.00    -0.092 A  
HETATM   10  C   UNK A   0      -7.945  10.557  69.227  1.00  0.00    -0.156 A  
HETATM   11  C   UNK A   0      -6.909  10.443  70.171  1.00  0.00    -0.155 A  
HETATM   12  C   UNK A   0      -6.308  10.472  67.474  1.00  0.00    -0.057 A  
HETATM   13  C   UNK A   0      -5.582  10.315  69.762  1.00  0.00    -0.039 A  
HETATM   14  C   UNK A   0      -5.281  10.340  68.410  1.00  0.00    -0.035 A  
ENDBRANCH   8   9
ENDBRANCH   7   8
ENDBRANCH   6   7
BRANCH   6  15
ATOM     15  N   ALA A   1     -11.182   8.478  68.919  1.00  0.00    -0.282 NA 
ATOM     16  H   ALA A   1     -12.187   8.446  69.087  1.00  0.00     0.000 HD 
BRANCH  15  17
ATOM     17  CA  ALA A   1     -10.246   8.200  70.047  1.00  0.00    -0.202 C  
ATOM     18  CB  ALA A   1      -9.848   9.311  71.033  1.00  0.00    -0.355 C  
BRANCH  17  19
ATOM     19  C   ALA A   1     -10.412   6.811  70.746  1.00  0.00    -0.214 C  
ATOM     20  O   ALA A   1     -11.461   6.578  71.360  1.00  0.00    -0.282 OA 
HETATM   21  C   UNK A   2      -7.816   4.907  68.997  1.00  0.00    -0.076 A  
HETATM   22  C   UNK A   2      -6.666   5.123  68.227  1.00  0.00    -0.054 A  
HETATM   23  N   UNK A   2      -9.480   5.799  70.582  1.00  0.00    -0.162 N  
HETATM   24  C   UNK A   2      -6.282   4.203  67.267  1.00  0.00    -0.036 A  
HETATM   25  C   UNK A   2      -8.171   5.950  69.999  1.00  0.00    -0.121 C  
HETATM   26  O   UNK A   2      -9.479   2.977  72.911  1.00  0.00    -0.090 OA 
HETATM   27  C   UNK A   2      -7.059   3.064  67.050  1.00  0.00    -0.057 A  
HETATM   28  C   UNK A   2      -8.210   2.844  67.834  1.00  0.00    -0.088 A  
HETATM   29  O   UNK A   2      -7.661   4.062  72.166  1.00  0.00    -0.071 OA 
HETATM   30  C   UNK A   2      -8.864   3.831  72.068  1.00  0.00    -0.100 C  
HETATM   31  C   UNK A   2      -8.576   3.750  68.836  1.00  0.00    -0.117 A  
HETATM   32  C   UNK A   2      -9.798   4.417  70.978  1.00  0.00    -0.190 C  
HETATM   33  C   UNK A   2      -9.791   3.531  69.711  1.00  0.00     0.052 C  
BRANCH  24  34
HETATM   34  O   UNK A   2      -5.132   4.314  66.526  1.00  0.00    -0.007 OA 
HETATM   35  C   UNK A   2      -5.197   5.289  65.504  1.00  0.00    -0.012 C  
ENDBRANCH  24  34
BRANCH  27  36
HETATM   36  O   UNK A   2      -6.617   2.258  66.045  1.00  0.00    -0.027 OA 
HETATM   37  C   UNK A   2      -7.590   1.586  65.270  1.00  0.00    -0.058 C  
ENDBRANCH  27  36
ENDBRANCH  17  19
ENDBRANCH  15  17
ENDBRANCH   6  15
ENDBRANCH   4   6
ENDBRANCH   3   4
ENDBRANCH   2   3
TORSDOF 11
ENDMDL
MODEL      243
REMARK 921   NORMALIZED FREE ENERGY PREDICTED BY IDOCK:   -0.87 KCAL/MOL
REMARK 922        TOTAL FREE ENERGY PREDICTED BY IDOCK:   -3.34 KCAL/MOL
REMARK 923 INTER-LIGAND FREE ENERGY PREDICTED BY IDOCK:   -2.59 KCAL/MOL
REMARK 924 INTRA-LIGAND FREE ENERGY PREDICTED BY IDOCK:   -0.75 KCAL/MOL
REMARK 927      BINDING AFFINITY PREDICTED BY RF-SCORE:    0.00 PKD
ROOT
HETATM    1  C   UNK A   0     -10.897   5.316  65.128  1.00  0.00     0.883 C  
HETATM    2  C   UNK A   0      -9.784   6.020  65.879  1.00  0.00     0.144 C  
ENDROOT
BRANCH   2   3
HETATM    3  O   UNK A   0     -10.364   7.017  66.726  1.00  0.00    -0.245 OA 
BRANCH   3   4
HETATM    4  C   UNK A   0      -9.781   8.251  66.711  1.00  0.00    -0.239 C  
HETATM    5  O   UNK A   0      -8.577   8.480  66.760  1.00  0.00    -0.110 OA 
BRANCH   4   6
HETATM    6  C   UNK A   0     -10.871   9.310  66.546  1.00  0.00     0.247 C  
BRANCH   6   7
HETATM    7  C   UNK A   0     -10.259  10.600  65.994  1.00  0.00    -0.309 C  
BRANCH   7   8
HETATM    8  C   UNK A   0      -8.867  10.581  65.343  1.00  0.00    -0.203 C  
BRANCH   8   9
HETATM    9  C   UNK A   0      -7.819  11.283  66.221  1.00  0.00    -0.069 A  
HETATM   10  C   UNK A   0      -8.226  12.153  67.242  1.00  0.00    -0.180 A  
HETATM   11  C   UNK A   0      -7.286  12.711  68.128  1.00  0.00    -0.112 A  
HETATM   12  C   UNK A   0      -6.434  11.036  66.102  1.00  0.00    -0.082 A  
HETATM   13  C   UNK A   0      -5.930  12.405  68.014  1.00  0.00    -0.072 A  
HETATM   14  C   UNK A   0      -5.503  11.574  66.992  1.00  0.00    -0.110 A  
ENDBRANCH   8   9
ENDBRANCH   7   8
ENDBRANCH   6   7
BRANCH   6  15
ATOM     15  N   ALA A   1     -11.544   9.563  67.844  1.00  0.00    -0.022 NA 
ATOM     16  H   ALA A   1     -12.559   9.657  67.868  1.00  0.00     0.000 HD 
BRANCH  15  17
ATOM     17  CA  ALA A   1     -10.772   9.682  69.115  1.00  0.00    -0.217 C  
ATOM     18  CB  ALA A   1     -10.277  11.051  69.611  1.00  0.00     0.070 C  
BRANCH  17  19
ATOM     19  C   ALA A   1     -11.235   8.753  70.286  1.00  0.00    -0.195 C  
ATOM     20  O   ALA A   1     -12.329   8.973  70.819  1.00  0.00    -0.180 OA 
HETATM   21  C   UNK A   2      -9.013   5.891  69.738  1.00  0.00    -0.135 A  
HETATM   22  C   UNK A   2      -7.818   5.575  69.078  1.00  0.00    -0.091 A  
HETATM   23  N   UNK A   2     -10.517   7.622  70.641  1.00  0.00    -0.214 N  
HETATM   24  C   UNK A   2      -7.593   4.292  68.612  1.00  0.00    -0.063 A  
HETATM   25  C   UNK A   2      -9.186   7.297  70.196  1.00  0.00    -0.152 C  
HETATM   26  O   UNK A   2     -11.156   6.050  73.883  1.00  0.00     0.026 OA 
HETATM   27  C   UNK A   2      -8.573   3.312  68.780  1.00  0.00    -0.084 A  
HETATM   28  C   UNK A   2      -9.771   3.631  69.453  1.00  0.00    -0.093 A  
HETATM   29  O   UNK A   2      -9.135   6.410  72.977  1.00  0.00    -0.131 OA 
HETATM   30  C   UNK A   2     -10.355   6.366  72.845  1.00  0.00    -0.208 C  
HETATM   31  C   UNK A   2      -9.982   4.916  69.966  1.00  0.00    -0.323 A  
HETATM   32  C   UNK A   2     -11.118   6.600  71.515  1.00  0.00    -0.256 C  
HETATM   33  C   UNK A   2     -11.245   5.285  70.714  1.00  0.00     0.346 C  
BRANCH  24  34
HETATM   34  O   UNK A   2      -6.420   3.893  68.021  1.00  0.00    -0.036 OA 
HETATM   35  C   UNK A   2      -6.110   4.588  66.830  1.00  0.00    -0.031 C  
ENDBRANCH  24  34
BRANCH  27  36
HETATM   36  O   UNK A   2      -8.268   2.103  68.234  1.00  0.00    -0.057 OA 
HETATM   37  C   UNK A   2      -8.494   1.935  66.848  1.00  0.00    -0.094 C  
ENDBRANCH  27  36
ENDBRANCH  17  19
ENDBRANCH  15  17
ENDBRANCH   6  15
ENDBRANCH   4   6
ENDBRANCH   3   4
ENDBRANCH   2   3
TORSDOF 11
ENDMDL
MODEL      244
REMARK 921   NORMALIZED FREE ENERGY PREDICTED BY IDOCK:   -0.43 KCAL/MOL
REMARK 922        TOTAL FREE ENERGY PREDICTED BY IDOCK:   -2.61 KCAL/MOL
REMARK 923 INTER-LIGAND FREE ENERGY PREDICTED BY IDOCK:   -3.80 KCAL/MOL
REMARK 924 INTRA-LIGAND FREE ENERGY PREDICTED BY IDOCK:    1.19 KCAL/MOL
REMARK 927      BINDING AFFINITY PREDICTED BY RF-SCORE:    0.00 PKD
ROOT
HETATM    1  C   UNK A   0      -5.520  10.369  71.799  1.00  0.00     0.126 C  
HETATM    2  C   UNK A   0      -6.431   9.949  70.662  1.00  0.00    -0.106 C  
ENDROOT
BRANCH   2   3
HETATM    3  O   UNK A   0      -7.214  11.079  70.264  1.00  0.00    -0.031 OA 
BRANCH   3   4
HETATM    4  C   UNK A   0      -8.026  10.912  69.180  1.00  0.00    -0.112 C  
HETATM    5  O   UNK A   0      -8.825   9.996  69.012  1.00  0.00    -0.139 OA 
BRANCH   4   6
HETATM    6  C   UNK A   0      -7.835  12.097  68.232  1.00  0.00    -0.153 C  
BRANCH   6   7
HETATM    7  C   UNK A   0      -8.682  11.894  66.974  1.00  0.00    -0.181 C  
BRANCH   7   8
HETATM    8  C   UNK A   0      -9.780  12.905  66.608  1.00  0.00    -0.254 C  
BRANCH   8   9
HETATM    9  C   UNK A   0     -10.698  13.206  67.803  1.00  0.00    -0.252 A  
HETATM   10  C   UNK A   0     -11.614  12.242  68.248  1.00  0.00    -0.385 A  
HETATM   11  C   UNK A   0     -12.376  12.456  69.410  1.00  0.00     0.041 A  
HETATM   12  C   UNK A   0     -10.616  14.403  68.547  1.00  0.00    -0.256 A  
HETATM   13  C   UNK A   0     -12.233  13.630  70.150  1.00  0.00    -0.413 A  
HETATM   14  C   UNK A   0     -11.358  14.609  69.710  1.00  0.00    -0.315 A  
ENDBRANCH   8   9
ENDBRANCH   7   8
ENDBRANCH   6   7
BRANCH   6  15
ATOM     15  N   ALA A   1      -6.401  12.248  67.881  1.00  0.00    -0.077 NA 
ATOM     16  H   ALA A   1      -5.959  13.161  67.979  1.00  0.00     0.000 HD 
BRANCH  15  17
ATOM     17  CA  ALA A   1      -5.591  11.096  67.387  1.00  0.00    -0.051 C  
ATOM     18  CB  ALA A   1      -5.173   9.962  68.339  1.00  0.00    -0.036 C  
BRANCH  17  19
ATOM     19  C   ALA A   1      -5.944  10.576  65.955  1.00  0.00    -0.121 C  
ATOM     20  O   ALA A   1      -5.477  11.173  64.977  1.00  0.00    -0.161 OA 
HETATM   21  C   UNK A   2      -7.087   7.193  66.774  1.00  0.00    -0.078 A  
HETATM   22  C   UNK A   2      -7.542   6.454  67.874  1.00  0.00    -0.102 A  
HETATM   23  N   UNK A   2      -6.646   9.397  65.763  1.00  0.00    -0.072 N  
HETATM   24  C   UNK A   2      -7.328   5.088  67.938  1.00  0.00    -0.075 A  
HETATM   25  C   UNK A   2      -7.343   8.660  66.786  1.00  0.00    -0.079 C  
HETATM   26  O   UNK A   2      -8.174   8.740  62.504  1.00  0.00    -0.169 OA 
HETATM   27  C   UNK A   2      -6.633   4.448  66.910  1.00  0.00    -0.046 A  
HETATM   28  C   UNK A   2      -6.185   5.192  65.799  1.00  0.00    -0.034 A  
HETATM   29  O   UNK A   2      -9.136   8.379  64.499  1.00  0.00     0.245 OA 
HETATM   30  C   UNK A   2      -8.125   8.622  63.847  1.00  0.00    -0.163 C  
HETATM   31  C   UNK A   2      -6.440   6.566  65.710  1.00  0.00    -0.043 A  
HETATM   32  C   UNK A   2      -6.697   8.764  64.435  1.00  0.00    -0.071 C  
HETATM   33  C   UNK A   2      -5.995   7.390  64.522  1.00  0.00    -0.038 C  
BRANCH  24  34
HETATM   34  O   UNK A   2      -7.805   4.291  68.948  1.00  0.00    -0.068 OA 
HETATM   35  C   UNK A   2      -7.573   4.804  70.245  1.00  0.00    -0.057 C  
ENDBRANCH  24  34
BRANCH  27  36
HETATM   36  O   UNK A   2      -6.432   3.115  67.105  1.00  0.00    -0.035 OA 
HETATM   37  C   UNK A   2      -6.883   2.231  66.098  1.00  0.00    -0.043 C  
ENDBRANCH  27  36
ENDBRANCH  17  19
ENDBRANCH  15  17
ENDBRANCH   6  15
ENDBRANCH   4   6
ENDBRANCH   3   4
ENDBRANCH   2   3
TORSDOF 11
ENDMDL
MODEL      245
REMARK 921   NORMALIZED FREE ENERGY PREDICTED BY IDOCK:   -0.01 KCAL/MOL
REMARK 922        TOTAL FREE ENERGY PREDICTED BY IDOCK:   -1.93 KCAL/MOL
REMARK 923 INTER-LIGAND FREE ENERGY PREDICTED BY IDOCK:   -2.93 KCAL/MOL
REMARK 924 INTRA-LIGAND FREE ENERGY PREDICTED BY IDOCK:    1.00 KCAL/MOL
REMARK 927      BINDING AFFINITY PREDICTED BY RF-SCORE:    0.00 PKD
ROOT
HETATM    1  C   UNK A   0      -5.537   9.779  71.470  1.00  0.00    -0.055 C  
HETATM    2  C   UNK A   0      -6.684   9.489  70.521  1.00  0.00    -0.101 C  
ENDROOT
BRANCH   2   3
HETATM    3  O   UNK A   0      -7.483  10.669  70.397  1.00  0.00    -0.064 OA 
BRANCH   3   4
HETATM    4  C   UNK A   0      -8.326  10.731  69.326  1.00  0.00    -0.062 C  
HETATM    5  O   UNK A   0      -9.218   9.930  69.064  1.00  0.00    -0.150 OA 
BRANCH   4   6
HETATM    6  C   UNK A   0      -8.030  12.006  68.536  1.00  0.00    -0.132 C  
BRANCH   6   7
HETATM    7  C   UNK A   0      -9.019  12.136  67.375  1.00  0.00    -0.180 C  
BRANCH   7   8
HETATM    8  C   UNK A   0      -8.960  13.353  66.439  1.00  0.00     0.015 C  
BRANCH   8   9
HETATM    9  C   UNK A   0      -8.877  14.672  67.225  1.00  0.00    -0.220 A  
HETATM   10  C   UNK A   0      -7.647  15.332  67.364  1.00  0.00    -0.229 A  
HETATM   11  C   UNK A   0      -7.575  16.595  67.977  1.00  0.00    -0.171 A  
HETATM   12  C   UNK A   0     -10.013  15.313  67.765  1.00  0.00    -0.224 A  
HETATM   13  C   UNK A   0      -8.725  17.223  68.455  1.00  0.00    -0.273 A  
HETATM   14  C   UNK A   0      -9.945  16.574  68.357  1.00  0.00    -0.250 A  
ENDBRANCH   8   9
ENDBRANCH   7   8
ENDBRANCH   6   7
BRANCH   6  15
ATOM     15  N   ALA A   1      -6.633  11.989  68.036  1.00  0.00    -0.064 NA 
ATOM     16  H   ALA A   1      -6.008  12.756  68.280  1.00  0.00     0.000 HD 
BRANCH  15  17
ATOM     17  CA  ALA A   1      -6.121  10.877  67.183  1.00  0.00    -0.068 C  
ATOM     18  CB  ALA A   1      -5.840   9.489  67.784  1.00  0.00    -0.044 C  
BRANCH  17  19
ATOM     19  C   ALA A   1      -6.715  10.794  65.738  1.00  0.00    -0.053 C  
ATOM     20  O   ALA A   1      -6.177  11.452  64.839  1.00  0.00     0.613 OA 
HETATM   21  C   UNK A   2      -8.692   7.724  66.041  1.00  0.00    -0.184 A  
HETATM   22  C   UNK A   2      -9.249   6.903  67.030  1.00  0.00    -0.160 A  
HETATM   23  N   UNK A   2      -7.732   9.908  65.421  1.00  0.00    -0.124 N  
HETATM   24  C   UNK A   2      -9.420   5.549  66.803  1.00  0.00    -0.140 A  
HETATM   25  C   UNK A   2      -8.526   9.167  66.368  1.00  0.00    -0.123 C  
HETATM   26  O   UNK A   2      -9.630  10.401  62.332  1.00  0.00    -0.265 OA 
HETATM   27  C   UNK A   2      -9.014   4.994  65.588  1.00  0.00    -0.149 A  
HETATM   28  C   UNK A   2      -8.463   5.825  64.590  1.00  0.00    -0.061 A  
HETATM   29  O   UNK A   2     -10.497   9.868  64.332  1.00  0.00     0.459 OA 
HETATM   30  C   UNK A   2      -9.511   9.980  63.608  1.00  0.00    -0.197 C  
HETATM   31  C   UNK A   2      -8.330   7.203  64.801  1.00  0.00     0.014 A  
HETATM   32  C   UNK A   2      -8.060   9.618  64.015  1.00  0.00    -0.152 C  
HETATM   33  C   UNK A   2      -7.766   8.125  63.742  1.00  0.00    -0.142 C  
BRANCH  24  34
HETATM   34  O   UNK A   2     -10.022   4.699  67.697  1.00  0.00    -0.160 OA 
HETATM   35  C   UNK A   2     -10.911   5.338  68.591  1.00  0.00     0.230 C  
ENDBRANCH  24  34
BRANCH  27  36
HETATM   36  O   UNK A   2      -9.180   3.646  65.496  1.00  0.00    -0.142 OA 
HETATM   37  C   UNK A   2     -10.238   3.170  64.687  1.00  0.00     0.077 C  
ENDBRANCH  27  36
ENDBRANCH  17  19
ENDBRANCH  15  17
ENDBRANCH   6  15
ENDBRANCH   4   6
ENDBRANCH   3   4
ENDBRANCH   2   3
TORSDOF 11
ENDMDL
MODEL      246
REMARK 921   NORMALIZED FREE ENERGY PREDICTED BY IDOCK:    0.17 KCAL/MOL
REMARK 922        TOTAL FREE ENERGY PREDICTED BY IDOCK:   -1.62 KCAL/MOL
REMARK 923 INTER-LIGAND FREE ENERGY PREDICTED BY IDOCK:   -2.98 KCAL/MOL
REMARK 924 INTRA-LIGAND FREE ENERGY PREDICTED BY IDOCK:    1.36 KCAL/MOL
REMARK 927      BINDING AFFINITY PREDICTED BY RF-SCORE:    0.00 PKD
ROOT
HETATM    1  C   UNK A   0     -12.667  14.430  69.588  1.00  0.00     0.052 C  
HETATM    2  C   UNK A   0     -11.412  13.663  69.219  1.00  0.00    -0.291 C  
ENDROOT
BRANCH   2   3
HETATM    3  O   UNK A   0     -11.368  12.460  69.993  1.00  0.00    -0.100 OA 
BRANCH   3   4
HETATM    4  C   UNK A   0     -12.043  11.384  69.495  1.00  0.00    -0.302 C  
HETATM    5  O   UNK A   0     -12.090  11.045  68.316  1.00  0.00    -0.604 OA 
BRANCH   4   6
HETATM    6  C   UNK A   0     -12.677  10.617  70.656  1.00  0.00    -0.359 C  
BRANCH   6   7
HETATM    7  C   UNK A   0     -13.232  11.603  71.686  1.00  0.00    -0.376 C  
BRANCH   7   8
HETATM    8  C   UNK A   0     -12.277  12.467  72.525  1.00  0.00     2.231 C  
BRANCH   8   9
HETATM    9  C   UNK A   0     -12.846  13.875  72.764  1.00  0.00    -0.329 A  
HETATM   10  C   UNK A   0     -12.260  14.717  73.720  1.00  0.00    -0.429 A  
HETATM   11  C   UNK A   0     -12.693  16.047  73.868  1.00  0.00    -0.706 A  
HETATM   12  C   UNK A   0     -13.907  14.410  72.002  1.00  0.00    -0.567 A  
HETATM   13  C   UNK A   0     -13.710  16.559  73.063  1.00  0.00     0.561 A  
HETATM   14  C   UNK A   0     -14.325  15.735  72.136  1.00  0.00    -0.353 A  
ENDBRANCH   8   9
ENDBRANCH   7   8
ENDBRANCH   6   7
BRANCH   6  15
ATOM     15  N   ALA A   1     -11.679   9.713  71.280  1.00  0.00    -0.353 NA 
ATOM     16  H   ALA A   1     -11.435   9.844  72.261  1.00  0.00     0.000 HD 
BRANCH  15  17
ATOM     17  CA  ALA A   1     -11.023   8.617  70.507  1.00  0.00    -0.238 C  
ATOM     18  CB  ALA A   1     -11.845   7.712  69.573  1.00  0.00     0.776 C  
BRANCH  17  19
ATOM     19  C   ALA A   1      -9.605   8.941  69.932  1.00  0.00    -0.177 C  
ATOM     20  O   ALA A   1      -9.162  10.089  70.061  1.00  0.00    -0.208 OA 
HETATM   21  C   UNK A   2      -8.277   5.544  69.577  1.00  0.00    -0.101 A  
HETATM   22  C   UNK A   2      -8.729   4.220  69.511  1.00  0.00    -0.121 A  
HETATM   23  N   UNK A   2      -8.791   7.949  69.409  1.00  0.00    -0.144 N  
HETATM   24  C   UNK A   2      -7.930   3.183  69.957  1.00  0.00    -0.045 A  
HETATM   25  C   UNK A   2      -9.202   6.605  69.092  1.00  0.00    -0.136 C  
HETATM   26  O   UNK A   2      -5.943   8.898  67.317  1.00  0.00    -0.049 OA 
HETATM   27  C   UNK A   2      -6.673   3.461  70.498  1.00  0.00    -0.033 A  
HETATM   28  C   UNK A   2      -6.217   4.794  70.555  1.00  0.00    -0.022 A  
HETATM   29  O   UNK A   2      -7.371   7.217  66.902  1.00  0.00    -0.087 OA 
HETATM   30  C   UNK A   2      -6.925   8.050  67.687  1.00  0.00    -0.075 C  
HETATM   31  C   UNK A   2      -7.005   5.841  70.063  1.00  0.00    -0.065 A  
HETATM   32  C   UNK A   2      -7.362   8.206  69.166  1.00  0.00    -0.082 C  
HETATM   33  C   UNK A   2      -6.535   7.279  70.087  1.00  0.00    -0.042 C  
BRANCH  24  34
HETATM   34  O   UNK A   2      -8.277   1.859  69.858  1.00  0.00    -0.041 OA 
HETATM   35  C   UNK A   2      -9.282   1.598  68.899  1.00  0.00    -0.139 C  
ENDBRANCH  24  34
BRANCH  27  36
HETATM   36  O   UNK A   2      -5.998   2.370  70.956  1.00  0.00    -0.016 OA 
HETATM   37  C   UNK A   2      -6.073   2.087  72.339  1.00  0.00    -0.009 C  
ENDBRANCH  27  36
ENDBRANCH  17  19
ENDBRANCH  15  17
ENDBRANCH   6  15
ENDBRANCH   4   6
ENDBRANCH   3   4
ENDBRANCH   2   3
TORSDOF 11
ENDMDL
MODEL      247
REMARK 921   NORMALIZED FREE ENERGY PREDICTED BY IDOCK:    0.37 KCAL/MOL
REMARK 922        TOTAL FREE ENERGY PREDICTED BY IDOCK:   -1.30 KCAL/MOL
REMARK 923 INTER-LIGAND FREE ENERGY PREDICTED BY IDOCK:   -0.78 KCAL/MOL
REMARK 924 INTRA-LIGAND FREE ENERGY PREDICTED BY IDOCK:   -0.53 KCAL/MOL
REMARK 927      BINDING AFFINITY PREDICTED BY RF-SCORE:    0.00 PKD
ROOT
HETATM    1  C   UNK A   0      -6.550  11.591  66.122  1.00  0.00     0.228 C  
HETATM    2  C   UNK A   0      -7.760  10.712  65.871  1.00  0.00    -0.146 C  
ENDROOT
BRANCH   2   3
HETATM    3  O   UNK A   0      -7.471   9.392  66.344  1.00  0.00    -0.092 OA 
BRANCH   3   4
HETATM    4  C   UNK A   0      -8.337   8.864  67.256  1.00  0.00    -0.104 C  
HETATM    5  O   UNK A   0      -9.123   7.943  67.054  1.00  0.00    -0.129 OA 
BRANCH   4   6
HETATM    6  C   UNK A   0      -8.120   9.555  68.602  1.00  0.00    -0.097 C  
BRANCH   6   7
HETATM    7  C   UNK A   0      -9.139  10.683  68.774  1.00  0.00    -0.170 C  
BRANCH   7   8
HETATM    8  C   UNK A   0     -10.542  10.384  69.325  1.00  0.00    -0.259 C  
BRANCH   8   9
HETATM    9  C   UNK A   0     -11.132  11.595  70.066  1.00  0.00     0.085 A  
HETATM   10  C   UNK A   0     -12.082  11.404  71.080  1.00  0.00    -0.303 A  
HETATM   11  C   UNK A   0     -12.544  12.490  71.846  1.00  0.00    -0.037 A  
HETATM   12  C   UNK A   0     -10.703  12.919  69.830  1.00  0.00     0.595 A  
HETATM   13  C   UNK A   0     -12.062  13.779  71.619  1.00  0.00     0.082 A  
HETATM   14  C   UNK A   0     -11.147  13.994  70.601  1.00  0.00     0.535 A  
ENDBRANCH   8   9
ENDBRANCH   7   8
ENDBRANCH   6   7
BRANCH   6  15
ATOM     15  N   ALA A   1      -6.735  10.080  68.693  1.00  0.00    -0.053 NA 
ATOM     16  H   ALA A   1      -6.347  10.598  67.905  1.00  0.00     0.000 HD 
BRANCH  15  17
ATOM     17  CA  ALA A   1      -5.896   9.869  69.909  1.00  0.00    -0.043 C  
ATOM     18  CB  ALA A   1      -5.268  11.063  70.649  1.00  0.00    -0.101 C  
BRANCH  17  19
ATOM     19  C   ALA A   1      -6.377   8.746  70.885  1.00  0.00    -0.049 C  
ATOM     20  O   ALA A   1      -6.789   9.071  72.005  1.00  0.00    -0.275 OA 
HETATM   21  C   UNK A   2      -6.878   6.009  68.500  1.00  0.00    -0.070 A  
HETATM   22  C   UNK A   2      -6.503   5.639  67.202  1.00  0.00    -0.044 A  
HETATM   23  N   UNK A   2      -6.477   7.425  70.478  1.00  0.00    -0.038 N  
HETATM   24  C   UNK A   2      -7.334   4.844  66.432  1.00  0.00    -0.082 A  
HETATM   25  C   UNK A   2      -5.937   6.879  69.259  1.00  0.00    -0.019 C  
HETATM   26  O   UNK A   2      -6.734   4.793  73.006  1.00  0.00    -0.060 OA 
HETATM   27  C   UNK A   2      -8.564   4.427  66.946  1.00  0.00    -0.104 A  
HETATM   28  C   UNK A   2      -8.934   4.793  68.256  1.00  0.00    -0.132 A  
HETATM   29  O   UNK A   2      -5.455   4.719  71.163  1.00  0.00    -0.004 OA 
HETATM   30  C   UNK A   2      -6.363   5.254  71.794  1.00  0.00    -0.038 C  
HETATM   31  C   UNK A   2      -8.075   5.560  69.054  1.00  0.00    -0.095 A  
HETATM   32  C   UNK A   2      -7.218   6.446  71.290  1.00  0.00    -0.079 C  
HETATM   33  C   UNK A   2      -8.431   5.949  70.472  1.00  0.00    -0.128 C  
BRANCH  24  34
HETATM   34  O   UNK A   2      -7.002   4.385  65.182  1.00  0.00    -0.055 OA 
HETATM   35  C   UNK A   2      -5.626   4.107  65.018  1.00  0.00    -0.014 C  
ENDBRANCH  24  34
BRANCH  27  36
HETATM   36  O   UNK A   2      -9.322   3.697  66.082  1.00  0.00    -0.163 OA 
HETATM   37  C   UNK A   2     -10.673   4.078  65.915  1.00  0.00     0.679 C  
ENDBRANCH  27  36
ENDBRANCH  17  19
ENDBRANCH  15  17
ENDBRANCH   6  15
ENDBRANCH   4   6
ENDBRANCH   3   4
ENDBRANCH   2   3
TORSDOF 11
ENDMDL
MODEL      248
REMARK 921   NORMALIZED FREE ENERGY PREDICTED BY IDOCK:    0.64 KCAL/MOL
REMARK 922        TOTAL FREE ENERGY PREDICTED BY IDOCK:   -0.85 KCAL/MOL
REMARK 923 INTER-LIGAND FREE ENERGY PREDICTED BY IDOCK:   -2.88 KCAL/MOL
REMARK 924 INTRA-LIGAND FREE ENERGY PREDICTED BY IDOCK:    2.03 KCAL/MOL
REMARK 927      BINDING AFFINITY PREDICTED BY RF-SCORE:    0.00 PKD
ROOT
HETATM    1  C   UNK A   0      -8.673  12.306  65.349  1.00  0.00     0.825 C  
HETATM    2  C   UNK A   0      -9.757  13.366  65.361  1.00  0.00    -0.007 C  
ENDROOT
BRANCH   2   3
HETATM    3  O   UNK A   0     -10.952  12.792  65.899  1.00  0.00    -0.268 OA 
BRANCH   3   4
HETATM    4  C   UNK A   0     -11.927  13.660  66.295  1.00  0.00    -0.423 C  
HETATM    5  O   UNK A   0     -12.758  14.191  65.565  1.00  0.00    -0.507 OA 
BRANCH   4   6
HETATM    6  C   UNK A   0     -11.867  13.811  67.815  1.00  0.00    -0.369 C  
BRANCH   6   7
HETATM    7  C   UNK A   0     -10.409  13.907  68.268  1.00  0.00    -0.249 C  
BRANCH   7   8
HETATM    8  C   UNK A   0      -9.436  14.860  67.555  1.00  0.00    -0.200 C  
BRANCH   8   9
HETATM    9  C   UNK A   0      -9.751  16.332  67.867  1.00  0.00    -0.233 A  
HETATM   10  C   UNK A   0      -9.590  17.310  66.876  1.00  0.00    -0.272 A  
HETATM   11  C   UNK A   0      -9.984  18.640  67.108  1.00  0.00    -0.360 A  
HETATM   12  C   UNK A   0     -10.279  16.755  69.106  1.00  0.00    -0.306 A  
HETATM   13  C   UNK A   0     -10.549  19.014  68.327  1.00  0.00    -0.239 A  
HETATM   14  C   UNK A   0     -10.687  18.070  69.331  1.00  0.00     0.663 A  
ENDBRANCH   8   9
ENDBRANCH   7   8
ENDBRANCH   6   7
BRANCH   6  15
ATOM     15  N   ALA A   1     -12.547  12.667  68.473  1.00  0.00     0.480 NA 
ATOM     16  H   ALA A   1     -13.331  12.218  68.001  1.00  0.00     0.000 HD 
BRANCH  15  17
ATOM     17  CA  ALA A   1     -12.110  12.159  69.806  1.00  0.00    -0.237 C  
ATOM     18  CB  ALA A   1     -11.967  13.113  71.004  1.00  0.00     0.081 C  
BRANCH  17  19
ATOM     19  C   ALA A   1     -12.669  10.758  70.220  1.00  0.00    -0.216 C  
ATOM     20  O   ALA A   1     -13.883  10.546  70.102  1.00  0.00     0.629 OA 
HETATM   21  C   UNK A   2      -9.565   8.812  70.216  1.00  0.00    -0.198 A  
HETATM   22  C   UNK A   2      -8.178   9.008  70.263  1.00  0.00    -0.150 A  
HETATM   23  N   UNK A   2     -11.827   9.719  70.582  1.00  0.00    -0.283 N  
HETATM   24  C   UNK A   2      -7.321   8.102  69.664  1.00  0.00    -0.073 A  
HETATM   25  C   UNK A   2     -10.421   9.839  70.870  1.00  0.00    -0.228 C  
HETATM   26  O   UNK A   2     -13.213   6.835  72.358  1.00  0.00     0.103 OA 
HETATM   27  C   UNK A   2      -7.843   6.998  68.989  1.00  0.00    -0.115 A  
HETATM   28  C   UNK A   2      -9.238   6.797  68.952  1.00  0.00    -0.131 A  
HETATM   29  O   UNK A   2     -11.286   7.875  72.850  1.00  0.00    -0.406 OA 
HETATM   30  C   UNK A   2     -12.212   7.691  72.064  1.00  0.00    -0.293 C  
HETATM   31  C   UNK A   2     -10.106   7.688  69.595  1.00  0.00    -0.194 A  
HETATM   32  C   UNK A   2     -12.334   8.338  70.661  1.00  0.00     0.187 C  
HETATM   33  C   UNK A   2     -11.606   7.488  69.595  1.00  0.00     0.277 C  
BRANCH  24  34
HETATM   34  O   UNK A   2      -5.953   8.193  69.731  1.00  0.00    -0.029 OA 
HETATM   35  C   UNK A   2      -5.333   7.086  70.354  1.00  0.00    -0.023 C  
ENDBRANCH  24  34
BRANCH  27  36
HETATM   36  O   UNK A   2      -6.911   6.205  68.392  1.00  0.00    -0.068 OA 
HETATM   37  C   UNK A   2      -6.705   4.915  68.933  1.00  0.00    -0.050 C  
ENDBRANCH  27  36
ENDBRANCH  17  19
ENDBRANCH  15  17
ENDBRANCH   6  15
ENDBRANCH   4   6
ENDBRANCH   3   4
ENDBRANCH   2   3
TORSDOF 11
ENDMDL
MODEL      249
REMARK 921   NORMALIZED FREE ENERGY PREDICTED BY IDOCK:    2.87 KCAL/MOL
REMARK 922        TOTAL FREE ENERGY PREDICTED BY IDOCK:    2.81 KCAL/MOL
REMARK 923 INTER-LIGAND FREE ENERGY PREDICTED BY IDOCK:    1.52 KCAL/MOL
REMARK 924 INTRA-LIGAND FREE ENERGY PREDICTED BY IDOCK:    1.28 KCAL/MOL
REMARK 927      BINDING AFFINITY PREDICTED BY RF-SCORE:    0.00 PKD
ROOT
HETATM    1  C   UNK A   0      -7.261   7.705  62.562  1.00  0.00    -0.085 C  
HETATM    2  C   UNK A   0      -8.406   8.315  63.347  1.00  0.00    -0.029 C  
ENDROOT
BRANCH   2   3
HETATM    3  O   UNK A   0      -8.342   7.836  64.694  1.00  0.00    -0.119 OA 
BRANCH   3   4
HETATM    4  C   UNK A   0      -9.106   8.491  65.616  1.00  0.00    -0.132 C  
HETATM    5  O   UNK A   0      -9.675   9.565  65.447  1.00  0.00    -0.294 OA 
BRANCH   4   6
HETATM    6  C   UNK A   0      -9.202   7.633  66.877  1.00  0.00    -0.145 C  
BRANCH   6   7
HETATM    7  C   UNK A   0     -10.162   6.465  66.636  1.00  0.00    -0.216 C  
BRANCH   7   8
HETATM    8  C   UNK A   0     -10.672   5.624  67.816  1.00  0.00    -0.250 C  
BRANCH   8   9
HETATM    9  C   UNK A   0      -9.960   5.993  69.127  1.00  0.00    -0.205 A  
HETATM   10  C   UNK A   0     -10.637   6.725  70.114  1.00  0.00    -0.254 A  
HETATM   11  C   UNK A   0     -10.040   6.968  71.364  1.00  0.00    -0.197 A  
HETATM   12  C   UNK A   0      -8.652   5.559  69.435  1.00  0.00    -0.104 A  
HETATM   13  C   UNK A   0      -8.765   6.482  71.653  1.00  0.00    -0.132 A  
HETATM   14  C   UNK A   0      -8.067   5.785  70.681  1.00  0.00    -0.117 A  
ENDBRANCH   8   9
ENDBRANCH   7   8
ENDBRANCH   6   7
BRANCH   6  15
ATOM     15  N   ALA A   1      -9.657   8.456  68.025  1.00  0.00    -0.147 NA 
ATOM     16  H   ALA A   1     -10.554   8.247  68.462  1.00  0.00     0.000 HD 
BRANCH  15  17
ATOM     17  CA  ALA A   1      -8.834   9.582  68.555  1.00  0.00    -0.124 C  
ATOM     18  CB  ALA A   1      -7.733  10.226  67.695  1.00  0.00    -0.090 C  
BRANCH  17  19
ATOM     19  C   ALA A   1      -9.594  10.628  69.436  1.00  0.00    -0.096 C  
ATOM     20  O   ALA A   1      -9.158  10.877  70.567  1.00  0.00     1.455 OA 
HETATM   21  C   UNK A   2     -11.554  12.328  66.850  1.00  0.00    -0.427 A  
HETATM   22  C   UNK A   2     -12.000  12.125  65.537  1.00  0.00    -0.290 A  
HETATM   23  N   UNK A   2     -10.650  11.370  68.933  1.00  0.00    -0.203 N  
HETATM   24  C   UNK A   2     -12.211  13.200  64.693  1.00  0.00    -0.414 A  
HETATM   25  C   UNK A   2     -11.335  11.119  67.691  1.00  0.00    -0.284 C  
HETATM   26  O   UNK A   2     -12.891  13.090  71.259  1.00  0.00    -0.353 OA 
HETATM   27  C   UNK A   2     -11.956  14.496  65.146  1.00  0.00    -0.369 A  
HETATM   28  C   UNK A   2     -11.517  14.699  66.471  1.00  0.00    -0.354 A  
HETATM   29  O   UNK A   2     -13.524  11.929  69.446  1.00  0.00     1.973 OA 
HETATM   30  C   UNK A   2     -12.628  12.466  70.092  1.00  0.00     0.116 C  
HETATM   31  C   UNK A   2     -11.345  13.616  67.341  1.00  0.00    -0.340 A  
HETATM   32  C   UNK A   2     -11.143  12.554  69.655  1.00  0.00     0.083 C  
HETATM   33  C   UNK A   2     -10.899  13.801  68.775  1.00  0.00    -0.281 C  
BRANCH  24  34
HETATM   34  O   UNK A   2     -12.713  13.081  63.422  1.00  0.00    -0.694 OA 
HETATM   35  C   UNK A   2     -13.737  12.115  63.295  1.00  0.00     1.924 C  
ENDBRANCH  24  34
BRANCH  27  36
HETATM   36  O   UNK A   2     -12.145  15.471  64.215  1.00  0.00    -0.493 OA 
HETATM   37  C   UNK A   2     -13.472  15.892  63.968  1.00  0.00     3.210 C  
ENDBRANCH  27  36
ENDBRANCH  17  19
ENDBRANCH  15  17
ENDBRANCH   6  15
ENDBRANCH   4   6
ENDBRANCH   3   4
ENDBRANCH   2   3
TORSDOF 11
ENDMDL
MODEL      250
REMARK 921   NORMALIZED FREE ENERGY PREDICTED BY IDOCK:    3.01 KCAL/MOL
REMARK 922        TOTAL FREE ENERGY PREDICTED BY IDOCK:    3.03 KCAL/MOL
REMARK 923 INTER-LIGAND FREE ENERGY PREDICTED BY IDOCK:    2.49 KCAL/MOL
REMARK 924 INTRA-LIGAND FREE ENERGY PREDICTED BY IDOCK:    0.54 KCAL/MOL
REMARK 927      BINDING AFFINITY PREDICTED BY RF-SCORE:    0.00 PKD
ROOT
HETATM    1  C   UNK A   0      -5.300  13.448  67.197  1.00  0.00     0.561 C  
HETATM    2  C   UNK A   0      -6.551  12.700  66.780  1.00  0.00     0.638 C  
ENDROOT
BRANCH   2   3
HETATM    3  O   UNK A   0      -6.768  11.625  67.700  1.00  0.00    -0.073 OA 
BRANCH   3   4
HETATM    4  C   UNK A   0      -8.056  11.395  68.084  1.00  0.00    -0.137 C  
HETATM    5  O   UNK A   0      -8.497  11.493  69.225  1.00  0.00     0.135 OA 
BRANCH   4   6
HETATM    6  C   UNK A   0      -8.890  11.066  66.846  1.00  0.00    -0.149 C  
BRANCH   6   7
HETATM    7  C   UNK A   0      -9.665   9.766  67.075  1.00  0.00    -0.233 C  
BRANCH   7   8
HETATM    8  C   UNK A   0      -9.514   8.591  66.096  1.00  0.00    -0.286 C  
BRANCH   8   9
HETATM    9  C   UNK A   0      -8.099   7.993  66.139  1.00  0.00    -0.111 A  
HETATM   10  C   UNK A   0      -7.410   7.730  64.945  1.00  0.00    -0.070 A  
HETATM   11  C   UNK A   0      -6.073   7.295  64.968  1.00  0.00    -0.038 A  
HETATM   12  C   UNK A   0      -7.404   7.757  67.345  1.00  0.00    -0.092 A  
HETATM   13  C   UNK A   0      -5.401   7.120  66.177  1.00  0.00    -0.024 A  
HETATM   14  C   UNK A   0      -6.072   7.342  67.368  1.00  0.00    -0.046 A  
ENDBRANCH   8   9
ENDBRANCH   7   8
ENDBRANCH   6   7
BRANCH   6  15
ATOM     15  N   ALA A   1      -8.015  10.951  65.653  1.00  0.00    -0.327 NA 
ATOM     16  H   ALA A   1      -7.131  10.449  65.731  1.00  0.00     0.000 HD 
BRANCH  15  17
ATOM     17  CA  ALA A   1      -8.396  11.553  64.342  1.00  0.00     0.959 C  
ATOM     18  CB  ALA A   1      -8.005  10.872  63.019  1.00  0.00     0.095 C  
BRANCH  17  19
ATOM     19  C   ALA A   1      -9.813  12.213  64.279  1.00  0.00    -0.148 C  
ATOM     20  O   ALA A   1     -10.732  11.592  63.733  1.00  0.00    -0.347 OA 
HETATM   21  C   UNK A   2      -9.436  14.765  66.882  1.00  0.00    -0.253 A  
HETATM   22  C   UNK A   2      -8.427  15.435  67.586  1.00  0.00    -0.173 A  
HETATM   23  N   UNK A   2     -10.088  13.404  64.933  1.00  0.00    -0.277 N  
HETATM   24  C   UNK A   2      -8.654  15.891  68.872  1.00  0.00    -0.221 A  
HETATM   25  C   UNK A   2      -9.110  14.291  65.509  1.00  0.00     0.823 C  
HETATM   26  O   UNK A   2     -13.084  15.292  64.015  1.00  0.00    -0.308 OA 
HETATM   27  C   UNK A   2      -9.890  15.662  69.480  1.00  0.00    -0.289 A  
HETATM   28  C   UNK A   2     -10.907  14.996  68.766  1.00  0.00    -0.249 A  
HETATM   29  O   UNK A   2     -11.050  16.163  64.388  1.00  0.00    -0.628 OA 
HETATM   30  C   UNK A   2     -11.817  15.208  64.470  1.00  0.00    -0.330 C  
HETATM   31  C   UNK A   2     -10.695  14.573  67.448  1.00  0.00    -0.282 A  
HETATM   32  C   UNK A   2     -11.479  13.845  65.129  1.00  0.00    -0.321 C  
HETATM   33  C   UNK A   2     -11.773  13.877  66.645  1.00  0.00    -0.417 C  
BRANCH  24  34
HETATM   34  O   UNK A   2      -7.739  16.616  69.594  1.00  0.00     0.042 OA 
HETATM   35  C   UNK A   2      -6.736  15.829  70.206  1.00  0.00     0.251 C  
ENDBRANCH  24  34
BRANCH  27  36
HETATM   36  O   UNK A   2      -9.981  16.105  70.765  1.00  0.00     0.822 OA 
HETATM   37  C   UNK A   2      -9.450  15.278  71.781  1.00  0.00     3.994 C  
ENDBRANCH  27  36
ENDBRANCH  17  19
ENDBRANCH  15  17
ENDBRANCH   6  15
ENDBRANCH   4   6
ENDBRANCH   3   4
ENDBRANCH   2   3
TORSDOF 11
ENDMDL
MODEL      251
REMARK 921   NORMALIZED FREE ENERGY PREDICTED BY IDOCK:    3.05 KCAL/MOL
REMARK 922        TOTAL FREE ENERGY PREDICTED BY IDOCK:    3.11 KCAL/MOL
REMARK 923 INTER-LIGAND FREE ENERGY PREDICTED BY IDOCK:    2.53 KCAL/MOL
REMARK 924 INTRA-LIGAND FREE ENERGY PREDICTED BY IDOCK:    0.57 KCAL/MOL
REMARK 927      BINDING AFFINITY PREDICTED BY RF-SCORE:    0.00 PKD
ROOT
HETATM    1  C   UNK A   0      -7.382   7.686  62.644  1.00  0.00    -0.094 C  
HETATM    2  C   UNK A   0      -8.483   8.452  63.352  1.00  0.00     0.018 C  
ENDROOT
BRANCH   2   3
HETATM    3  O   UNK A   0      -8.425   8.149  64.750  1.00  0.00    -0.138 OA 
BRANCH   3   4
HETATM    4  C   UNK A   0      -8.933   9.083  65.603  1.00  0.00    -0.202 C  
HETATM    5  O   UNK A   0      -9.345  10.196  65.290  1.00  0.00    -0.187 OA 
BRANCH   4   6
HETATM    6  C   UNK A   0      -8.980   8.493  67.013  1.00  0.00    -0.137 C  
BRANCH   6   7
HETATM    7  C   UNK A   0     -10.265   7.682  67.191  1.00  0.00    -0.360 C  
BRANCH   7   8
HETATM    8  C   UNK A   0     -10.221   6.146  67.169  1.00  0.00    -0.246 C  
BRANCH   8   9
HETATM    9  C   UNK A   0      -8.818   5.622  66.823  1.00  0.00    -0.115 A  
HETATM   10  C   UNK A   0      -7.780   5.717  67.761  1.00  0.00    -0.096 A  
HETATM   11  C   UNK A   0      -6.524   5.138  67.505  1.00  0.00    -0.045 A  
HETATM   12  C   UNK A   0      -8.527   4.963  65.608  1.00  0.00    -0.124 A  
HETATM   13  C   UNK A   0      -6.286   4.450  66.315  1.00  0.00    -0.032 A  
HETATM   14  C   UNK A   0      -7.287   4.372  65.361  1.00  0.00    -0.073 A  
ENDBRANCH   8   9
ENDBRANCH   7   8
ENDBRANCH   6   7
BRANCH   6  15
ATOM     15  N   ALA A   1      -8.897   9.575  68.025  1.00  0.00    -0.124 NA 
ATOM     16  H   ALA A   1      -9.672   9.707  68.675  1.00  0.00     0.000 HD 
BRANCH  15  17
ATOM     17  CA  ALA A   1      -7.710  10.474  68.116  1.00  0.00    -0.096 C  
ATOM     18  CB  ALA A   1      -6.728  10.602  66.939  1.00  0.00    -0.091 C  
BRANCH  17  19
ATOM     19  C   ALA A   1      -7.936  11.832  68.858  1.00  0.00     0.009 C  
ATOM     20  O   ALA A   1      -7.057  12.239  69.628  1.00  0.00     0.116 OA 
HETATM   21  C   UNK A   2     -10.587  13.259  66.771  1.00  0.00    -0.276 A  
HETATM   22  C   UNK A   2     -11.544  12.855  65.830  1.00  0.00    -0.423 A  
HETATM   23  N   UNK A   2      -9.022  12.643  68.572  1.00  0.00    -0.107 N  
HETATM   24  C   UNK A   2     -11.966  13.725  64.840  1.00  0.00    -0.390 A  
HETATM   25  C   UNK A   2     -10.173  12.261  67.795  1.00  0.00    -0.202 C  
HETATM   26  O   UNK A   2      -9.941  15.290  70.926  1.00  0.00     0.356 OA 
HETATM   27  C   UNK A   2     -11.417  15.006  64.765  1.00  0.00    -0.403 A  
HETATM   28  C   UNK A   2     -10.461  15.414  65.718  1.00  0.00    -0.371 A  
HETATM   29  O   UNK A   2     -11.369  13.900  69.894  1.00  0.00    -0.212 OA 
HETATM   30  C   UNK A   2     -10.239  14.371  69.984  1.00  0.00     0.541 C  
HETATM   31  C   UNK A   2     -10.066  14.552  66.748  1.00  0.00    -0.264 A  
HETATM   32  C   UNK A   2      -9.056  14.039  69.037  1.00  0.00     0.162 C  
HETATM   33  C   UNK A   2      -9.061  14.967  67.801  1.00  0.00    -0.185 C  
BRANCH  24  34
HETATM   34  O   UNK A   2     -12.948  13.422  63.931  1.00  0.00    -0.419 OA 
HETATM   35  C   UNK A   2     -14.100  12.834  64.503  1.00  0.00     3.752 C  
ENDBRANCH  24  34
BRANCH  27  36
HETATM   36  O   UNK A   2     -11.864  15.755  63.719  1.00  0.00    -0.491 OA 
HETATM   37  C   UNK A   2     -13.210  16.189  63.754  1.00  0.00     3.484 C  
ENDBRANCH  27  36
ENDBRANCH  17  19
ENDBRANCH  15  17
ENDBRANCH   6  15
ENDBRANCH   4   6
ENDBRANCH   3   4
ENDBRANCH   2   3
TORSDOF 11
ENDMDL
MODEL      252
REMARK 921   NORMALIZED FREE ENERGY PREDICTED BY IDOCK:    3.21 KCAL/MOL
REMARK 922        TOTAL FREE ENERGY PREDICTED BY IDOCK:    3.38 KCAL/MOL
REMARK 923 INTER-LIGAND FREE ENERGY PREDICTED BY IDOCK:    1.03 KCAL/MOL
REMARK 924 INTRA-LIGAND FREE ENERGY PREDICTED BY IDOCK:    2.35 KCAL/MOL
REMARK 927      BINDING AFFINITY PREDICTED BY RF-SCORE:    0.00 PKD
ROOT
HETATM    1  C   UNK A   0     -12.500   3.262  62.430  1.00  0.00     3.472 C  
HETATM    2  C   UNK A   0     -11.484   2.228  62.875  1.00  0.00     0.037 C  
ENDROOT
BRANCH   2   3
HETATM    3  O   UNK A   0     -11.053   2.551  64.201  1.00  0.00     0.134 OA 
BRANCH   3   4
HETATM    4  C   UNK A   0      -9.716   2.456  64.454  1.00  0.00    -0.084 C  
HETATM    5  O   UNK A   0      -9.204   1.930  65.437  1.00  0.00    -0.116 OA 
BRANCH   4   6
HETATM    6  C   UNK A   0      -8.946   3.046  63.272  1.00  0.00    -0.091 C  
BRANCH   6   7
HETATM    7  C   UNK A   0      -7.739   2.163  62.948  1.00  0.00    -0.055 C  
BRANCH   7   8
HETATM    8  C   UNK A   0      -6.958   1.474  64.078  1.00  0.00    -0.031 C  
BRANCH   8   9
HETATM    9  C   UNK A   0      -6.248   2.493  64.983  1.00  0.00    -0.019 A  
HETATM   10  C   UNK A   0      -5.752   3.688  64.443  1.00  0.00    -0.014 A  
HETATM   11  C   UNK A   0      -5.206   4.682  65.276  1.00  0.00    -0.012 A  
HETATM   12  C   UNK A   0      -6.132   2.324  66.380  1.00  0.00    -0.023 A  
HETATM   13  C   UNK A   0      -5.153   4.503  66.658  1.00  0.00    -0.008 A  
HETATM   14  C   UNK A   0      -5.608   3.316  67.209  1.00  0.00    -0.021 A  
ENDBRANCH   8   9
ENDBRANCH   7   8
ENDBRANCH   6   7
BRANCH   6  15
ATOM     15  N   ALA A   1      -8.514   4.432  63.581  1.00  0.00    -0.104 NA 
ATOM     16  H   ALA A   1      -7.610   4.758  63.240  1.00  0.00     0.000 HD 
BRANCH  15  17
ATOM     17  CA  ALA A   1      -9.370   5.359  64.377  1.00  0.00     0.478 C  
ATOM     18  CB  ALA A   1     -10.440   4.814  65.339  1.00  0.00    -0.106 C  
BRANCH  17  19
ATOM     19  C   ALA A   1      -8.659   6.636  64.934  1.00  0.00     0.136 C  
ATOM     20  O   ALA A   1      -8.436   7.575  64.160  1.00  0.00     0.058 OA 
HETATM   21  C   UNK A   2      -9.220   6.157  68.523  1.00  0.00    -0.115 A  
HETATM   22  C   UNK A   2      -9.554   5.141  69.428  1.00  0.00    -0.225 A  
HETATM   23  N   UNK A   2      -8.401   6.791  66.287  1.00  0.00    -0.120 N  
HETATM   24  C   UNK A   2     -10.237   5.437  70.594  1.00  0.00    -0.253 A  
HETATM   25  C   UNK A   2      -8.499   5.756  67.284  1.00  0.00    -0.107 C  
HETATM   26  O   UNK A   2      -5.992   9.325  67.364  1.00  0.00    -0.048 OA 
HETATM   27  C   UNK A   2     -10.616   6.754  70.859  1.00  0.00    -0.220 A  
HETATM   28  C   UNK A   2     -10.270   7.776  69.952  1.00  0.00    -0.213 A  
HETATM   29  O   UNK A   2      -6.140   7.234  68.164  1.00  0.00    -0.029 OA 
HETATM   30  C   UNK A   2      -6.633   8.148  67.509  1.00  0.00    -0.058 C  
HETATM   31  C   UNK A   2      -9.540   7.486  68.793  1.00  0.00    -0.149 A  
HETATM   32  C   UNK A   2      -8.027   8.107  66.831  1.00  0.00    -0.104 C  
HETATM   33  C   UNK A   2      -9.132   8.563  67.811  1.00  0.00    -0.143 C  
BRANCH  24  34
HETATM   34  O   UNK A   2     -10.534   4.505  71.558  1.00  0.00    -0.113 OA 
HETATM   35  C   UNK A   2      -9.687   3.374  71.545  1.00  0.00    -0.163 C  
ENDBRANCH  24  34
BRANCH  27  36
HETATM   36  O   UNK A   2     -11.331   6.919  72.006  1.00  0.00    -0.248 OA 
HETATM   37  C   UNK A   2     -12.584   7.568  71.909  1.00  0.00    -0.294 C  
ENDBRANCH  27  36
ENDBRANCH  17  19
ENDBRANCH  15  17
ENDBRANCH   6  15
ENDBRANCH   4   6
ENDBRANCH   3   4
ENDBRANCH   2   3
TORSDOF 11
ENDMDL
MODEL      253
REMARK 921   NORMALIZED FREE ENERGY PREDICTED BY IDOCK:    4.42 KCAL/MOL
REMARK 922        TOTAL FREE ENERGY PREDICTED BY IDOCK:    5.35 KCAL/MOL
REMARK 923 INTER-LIGAND FREE ENERGY PREDICTED BY IDOCK:    5.89 KCAL/MOL
REMARK 924 INTRA-LIGAND FREE ENERGY PREDICTED BY IDOCK:   -0.53 KCAL/MOL
REMARK 927      BINDING AFFINITY PREDICTED BY RF-SCORE:    0.00 PKD
ROOT
HETATM    1  C   UNK A   0      -7.380   7.672  62.654  1.00  0.00    -0.094 C  
HETATM    2  C   UNK A   0      -8.429   8.353  63.511  1.00  0.00     0.022 C  
ENDROOT
BRANCH   2   3
HETATM    3  O   UNK A   0      -8.375   7.797  64.828  1.00  0.00    -0.130 OA 
BRANCH   3   4
HETATM    4  C   UNK A   0      -8.745   8.614  65.856  1.00  0.00    -0.172 C  
HETATM    5  O   UNK A   0      -8.931   9.825  65.783  1.00  0.00    -0.145 OA 
BRANCH   4   6
HETATM    6  C   UNK A   0      -8.966   7.765  67.108  1.00  0.00    -0.126 C  
BRANCH   6   7
HETATM    7  C   UNK A   0     -10.463   7.681  67.417  1.00  0.00    -0.367 C  
BRANCH   7   8
HETATM    8  C   UNK A   0     -11.149   6.313  67.560  1.00  0.00    -0.379 C  
BRANCH   8   9
HETATM    9  C   UNK A   0     -10.193   5.158  67.220  1.00  0.00    -0.239 A  
HETATM   10  C   UNK A   0      -9.711   4.322  68.238  1.00  0.00    -0.162 A  
HETATM   11  C   UNK A   0      -8.931   3.192  67.930  1.00  0.00    -0.191 A  
HETATM   12  C   UNK A   0      -9.822   4.837  65.896  1.00  0.00    -0.225 A  
HETATM   13  C   UNK A   0      -8.625   2.876  66.607  1.00  0.00    -0.110 A  
HETATM   14  C   UNK A   0      -9.064   3.707  65.589  1.00  0.00    -0.150 A  
ENDBRANCH   8   9
ENDBRANCH   7   8
ENDBRANCH   6   7
BRANCH   6  15
ATOM     15  N   ALA A   1      -8.225   8.341  68.257  1.00  0.00    -0.127 NA 
ATOM     16  H   ALA A   1      -8.747   8.696  69.058  1.00  0.00     0.000 HD 
BRANCH  15  17
ATOM     17  CA  ALA A   1      -6.735   8.413  68.271  1.00  0.00    -0.065 C  
ATOM     18  CB  ALA A   1      -5.935   8.423  66.957  1.00  0.00    -0.053 C  
BRANCH  17  19
ATOM     19  C   ALA A   1      -6.105   9.339  69.362  1.00  0.00    -0.037 C  
ATOM     20  O   ALA A   1      -5.131   8.923  70.002  1.00  0.00    -0.029 OA 
HETATM   21  C   UNK A   2      -7.486  12.570  68.322  1.00  0.00    -0.122 A  
HETATM   22  C   UNK A   2      -8.526  13.087  67.539  1.00  0.00    -0.190 A  
HETATM   23  N   UNK A   2      -6.523  10.650  69.531  1.00  0.00    -0.066 N  
HETATM   24  C   UNK A   2      -8.391  14.314  66.915  1.00  0.00    -0.054 A  
HETATM   25  C   UNK A   2      -7.703  11.236  68.948  1.00  0.00    -0.125 C  
HETATM   26  O   UNK A   2      -5.657  12.416  72.616  1.00  0.00     0.114 OA 
HETATM   27  C   UNK A   2      -7.201  15.031  67.049  1.00  0.00     0.165 A  
HETATM   28  C   UNK A   2      -6.159  14.513  67.846  1.00  0.00    -0.161 A  
HETATM   29  O   UNK A   2      -7.657  12.458  71.599  1.00  0.00     7.374 OA 
HETATM   30  C   UNK A   2      -6.462  12.179  71.560  1.00  0.00     2.973 C  
HETATM   31  C   UNK A   2      -6.311  13.292  68.515  1.00  0.00    -0.083 A  
HETATM   32  C   UNK A   2      -5.723  11.593  70.329  1.00  0.00    -0.152 C  
HETATM   33  C   UNK A   2      -5.222  12.720  69.397  1.00  0.00    -0.075 C  
BRANCH  24  34
HETATM   34  O   UNK A   2      -9.392  14.914  66.192  1.00  0.00    -0.292 OA 
HETATM   35  C   UNK A   2     -10.651  14.905  66.835  1.00  0.00    -0.300 C  
ENDBRANCH  24  34
BRANCH  27  36
HETATM   36  O   UNK A   2      -7.158  16.198  66.347  1.00  0.00    -0.129 OA 
HETATM   37  C   UNK A   2      -6.167  17.140  66.705  1.00  0.00    -0.214 C  
ENDBRANCH  27  36
ENDBRANCH  17  19
ENDBRANCH  15  17
ENDBRANCH   6  15
ENDBRANCH   4   6
ENDBRANCH   3   4
ENDBRANCH   2   3
TORSDOF 11
ENDMDL
MODEL      254
REMARK 921   NORMALIZED FREE ENERGY PREDICTED BY IDOCK:    4.57 KCAL/MOL
REMARK 922        TOTAL FREE ENERGY PREDICTED BY IDOCK:    5.61 KCAL/MOL
REMARK 923 INTER-LIGAND FREE ENERGY PREDICTED BY IDOCK:    5.71 KCAL/MOL
REMARK 924 INTRA-LIGAND FREE ENERGY PREDICTED BY IDOCK:   -0.10 KCAL/MOL
REMARK 927      BINDING AFFINITY PREDICTED BY RF-SCORE:    0.00 PKD
ROOT
HETATM    1  C   UNK A   0     -12.863  11.971  72.279  1.00  0.00     0.116 C  
HETATM    2  C   UNK A   0     -12.773  10.618  71.602  1.00  0.00    -0.426 C  
ENDROOT
BRANCH   2   3
HETATM    3  O   UNK A   0     -11.723  10.662  70.630  1.00  0.00    -0.320 OA 
BRANCH   3   4
HETATM    4  C   UNK A   0     -11.490   9.518  69.925  1.00  0.00    -0.062 C  
HETATM    5  O   UNK A   0     -12.239   8.549  69.855  1.00  0.00     0.671 OA 
BRANCH   4   6
HETATM    6  C   UNK A   0     -10.169   9.665  69.168  1.00  0.00    -0.202 C  
BRANCH   6   7
HETATM    7  C   UNK A   0      -9.312   8.414  69.377  1.00  0.00    -0.154 C  
BRANCH   7   8
HETATM    8  C   UNK A   0      -8.629   8.160  70.730  1.00  0.00    -0.138 C  
BRANCH   8   9
HETATM    9  C   UNK A   0      -9.434   7.182  71.599  1.00  0.00    -0.159 A  
HETATM   10  C   UNK A   0     -10.040   6.059  71.017  1.00  0.00    -0.241 A  
HETATM   11  C   UNK A   0     -10.680   5.093  71.815  1.00  0.00    -0.203 A  
HETATM   12  C   UNK A   0      -9.538   7.312  73.001  1.00  0.00    -0.219 A  
HETATM   13  C   UNK A   0     -10.721   5.228  73.202  1.00  0.00    -0.314 A  
HETATM   14  C   UNK A   0     -10.157   6.346  73.795  1.00  0.00    -0.282 A  
ENDBRANCH   8   9
ENDBRANCH   7   8
ENDBRANCH   6   7
BRANCH   6  15
ATOM     15  N   ALA A   1      -9.447  10.878  69.624  1.00  0.00    -0.363 NA 
ATOM     16  H   ALA A   1      -9.312  11.030  70.623  1.00  0.00     0.000 HD 
BRANCH  15  17
ATOM     17  CA  ALA A   1      -8.915  11.882  68.657  1.00  0.00    -0.041 C  
ATOM     18  CB  ALA A   1      -8.820  13.369  69.037  1.00  0.00     0.408 C  
BRANCH  17  19
ATOM     19  C   ALA A   1      -7.710  11.411  67.778  1.00  0.00    -0.115 C  
ATOM     20  O   ALA A   1      -6.593  11.898  67.994  1.00  0.00    -0.057 OA 
HETATM   21  C   UNK A   2      -9.095   8.304  66.417  1.00  0.00    -0.226 A  
HETATM   22  C   UNK A   2     -10.334   7.677  66.227  1.00  0.00     0.310 A  
HETATM   23  N   UNK A   2      -7.837  10.376  66.865  1.00  0.00    -0.112 N  
HETATM   24  C   UNK A   2     -10.427   6.297  66.221  1.00  0.00     0.136 A  
HETATM   25  C   UNK A   2      -9.079   9.793  66.426  1.00  0.00    -0.155 C  
HETATM   26  O   UNK A   2      -5.286   9.953  64.277  1.00  0.00    -0.067 OA 
HETATM   27  C   UNK A   2      -9.283   5.525  66.428  1.00  0.00    -0.150 A  
HETATM   28  C   UNK A   2      -8.036   6.158  66.609  1.00  0.00    -0.105 A  
HETATM   29  O   UNK A   2      -7.504   9.804  63.968  1.00  0.00    -0.120 OA 
HETATM   30  C   UNK A   2      -6.549   9.849  64.739  1.00  0.00    -0.121 C  
HETATM   31  C   UNK A   2      -7.931   7.554  66.570  1.00  0.00    -0.107 A  
HETATM   32  C   UNK A   2      -6.644   9.741  66.283  1.00  0.00    -0.073 C  
HETATM   33  C   UNK A   2      -6.605   8.264  66.736  1.00  0.00    -0.057 C  
BRANCH  24  34
HETATM   34  O   UNK A   2     -11.592   5.615  65.972  1.00  0.00     0.657 OA 
HETATM   35  C   UNK A   2     -12.683   6.447  65.630  1.00  0.00     8.258 C  
ENDBRANCH  24  34
BRANCH  27  36
HETATM   36  O   UNK A   2      -9.502   4.181  66.458  1.00  0.00    -0.161 OA 
HETATM   37  C   UNK A   2      -8.378   3.338  66.618  1.00  0.00    -0.102 C  
ENDBRANCH  27  36
ENDBRANCH  17  19
ENDBRANCH  15  17
ENDBRANCH   6  15
ENDBRANCH   4   6
ENDBRANCH   3   4
ENDBRANCH   2   3
TORSDOF 11
ENDMDL
MODEL      255
REMARK 921   NORMALIZED FREE ENERGY PREDICTED BY IDOCK:    4.87 KCAL/MOL
REMARK 922        TOTAL FREE ENERGY PREDICTED BY IDOCK:    6.10 KCAL/MOL
REMARK 923 INTER-LIGAND FREE ENERGY PREDICTED BY IDOCK:    2.74 KCAL/MOL
REMARK 924 INTRA-LIGAND FREE ENERGY PREDICTED BY IDOCK:    3.36 KCAL/MOL
REMARK 927      BINDING AFFINITY PREDICTED BY RF-SCORE:    0.00 PKD
ROOT
HETATM    1  C   UNK A   0      -8.935  14.845  71.819  1.00  0.00     4.933 C  
HETATM    2  C   UNK A   0      -8.120  15.248  70.606  1.00  0.00     1.644 C  
ENDROOT
BRANCH   2   3
HETATM    3  O   UNK A   0      -6.749  14.911  70.843  1.00  0.00     0.179 OA 
BRANCH   3   4
HETATM    4  C   UNK A   0      -6.339  13.677  70.429  1.00  0.00     0.030 C  
HETATM    5  O   UNK A   0      -5.389  13.045  70.879  1.00  0.00    -0.145 OA 
BRANCH   4   6
HETATM    6  C   UNK A   0      -7.304  13.169  69.358  1.00  0.00     0.337 C  
BRANCH   6   7
HETATM    7  C   UNK A   0      -6.832  11.809  68.840  1.00  0.00    -0.102 C  
BRANCH   7   8
HETATM    8  C   UNK A   0      -7.851  10.770  68.345  1.00  0.00    -0.120 C  
BRANCH   8   9
HETATM    9  C   UNK A   0      -9.198  10.905  69.073  1.00  0.00    -0.128 A  
HETATM   10  C   UNK A   0     -10.182  11.773  68.577  1.00  0.00    -0.215 A  
HETATM   11  C   UNK A   0     -11.460  11.820  69.162  1.00  0.00    -0.358 A  
HETATM   12  C   UNK A   0      -9.539  10.126  70.200  1.00  0.00    -0.029 A  
HETATM   13  C   UNK A   0     -11.780  11.000  70.244  1.00  0.00    -0.445 A  
HETATM   14  C   UNK A   0     -10.813  10.159  70.770  1.00  0.00    -0.241 A  
ENDBRANCH   8   9
ENDBRANCH   7   8
ENDBRANCH   6   7
BRANCH   6  15
ATOM     15  N   ALA A   1      -7.401  14.148  68.247  1.00  0.00    -0.108 NA 
ATOM     16  H   ALA A   1      -8.045  13.965  67.477  1.00  0.00     0.000 HD 
BRANCH  15  17
ATOM     17  CA  ALA A   1      -6.581  15.395  68.229  1.00  0.00    -0.121 C  
ATOM     18  CB  ALA A   1      -5.126  15.372  67.730  1.00  0.00    -0.088 C  
BRANCH  17  19
ATOM     19  C   ALA A   1      -7.334  16.702  67.818  1.00  0.00    -0.148 C  
ATOM     20  O   ALA A   1      -6.678  17.740  67.666  1.00  0.00    -0.177 OA 
HETATM   21  C   UNK A   2     -10.463  15.264  66.567  1.00  0.00    -0.299 A  
HETATM   22  C   UNK A   2     -11.200  14.076  66.643  1.00  0.00    -0.330 A  
HETATM   23  N   UNK A   2      -8.681  16.693  67.494  1.00  0.00    -0.189 N  
HETATM   24  C   UNK A   2     -12.020  13.690  65.596  1.00  0.00    -0.395 A  
HETATM   25  C   UNK A   2      -9.593  15.602  67.727  1.00  0.00    -0.209 C  
HETATM   26  O   UNK A   2     -10.523  19.854  67.427  1.00  0.00    -0.421 OA 
HETATM   27  C   UNK A   2     -12.093  14.480  64.448  1.00  0.00    -0.472 A  
HETATM   28  C   UNK A   2     -11.358  15.681  64.378  1.00  0.00    -0.272 A  
HETATM   29  O   UNK A   2     -11.257  17.928  68.315  1.00  0.00     0.054 OA 
HETATM   30  C   UNK A   2     -10.445  18.520  67.610  1.00  0.00    -0.417 C  
HETATM   31  C   UNK A   2     -10.563  16.097  65.453  1.00  0.00    -0.399 A  
HETATM   32  C   UNK A   2      -9.295  17.846  66.815  1.00  0.00    -0.275 C  
HETATM   33  C   UNK A   2      -9.781  17.391  65.420  1.00  0.00     0.652 C  
BRANCH  24  34
HETATM   34  O   UNK A   2     -12.823  12.578  65.630  1.00  0.00    -0.392 OA 
HETATM   35  C   UNK A   2     -12.170  11.384  65.246  1.00  0.00     1.266 C  
ENDBRANCH  24  34
BRANCH  27  36
HETATM   36  O   UNK A   2     -12.886  13.977  63.462  1.00  0.00    -0.597 OA 
HETATM   37  C   UNK A   2     -12.405  12.858  62.743  1.00  0.00     0.733 C  
ENDBRANCH  27  36
ENDBRANCH  17  19
ENDBRANCH  15  17
ENDBRANCH   6  15
ENDBRANCH   4   6
ENDBRANCH   3   4
ENDBRANCH   2   3
TORSDOF 11
ENDMDL
MODEL      256
REMARK 921   NORMALIZED FREE ENERGY PREDICTED BY IDOCK:    5.36 KCAL/MOL
REMARK 922        TOTAL FREE ENERGY PREDICTED BY IDOCK:    6.91 KCAL/MOL
REMARK 923 INTER-LIGAND FREE ENERGY PREDICTED BY IDOCK:    1.40 KCAL/MOL
REMARK 924 INTRA-LIGAND FREE ENERGY PREDICTED BY IDOCK:    5.51 KCAL/MOL
REMARK 927      BINDING AFFINITY PREDICTED BY RF-SCORE:    0.00 PKD
ROOT
HETATM    1  C   UNK A   0      -6.539   2.667  72.998  1.00  0.00    -0.021 C  
HETATM    2  C   UNK A   0      -7.046   3.361  71.749  1.00  0.00    -0.035 C  
ENDROOT
BRANCH   2   3
HETATM    3  O   UNK A   0      -8.182   4.158  72.099  1.00  0.00    -0.096 OA 
BRANCH   3   4
HETATM    4  C   UNK A   0      -8.046   4.983  73.177  1.00  0.00    -0.104 C  
HETATM    5  O   UNK A   0      -8.086   4.641  74.355  1.00  0.00    -0.098 OA 
BRANCH   4   6
HETATM    6  C   UNK A   0      -7.757   6.400  72.682  1.00  0.00    -0.104 C  
BRANCH   6   7
HETATM    7  C   UNK A   0      -9.027   7.005  72.079  1.00  0.00    -0.138 C  
BRANCH   7   8
HETATM    8  C   UNK A   0      -9.993   6.129  71.266  1.00  0.00    -0.215 C  
BRANCH   8   9
HETATM    9  C   UNK A   0     -10.614   5.017  72.127  1.00  0.00    -0.259 A  
HETATM   10  C   UNK A   0     -11.257   5.337  73.331  1.00  0.00    -0.314 A  
HETATM   11  C   UNK A   0     -11.931   4.348  74.070  1.00  0.00     1.551 A  
HETATM   12  C   UNK A   0     -10.640   3.664  71.725  1.00  0.00     0.359 A  
HETATM   13  C   UNK A   0     -11.980   3.029  73.618  1.00  0.00     0.346 A  
HETATM   14  C   UNK A   0     -11.324   2.686  72.448  1.00  0.00     0.945 A  
ENDBRANCH   8   9
ENDBRANCH   7   8
ENDBRANCH   6   7
BRANCH   6  15
ATOM     15  N   ALA A   1      -6.659   6.383  71.684  1.00  0.00    -0.053 NA 
ATOM     16  H   ALA A   1      -5.769   5.953  71.933  1.00  0.00     0.000 HD 
BRANCH  15  17
ATOM     17  CA  ALA A   1      -6.825   6.981  70.327  1.00  0.00    -0.057 C  
ATOM     18  CB  ALA A   1      -7.586   6.227  69.223  1.00  0.00    -0.099 C  
BRANCH  17  19
ATOM     19  C   ALA A   1      -7.083   8.523  70.287  1.00  0.00    -0.043 C  
ATOM     20  O   ALA A   1      -6.643   9.221  71.209  1.00  0.00    -0.113 OA 
HETATM   21  C   UNK A   2      -7.931   8.928  66.745  1.00  0.00    -0.107 A  
HETATM   22  C   UNK A   2      -8.349   8.161  65.650  1.00  0.00    -0.148 A  
HETATM   23  N   UNK A   2      -7.666   9.132  69.187  1.00  0.00    -0.079 N  
HETATM   24  C   UNK A   2      -8.011   8.535  64.362  1.00  0.00    -0.147 A  
HETATM   25  C   UNK A   2      -8.323   8.452  68.101  1.00  0.00    -0.128 C  
HETATM   26  O   UNK A   2      -9.023  12.513  69.532  1.00  0.00     1.092 OA 
HETATM   27  C   UNK A   2      -7.228   9.672  64.154  1.00  0.00    -0.122 A  
HETATM   28  C   UNK A   2      -6.816  10.448  65.257  1.00  0.00    -0.102 A  
HETATM   29  O   UNK A   2     -10.009  10.809  68.456  1.00  0.00    -0.164 OA 
HETATM   30  C   UNK A   2      -9.004  11.283  68.979  1.00  0.00     0.038 C  
HETATM   31  C   UNK A   2      -7.196  10.097  66.559  1.00  0.00    -0.104 A  
HETATM   32  C   UNK A   2      -7.615  10.595  69.029  1.00  0.00    -0.122 C  
HETATM   33  C   UNK A   2      -6.792  10.921  67.762  1.00  0.00    -0.072 C  
BRANCH  24  34
HETATM   34  O   UNK A   2      -8.444   7.873  63.240  1.00  0.00     0.002 OA 
HETATM   35  C   UNK A   2      -7.429   7.153  62.569  1.00  0.00    -0.096 C  
ENDBRANCH  24  34
BRANCH  27  36
HETATM   36  O   UNK A   2      -6.910   9.913  62.852  1.00  0.00    -0.110 OA 
HETATM   37  C   UNK A   2      -6.810  11.262  62.442  1.00  0.00     0.316 C  
ENDBRANCH  27  36
ENDBRANCH  17  19
ENDBRANCH  15  17
ENDBRANCH   6  15
ENDBRANCH   4   6
ENDBRANCH   3   4
ENDBRANCH   2   3
TORSDOF 11
ENDMDL
MODEL      257
REMARK 921   NORMALIZED FREE ENERGY PREDICTED BY IDOCK:    6.39 KCAL/MOL
REMARK 922        TOTAL FREE ENERGY PREDICTED BY IDOCK:    8.60 KCAL/MOL
REMARK 923 INTER-LIGAND FREE ENERGY PREDICTED BY IDOCK:    6.97 KCAL/MOL
REMARK 924 INTRA-LIGAND FREE ENERGY PREDICTED BY IDOCK:    1.62 KCAL/MOL
REMARK 927      BINDING AFFINITY PREDICTED BY RF-SCORE:    0.00 PKD
ROOT
HETATM    1  C   UNK A   0     -12.597   6.836  66.324  1.00  0.00     8.043 C  
HETATM    2  C   UNK A   0     -11.880   6.767  67.658  1.00  0.00     1.549 C  
ENDROOT
BRANCH   2   3
HETATM    3  O   UNK A   0     -11.003   7.893  67.764  1.00  0.00    -0.075 OA 
BRANCH   3   4
HETATM    4  C   UNK A   0      -9.665   7.638  67.690  1.00  0.00    -0.152 C  
HETATM    5  O   UNK A   0      -9.140   6.529  67.712  1.00  0.00    -0.115 OA 
BRANCH   4   6
HETATM    6  C   UNK A   0      -8.920   8.959  67.497  1.00  0.00    -0.133 C  
BRANCH   6   7
HETATM    7  C   UNK A   0      -7.985   8.855  66.290  1.00  0.00    -0.103 C  
BRANCH   7   8
HETATM    8  C   UNK A   0      -8.213   9.739  65.054  1.00  0.00    -0.142 C  
BRANCH   8   9
HETATM    9  C   UNK A   0      -8.617  11.169  65.444  1.00  0.00    -0.009 A  
HETATM   10  C   UNK A   0      -9.815  11.718  64.964  1.00  0.00    -0.257 A  
HETATM   11  C   UNK A   0     -10.256  12.979  65.404  1.00  0.00    -0.301 A  
HETATM   12  C   UNK A   0      -7.867  11.957  66.345  1.00  0.00     0.167 A  
HETATM   13  C   UNK A   0      -9.515  13.708  66.334  1.00  0.00    -0.248 A  
HETATM   14  C   UNK A   0      -8.313  13.199  66.797  1.00  0.00     0.064 A  
ENDBRANCH   8   9
ENDBRANCH   7   8
ENDBRANCH   6   7
BRANCH   6  15
ATOM     15  N   ALA A   1      -8.157   9.302  68.723  1.00  0.00    -0.103 NA 
ATOM     16  H   ALA A   1      -8.491  10.058  69.321  1.00  0.00     0.000 HD 
BRANCH  15  17
ATOM     17  CA  ALA A   1      -6.914   8.570  69.102  1.00  0.00    -0.063 C  
ATOM     18  CB  ALA A   1      -5.736   9.306  69.762  1.00  0.00    -0.032 C  
BRANCH  17  19
ATOM     19  C   ALA A   1      -7.118   7.130  69.679  1.00  0.00    -0.074 C  
ATOM     20  O   ALA A   1      -7.645   7.007  70.791  1.00  0.00    -0.087 OA 
HETATM   21  C   UNK A   2      -6.786   5.165  66.604  1.00  0.00    -0.061 A  
HETATM   22  C   UNK A   2      -6.277   5.289  65.304  1.00  0.00    -0.034 A  
HETATM   23  N   UNK A   2      -6.850   6.001  68.922  1.00  0.00    -0.064 N  
HETATM   24  C   UNK A   2      -6.838   4.574  64.260  1.00  0.00    -0.045 A  
HETATM   25  C   UNK A   2      -6.138   5.979  67.669  1.00  0.00    -0.018 C  
HETATM   26  O   UNK A   2      -6.499   2.769  70.601  1.00  0.00    -0.026 OA 
HETATM   27  C   UNK A   2      -7.933   3.742  64.501  1.00  0.00    -0.086 A  
HETATM   28  C   UNK A   2      -8.436   3.612  65.812  1.00  0.00    -0.111 A  
HETATM   29  O   UNK A   2      -5.177   3.544  68.962  1.00  0.00    -0.010 OA 
HETATM   30  C   UNK A   2      -6.218   3.637  69.608  1.00  0.00    -0.028 C  
HETATM   31  C   UNK A   2      -7.842   4.299  66.877  1.00  0.00    -0.097 A  
HETATM   32  C   UNK A   2      -7.336   4.679  69.352  1.00  0.00    -0.052 C  
HETATM   33  C   UNK A   2      -8.343   4.162  68.299  1.00  0.00    -0.099 C  
BRANCH  24  34
HETATM   34  O   UNK A   2      -6.349   4.592  62.978  1.00  0.00    -0.024 OA 
HETATM   35  C   UNK A   2      -5.704   5.799  62.625  1.00  0.00    -0.014 C  
ENDBRANCH  24  34
BRANCH  27  36
HETATM   36  O   UNK A   2      -8.437   3.132  63.393  1.00  0.00    -0.085 OA 
HETATM   37  C   UNK A   2      -9.783   2.702  63.438  1.00  0.00    -0.104 C  
ENDBRANCH  27  36
ENDBRANCH  17  19
ENDBRANCH  15  17
ENDBRANCH   6  15
ENDBRANCH   4   6
ENDBRANCH   3   4
ENDBRANCH   2   3
TORSDOF 11
ENDMDL
MODEL      258
REMARK 921   NORMALIZED FREE ENERGY PREDICTED BY IDOCK:    8.88 KCAL/MOL
REMARK 922        TOTAL FREE ENERGY PREDICTED BY IDOCK:   12.69 KCAL/MOL
REMARK 923 INTER-LIGAND FREE ENERGY PREDICTED BY IDOCK:    6.28 KCAL/MOL
REMARK 924 INTRA-LIGAND FREE ENERGY PREDICTED BY IDOCK:    6.41 KCAL/MOL
REMARK 927      BINDING AFFINITY PREDICTED BY RF-SCORE:    0.00 PKD
ROOT
HETATM    1  C   UNK A   0      -6.314  10.026  71.143  1.00  0.00     0.099 C  
HETATM    2  C   UNK A   0      -7.505  10.087  70.206  1.00  0.00    -0.129 C  
ENDROOT
BRANCH   2   3
HETATM    3  O   UNK A   0      -8.051  11.409  70.247  1.00  0.00     1.344 OA 
BRANCH   3   4
HETATM    4  C   UNK A   0      -8.871  11.767  69.218  1.00  0.00     0.625 C  
HETATM    5  O   UNK A   0      -9.966  11.274  68.963  1.00  0.00    -0.189 OA 
BRANCH   4   6
HETATM    6  C   UNK A   0      -8.241  12.941  68.468  1.00  0.00    -0.065 C  
BRANCH   6   7
HETATM    7  C   UNK A   0      -9.089  13.288  67.243  1.00  0.00    -0.221 C  
BRANCH   7   8
HETATM    8  C   UNK A   0      -8.527  14.203  66.144  1.00  0.00     0.888 C  
BRANCH   8   9
HETATM    9  C   UNK A   0      -7.876  15.465  66.733  1.00  0.00    -0.105 A  
HETATM   10  C   UNK A   0      -8.672  16.462  67.314  1.00  0.00    -0.198 A  
HETATM   11  C   UNK A   0      -8.086  17.565  67.960  1.00  0.00    -0.237 A  
HETATM   12  C   UNK A   0      -6.477  15.647  66.791  1.00  0.00     0.650 A  
HETATM   13  C   UNK A   0      -6.699  17.688  68.044  1.00  0.00    -0.187 A  
HETATM   14  C   UNK A   0      -5.894  16.731  67.448  1.00  0.00    -0.190 A  
ENDBRANCH   8   9
ENDBRANCH   7   8
ENDBRANCH   6   7
BRANCH   6  15
ATOM     15  N   ALA A   1      -6.851  12.607  68.066  1.00  0.00    -0.082 NA 
ATOM     16  H   ALA A   1      -6.124  13.316  68.157  1.00  0.00     0.000 HD 
BRANCH  15  17
ATOM     17  CA  ALA A   1      -6.493  11.261  67.533  1.00  0.00    -0.072 C  
ATOM     18  CB  ALA A   1      -6.120  10.111  68.484  1.00  0.00    -0.044 C  
BRANCH  17  19
ATOM     19  C   ALA A   1      -7.320  10.772  66.298  1.00  0.00    -0.138 C  
ATOM     20  O   ALA A   1      -6.982  11.154  65.171  1.00  0.00     0.334 OA 
HETATM   21  C   UNK A   2      -9.042   7.901  67.787  1.00  0.00    -0.138 A  
HETATM   22  C   UNK A   2      -9.374   7.388  69.047  1.00  0.00    -0.145 A  
HETATM   23  N   UNK A   2      -8.326   9.827  66.426  1.00  0.00    -0.119 N  
HETATM   24  C   UNK A   2      -9.507   6.024  69.237  1.00  0.00    -0.132 A  
HETATM   25  C   UNK A   2      -8.903   9.379  67.668  1.00  0.00    -0.115 C  
HETATM   26  O   UNK A   2     -10.749   9.423  63.715  1.00  0.00     3.599 OA 
HETATM   27  C   UNK A   2      -9.285   5.152  68.169  1.00  0.00    -0.116 A  
HETATM   28  C   UNK A   2      -8.960   5.672  66.899  1.00  0.00    -0.112 A  
HETATM   29  O   UNK A   2     -11.230   9.469  65.907  1.00  0.00     1.199 OA 
HETATM   30  C   UNK A   2     -10.391   9.378  65.015  1.00  0.00     1.297 C  
HETATM   31  C   UNK A   2      -8.870   7.054  66.694  1.00  0.00    -0.139 A  
HETATM   32  C   UNK A   2      -8.873   9.152  65.238  1.00  0.00    -0.199 C  
HETATM   33  C   UNK A   2      -8.548   7.645  65.339  1.00  0.00    -0.074 C  
BRANCH  24  34
HETATM   34  O   UNK A   2      -9.898   5.456  70.423  1.00  0.00    -0.177 OA 
HETATM   35  C   UNK A   2     -10.503   6.362  71.324  1.00  0.00    -0.216 C  
ENDBRANCH  24  34
BRANCH  27  36
HETATM   36  O   UNK A   2      -9.388   3.831  68.483  1.00  0.00    -0.148 OA 
HETATM   37  C   UNK A   2      -8.509   3.322  69.467  1.00  0.00    -0.061 C  
ENDBRANCH  27  36
ENDBRANCH  17  19
ENDBRANCH  15  17
ENDBRANCH   6  15
ENDBRANCH   4   6
ENDBRANCH   3   4
ENDBRANCH   2   3
TORSDOF 11
ENDMDL
MODEL      259
REMARK 921   NORMALIZED FREE ENERGY PREDICTED BY IDOCK:    9.90 KCAL/MOL
REMARK 922        TOTAL FREE ENERGY PREDICTED BY IDOCK:   14.36 KCAL/MOL
REMARK 923 INTER-LIGAND FREE ENERGY PREDICTED BY IDOCK:    2.32 KCAL/MOL
REMARK 924 INTRA-LIGAND FREE ENERGY PREDICTED BY IDOCK:   12.04 KCAL/MOL
REMARK 927      BINDING AFFINITY PREDICTED BY RF-SCORE:    0.00 PKD
ROOT
HETATM    1  C   UNK A   0      -5.815  12.410  66.867  1.00  0.00     0.182 C  
HETATM    2  C   UNK A   0      -7.169  11.729  66.886  1.00  0.00    -0.103 C  
ENDROOT
BRANCH   2   3
HETATM    3  O   UNK A   0      -7.043  10.480  67.573  1.00  0.00    -0.086 OA 
BRANCH   3   4
HETATM    4  C   UNK A   0      -8.072  10.124  68.395  1.00  0.00    -0.104 C  
HETATM    5  O   UNK A   0      -8.808   9.153  68.250  1.00  0.00    -0.129 OA 
BRANCH   4   6
HETATM    6  C   UNK A   0      -8.116  11.092  69.578  1.00  0.00     0.195 C  
BRANCH   6   7
HETATM    7  C   UNK A   0      -9.316  12.031  69.433  1.00  0.00     0.953 C  
BRANCH   7   8
HETATM    8  C   UNK A   0     -10.733  11.534  69.760  1.00  0.00     0.161 C  
BRANCH   8   9
HETATM    9  C   UNK A   0     -11.643  12.680  70.232  1.00  0.00    -0.050 A  
HETATM   10  C   UNK A   0     -12.819  12.397  70.941  1.00  0.00    -0.176 A  
HETATM   11  C   UNK A   0     -13.600  13.435  71.481  1.00  0.00    -0.207 A  
HETATM   12  C   UNK A   0     -11.313  14.041  70.053  1.00  0.00    -0.163 A  
HETATM   13  C   UNK A   0     -13.217  14.768  71.329  1.00  0.00    -0.447 A  
HETATM   14  C   UNK A   0     -12.076  15.070  70.604  1.00  0.00    -0.375 A  
ENDBRANCH   8   9
ENDBRANCH   7   8
ENDBRANCH   6   7
BRANCH   6  15
ATOM     15  N   ALA A   1      -6.852  11.865  69.658  1.00  0.00    -0.335 NA 
ATOM     16  H   ALA A   1      -6.546  12.402  68.847  1.00  0.00     0.000 HD 
BRANCH  15  17
ATOM     17  CA  ALA A   1      -6.018  11.875  70.895  1.00  0.00     0.253 C  
ATOM     18  CB  ALA A   1      -5.706  13.194  71.623  1.00  0.00     0.218 C  
BRANCH  17  19
ATOM     19  C   ALA A   1      -6.246  10.685  71.883  1.00  0.00     1.323 C  
ATOM     20  O   ALA A   1      -6.409  10.935  73.083  1.00  0.00     2.047 OA 
HETATM   21  C   UNK A   2      -7.194   8.063  69.505  1.00  0.00    -0.070 A  
HETATM   22  C   UNK A   2      -7.106   7.776  68.137  1.00  0.00    -0.085 A  
HETATM   23  N   UNK A   2      -6.402   9.385  71.429  1.00  0.00    -0.057 N  
HETATM   24  C   UNK A   2      -8.066   6.994  67.521  1.00  0.00    -0.113 A  
HETATM   25  C   UNK A   2      -6.130   8.924  70.091  1.00  0.00    -0.037 C  
HETATM   26  O   UNK A   2      -6.034   6.614  73.790  1.00  0.00    -0.061 OA 
HETATM   27  C   UNK A   2      -9.143   6.506  68.264  1.00  0.00    -0.119 A  
HETATM   28  C   UNK A   2      -9.224   6.788  69.643  1.00  0.00    -0.145 A  
HETATM   29  O   UNK A   2      -5.191   6.685  71.712  1.00  0.00    -0.026 OA 
HETATM   30  C   UNK A   2      -5.951   7.152  72.556  1.00  0.00    -0.041 C  
HETATM   31  C   UNK A   2      -8.230   7.542  70.278  1.00  0.00    -0.128 A  
HETATM   32  C   UNK A   2      -6.923   8.338  72.323  1.00  0.00    -0.093 C  
HETATM   33  C   UNK A   2      -8.274   7.842  71.761  1.00  0.00    -0.126 C  
BRANCH  24  34
HETATM   34  O   UNK A   2      -8.007   6.614  66.203  1.00  0.00    -0.102 OA 
HETATM   35  C   UNK A   2      -6.693   6.407  65.723  1.00  0.00    -0.048 C  
ENDBRANCH  24  34
BRANCH  27  36
HETATM   36  O   UNK A   2     -10.055   5.796  67.544  1.00  0.00    -0.142 OA 
HETATM   37  C   UNK A   2     -11.419   6.132  67.703  1.00  0.00     0.553 C  
ENDBRANCH  27  36
ENDBRANCH  17  19
ENDBRANCH  15  17
ENDBRANCH   6  15
ENDBRANCH   4   6
ENDBRANCH   3   4
ENDBRANCH   2   3
TORSDOF 11
ENDMDL
MODEL      260
REMARK 921   NORMALIZED FREE ENERGY PREDICTED BY IDOCK:   10.36 KCAL/MOL
REMARK 922        TOTAL FREE ENERGY PREDICTED BY IDOCK:   15.12 KCAL/MOL
REMARK 923 INTER-LIGAND FREE ENERGY PREDICTED BY IDOCK:   13.79 KCAL/MOL
REMARK 924 INTRA-LIGAND FREE ENERGY PREDICTED BY IDOCK:    1.33 KCAL/MOL
REMARK 927      BINDING AFFINITY PREDICTED BY RF-SCORE:    0.00 PKD
ROOT
HETATM    1  C   UNK A   0     -10.454   6.183  70.692  1.00  0.00    -0.292 C  
HETATM    2  C   UNK A   0     -10.397   7.676  70.952  1.00  0.00    -0.201 C  
ENDROOT
BRANCH   2   3
HETATM    3  O   UNK A   0     -10.842   8.361  69.777  1.00  0.00    -0.238 OA 
BRANCH   3   4
HETATM    4  C   UNK A   0     -10.802   9.724  69.808  1.00  0.00    -0.257 C  
HETATM    5  O   UNK A   0     -10.669  10.419  70.811  1.00  0.00    -0.123 OA 
BRANCH   4   6
HETATM    6  C   UNK A   0     -10.873  10.254  68.375  1.00  0.00    -0.245 C  
BRANCH   6   7
HETATM    7  C   UNK A   0     -10.444   9.158  67.397  1.00  0.00    -0.339 C  
BRANCH   7   8
HETATM    8  C   UNK A   0      -9.351   8.152  67.790  1.00  0.00    -0.149 C  
BRANCH   8   9
HETATM    9  C   UNK A   0      -9.821   6.700  67.603  1.00  0.00    -0.150 A  
HETATM   10  C   UNK A   0      -9.049   5.642  68.104  1.00  0.00    -0.111 A  
HETATM   11  C   UNK A   0      -9.520   4.318  68.046  1.00  0.00    -0.212 A  
HETATM   12  C   UNK A   0     -11.056   6.367  67.007  1.00  0.00    -0.405 A  
HETATM   13  C   UNK A   0     -10.769   4.030  67.495  1.00  0.00     1.822 A  
HETATM   14  C   UNK A   0     -11.533   5.057  66.966  1.00  0.00     2.459 A  
ENDBRANCH   8   9
ENDBRANCH   7   8
ENDBRANCH   6   7
BRANCH   6  15
ATOM     15  N   ALA A   1     -10.012  11.454  68.228  1.00  0.00    -0.192 NA 
ATOM     16  H   ALA A   1      -9.253  11.606  68.892  1.00  0.00     0.000 HD 
BRANCH  15  17
ATOM     17  CA  ALA A   1     -10.231  12.444  67.133  1.00  0.00    -0.216 C  
ATOM     18  CB  ALA A   1     -11.576  12.513  66.390  1.00  0.00    -0.449 C  
BRANCH  17  19
ATOM     19  C   ALA A   1      -9.595  13.857  67.352  1.00  0.00    -0.235 C  
ATOM     20  O   ALA A   1      -9.261  14.516  66.360  1.00  0.00    -0.274 OA 
HETATM   21  C   UNK A   2     -10.648  14.496  70.803  1.00  0.00     0.734 A  
HETATM   22  C   UNK A   2     -11.110  13.800  71.927  1.00  0.00     3.346 A  
HETATM   23  N   UNK A   2      -9.525  14.434  68.610  1.00  0.00    -0.204 N  
HETATM   24  C   UNK A   2     -11.945  14.418  72.841  1.00  0.00     0.240 A  
HETATM   25  C   UNK A   2      -9.766  13.757  69.859  1.00  0.00     1.622 C  
HETATM   26  O   UNK A   2      -7.270  17.264  69.151  1.00  0.00    -0.242 OA 
HETATM   27  C   UNK A   2     -12.349  15.737  72.627  1.00  0.00    -0.461 A  
HETATM   28  C   UNK A   2     -11.875  16.439  71.500  1.00  0.00    -0.289 A  
HETATM   29  O   UNK A   2      -7.541  15.521  70.538  1.00  0.00     0.594 OA 
HETATM   30  C   UNK A   2      -7.933  16.167  69.570  1.00  0.00     0.021 C  
HETATM   31  C   UNK A   2     -10.993  15.830  70.598  1.00  0.00    -0.341 A  
HETATM   32  C   UNK A   2      -9.221  15.866  68.760  1.00  0.00    -0.218 C  
HETATM   33  C   UNK A   2     -10.447  16.563  69.392  1.00  0.00    -0.320 C  
BRANCH  24  34
HETATM   34  O   UNK A   2     -12.379  13.822  73.999  1.00  0.00     1.047 OA 
HETATM   35  C   UNK A   2     -13.254  12.731  73.792  1.00  0.00     6.624 C  
ENDBRANCH  24  34
BRANCH  27  36
HETATM   36  O   UNK A   2     -13.214  16.225  73.559  1.00  0.00    -0.598 OA 
HETATM   37  C   UNK A   2     -14.408  16.823  73.095  1.00  0.00     2.046 C  
ENDBRANCH  27  36
ENDBRANCH  17  19
ENDBRANCH  15  17
ENDBRANCH   6  15
ENDBRANCH   4   6
ENDBRANCH   3   4
ENDBRANCH   2   3
TORSDOF 11
ENDMDL
MODEL      261
REMARK 921   NORMALIZED FREE ENERGY PREDICTED BY IDOCK:   11.32 KCAL/MOL
REMARK 922        TOTAL FREE ENERGY PREDICTED BY IDOCK:   16.70 KCAL/MOL
REMARK 923 INTER-LIGAND FREE ENERGY PREDICTED BY IDOCK:   13.26 KCAL/MOL
REMARK 924 INTRA-LIGAND FREE ENERGY PREDICTED BY IDOCK:    3.44 KCAL/MOL
REMARK 927      BINDING AFFINITY PREDICTED BY RF-SCORE:    0.00 PKD
ROOT
HETATM    1  C   UNK A   0     -11.230   4.770  70.395  1.00  0.00     1.856 C  
HETATM    2  C   UNK A   0     -12.007   6.056  70.195  1.00  0.00     0.666 C  
ENDROOT
BRANCH   2   3
HETATM    3  O   UNK A   0     -12.131   6.301  68.790  1.00  0.00     0.906 OA 
BRANCH   3   4
HETATM    4  C   UNK A   0     -12.187   7.605  68.396  1.00  0.00     3.653 C  
HETATM    5  O   UNK A   0     -13.022   8.431  68.754  1.00  0.00     5.757 OA 
BRANCH   4   6
HETATM    6  C   UNK A   0     -10.993   7.900  67.488  1.00  0.00     0.065 C  
BRANCH   6   7
HETATM    7  C   UNK A   0     -11.337   9.049  66.538  1.00  0.00     2.006 C  
BRANCH   7   8
HETATM    8  C   UNK A   0     -10.471  10.318  66.510  1.00  0.00    -0.241 C  
BRANCH   8   9
HETATM    9  C   UNK A   0     -11.103  11.420  65.645  1.00  0.00    -0.207 A  
HETATM   10  C   UNK A   0     -10.611  12.731  65.706  1.00  0.00    -0.295 A  
HETATM   11  C   UNK A   0     -11.100  13.724  64.837  1.00  0.00    -0.364 A  
HETATM   12  C   UNK A   0     -12.131  11.163  64.711  1.00  0.00     1.137 A  
HETATM   13  C   UNK A   0     -12.080  13.423  63.891  1.00  0.00    -0.514 A  
HETATM   14  C   UNK A   0     -12.603  12.142  63.837  1.00  0.00    -0.545 A  
ENDBRANCH   8   9
ENDBRANCH   7   8
ENDBRANCH   6   7
BRANCH   6  15
ATOM     15  N   ALA A   1     -10.615   6.684  66.726  1.00  0.00    -0.457 NA 
ATOM     16  H   ALA A   1     -11.349   6.082  66.354  1.00  0.00     0.000 HD 
BRANCH  15  17
ATOM     17  CA  ALA A   1      -9.187   6.320  66.491  1.00  0.00    -0.154 C  
ATOM     18  CB  ALA A   1      -8.773   5.522  65.243  1.00  0.00    -0.136 C  
BRANCH  17  19
ATOM     19  C   ALA A   1      -8.132   7.405  66.886  1.00  0.00    -0.120 C  
ATOM     20  O   ALA A   1      -7.309   7.768  66.036  1.00  0.00    -0.071 OA 
HETATM   21  C   UNK A   2      -9.740   8.795  69.870  1.00  0.00    -0.183 A  
HETATM   22  C   UNK A   2     -10.725   8.462  70.808  1.00  0.00    -0.244 A  
HETATM   23  N   UNK A   2      -8.183   8.057  68.108  1.00  0.00    -0.125 N  
HETATM   24  C   UNK A   2     -11.463   9.452  71.433  1.00  0.00    -0.379 A  
HETATM   25  C   UNK A   2      -9.000   7.673  69.230  1.00  0.00    -0.135 C  
HETATM   26  O   UNK A   2      -5.234   9.874  69.286  1.00  0.00    -0.036 OA 
HETATM   27  C   UNK A   2     -11.239  10.791  71.108  1.00  0.00     0.704 A  
HETATM   28  C   UNK A   2     -10.240  11.125  70.170  1.00  0.00     0.942 A  
HETATM   29  O   UNK A   2      -6.535   8.537  70.534  1.00  0.00    -0.035 OA 
HETATM   30  C   UNK A   2      -6.363   9.165  69.493  1.00  0.00    -0.043 C  
HETATM   31  C   UNK A   2      -9.461  10.128  69.570  1.00  0.00    -0.235 A  
HETATM   32  C   UNK A   2      -7.392   9.277  68.338  1.00  0.00    -0.077 C  
HETATM   33  C   UNK A   2      -8.365  10.453  68.578  1.00  0.00    -0.124 C  
BRANCH  24  34
HETATM   34  O   UNK A   2     -12.392   9.204  72.412  1.00  0.00    -0.329 OA 
HETATM   35  C   UNK A   2     -13.721   9.125  71.937  1.00  0.00    -0.424 C  
ENDBRANCH  24  34
BRANCH  27  36
HETATM   36  O   UNK A   2     -12.059  11.674  71.742  1.00  0.00     0.310 OA 
HETATM   37  C   UNK A   2     -11.967  13.035  71.370  1.00  0.00     0.733 C  
ENDBRANCH  27  36
ENDBRANCH  17  19
ENDBRANCH  15  17
ENDBRANCH   6  15
ENDBRANCH   4   6
ENDBRANCH   3   4
ENDBRANCH   2   3
TORSDOF 11
ENDMDL
MODEL      262
REMARK 921   NORMALIZED FREE ENERGY PREDICTED BY IDOCK:   11.51 KCAL/MOL
REMARK 922        TOTAL FREE ENERGY PREDICTED BY IDOCK:   17.00 KCAL/MOL
REMARK 923 INTER-LIGAND FREE ENERGY PREDICTED BY IDOCK:   15.28 KCAL/MOL
REMARK 924 INTRA-LIGAND FREE ENERGY PREDICTED BY IDOCK:    1.73 KCAL/MOL
REMARK 927      BINDING AFFINITY PREDICTED BY RF-SCORE:    0.00 PKD
ROOT
HETATM    1  C   UNK A   0      -8.328   6.745  68.202  1.00  0.00    -0.118 C  
HETATM    2  C   UNK A   0      -8.948   7.883  68.990  1.00  0.00    -0.145 C  
ENDROOT
BRANCH   2   3
HETATM    3  O   UNK A   0      -9.317   8.922  68.079  1.00  0.00    -0.141 OA 
BRANCH   3   4
HETATM    4  C   UNK A   0     -10.274   9.798  68.500  1.00  0.00    -0.186 C  
HETATM    5  O   UNK A   0     -10.166  10.590  69.432  1.00  0.00    -0.220 OA 
BRANCH   4   6
HETATM    6  C   UNK A   0     -11.486   9.690  67.575  1.00  0.00     0.925 C  
BRANCH   6   7
HETATM    7  C   UNK A   0     -11.023   9.372  66.152  1.00  0.00     0.906 C  
BRANCH   7   8
HETATM    8  C   UNK A   0      -9.647   8.732  65.909  1.00  0.00    -0.255 C  
BRANCH   8   9
HETATM    9  C   UNK A   0      -8.823   9.529  64.885  1.00  0.00    -0.240 A  
HETATM   10  C   UNK A   0      -8.826  10.931  64.917  1.00  0.00    -0.127 A  
HETATM   11  C   UNK A   0      -7.987  11.672  64.064  1.00  0.00     1.777 A  
HETATM   12  C   UNK A   0      -7.980   8.911  63.935  1.00  0.00    -0.154 A  
HETATM   13  C   UNK A   0      -7.129  11.028  63.173  1.00  0.00     0.520 A  
HETATM   14  C   UNK A   0      -7.134   9.644  63.102  1.00  0.00    -0.107 A  
ENDBRANCH   8   9
ENDBRANCH   7   8
ENDBRANCH   6   7
BRANCH   6  15
ATOM     15  N   ALA A   1     -12.268  10.951  67.603  1.00  0.00    -0.001 NA 
ATOM     16  H   ALA A   1     -12.754  11.215  68.459  1.00  0.00     0.000 HD 
BRANCH  15  17
ATOM     17  CA  ALA A   1     -12.360  11.841  66.409  1.00  0.00     1.371 C  
ATOM     18  CB  ALA A   1     -13.206  11.437  65.189  1.00  0.00     4.303 C  
BRANCH  17  19
ATOM     19  C   ALA A   1     -12.429  13.376  66.704  1.00  0.00    -0.153 C  
ATOM     20  O   ALA A   1     -13.525  13.945  66.625  1.00  0.00     1.239 OA 
HETATM   21  C   UNK A   2      -9.268  13.817  68.503  1.00  0.00    -0.138 A  
HETATM   22  C   UNK A   2      -8.042  13.165  68.688  1.00  0.00    -0.014 A  
HETATM   23  N   UNK A   2     -11.330  14.074  67.177  1.00  0.00    -0.316 N  
HETATM   24  C   UNK A   2      -7.334  13.323  69.867  1.00  0.00     0.942 A  
HETATM   25  C   UNK A   2      -9.976  13.583  67.214  1.00  0.00    -0.236 C  
HETATM   26  O   UNK A   2     -11.319  17.728  66.985  1.00  0.00     0.316 OA 
HETATM   27  C   UNK A   2      -7.858  14.121  70.886  1.00  0.00     3.124 A  
HETATM   28  C   UNK A   2      -9.087  14.784  70.694  1.00  0.00     1.908 A  
HETATM   29  O   UNK A   2      -9.594  16.384  66.482  1.00  0.00    -0.240 OA 
HETATM   30  C   UNK A   2     -10.700  16.529  66.994  1.00  0.00    -0.191 C  
HETATM   31  C   UNK A   2      -9.784  14.661  69.485  1.00  0.00     0.108 A  
HETATM   32  C   UNK A   2     -11.489  15.424  67.743  1.00  0.00    -0.278 C  
HETATM   33  C   UNK A   2     -11.093  15.378  69.236  1.00  0.00    -0.280 C  
BRANCH  24  34
HETATM   34  O   UNK A   2      -6.097  12.774  70.090  1.00  0.00    -0.145 OA 
HETATM   35  C   UNK A   2      -5.409  12.407  68.910  1.00  0.00    -0.054 C  
ENDBRANCH  24  34
BRANCH  27  36
HETATM   36  O   UNK A   2      -7.104  14.160  72.020  1.00  0.00     1.720 OA 
HETATM   37  C   UNK A   2      -5.699  14.123  71.873  1.00  0.00    -0.144 C  
ENDBRANCH  27  36
ENDBRANCH  17  19
ENDBRANCH  15  17
ENDBRANCH   6  15
ENDBRANCH   4   6
ENDBRANCH   3   4
ENDBRANCH   2   3
TORSDOF 11
ENDMDL
MODEL      263
REMARK 921   NORMALIZED FREE ENERGY PREDICTED BY IDOCK:   12.26 KCAL/MOL
REMARK 922        TOTAL FREE ENERGY PREDICTED BY IDOCK:   18.24 KCAL/MOL
REMARK 923 INTER-LIGAND FREE ENERGY PREDICTED BY IDOCK:    1.36 KCAL/MOL
REMARK 924 INTRA-LIGAND FREE ENERGY PREDICTED BY IDOCK:   16.87 KCAL/MOL
REMARK 927      BINDING AFFINITY PREDICTED BY RF-SCORE:    0.00 PKD
ROOT
HETATM    1  C   UNK A   0      -5.813  12.416  66.879  1.00  0.00     0.182 C  
HETATM    2  C   UNK A   0      -7.187  11.785  67.000  1.00  0.00    -0.134 C  
ENDROOT
BRANCH   2   3
HETATM    3  O   UNK A   0      -7.061  10.546  67.705  1.00  0.00    -0.082 OA 
BRANCH   3   4
HETATM    4  C   UNK A   0      -8.029  10.260  68.623  1.00  0.00    -0.111 C  
HETATM    5  O   UNK A   0      -8.834   9.337  68.556  1.00  0.00    -0.128 OA 
BRANCH   4   6
HETATM    6  C   UNK A   0      -7.903  11.234  69.794  1.00  0.00     0.634 C  
BRANCH   6   7
HETATM    7  C   UNK A   0      -9.060  12.235  69.761  1.00  0.00     2.346 C  
BRANCH   7   8
HETATM    8  C   UNK A   0      -8.793  13.719  69.464  1.00  0.00     1.032 C  
BRANCH   8   9
HETATM    9  C   UNK A   0      -9.329  14.128  68.083  1.00  0.00    -0.206 A  
HETATM   10  C   UNK A   0     -10.108  13.231  67.337  1.00  0.00    -0.233 A  
HETATM   11  C   UNK A   0     -10.703  13.631  66.127  1.00  0.00    -0.286 A  
HETATM   12  C   UNK A   0      -9.140  15.418  67.541  1.00  0.00    -0.199 A  
HETATM   13  C   UNK A   0     -10.538  14.929  65.645  1.00  0.00    -0.358 A  
HETATM   14  C   UNK A   0      -9.745  15.821  66.350  1.00  0.00    -0.305 A  
ENDBRANCH   8   9
ENDBRANCH   7   8
ENDBRANCH   6   7
BRANCH   6  15
ATOM     15  N   ALA A   1      -6.598  11.938  69.740  1.00  0.00    -0.310 NA 
ATOM     16  H   ALA A   1      -6.358  12.475  68.906  1.00  0.00     0.000 HD 
BRANCH  15  17
ATOM     17  CA  ALA A   1      -5.629  11.881  70.873  1.00  0.00    -0.071 C  
ATOM     18  CB  ALA A   1      -5.144  13.169  71.560  1.00  0.00    -0.172 C  
BRANCH  17  19
ATOM     19  C   ALA A   1      -5.827  10.702  71.882  1.00  0.00     0.654 C  
ATOM     20  O   ALA A   1      -5.771  10.944  73.094  1.00  0.00     0.394 OA 
HETATM   21  C   UNK A   2      -7.419   8.245  69.679  1.00  0.00    -0.081 A  
HETATM   22  C   UNK A   2      -7.579   7.978  68.313  1.00  0.00    -0.109 A  
HETATM   23  N   UNK A   2      -6.193   9.436  71.455  1.00  0.00    -0.050 N  
HETATM   24  C   UNK A   2      -8.705   7.315  67.856  1.00  0.00    -0.123 A  
HETATM   25  C   UNK A   2      -6.188   8.976  70.090  1.00  0.00    -0.038 C  
HETATM   26  O   UNK A   2      -5.762   6.595  73.721  1.00  0.00    -0.053 OA 
HETATM   27  C   UNK A   2      -9.697   6.931  68.760  1.00  0.00    -0.137 A  
HETATM   28  C   UNK A   2      -9.528   7.193  70.135  1.00  0.00    -0.161 A  
HETATM   29  O   UNK A   2      -5.255   6.616  71.535  1.00  0.00    -0.025 OA 
HETATM   30  C   UNK A   2      -5.816   7.145  72.491  1.00  0.00    -0.041 C  
HETATM   31  C   UNK A   2      -8.370   7.823  70.606  1.00  0.00    -0.124 A  
HETATM   32  C   UNK A   2      -6.678   8.433  72.419  1.00  0.00    -0.088 C  
HETATM   33  C   UNK A   2      -8.147   8.096  72.077  1.00  0.00    -0.178 C  
BRANCH  24  34
HETATM   34  O   UNK A   2      -8.895   6.957  66.544  1.00  0.00    -0.129 OA 
HETATM   35  C   UNK A   2      -7.921   6.064  66.044  1.00  0.00    -0.109 C  
ENDBRANCH  24  34
BRANCH  27  36
HETATM   36  O   UNK A   2     -10.783   6.337  68.192  1.00  0.00    -0.233 OA 
HETATM   37  C   UNK A   2     -10.701   4.953  67.912  1.00  0.00     0.392 C  
ENDBRANCH  27  36
ENDBRANCH  17  19
ENDBRANCH  15  17
ENDBRANCH   6  15
ENDBRANCH   4   6
ENDBRANCH   3   4
ENDBRANCH   2   3
TORSDOF 11
ENDMDL
MODEL      264
REMARK 921   NORMALIZED FREE ENERGY PREDICTED BY IDOCK:   12.63 KCAL/MOL
REMARK 922        TOTAL FREE ENERGY PREDICTED BY IDOCK:   18.84 KCAL/MOL
REMARK 923 INTER-LIGAND FREE ENERGY PREDICTED BY IDOCK:   10.08 KCAL/MOL
REMARK 924 INTRA-LIGAND FREE ENERGY PREDICTED BY IDOCK:    8.76 KCAL/MOL
REMARK 927      BINDING AFFINITY PREDICTED BY RF-SCORE:    0.00 PKD
ROOT
HETATM    1  C   UNK A   0     -10.454   6.183  70.692  1.00  0.00    -0.292 C  
HETATM    2  C   UNK A   0     -10.397   7.676  70.952  1.00  0.00    -0.201 C  
ENDROOT
BRANCH   2   3
HETATM    3  O   UNK A   0     -10.842   8.361  69.777  1.00  0.00    -0.238 OA 
BRANCH   3   4
HETATM    4  C   UNK A   0     -10.802   9.724  69.808  1.00  0.00    -0.257 C  
HETATM    5  O   UNK A   0     -10.669  10.419  70.811  1.00  0.00    -0.123 OA 
BRANCH   4   6
HETATM    6  C   UNK A   0     -10.873  10.254  68.375  1.00  0.00    -0.245 C  
BRANCH   6   7
HETATM    7  C   UNK A   0     -10.444   9.158  67.397  1.00  0.00    -0.339 C  
BRANCH   7   8
HETATM    8  C   UNK A   0      -9.351   8.152  67.790  1.00  0.00    -0.149 C  
BRANCH   8   9
HETATM    9  C   UNK A   0      -8.339   8.766  68.771  1.00  0.00    -0.124 A  
HETATM   10  C   UNK A   0      -7.090   9.205  68.309  1.00  0.00    -0.077 A  
HETATM   11  C   UNK A   0      -6.201   9.875  69.169  1.00  0.00    -0.044 A  
HETATM   12  C   UNK A   0      -8.634   8.987  70.133  1.00  0.00    -0.169 A  
HETATM   13  C   UNK A   0      -6.545  10.122  70.498  1.00  0.00    -0.112 A  
HETATM   14  C   UNK A   0      -7.760   9.667  70.983  1.00  0.00     0.217 A  
ENDBRANCH   8   9
ENDBRANCH   7   8
ENDBRANCH   6   7
BRANCH   6  15
ATOM     15  N   ALA A   1     -10.012  11.454  68.228  1.00  0.00    -0.192 NA 
ATOM     16  H   ALA A   1      -9.253  11.606  68.892  1.00  0.00     0.000 HD 
BRANCH  15  17
ATOM     17  CA  ALA A   1     -10.231  12.444  67.133  1.00  0.00    -0.216 C  
ATOM     18  CB  ALA A   1     -11.576  12.513  66.390  1.00  0.00    -0.449 C  
BRANCH  17  19
ATOM     19  C   ALA A   1      -9.595  13.857  67.352  1.00  0.00    -0.235 C  
ATOM     20  O   ALA A   1      -9.261  14.516  66.360  1.00  0.00    -0.274 OA 
HETATM   21  C   UNK A   2     -10.648  14.496  70.803  1.00  0.00     0.734 A  
HETATM   22  C   UNK A   2     -11.110  13.800  71.927  1.00  0.00     3.346 A  
HETATM   23  N   UNK A   2      -9.525  14.434  68.610  1.00  0.00    -0.204 N  
HETATM   24  C   UNK A   2     -11.945  14.418  72.841  1.00  0.00     0.240 A  
HETATM   25  C   UNK A   2      -9.766  13.757  69.859  1.00  0.00     1.622 C  
HETATM   26  O   UNK A   2      -7.270  17.264  69.151  1.00  0.00    -0.242 OA 
HETATM   27  C   UNK A   2     -12.349  15.737  72.627  1.00  0.00    -0.461 A  
HETATM   28  C   UNK A   2     -11.875  16.439  71.500  1.00  0.00    -0.289 A  
HETATM   29  O   UNK A   2      -7.541  15.521  70.538  1.00  0.00     0.594 OA 
HETATM   30  C   UNK A   2      -7.933  16.167  69.570  1.00  0.00     0.021 C  
HETATM   31  C   UNK A   2     -10.993  15.830  70.598  1.00  0.00    -0.341 A  
HETATM   32  C   UNK A   2      -9.221  15.866  68.760  1.00  0.00    -0.218 C  
HETATM   33  C   UNK A   2     -10.447  16.563  69.392  1.00  0.00    -0.320 C  
BRANCH  24  34
HETATM   34  O   UNK A   2     -12.379  13.822  73.999  1.00  0.00     1.047 OA 
HETATM   35  C   UNK A   2     -13.254  12.731  73.792  1.00  0.00     6.624 C  
ENDBRANCH  24  34
BRANCH  27  36
HETATM   36  O   UNK A   2     -13.214  16.225  73.559  1.00  0.00    -0.598 OA 
HETATM   37  C   UNK A   2     -14.408  16.823  73.095  1.00  0.00     2.046 C  
ENDBRANCH  27  36
ENDBRANCH  17  19
ENDBRANCH  15  17
ENDBRANCH   6  15
ENDBRANCH   4   6
ENDBRANCH   3   4
ENDBRANCH   2   3
TORSDOF 11
ENDMDL
MODEL      265
REMARK 921   NORMALIZED FREE ENERGY PREDICTED BY IDOCK:   14.85 KCAL/MOL
REMARK 922        TOTAL FREE ENERGY PREDICTED BY IDOCK:   22.50 KCAL/MOL
REMARK 923 INTER-LIGAND FREE ENERGY PREDICTED BY IDOCK:    4.56 KCAL/MOL
REMARK 924 INTRA-LIGAND FREE ENERGY PREDICTED BY IDOCK:   17.94 KCAL/MOL
REMARK 927      BINDING AFFINITY PREDICTED BY RF-SCORE:    0.00 PKD
ROOT
HETATM    1  C   UNK A   0      -5.443  13.650  67.116  1.00  0.00     0.718 C  
HETATM    2  C   UNK A   0      -6.887  13.191  67.157  1.00  0.00     0.193 C  
ENDROOT
BRANCH   2   3
HETATM    3  O   UNK A   0      -7.185  12.739  68.482  1.00  0.00    -0.103 OA 
BRANCH   3   4
HETATM    4  C   UNK A   0      -8.413  13.061  68.980  1.00  0.00     0.454 C  
HETATM    5  O   UNK A   0      -8.632  13.794  69.940  1.00  0.00     1.325 OA 
BRANCH   4   6
HETATM    6  C   UNK A   0      -9.487  12.421  68.100  1.00  0.00    -0.214 C  
BRANCH   6   7
HETATM    7  C   UNK A   0     -10.827  12.416  68.841  1.00  0.00    -0.239 C  
BRANCH   7   8
HETATM    8  C   UNK A   0     -11.531  11.088  69.159  1.00  0.00    -0.370 C  
BRANCH   8   9
HETATM    9  C   UNK A   0     -10.536  10.013  69.624  1.00  0.00    -0.278 A  
HETATM   10  C   UNK A   0     -10.601   8.717  69.091  1.00  0.00    -0.200 A  
HETATM   11  C   UNK A   0      -9.626   7.757  69.418  1.00  0.00    -0.156 A  
HETATM   12  C   UNK A   0      -9.485  10.284  70.526  1.00  0.00     0.633 A  
HETATM   13  C   UNK A   0      -8.571   8.073  70.274  1.00  0.00    -0.132 A  
HETATM   14  C   UNK A   0      -8.507   9.337  70.836  1.00  0.00    -0.203 A  
ENDBRANCH   8   9
ENDBRANCH   7   8
ENDBRANCH   6   7
BRANCH   6  15
ATOM     15  N   ALA A   1      -9.090  11.042  67.725  1.00  0.00    -0.145 NA 
ATOM     16  H   ALA A   1      -8.748  10.409  68.449  1.00  0.00     0.000 HD 
BRANCH  15  17
ATOM     17  CA  ALA A   1      -9.177  10.557  66.317  1.00  0.00    -0.168 C  
ATOM     18  CB  ALA A   1      -9.201   9.052  66.002  1.00  0.00    -0.284 C  
BRANCH  17  19
ATOM     19  C   ALA A   1     -10.105  11.383  65.367  1.00  0.00    -0.261 C  
ATOM     20  O   ALA A   1     -10.670  10.797  64.434  1.00  0.00    -0.301 OA 
HETATM   21  C   UNK A   2     -10.679  14.339  67.454  1.00  0.00    -0.282 A  
HETATM   22  C   UNK A   2     -10.122  14.992  68.561  1.00  0.00    -0.225 A  
HETATM   23  N   UNK A   2     -10.412  12.709  65.624  1.00  0.00    -0.270 N  
HETATM   24  C   UNK A   2     -10.921  15.732  69.415  1.00  0.00    -0.296 A  
HETATM   25  C   UNK A   2      -9.756  13.550  66.592  1.00  0.00    -0.280 C  
HETATM   26  O   UNK A   2     -11.817  14.769  62.946  1.00  0.00     1.315 OA 
HETATM   27  C   UNK A   2     -12.295  15.809  69.183  1.00  0.00     0.074 A  
HETATM   28  C   UNK A   2     -12.852  15.159  68.062  1.00  0.00     1.729 A  
HETATM   29  O   UNK A   2     -10.214  15.403  64.383  1.00  0.00     0.049 OA 
HETATM   30  C   UNK A   2     -11.092  14.603  64.071  1.00  0.00     0.509 C  
HETATM   31  C   UNK A   2     -12.039  14.447  67.172  1.00  0.00    -0.367 A  
HETATM   32  C   UNK A   2     -11.518  13.373  64.914  1.00  0.00    -0.325 C  
HETATM   33  C   UNK A   2     -12.601  13.759  65.947  1.00  0.00    -0.494 C  
BRANCH  24  34
HETATM   34  O   UNK A   2     -10.434  16.454  70.476  1.00  0.00     0.074 OA 
HETATM   35  C   UNK A   2     -10.061  15.663  71.587  1.00  0.00     2.157 C  
ENDBRANCH  24  34
BRANCH  27  36
HETATM   36  O   UNK A   2     -12.990  16.516  70.116  1.00  0.00     1.082 OA 
HETATM   37  C   UNK A   2     -13.106  15.956  71.409  1.00  0.00    -0.163 C  
ENDBRANCH  27  36
ENDBRANCH  17  19
ENDBRANCH  15  17
ENDBRANCH   6  15
ENDBRANCH   4   6
ENDBRANCH   3   4
ENDBRANCH   2   3
TORSDOF 11
ENDMDL
MODEL      266
REMARK 921   NORMALIZED FREE ENERGY PREDICTED BY IDOCK:   19.85 KCAL/MOL
REMARK 922        TOTAL FREE ENERGY PREDICTED BY IDOCK:   30.72 KCAL/MOL
REMARK 923 INTER-LIGAND FREE ENERGY PREDICTED BY IDOCK:   22.81 KCAL/MOL
REMARK 924 INTRA-LIGAND FREE ENERGY PREDICTED BY IDOCK:    7.90 KCAL/MOL
REMARK 927      BINDING AFFINITY PREDICTED BY RF-SCORE:    0.00 PKD
ROOT
HETATM    1  C   UNK A   0     -10.093  14.721  64.922  1.00  0.00    -0.213 C  
HETATM    2  C   UNK A   0     -11.535  15.190  64.955  1.00  0.00    -0.374 C  
ENDROOT
BRANCH   2   3
HETATM    3  O   UNK A   0     -11.971  15.232  66.318  1.00  0.00     0.066 OA 
BRANCH   3   4
HETATM    4  C   UNK A   0     -11.200  14.573  67.230  1.00  0.00    -0.332 C  
HETATM    5  O   UNK A   0     -10.617  13.509  67.046  1.00  0.00    -0.266 OA 
BRANCH   4   6
HETATM    6  C   UNK A   0     -11.114  15.413  68.504  1.00  0.00    -0.295 C  
BRANCH   6   7
HETATM    7  C   UNK A   0     -10.243  16.645  68.254  1.00  0.00    -0.281 C  
BRANCH   7   8
HETATM    8  C   UNK A   0     -10.887  17.983  67.858  1.00  0.00    -0.227 C  
BRANCH   8   9
HETATM    9  C   UNK A   0     -10.465  19.119  68.803  1.00  0.00    -0.059 A  
HETATM   10  C   UNK A   0      -9.267  19.812  68.579  1.00  0.00    -0.334 A  
HETATM   11  C   UNK A   0      -8.925  20.929  69.363  1.00  0.00     2.149 A  
HETATM   12  C   UNK A   0     -11.275  19.567  69.869  1.00  0.00     3.309 A  
HETATM   13  C   UNK A   0      -9.773  21.376  70.376  1.00  0.00     3.385 A  
HETATM   14  C   UNK A   0     -10.946  20.686  70.635  1.00  0.00     3.361 A  
ENDBRANCH   8   9
ENDBRANCH   7   8
ENDBRANCH   6   7
BRANCH   6  15
ATOM     15  N   ALA A   1     -10.566  14.601  69.619  1.00  0.00    -0.417 NA 
ATOM     16  H   ALA A   1     -11.169  13.920  70.081  1.00  0.00     0.000 HD 
BRANCH  15  17
ATOM     17  CA  ALA A   1      -9.156  14.755  70.080  1.00  0.00     0.848 C  
ATOM     18  CB  ALA A   1      -8.830  14.931  71.573  1.00  0.00     4.273 C  
BRANCH  17  19
ATOM     19  C   ALA A   1      -8.093  13.883  69.334  1.00  0.00     0.500 C  
ATOM     20  O   ALA A   1      -6.901  14.200  69.420  1.00  0.00    -0.120 OA 
HETATM   21  C   UNK A   2     -10.056  10.839  68.774  1.00  0.00    -0.202 A  
HETATM   22  C   UNK A   2     -11.391  10.416  68.750  1.00  0.00    -0.275 A  
HETATM   23  N   UNK A   2      -8.441  12.700  68.701  1.00  0.00    -0.030 N  
HETATM   24  C   UNK A   2     -11.720   9.113  69.079  1.00  0.00     0.958 A  
HETATM   25  C   UNK A   2      -9.784  12.260  68.423  1.00  0.00    -0.191 C  
HETATM   26  O   UNK A   2      -6.129  11.227  66.278  1.00  0.00    -0.141 OA 
HETATM   27  C   UNK A   2     -10.716   8.221  69.460  1.00  0.00    -0.174 A  
HETATM   28  C   UNK A   2      -9.372   8.647  69.475  1.00  0.00    -0.153 A  
HETATM   29  O   UNK A   2      -8.351  11.407  66.026  1.00  0.00    -0.129 OA 
HETATM   30  C   UNK A   2      -7.367  11.463  66.758  1.00  0.00    -0.135 C  
HETATM   31  C   UNK A   2      -9.031   9.952  69.099  1.00  0.00    -0.170 A  
HETATM   32  C   UNK A   2      -7.404  11.743  68.283  1.00  0.00    -0.095 C  
HETATM   33  C   UNK A   2      -7.597  10.433  69.080  1.00  0.00    -0.117 C  
BRANCH  24  34
HETATM   34  O   UNK A   2     -12.995   8.611  69.008  1.00  0.00     4.574 OA 
HETATM   35  C   UNK A   2     -13.120   7.288  69.490  1.00  0.00     4.089 C  
ENDBRANCH  24  34
BRANCH  27  36
HETATM   36  O   UNK A   2     -11.161   6.984  69.815  1.00  0.00    -0.262 OA 
HETATM   37  C   UNK A   2     -11.449   6.069  68.777  1.00  0.00     0.296 C  
ENDBRANCH  27  36
ENDBRANCH  17  19
ENDBRANCH  15  17
ENDBRANCH   6  15
ENDBRANCH   4   6
ENDBRANCH   3   4
ENDBRANCH   2   3
TORSDOF 11
ENDMDL
MODEL      267
REMARK 921   NORMALIZED FREE ENERGY PREDICTED BY IDOCK:   20.67 KCAL/MOL
REMARK 922        TOTAL FREE ENERGY PREDICTED BY IDOCK:   32.05 KCAL/MOL
REMARK 923 INTER-LIGAND FREE ENERGY PREDICTED BY IDOCK:    4.46 KCAL/MOL
REMARK 924 INTRA-LIGAND FREE ENERGY PREDICTED BY IDOCK:   27.59 KCAL/MOL
REMARK 927      BINDING AFFINITY PREDICTED BY RF-SCORE:    0.00 PKD
ROOT
HETATM    1  C   UNK A   0      -8.686  11.435  65.981  1.00  0.00    -0.131 C  
HETATM    2  C   UNK A   0      -8.456  11.984  67.375  1.00  0.00    -0.170 C  
ENDROOT
BRANCH   2   3
HETATM    3  O   UNK A   0      -8.710  13.393  67.359  1.00  0.00    -0.188 OA 
BRANCH   3   4
HETATM    4  C   UNK A   0      -7.624  14.211  67.249  1.00  0.00    -0.080 C  
HETATM    5  O   UNK A   0      -7.446  15.060  66.381  1.00  0.00     0.466 OA 
BRANCH   4   6
HETATM    6  C   UNK A   0      -6.688  13.953  68.430  1.00  0.00    -0.099 C  
BRANCH   6   7
HETATM    7  C   UNK A   0      -7.246  12.819  69.293  1.00  0.00     0.171 C  
BRANCH   7   8
HETATM    8  C   UNK A   0      -7.481  11.427  68.688  1.00  0.00    -0.119 C  
BRANCH   8   9
HETATM    9  C   UNK A   0      -6.781  10.327  69.502  1.00  0.00    -0.073 A  
HETATM   10  C   UNK A   0      -6.522   9.078  68.919  1.00  0.00    -0.048 A  
HETATM   11  C   UNK A   0      -5.779   8.103  69.609  1.00  0.00    -0.026 A  
HETATM   12  C   UNK A   0      -6.303  10.534  70.814  1.00  0.00     0.032 A  
HETATM   13  C   UNK A   0      -5.278   8.360  70.886  1.00  0.00    -0.028 A  
HETATM   14  C   UNK A   0      -5.550   9.575  71.492  1.00  0.00    -0.074 A  
ENDBRANCH   8   9
ENDBRANCH   7   8
ENDBRANCH   6   7
BRANCH   6  15
ATOM     15  N   ALA A   1      -6.521  15.190  69.233  1.00  0.00    -0.117 NA 
ATOM     16  H   ALA A   1      -6.083  15.130  70.152  1.00  0.00     0.000 HD 
BRANCH  15  17
ATOM     17  CA  ALA A   1      -6.977  16.518  68.729  1.00  0.00    -0.180 C  
ATOM     18  CB  ALA A   1      -6.454  17.076  67.394  1.00  0.00    -0.177 C  
BRANCH  17  19
ATOM     19  C   ALA A   1      -8.485  16.859  68.970  1.00  0.00    -0.142 C  
ATOM     20  O   ALA A   1      -8.920  17.942  68.559  1.00  0.00    -0.286 OA 
HETATM   21  C   UNK A   2      -9.785  13.508  69.682  1.00  0.00     1.249 A  
HETATM   22  C   UNK A   2      -9.326  12.241  70.065  1.00  0.00     3.241 A  
HETATM   23  N   UNK A   2      -9.362  15.930  69.506  1.00  0.00    -0.244 N  
HETATM   24  C   UNK A   2     -10.006  11.101  69.676  1.00  0.00     0.367 A  
HETATM   25  C   UNK A   2      -8.990  14.685  70.128  1.00  0.00     1.045 C  
HETATM   26  O   UNK A   2     -12.571  17.071  70.843  1.00  0.00     2.488 OA 
HETATM   27  C   UNK A   2     -11.144  11.214  68.875  1.00  0.00    -0.237 A  
HETATM   28  C   UNK A   2     -11.609  12.491  68.498  1.00  0.00    -0.364 A  
HETATM   29  O   UNK A   2     -11.212  15.567  71.804  1.00  0.00    -0.391 OA 
HETATM   30  C   UNK A   2     -11.520  16.226  70.815  1.00  0.00    -0.297 C  
HETATM   31  C   UNK A   2     -10.949  13.648  68.928  1.00  0.00    -0.281 A  
HETATM   32  C   UNK A   2     -10.817  16.148  69.436  1.00  0.00    -0.320 C  
HETATM   33  C   UNK A   2     -11.436  15.033  68.562  1.00  0.00    -0.335 C  
BRANCH  24  34
HETATM   34  O   UNK A   2      -9.656   9.835  70.072  1.00  0.00    -0.224 OA 
HETATM   35  C   UNK A   2      -8.733   9.197  69.212  1.00  0.00    -0.139 C  
ENDBRANCH  24  34
BRANCH  27  36
HETATM   36  O   UNK A   2     -11.699  10.026  68.506  1.00  0.00    -0.020 OA 
HETATM   37  C   UNK A   2     -11.135   9.358  67.395  1.00  0.00     0.192 C  
ENDBRANCH  27  36
ENDBRANCH  17  19
ENDBRANCH  15  17
ENDBRANCH   6  15
ENDBRANCH   4   6
ENDBRANCH   3   4
ENDBRANCH   2   3
TORSDOF 11
ENDMDL
MODEL      268
REMARK 921   NORMALIZED FREE ENERGY PREDICTED BY IDOCK:   21.07 KCAL/MOL
REMARK 922        TOTAL FREE ENERGY PREDICTED BY IDOCK:   32.71 KCAL/MOL
REMARK 923 INTER-LIGAND FREE ENERGY PREDICTED BY IDOCK:    9.96 KCAL/MOL
REMARK 924 INTRA-LIGAND FREE ENERGY PREDICTED BY IDOCK:   22.75 KCAL/MOL
REMARK 927      BINDING AFFINITY PREDICTED BY RF-SCORE:    0.00 PKD
ROOT
HETATM    1  C   UNK A   0      -5.474  13.650  67.131  1.00  0.00     0.718 C  
HETATM    2  C   UNK A   0      -6.901  13.173  67.313  1.00  0.00     0.013 C  
ENDROOT
BRANCH   2   3
HETATM    3  O   UNK A   0      -7.095  12.824  68.687  1.00  0.00    -0.092 OA 
BRANCH   3   4
HETATM    4  C   UNK A   0      -8.305  13.134  69.236  1.00  0.00     0.783 C  
HETATM    5  O   UNK A   0      -8.536  13.289  70.431  1.00  0.00     3.489 OA 
BRANCH   4   6
HETATM    6  C   UNK A   0      -9.321  13.334  68.111  1.00  0.00    -0.220 C  
BRANCH   6   7
HETATM    7  C   UNK A   0     -10.740  13.269  68.679  1.00  0.00    -0.281 C  
BRANCH   7   8
HETATM    8  C   UNK A   0     -11.702  12.154  68.238  1.00  0.00    -0.401 C  
BRANCH   8   9
HETATM    9  C   UNK A   0     -10.998  10.790  68.170  1.00  0.00    -0.308 A  
HETATM   10  C   UNK A   0     -11.176   9.961  67.053  1.00  0.00     0.276 A  
HETATM   11  C   UNK A   0     -10.449   8.764  66.922  1.00  0.00    -0.319 A  
HETATM   12  C   UNK A   0     -10.098  10.344  69.163  1.00  0.00    -0.236 A  
HETATM   13  C   UNK A   0      -9.530   8.379  67.898  1.00  0.00    -0.164 A  
HETATM   14  C   UNK A   0      -9.363   9.166  69.025  1.00  0.00    -0.151 A  
ENDBRANCH   8   9
ENDBRANCH   7   8
ENDBRANCH   6   7
BRANCH   6  15
ATOM     15  N   ALA A   1      -9.130  12.306  67.058  1.00  0.00    -0.195 NA 
ATOM     16  H   ALA A   1      -8.961  11.339  67.332  1.00  0.00     0.000 HD 
BRANCH  15  17
ATOM     17  CA  ALA A   1      -9.179  12.653  65.607  1.00  0.00     0.247 C  
ATOM     18  CB  ALA A   1      -9.279  11.553  64.537  1.00  0.00     0.063 C  
BRANCH  17  19
ATOM     19  C   ALA A   1     -10.011  13.926  65.237  1.00  0.00    -0.238 C  
ATOM     20  O   ALA A   1     -10.458  14.027  64.088  1.00  0.00    -0.142 OA 
HETATM   21  C   UNK A   2     -10.860  15.125  68.594  1.00  0.00    -0.245 A  
HETATM   22  C   UNK A   2     -10.440  14.975  69.922  1.00  0.00    -0.175 A  
HETATM   23  N   UNK A   2     -10.366  14.864  66.193  1.00  0.00    -0.288 N  
HETATM   24  C   UNK A   2     -11.341  15.116  70.963  1.00  0.00    -0.316 A  
HETATM   25  C   UNK A   2      -9.834  14.943  67.530  1.00  0.00    -0.217 C  
HETATM   26  O   UNK A   2     -11.499  18.171  65.113  1.00  0.00     0.309 OA 
HETATM   27  C   UNK A   2     -12.682  15.385  70.685  1.00  0.00    -0.437 A  
HETATM   28  C   UNK A   2     -13.101  15.544  69.348  1.00  0.00     0.925 A  
HETATM   29  O   UNK A   2     -10.076  17.759  66.799  1.00  0.00    -0.317 OA 
HETATM   30  C   UNK A   2     -10.901  17.340  65.991  1.00  0.00     0.011 C  
HETATM   31  C   UNK A   2     -12.183  15.448  68.295  1.00  0.00     0.209 A  
HETATM   32  C   UNK A   2     -11.397  15.874  65.903  1.00  0.00     0.191 C  
HETATM   33  C   UNK A   2     -12.594  15.637  66.852  1.00  0.00     1.987 C  
BRANCH  24  34
HETATM   34  O   UNK A   2     -10.987  15.053  72.287  1.00  0.00    -0.043 OA 
HETATM   35  C   UNK A   2     -10.720  13.745  72.751  1.00  0.00     6.446 C  
ENDBRANCH  24  34
BRANCH  27  36
HETATM   36  O   UNK A   2     -13.487  15.447  71.782  1.00  0.00    -0.419 OA 
HETATM   37  C   UNK A   2     -13.730  14.244  72.484  1.00  0.00    -0.505 C  
ENDBRANCH  27  36
ENDBRANCH  17  19
ENDBRANCH  15  17
ENDBRANCH   6  15
ENDBRANCH   4   6
ENDBRANCH   3   4
ENDBRANCH   2   3
TORSDOF 11
ENDMDL
MODEL      269
REMARK 921   NORMALIZED FREE ENERGY PREDICTED BY IDOCK:   25.90 KCAL/MOL
REMARK 922        TOTAL FREE ENERGY PREDICTED BY IDOCK:   40.65 KCAL/MOL
REMARK 923 INTER-LIGAND FREE ENERGY PREDICTED BY IDOCK:   22.76 KCAL/MOL
REMARK 924 INTRA-LIGAND FREE ENERGY PREDICTED BY IDOCK:   17.89 KCAL/MOL
REMARK 927      BINDING AFFINITY PREDICTED BY RF-SCORE:    0.00 PKD
ROOT
HETATM    1  C   UNK A   0      -7.491   6.634  68.906  1.00  0.00    -0.096 C  
HETATM    2  C   UNK A   0      -8.075   7.662  69.855  1.00  0.00    -0.124 C  
ENDROOT
BRANCH   2   3
HETATM    3  O   UNK A   0      -8.817   8.619  69.093  1.00  0.00    -0.135 OA 
BRANCH   3   4
HETATM    4  C   UNK A   0      -9.851   9.242  69.729  1.00  0.00    -0.188 C  
HETATM    5  O   UNK A   0      -9.749  10.115  70.585  1.00  0.00     0.093 OA 
BRANCH   4   6
HETATM    6  C   UNK A   0     -11.170   8.731  69.148  1.00  0.00     0.293 C  
BRANCH   6   7
HETATM    7  C   UNK A   0     -10.989   7.300  68.637  1.00  0.00    -0.033 C  
BRANCH   7   8
HETATM    8  C   UNK A   0      -9.875   6.407  69.208  1.00  0.00    -0.167 C  
BRANCH   8   9
HETATM    9  C   UNK A   0      -8.903   5.940  68.113  1.00  0.00    -0.110 A  
HETATM   10  C   UNK A   0      -8.469   6.839  67.127  1.00  0.00    -0.120 A  
HETATM   11  C   UNK A   0      -7.491   6.461  66.190  1.00  0.00    -0.082 A  
HETATM   12  C   UNK A   0      -8.347   4.643  68.087  1.00  0.00    -0.094 A  
HETATM   13  C   UNK A   0      -6.926   5.186  66.225  1.00  0.00    -0.067 A  
HETATM   14  C   UNK A   0      -7.363   4.273  67.170  1.00  0.00    -0.069 A  
ENDBRANCH   8   9
ENDBRANCH   7   8
ENDBRANCH   6   7
BRANCH   6  15
ATOM     15  N   ALA A   1     -11.631   9.623  68.056  1.00  0.00    -0.227 NA 
ATOM     16  H   ALA A   1     -11.946  10.566  68.284  1.00  0.00     0.000 HD 
BRANCH  15  17
ATOM     17  CA  ALA A   1     -11.646   9.176  66.633  1.00  0.00     3.127 C  
ATOM     18  CB  ALA A   1     -12.750   8.239  66.114  1.00  0.00    14.752 C  
BRANCH  17  19
ATOM     19  C   ALA A   1     -11.224  10.247  65.575  1.00  0.00     1.138 C  
ATOM     20  O   ALA A   1     -12.051  10.596  64.723  1.00  0.00     1.838 OA 
HETATM   21  C   UNK A   2      -8.293  11.670  67.250  1.00  0.00    -0.158 A  
HETATM   22  C   UNK A   2      -7.382  11.353  68.267  1.00  0.00    -0.089 A  
HETATM   23  N   UNK A   2     -10.006  10.904  65.653  1.00  0.00    -0.239 N  
HETATM   24  C   UNK A   2      -6.782  12.356  69.009  1.00  0.00    -0.100 A  
HETATM   25  C   UNK A   2      -8.907  10.535  66.508  1.00  0.00    -0.144 C  
HETATM   26  O   UNK A   2      -8.747  12.685  62.715  1.00  0.00     2.081 OA 
HETATM   27  C   UNK A   2      -7.105  13.690  68.757  1.00  0.00    -0.103 A  
HETATM   28  C   UNK A   2      -8.015  14.007  67.727  1.00  0.00    -0.175 A  
HETATM   29  O   UNK A   2      -7.534  11.371  64.070  1.00  0.00     1.115 OA 
HETATM   30  C   UNK A   2      -8.572  11.992  63.859  1.00  0.00     1.497 C  
HETATM   31  C   UNK A   2      -8.588  12.997  66.945  1.00  0.00    -0.126 A  
HETATM   32  C   UNK A   2      -9.757  12.114  64.852  1.00  0.00    -0.072 C  
HETATM   33  C   UNK A   2      -9.549  13.304  65.816  1.00  0.00    -0.068 C  
BRANCH  24  34
HETATM   34  O   UNK A   2      -5.831  12.124  69.970  1.00  0.00    -0.123 OA 
HETATM   35  C   UNK A   2      -5.194  10.867  69.858  1.00  0.00    -0.044 C  
ENDBRANCH  24  34
BRANCH  27  36
HETATM   36  O   UNK A   2      -6.499  14.587  69.584  1.00  0.00    -0.127 OA 
HETATM   37  C   UNK A   2      -5.180  14.301  70.004  1.00  0.00    -0.094 C  
ENDBRANCH  27  36
ENDBRANCH  17  19
ENDBRANCH  15  17
ENDBRANCH   6  15
ENDBRANCH   4   6
ENDBRANCH   3   4
ENDBRANCH   2   3
TORSDOF 11
ENDMDL
MODEL      270
REMARK 921   NORMALIZED FREE ENERGY PREDICTED BY IDOCK:   34.30 KCAL/MOL
REMARK 922        TOTAL FREE ENERGY PREDICTED BY IDOCK:   54.45 KCAL/MOL
REMARK 923 INTER-LIGAND FREE ENERGY PREDICTED BY IDOCK:   48.55 KCAL/MOL
REMARK 924 INTRA-LIGAND FREE ENERGY PREDICTED BY IDOCK:    5.90 KCAL/MOL
REMARK 927      BINDING AFFINITY PREDICTED BY RF-SCORE:    0.00 PKD
ROOT
HETATM    1  C   UNK A   0     -10.021   7.450  73.108  1.00  0.00    -0.318 C  
HETATM    2  C   UNK A   0     -10.670   8.809  73.283  1.00  0.00     1.696 C  
ENDROOT
BRANCH   2   3
HETATM    3  O   UNK A   0      -9.730   9.817  72.899  1.00  0.00     2.833 OA 
BRANCH   3   4
HETATM    4  C   UNK A   0      -8.594   9.392  72.275  1.00  0.00     1.477 C  
HETATM    5  O   UNK A   0      -8.133   8.255  72.312  1.00  0.00    -0.131 OA 
BRANCH   4   6
HETATM    6  C   UNK A   0      -8.019  10.547  71.454  1.00  0.00     3.968 C  
BRANCH   6   7
HETATM    7  C   UNK A   0      -6.498  10.592  71.619  1.00  0.00     1.254 C  
BRANCH   7   8
HETATM    8  C   UNK A   0      -5.680  11.717  70.965  1.00  0.00     0.065 C  
BRANCH   8   9
HETATM    9  C   UNK A   0      -6.048  11.900  69.484  1.00  0.00    -0.108 A  
HETATM   10  C   UNK A   0      -7.201  12.616  69.129  1.00  0.00     0.078 A  
HETATM   11  C   UNK A   0      -7.488  12.893  67.780  1.00  0.00    -0.136 A  
HETATM   12  C   UNK A   0      -5.229  11.441  68.430  1.00  0.00    -0.039 A  
HETATM   13  C   UNK A   0      -6.630  12.467  66.767  1.00  0.00     0.478 A  
HETATM   14  C   UNK A   0      -5.503  11.731  67.093  1.00  0.00    -0.118 A  
ENDBRANCH   8   9
ENDBRANCH   7   8
ENDBRANCH   6   7
BRANCH   6  15
ATOM     15  N   ALA A   1      -8.631  11.831  71.875  1.00  0.00    13.727 NA 
ATOM     16  H   ALA A   1      -8.164  12.395  72.585  1.00  0.00     0.000 HD 
BRANCH  15  17
ATOM     17  CA  ALA A   1      -9.912  12.319  71.285  1.00  0.00     9.978 C  
ATOM     18  CB  ALA A   1      -9.914  13.402  70.192  1.00  0.00     2.519 C  
BRANCH  17  19
ATOM     19  C   ALA A   1     -11.015  11.234  71.054  1.00  0.00     1.985 C  
ATOM     20  O   ALA A   1     -12.017  11.245  71.778  1.00  0.00     0.325 OA 
HETATM   21  C   UNK A   2     -10.124  10.136  67.673  1.00  0.00    -0.231 A  
HETATM   22  C   UNK A   2      -9.040  10.173  66.787  1.00  0.00    -0.159 A  
HETATM   23  N   UNK A   2     -10.957  10.356  69.983  1.00  0.00    -0.295 N  
HETATM   24  C   UNK A   2      -9.252  10.179  65.419  1.00  0.00    -0.202 A  
HETATM   25  C   UNK A   2      -9.815  10.148  69.130  1.00  0.00    -0.214 C  
HETATM   26  O   UNK A   2     -13.036   7.346  70.027  1.00  0.00     0.900 OA 
HETATM   27  C   UNK A   2     -10.556  10.173  64.921  1.00  0.00     0.474 A  
HETATM   28  C   UNK A   2     -11.645  10.126  65.815  1.00  0.00     2.473 A  
HETATM   29  O   UNK A   2     -10.886   7.444  69.391  1.00  0.00    -0.232 OA 
HETATM   30  C   UNK A   2     -11.929   8.029  69.670  1.00  0.00     1.057 C  
HETATM   31  C   UNK A   2     -11.433  10.074  67.198  1.00  0.00     0.756 A  
HETATM   32  C   UNK A   2     -12.137   9.564  69.600  1.00  0.00     0.611 C  
HETATM   33  C   UNK A   2     -12.579   9.998  68.184  1.00  0.00     4.257 C  
BRANCH  24  34
HETATM   34  O   UNK A   2      -8.239  10.143  64.494  1.00  0.00    -0.153 OA 
HETATM   35  C   UNK A   2      -7.779   8.841  64.194  1.00  0.00    -0.130 C  
ENDBRANCH  24  34
BRANCH  27  36
HETATM   36  O   UNK A   2     -10.646  10.237  63.564  1.00  0.00     0.446 OA 
HETATM   37  C   UNK A   2      -9.485  10.611  62.848  1.00  0.00    -0.343 C  
ENDBRANCH  27  36
ENDBRANCH  17  19
ENDBRANCH  15  17
ENDBRANCH   6  15
ENDBRANCH   4   6
ENDBRANCH   3   4
ENDBRANCH   2   3
TORSDOF 11
ENDMDL
MODEL      271
REMARK 921   NORMALIZED FREE ENERGY PREDICTED BY IDOCK:   35.16 KCAL/MOL
REMARK 922        TOTAL FREE ENERGY PREDICTED BY IDOCK:   55.86 KCAL/MOL
REMARK 923 INTER-LIGAND FREE ENERGY PREDICTED BY IDOCK:   21.64 KCAL/MOL
REMARK 924 INTRA-LIGAND FREE ENERGY PREDICTED BY IDOCK:   34.22 KCAL/MOL
REMARK 927      BINDING AFFINITY PREDICTED BY RF-SCORE:    0.00 PKD
ROOT
HETATM    1  C   UNK A   0     -10.774  13.007  68.955  1.00  0.00    -0.201 C  
HETATM    2  C   UNK A   0     -11.616  14.112  69.562  1.00  0.00    -0.295 C  
ENDROOT
BRANCH   2   3
HETATM    3  O   UNK A   0     -10.966  15.365  69.324  1.00  0.00    -0.233 OA 
BRANCH   3   4
HETATM    4  C   UNK A   0      -9.664  15.315  68.920  1.00  0.00    -0.220 C  
HETATM    5  O   UNK A   0      -8.708  15.810  69.507  1.00  0.00    -0.259 OA 
BRANCH   4   6
HETATM    6  C   UNK A   0      -9.574  14.473  67.646  1.00  0.00    -0.214 C  
BRANCH   6   7
HETATM    7  C   UNK A   0     -10.953  13.903  67.305  1.00  0.00    -0.299 C  
BRANCH   7   8
HETATM    8  C   UNK A   0     -11.227  12.398  67.451  1.00  0.00    -0.351 C  
BRANCH   8   9
HETATM    9  C   UNK A   0     -11.567  12.019  68.901  1.00  0.00    -0.377 A  
HETATM   10  C   UNK A   0     -12.805  12.382  69.451  1.00  0.00     1.062 A  
HETATM   11  C   UNK A   0     -13.177  11.943  70.734  1.00  0.00     0.375 A  
HETATM   12  C   UNK A   0     -10.710  11.240  69.708  1.00  0.00     0.007 A  
HETATM   13  C   UNK A   0     -12.327  11.132  71.485  1.00  0.00    -0.256 A  
HETATM   14  C   UNK A   0     -11.086  10.789  70.974  1.00  0.00     0.640 A  
ENDBRANCH   8   9
ENDBRANCH   7   8
ENDBRANCH   6   7
BRANCH   6  15
ATOM     15  N   ALA A   1      -8.584  13.382  67.821  1.00  0.00    -0.180 NA 
ATOM     16  H   ALA A   1      -8.824  12.581  68.404  1.00  0.00     0.000 HD 
BRANCH  15  17
ATOM     17  CA  ALA A   1      -7.245  13.428  67.164  1.00  0.00     0.155 C  
ATOM     18  CB  ALA A   1      -6.271  14.586  67.441  1.00  0.00     0.169 C  
BRANCH  17  19
ATOM     19  C   ALA A   1      -6.513  12.054  67.007  1.00  0.00    -0.114 C  
ATOM     20  O   ALA A   1      -5.286  12.017  67.159  1.00  0.00    -0.104 OA 
HETATM   21  C   UNK A   2      -9.360   9.776  67.363  1.00  0.00    -0.155 A  
HETATM   22  C   UNK A   2     -10.759   9.791  67.284  1.00  0.00    -0.296 A  
HETATM   23  N   UNK A   2      -7.216  10.872  66.838  1.00  0.00    -0.117 N  
HETATM   24  C   UNK A   2     -11.514   8.908  68.036  1.00  0.00     1.162 A  
HETATM   25  C   UNK A   2      -8.620  10.767  66.534  1.00  0.00    -0.150 C  
HETATM   26  O   UNK A   2      -5.457   7.910  65.606  1.00  0.00    -0.029 OA 
HETATM   27  C   UNK A   2     -10.877   8.013  68.898  1.00  0.00     0.029 A  
HETATM   28  C   UNK A   2      -9.468   7.994  68.969  1.00  0.00    -0.151 A  
HETATM   29  O   UNK A   2      -7.485   8.603  64.938  1.00  0.00    -0.087 OA 
HETATM   30  C   UNK A   2      -6.560   8.675  65.743  1.00  0.00    -0.057 C  
HETATM   31  C   UNK A   2      -8.701   8.855  68.175  1.00  0.00    -0.134 A  
HETATM   32  C   UNK A   2      -6.546   9.572  67.007  1.00  0.00    -0.068 C  
HETATM   33  C   UNK A   2      -7.188   8.843  68.209  1.00  0.00    -0.079 C  
BRANCH  24  34
HETATM   34  O   UNK A   2     -12.881   8.817  67.956  1.00  0.00     7.100 OA 
HETATM   35  C   UNK A   2     -13.520  10.036  67.632  1.00  0.00    13.422 C  
ENDBRANCH  24  34
BRANCH  27  36
HETATM   36  O   UNK A   2     -11.719   7.232  69.629  1.00  0.00     0.060 OA 
HETATM   37  C   UNK A   2     -12.945   7.801  70.044  1.00  0.00     1.879 C  
ENDBRANCH  27  36
ENDBRANCH  17  19
ENDBRANCH  15  17
ENDBRANCH   6  15
ENDBRANCH   4   6
ENDBRANCH   3   4
ENDBRANCH   2   3
TORSDOF 11
ENDMDL
MODEL      272
REMARK 921   NORMALIZED FREE ENERGY PREDICTED BY IDOCK:   49.63 KCAL/MOL
REMARK 922        TOTAL FREE ENERGY PREDICTED BY IDOCK:   79.64 KCAL/MOL
REMARK 923 INTER-LIGAND FREE ENERGY PREDICTED BY IDOCK:   27.86 KCAL/MOL
REMARK 924 INTRA-LIGAND FREE ENERGY PREDICTED BY IDOCK:   51.78 KCAL/MOL
REMARK 927      BINDING AFFINITY PREDICTED BY RF-SCORE:    0.00 PKD
ROOT
HETATM    1  C   UNK A   0     -10.390   4.791  69.848  1.00  0.00    -0.121 C  
HETATM    2  C   UNK A   0     -10.468   6.302  69.741  1.00  0.00    -0.232 C  
ENDROOT
BRANCH   2   3
HETATM    3  O   UNK A   0     -11.458   6.640  68.765  1.00  0.00    -0.172 OA 
BRANCH   3   4
HETATM    4  C   UNK A   0     -12.679   7.026  69.236  1.00  0.00     3.452 C  
HETATM    5  O   UNK A   0     -13.744   6.450  69.033  1.00  0.00     8.270 OA 
BRANCH   4   6
HETATM    6  C   UNK A   0     -12.500   8.256  70.126  1.00  0.00     1.023 C  
BRANCH   6   7
HETATM    7  C   UNK A   0     -13.859   8.914  70.378  1.00  0.00     1.133 C  
BRANCH   7   8
HETATM    8  C   UNK A   0     -13.945  10.410  70.716  1.00  0.00     1.020 C  
BRANCH   8   9
HETATM    9  C   UNK A   0     -12.606  11.125  70.478  1.00  0.00    -0.360 A  
HETATM   10  C   UNK A   0     -11.398  10.452  70.714  1.00  0.00    -0.370 A  
HETATM   11  C   UNK A   0     -10.167  11.051  70.391  1.00  0.00     1.282 A  
HETATM   12  C   UNK A   0     -12.519  12.431  69.949  1.00  0.00     0.019 A  
HETATM   13  C   UNK A   0     -10.120  12.324  69.822  1.00  0.00     1.433 A  
HETATM   14  C   UNK A   0     -11.300  13.018  69.611  1.00  0.00    -0.176 A  
ENDBRANCH   8   9
ENDBRANCH   7   8
ENDBRANCH   6   7
BRANCH   6  15
ATOM     15  N   ALA A   1     -11.562   9.216  69.493  1.00  0.00    -0.318 NA 
ATOM     16  H   ALA A   1     -10.583   8.954  69.382  1.00  0.00     0.000 HD 
BRANCH  15  17
ATOM     17  CA  ALA A   1     -12.016  10.555  69.015  1.00  0.00    -0.023 C  
ATOM     18  CB  ALA A   1     -11.496  11.844  69.673  1.00  0.00    -0.337 C  
BRANCH  17  19
ATOM     19  C   ALA A   1     -12.198  10.703  67.469  1.00  0.00     2.201 C  
ATOM     20  O   ALA A   1     -13.223  10.248  66.947  1.00  0.00     9.395 OA 
HETATM   21  C   UNK A   2      -9.762  13.356  66.797  1.00  0.00    -0.262 A  
HETATM   22  C   UNK A   2      -8.645  13.958  67.390  1.00  0.00    -0.206 A  
HETATM   23  N   UNK A   2     -11.312  11.442  66.701  1.00  0.00    -0.242 N  
HETATM   24  C   UNK A   2      -8.341  15.283  67.131  1.00  0.00    -0.216 A  
HETATM   25  C   UNK A   2     -10.029  11.931  67.138  1.00  0.00    -0.194 C  
HETATM   26  O   UNK A   2     -11.298  11.000  63.069  1.00  0.00     0.280 OA 
HETATM   27  C   UNK A   2      -9.169  16.030  66.291  1.00  0.00    -0.333 A  
HETATM   28  C   UNK A   2     -10.287  15.419  65.687  1.00  0.00    -0.395 A  
HETATM   29  O   UNK A   2      -9.481  11.154  64.378  1.00  0.00    -0.232 OA 
HETATM   30  C   UNK A   2     -10.694  11.287  64.241  1.00  0.00    -0.349 C  
HETATM   31  C   UNK A   2     -10.570  14.066  65.912  1.00  0.00    -0.302 A  
HETATM   32  C   UNK A   2     -11.660  11.832  65.325  1.00  0.00    -0.127 C  
HETATM   33  C   UNK A   2     -11.748  13.374  65.261  1.00  0.00    -0.346 C  
BRANCH  24  34
HETATM   34  O   UNK A   2      -7.227  15.917  67.619  1.00  0.00    -0.131 OA 
HETATM   35  C   UNK A   2      -6.021  15.212  67.401  1.00  0.00     0.149 C  
ENDBRANCH  24  34
BRANCH  27  36
HETATM   36  O   UNK A   2      -8.807  17.336  66.152  1.00  0.00    -0.427 OA 
HETATM   37  C   UNK A   2      -8.802  17.878  64.846  1.00  0.00     4.078 C  
ENDBRANCH  27  36
ENDBRANCH  17  19
ENDBRANCH  15  17
ENDBRANCH   6  15
ENDBRANCH   4   6
ENDBRANCH   3   4
ENDBRANCH   2   3
TORSDOF 11
ENDMDL
MODEL      273
REMARK 921   NORMALIZED FREE ENERGY PREDICTED BY IDOCK:   73.83 KCAL/MOL
REMARK 922        TOTAL FREE ENERGY PREDICTED BY IDOCK:  119.40 KCAL/MOL
REMARK 923 INTER-LIGAND FREE ENERGY PREDICTED BY IDOCK:  104.97 KCAL/MOL
REMARK 924 INTRA-LIGAND FREE ENERGY PREDICTED BY IDOCK:   14.43 KCAL/MOL
REMARK 927      BINDING AFFINITY PREDICTED BY RF-SCORE:    0.00 PKD
ROOT
HETATM    1  C   UNK A   0     -10.026   7.467  73.147  1.00  0.00    -0.344 C  
HETATM    2  C   UNK A   0     -10.711   8.762  73.540  1.00  0.00     2.719 C  
ENDROOT
BRANCH   2   3
HETATM    3  O   UNK A   0      -9.802   9.845  73.321  1.00  0.00     4.824 OA 
BRANCH   3   4
HETATM    4  C   UNK A   0      -8.695   9.576  72.570  1.00  0.00     2.518 C  
HETATM    5  O   UNK A   0      -8.252   8.461  72.313  1.00  0.00    -0.146 OA 
BRANCH   4   6
HETATM    6  C   UNK A   0      -8.130  10.891  72.033  1.00  0.00     9.336 C  
BRANCH   6   7
HETATM    7  C   UNK A   0      -6.601  10.840  72.045  1.00  0.00     2.765 C  
BRANCH   7   8
HETATM    8  C   UNK A   0      -5.791  11.992  72.660  1.00  0.00     2.106 C  
BRANCH   8   9
HETATM    9  C   UNK A   0      -6.276  13.361  72.155  1.00  0.00     1.606 A  
HETATM   10  C   UNK A   0      -7.425  13.947  72.706  1.00  0.00     6.501 A  
HETATM   11  C   UNK A   0      -7.814  15.248  72.340  1.00  0.00     6.852 A  
HETATM   12  C   UNK A   0      -5.568  14.116  71.195  1.00  0.00    -0.209 A  
HETATM   13  C   UNK A   0      -7.063  15.986  71.425  1.00  0.00     3.663 A  
HETATM   14  C   UNK A   0      -5.943  15.414  70.845  1.00  0.00     0.184 A  
ENDBRANCH   8   9
ENDBRANCH   7   8
ENDBRANCH   6   7
BRANCH   6  15
ATOM     15  N   ALA A   1      -8.623  12.032  72.844  1.00  0.00    21.009 NA 
ATOM     16  H   ALA A   1      -8.041  12.392  73.601  1.00  0.00     0.000 HD 
BRANCH  15  17
ATOM     17  CA  ALA A   1      -9.948  12.665  72.581  1.00  0.00    18.953 C  
ATOM     18  CB  ALA A   1     -10.050  13.977  71.784  1.00  0.00     5.979 C  
BRANCH  17  19
ATOM     19  C   ALA A   1     -11.125  11.683  72.270  1.00  0.00     7.897 C  
ATOM     20  O   ALA A   1     -12.002  11.519  73.127  1.00  0.00     5.117 OA 
HETATM   21  C   UNK A   2     -10.824  11.469  68.625  1.00  0.00    -0.253 A  
HETATM   22  C   UNK A   2      -9.889  11.720  67.611  1.00  0.00    -0.192 A  
HETATM   23  N   UNK A   2     -11.277  11.104  71.020  1.00  0.00     0.773 N  
HETATM   24  C   UNK A   2     -10.310  12.074  66.341  1.00  0.00    -0.216 A  
HETATM   25  C   UNK A   2     -10.292  11.109  69.968  1.00  0.00     0.624 C  
HETATM   26  O   UNK A   2     -13.469   8.198  70.652  1.00  0.00     0.386 OA 
HETATM   27  C   UNK A   2     -11.674  12.204  66.075  1.00  0.00    -0.321 A  
HETATM   28  C   UNK A   2     -12.613  11.942  67.094  1.00  0.00     2.051 A  
HETATM   29  O   UNK A   2     -11.441   8.437  69.720  1.00  0.00     0.036 OA 
HETATM   30  C   UNK A   2     -12.399   8.941  70.300  1.00  0.00     0.544 C  
HETATM   31  C   UNK A   2     -12.192  11.540  68.368  1.00  0.00     0.105 A  
HETATM   32  C   UNK A   2     -12.540  10.445  70.649  1.00  0.00    -0.348 C  
HETATM   33  C   UNK A   2     -13.173  11.227  69.476  1.00  0.00     1.452 C  
BRANCH  24  34
HETATM   34  O   UNK A   2      -9.456  12.265  65.284  1.00  0.00    -0.093 OA 
HETATM   35  C   UNK A   2      -9.776  11.499  64.140  1.00  0.00    -0.211 C  
ENDBRANCH  24  34
BRANCH  27  36
HETATM   36  O   UNK A   2     -11.969  12.611  64.809  1.00  0.00    -0.358 OA 
HETATM   37  C   UNK A   2     -10.915  13.140  64.029  1.00  0.00    -0.346 C  
ENDBRANCH  27  36
ENDBRANCH  17  19
ENDBRANCH  15  17
ENDBRANCH   6  15
ENDBRANCH   4   6
ENDBRANCH   3   4
ENDBRANCH   2   3
TORSDOF 11
ENDMDL
