MODEL        1
REMARK 921   NORMALIZED FREE ENERGY PREDICTED BY IDOCK:   -6.40 KCAL/MOL
REMARK 922        TOTAL FREE ENERGY PREDICTED BY IDOCK:   -8.07 KCAL/MOL
REMARK 923 INTER-LIGAND FREE ENERGY PREDICTED BY IDOCK:   -7.52 KCAL/MOL
REMARK 924 INTRA-LIGAND FREE ENERGY PREDICTED BY IDOCK:   -0.54 KCAL/MOL
REMARK 927      BINDING AFFINITY PREDICTED BY RF-SCORE:    0.00 PKD
ROOT
HETATM    1  C   UNL     1     -11.804  16.109  72.095  1.00  0.00    -0.626 C  
HETATM    2  C   UNL     1     -12.599  15.591  70.907  1.00  0.00    -0.512 C  
ENDROOT
BRANCH   2   3
HETATM    3  C   UNL     1     -12.487  14.104  70.736  1.00  0.00    -0.436 A  
HETATM    4  C   UNL     1     -13.143  13.120  71.466  1.00  0.00    -0.315 A  
HETATM    5  C   UNL     1     -14.141  13.219  72.563  1.00  0.00    -0.368 C  
HETATM    6  N   UNL     1     -12.717  11.897  71.011  1.00  0.00    -0.316 NA 
HETATM    7  C   UNL     1     -11.829  12.072  69.980  1.00  0.00    -0.314 A  
HETATM    8  H   UNL     1     -13.016  10.996  71.382  1.00  0.00     0.000 HD 
HETATM    9  C   UNL     1     -11.678  13.421  69.775  1.00  0.00    -0.355 A  
HETATM   10  C   UNL     1     -10.799  13.953  68.751  1.00  0.00    -0.263 C  
HETATM   11  O   UNL     1     -10.649  15.168  68.629  1.00  0.00    -0.223 OA 
HETATM   12  C   UNL     1     -10.028  12.952  67.878  1.00  0.00    -0.233 C  
HETATM   13  C   UNL     1     -10.118  11.449  68.261  1.00  0.00    -0.204 C  
HETATM   14  C   UNL     1     -11.184  10.964  69.252  1.00  0.00    -0.327 C  
BRANCH  12  15
HETATM   15  C   UNL     1     -10.340  13.172  66.376  1.00  0.00    -0.287 C  
BRANCH  15  16
HETATM   16  N   UNL     1     -11.744  12.953  66.010  1.00  0.00    -0.382 NA 
HETATM   17  C   UNL     1     -12.533  14.169  65.737  1.00  0.00    -0.466 C  
HETATM   18  C   UNL     1     -12.374  14.722  64.311  1.00  0.00    -0.320 C  
HETATM   19  O   UNL     1     -12.604  13.718  63.319  1.00  0.00    -0.830 OA 
HETATM   20  C   UNL     1     -11.736  12.597  63.527  1.00  0.00    -0.531 C  
HETATM   21  C   UNL     1     -11.941  11.987  64.919  1.00  0.00    -0.216 C  
ENDBRANCH  15  16
ENDBRANCH  12  15
ENDBRANCH   2   3
TORSDOF 3
ENDMDL
MODEL        2
REMARK 921   NORMALIZED FREE ENERGY PREDICTED BY IDOCK:   -6.31 KCAL/MOL
REMARK 922        TOTAL FREE ENERGY PREDICTED BY IDOCK:   -7.95 KCAL/MOL
REMARK 923 INTER-LIGAND FREE ENERGY PREDICTED BY IDOCK:   -7.58 KCAL/MOL
REMARK 924 INTRA-LIGAND FREE ENERGY PREDICTED BY IDOCK:   -0.37 KCAL/MOL
REMARK 927      BINDING AFFINITY PREDICTED BY RF-SCORE:    0.00 PKD
ROOT
HETATM    1  C   UNL     1     -11.997  12.801  63.725  1.00  0.00    -0.585 C  
HETATM    2  C   UNL     1     -10.930  13.181  64.739  1.00  0.00    -0.355 C  
ENDROOT
BRANCH   2   3
HETATM    3  C   UNL     1     -10.820  12.195  65.865  1.00  0.00    -0.316 A  
HETATM    4  C   UNL     1     -10.311  10.904  65.808  1.00  0.00    -0.241 A  
HETATM    5  C   UNL     1      -9.709  10.140  64.684  1.00  0.00    -0.377 C  
HETATM    6  N   UNL     1     -10.442  10.340  67.052  1.00  0.00    -0.242 NA 
HETATM    7  C   UNL     1     -10.990  11.252  67.917  1.00  0.00    -0.248 A  
HETATM    8  H   UNL     1     -10.171   9.387  67.297  1.00  0.00     0.000 HD 
HETATM    9  C   UNL     1     -11.221  12.412  67.221  1.00  0.00    -0.357 A  
HETATM   10  C   UNL     1     -11.802  13.585  67.845  1.00  0.00    -0.362 C  
HETATM   11  O   UNL     1     -12.041  14.591  67.177  1.00  0.00    -0.397 OA 
HETATM   12  C   UNL     1     -12.158  13.502  69.336  1.00  0.00    -0.340 C  
HETATM   13  C   UNL     1     -12.022  12.118  70.029  1.00  0.00    -0.391 C  
HETATM   14  C   UNL     1     -11.258  10.978  69.341  1.00  0.00    -0.332 C  
BRANCH  12  15
HETATM   15  C   UNL     1     -11.432  14.610  70.141  1.00  0.00    -0.259 C  
BRANCH  15  16
HETATM   16  N   UNL     1     -12.327  15.596  70.757  1.00  0.00    -0.410 NA 
HETATM   17  C   UNL     1     -13.716  15.150  70.980  1.00  0.00    -0.382 C  
HETATM   18  C   UNL     1     -13.923  14.336  72.267  1.00  0.00    -0.531 C  
HETATM   19  O   UNL     1     -13.402  15.011  73.417  1.00  0.00    -0.505 OA 
HETATM   20  C   UNL     1     -12.015  15.321  73.231  1.00  0.00    -0.422 C  
HETATM   21  C   UNL     1     -11.805  16.199  71.992  1.00  0.00    -0.530 C  
ENDBRANCH  15  16
ENDBRANCH  12  15
ENDBRANCH   2   3
TORSDOF 3
ENDMDL
MODEL        3
REMARK 921   NORMALIZED FREE ENERGY PREDICTED BY IDOCK:   -6.21 KCAL/MOL
REMARK 922        TOTAL FREE ENERGY PREDICTED BY IDOCK:   -7.85 KCAL/MOL
REMARK 923 INTER-LIGAND FREE ENERGY PREDICTED BY IDOCK:   -7.26 KCAL/MOL
REMARK 924 INTRA-LIGAND FREE ENERGY PREDICTED BY IDOCK:   -0.58 KCAL/MOL
REMARK 927      BINDING AFFINITY PREDICTED BY RF-SCORE:    0.00 PKD
ROOT
HETATM    1  C   UNL     1      -9.576  11.506  65.485  1.00  0.00    -0.252 C  
HETATM    2  C   UNL     1     -11.090  11.596  65.601  1.00  0.00    -0.308 C  
ENDROOT
BRANCH   2   3
HETATM    3  C   UNL     1     -11.538  12.673  66.546  1.00  0.00    -0.441 A  
HETATM    4  C   UNL     1     -11.808  14.001  66.244  1.00  0.00    -0.411 A  
HETATM    5  C   UNL     1     -11.781  14.733  64.950  1.00  0.00    -0.390 C  
HETATM    6  N   UNL     1     -12.142  14.644  67.409  1.00  0.00    -0.552 NA 
HETATM    7  C   UNL     1     -12.127  13.751  68.449  1.00  0.00    -0.289 A  
HETATM    8  H   UNL     1     -12.368  15.635  67.489  1.00  0.00     0.000 HD 
HETATM    9  C   UNL     1     -11.774  12.522  67.949  1.00  0.00    -0.416 A  
HETATM   10  C   UNL     1     -11.662  11.348  68.792  1.00  0.00    -0.339 C  
HETATM   11  O   UNL     1     -11.292  10.274  68.317  1.00  0.00    -0.266 OA 
HETATM   12  C   UNL     1     -11.957  11.510  70.290  1.00  0.00    -0.455 C  
HETATM   13  C   UNL     1     -12.196  12.950  70.821  1.00  0.00    -0.348 C  
HETATM   14  C   UNL     1     -12.450  14.105  69.844  1.00  0.00    -0.313 C  
BRANCH  12  15
HETATM   15  C   UNL     1     -13.086  10.548  70.738  1.00  0.00    -0.257 C  
BRANCH  15  16
HETATM   16  N   UNL     1     -12.737   9.690  71.875  1.00  0.00    -0.399 NA 
HETATM   17  C   UNL     1     -13.777   8.733  72.300  1.00  0.00    -0.440 C  
HETATM   18  C   UNL     1     -13.814   7.431  71.485  1.00  0.00    -0.374 C  
HETATM   19  O   UNL     1     -12.529   6.806  71.416  1.00  0.00    -0.359 OA 
HETATM   20  C   UNL     1     -11.557   7.713  70.880  1.00  0.00    -0.280 C  
HETATM   21  C   UNL     1     -11.455   8.984  71.731  1.00  0.00    -0.372 C  
ENDBRANCH  15  16
ENDBRANCH  12  15
ENDBRANCH   2   3
TORSDOF 3
ENDMDL
MODEL        4
REMARK 921   NORMALIZED FREE ENERGY PREDICTED BY IDOCK:   -6.15 KCAL/MOL
REMARK 922        TOTAL FREE ENERGY PREDICTED BY IDOCK:   -7.77 KCAL/MOL
REMARK 923 INTER-LIGAND FREE ENERGY PREDICTED BY IDOCK:   -7.47 KCAL/MOL
REMARK 924 INTRA-LIGAND FREE ENERGY PREDICTED BY IDOCK:   -0.30 KCAL/MOL
REMARK 927      BINDING AFFINITY PREDICTED BY RF-SCORE:    0.00 PKD
ROOT
HETATM    1  C   UNL     1     -14.324  13.879  72.010  1.00  0.00    -0.477 C  
HETATM    2  C   UNL     1     -13.164  12.977  72.399  1.00  0.00    -0.487 C  
ENDROOT
BRANCH   2   3
HETATM    3  C   UNL     1     -12.833  11.966  71.340  1.00  0.00    -0.411 A  
HETATM    4  C   UNL     1     -13.147  10.612  71.339  1.00  0.00    -0.400 A  
HETATM    5  C   UNL     1     -13.905   9.785  72.314  1.00  0.00    -0.227 C  
HETATM    6  N   UNL     1     -12.616  10.053  70.205  1.00  0.00    -0.525 NA 
HETATM    7  C   UNL     1     -11.998  11.023  69.458  1.00  0.00    -0.342 A  
HETATM    8  H   UNL     1     -12.673   9.066  69.954  1.00  0.00     0.000 HD 
HETATM    9  C   UNL     1     -12.127  12.217  70.122  1.00  0.00    -0.368 A  
HETATM   10  C   UNL     1     -11.579  13.454  69.601  1.00  0.00    -0.268 C  
HETATM   11  O   UNL     1     -11.669  14.497  70.249  1.00  0.00    -0.272 OA 
HETATM   12  C   UNL     1     -10.837  13.400  68.258  1.00  0.00    -0.275 C  
HETATM   13  C   UNL     1     -10.586  12.000  67.634  1.00  0.00    -0.239 C  
HETATM   14  C   UNL     1     -11.330  10.768  68.168  1.00  0.00    -0.377 C  
BRANCH  12  15
HETATM   15  C   UNL     1     -11.478  14.369  67.232  1.00  0.00    -0.359 C  
BRANCH  15  16
HETATM   16  N   UNL     1     -10.738  14.495  65.972  1.00  0.00    -0.297 NA 
HETATM   17  C   UNL     1     -11.547  14.403  64.742  1.00  0.00    -0.408 C  
HETATM   18  C   UNL     1     -12.231  15.717  64.331  1.00  0.00    -0.016 C  
HETATM   19  O   UNL     1     -11.304  16.805  64.265  1.00  0.00    -1.170 OA 
HETATM   20  C   UNL     1     -10.619  16.958  65.514  1.00  0.00    -0.202 C  
HETATM   21  C   UNL     1      -9.868  15.677  65.896  1.00  0.00    -0.350 C  
ENDBRANCH  15  16
ENDBRANCH  12  15
ENDBRANCH   2   3
TORSDOF 3
ENDMDL
MODEL        5
REMARK 921   NORMALIZED FREE ENERGY PREDICTED BY IDOCK:   -6.03 KCAL/MOL
REMARK 922        TOTAL FREE ENERGY PREDICTED BY IDOCK:   -7.64 KCAL/MOL
REMARK 923 INTER-LIGAND FREE ENERGY PREDICTED BY IDOCK:   -7.05 KCAL/MOL
REMARK 924 INTRA-LIGAND FREE ENERGY PREDICTED BY IDOCK:   -0.59 KCAL/MOL
REMARK 927      BINDING AFFINITY PREDICTED BY RF-SCORE:    0.00 PKD
ROOT
HETATM    1  C   UNL     1     -13.176  11.319  71.795  1.00  0.00    -0.480 C  
HETATM    2  C   UNL     1     -12.926  10.170  70.830  1.00  0.00    -0.432 C  
ENDROOT
BRANCH   2   3
HETATM    3  C   UNL     1     -11.466   9.920  70.589  1.00  0.00    -0.411 A  
HETATM    4  C   UNL     1     -10.614   9.116  71.336  1.00  0.00    -0.341 A  
HETATM    5  C   UNL     1     -10.870   8.261  72.524  1.00  0.00    -0.421 C  
HETATM    6  N   UNL     1      -9.357   9.209  70.793  1.00  0.00    -0.245 NA 
HETATM    7  C   UNL     1      -9.389  10.027  69.693  1.00  0.00    -0.220 A  
HETATM    8  H   UNL     1      -8.526   8.740  71.153  1.00  0.00     0.000 HD 
HETATM    9  C   UNL     1     -10.678  10.469  69.530  1.00  0.00    -0.291 A  
HETATM   10  C   UNL     1     -11.058  11.361  68.451  1.00  0.00    -0.242 C  
HETATM   11  O   UNL     1     -12.213  11.778  68.366  1.00  0.00    -0.467 OA 
HETATM   12  C   UNL     1      -9.964  11.806  67.470  1.00  0.00    -0.204 C  
HETATM   13  C   UNL     1      -8.500  11.402  67.797  1.00  0.00    -0.128 C  
HETATM   14  C   UNL     1      -8.210  10.336  68.862  1.00  0.00    -0.130 C  
BRANCH  12  15
HETATM   15  C   UNL     1     -10.341  11.433  66.014  1.00  0.00    -0.249 C  
BRANCH  15  16
HETATM   16  N   UNL     1     -10.266  12.547  65.063  1.00  0.00    -0.289 NA 
HETATM   17  C   UNL     1     -10.729  12.253  63.693  1.00  0.00    -0.467 C  
HETATM   18  C   UNL     1     -12.250  12.352  63.502  1.00  0.00    -0.563 C  
HETATM   19  O   UNL     1     -12.768  13.601  63.970  1.00  0.00    -0.666 OA 
HETATM   20  C   UNL     1     -12.415  13.809  65.343  1.00  0.00    -0.500 C  
HETATM   21  C   UNL     1     -10.893  13.790  65.533  1.00  0.00    -0.299 C  
ENDBRANCH  15  16
ENDBRANCH  12  15
ENDBRANCH   2   3
TORSDOF 3
ENDMDL
MODEL        6
REMARK 921   NORMALIZED FREE ENERGY PREDICTED BY IDOCK:   -6.03 KCAL/MOL
REMARK 922        TOTAL FREE ENERGY PREDICTED BY IDOCK:   -7.63 KCAL/MOL
REMARK 923 INTER-LIGAND FREE ENERGY PREDICTED BY IDOCK:   -7.19 KCAL/MOL
REMARK 924 INTRA-LIGAND FREE ENERGY PREDICTED BY IDOCK:   -0.45 KCAL/MOL
REMARK 927      BINDING AFFINITY PREDICTED BY RF-SCORE:    0.00 PKD
ROOT
HETATM    1  C   UNL     1     -10.193  10.044  69.863  1.00  0.00    -0.304 C  
HETATM    2  C   UNL     1     -11.581  10.500  69.443  1.00  0.00    -0.318 C  
ENDROOT
BRANCH   2   3
HETATM    3  C   UNL     1     -12.236  11.386  70.462  1.00  0.00    -0.478 A  
HETATM    4  C   UNL     1     -12.907  10.993  71.613  1.00  0.00    -0.435 A  
HETATM    5  C   UNL     1     -13.144   9.646  72.195  1.00  0.00    -0.520 C  
HETATM    6  N   UNL     1     -13.388  12.120  72.231  1.00  0.00    -0.542 NA 
HETATM    7  C   UNL     1     -13.011  13.232  71.522  1.00  0.00    -0.337 A  
HETATM    8  H   UNL     1     -13.941  12.130  73.088  1.00  0.00     0.000 HD 
HETATM    9  C   UNL     1     -12.286  12.815  70.434  1.00  0.00    -0.371 A  
HETATM   10  C   UNL     1     -11.735  13.747  69.469  1.00  0.00    -0.323 C  
HETATM   11  O   UNL     1     -11.134  13.334  68.477  1.00  0.00    -0.240 OA 
HETATM   12  C   UNL     1     -11.983  15.245  69.698  1.00  0.00    -0.364 C  
HETATM   13  C   UNL     1     -12.941  15.644  70.854  1.00  0.00    -0.471 C  
HETATM   14  C   UNL     1     -13.351  14.613  71.913  1.00  0.00    -0.453 C  
BRANCH  12  15
HETATM   15  C   UNL     1     -10.644  16.021  69.780  1.00  0.00    -0.323 C  
BRANCH  15  16
HETATM   16  N   UNL     1     -10.152  16.520  68.491  1.00  0.00    -0.243 NA 
HETATM   17  C   UNL     1     -10.498  17.918  68.171  1.00  0.00    -0.372 C  
HETATM   18  C   UNL     1      -9.560  18.963  68.796  1.00  0.00    -0.382 C  
HETATM   19  O   UNL     1      -8.185  18.688  68.510  1.00  0.00    -0.326 OA 
HETATM   20  C   UNL     1      -7.836  17.368  68.946  1.00  0.00    -0.196 C  
HETATM   21  C   UNL     1      -8.714  16.309  68.269  1.00  0.00    -0.190 C  
ENDBRANCH  15  16
ENDBRANCH  12  15
ENDBRANCH   2   3
TORSDOF 3
ENDMDL
MODEL        7
REMARK 921   NORMALIZED FREE ENERGY PREDICTED BY IDOCK:   -5.98 KCAL/MOL
REMARK 922        TOTAL FREE ENERGY PREDICTED BY IDOCK:   -7.57 KCAL/MOL
REMARK 923 INTER-LIGAND FREE ENERGY PREDICTED BY IDOCK:   -7.06 KCAL/MOL
REMARK 924 INTRA-LIGAND FREE ENERGY PREDICTED BY IDOCK:   -0.51 KCAL/MOL
REMARK 927      BINDING AFFINITY PREDICTED BY RF-SCORE:    0.00 PKD
ROOT
HETATM    1  C   UNL     1     -10.096  10.069  69.819  1.00  0.00    -0.284 C  
HETATM    2  C   UNL     1     -11.568  10.286  69.506  1.00  0.00    -0.234 C  
ENDROOT
BRANCH   2   3
HETATM    3  C   UNL     1     -12.262  11.136  70.531  1.00  0.00    -0.475 A  
HETATM    4  C   UNL     1     -12.891  10.708  71.694  1.00  0.00    -0.465 A  
HETATM    5  C   UNL     1     -13.037   9.352  72.283  1.00  0.00    -0.509 C  
HETATM    6  N   UNL     1     -13.431  11.807  72.314  1.00  0.00    -0.547 NA 
HETATM    7  C   UNL     1     -13.132  12.936  71.595  1.00  0.00    -0.335 A  
HETATM    8  H   UNL     1     -13.971  11.787  73.179  1.00  0.00     0.000 HD 
HETATM    9  C   UNL     1     -12.399  12.559  70.498  1.00  0.00    -0.345 A  
HETATM   10  C   UNL     1     -11.919  13.519  69.522  1.00  0.00    -0.334 C  
HETATM   11  O   UNL     1     -11.308  13.138  68.524  1.00  0.00    -0.248 OA 
HETATM   12  C   UNL     1     -12.255  15.000  69.749  1.00  0.00    -0.324 C  
HETATM   13  C   UNL     1     -13.218  15.345  70.917  1.00  0.00    -0.512 C  
HETATM   14  C   UNL     1     -13.550  14.295  71.985  1.00  0.00    -0.520 C  
BRANCH  12  15
HETATM   15  C   UNL     1     -10.964  15.856  69.809  1.00  0.00    -0.328 C  
BRANCH  15  16
HETATM   16  N   UNL     1     -10.838  16.840  68.728  1.00  0.00    -0.332 NA 
HETATM   17  C   UNL     1      -9.836  17.902  68.942  1.00  0.00    -0.303 C  
HETATM   18  C   UNL     1      -8.398  17.500  68.579  1.00  0.00    -0.274 C  
HETATM   19  O   UNL     1      -8.310  16.959  67.257  1.00  0.00    -0.178 OA 
HETATM   20  C   UNL     1      -9.201  15.846  67.110  1.00  0.00    -0.209 C  
HETATM   21  C   UNL     1     -10.651  16.254  67.393  1.00  0.00    -0.307 C  
ENDBRANCH  15  16
ENDBRANCH  12  15
ENDBRANCH   2   3
TORSDOF 3
ENDMDL
MODEL        8
REMARK 921   NORMALIZED FREE ENERGY PREDICTED BY IDOCK:   -5.83 KCAL/MOL
REMARK 922        TOTAL FREE ENERGY PREDICTED BY IDOCK:   -7.39 KCAL/MOL
REMARK 923 INTER-LIGAND FREE ENERGY PREDICTED BY IDOCK:   -7.02 KCAL/MOL
REMARK 924 INTRA-LIGAND FREE ENERGY PREDICTED BY IDOCK:   -0.38 KCAL/MOL
REMARK 927      BINDING AFFINITY PREDICTED BY RF-SCORE:    0.00 PKD
ROOT
HETATM    1  C   UNL     1     -10.485  10.976  66.639  1.00  0.00    -0.307 C  
HETATM    2  C   UNL     1     -11.698  11.858  66.886  1.00  0.00    -0.291 C  
ENDROOT
BRANCH   2   3
HETATM    3  C   UNL     1     -11.593  12.648  68.159  1.00  0.00    -0.386 A  
HETATM    4  C   UNL     1     -11.812  12.194  69.453  1.00  0.00    -0.309 A  
HETATM    5  C   UNL     1     -12.162  10.844  69.969  1.00  0.00    -0.422 C  
HETATM    6  N   UNL     1     -11.652  13.254  70.309  1.00  0.00    -0.529 NA 
HETATM    7  C   UNL     1     -11.300  14.372  69.598  1.00  0.00    -0.263 A  
HETATM    8  H   UNL     1     -11.775  13.216  71.321  1.00  0.00     0.000 HD 
HETATM    9  C   UNL     1     -11.239  14.029  68.270  1.00  0.00    -0.293 A  
HETATM   10  C   UNL     1     -10.893  14.988  67.239  1.00  0.00    -0.310 C  
HETATM   11  O   UNL     1     -10.899  14.657  66.054  1.00  0.00    -0.303 OA 
HETATM   12  C   UNL     1     -10.586  16.429  67.674  1.00  0.00    -0.313 C  
HETATM   13  C   UNL     1     -10.825  16.793  69.165  1.00  0.00    -0.287 C  
HETATM   14  C   UNL     1     -11.039  15.689  70.209  1.00  0.00    -0.361 C  
BRANCH  12  15
HETATM   15  C   UNL     1      -9.172  16.857  67.207  1.00  0.00    -0.226 C  
BRANCH  15  16
HETATM   16  N   UNL     1      -9.162  17.925  66.202  1.00  0.00    -0.501 NA 
HETATM   17  C   UNL     1     -10.450  18.611  65.984  1.00  0.00    -0.414 C  
HETATM   18  C   UNL     1     -10.752  19.730  66.993  1.00  0.00    -0.418 C  
HETATM   19  O   UNL     1      -9.674  20.666  67.094  1.00  0.00    -0.454 OA 
HETATM   20  C   UNL     1      -8.455  19.993  67.433  1.00  0.00    -0.336 C  
HETATM   21  C   UNL     1      -8.102  18.925  66.390  1.00  0.00    -0.292 C  
ENDBRANCH  15  16
ENDBRANCH  12  15
ENDBRANCH   2   3
TORSDOF 3
ENDMDL
MODEL        9
REMARK 921   NORMALIZED FREE ENERGY PREDICTED BY IDOCK:   -5.81 KCAL/MOL
REMARK 922        TOTAL FREE ENERGY PREDICTED BY IDOCK:   -7.37 KCAL/MOL
REMARK 923 INTER-LIGAND FREE ENERGY PREDICTED BY IDOCK:   -6.86 KCAL/MOL
REMARK 924 INTRA-LIGAND FREE ENERGY PREDICTED BY IDOCK:   -0.51 KCAL/MOL
REMARK 927      BINDING AFFINITY PREDICTED BY RF-SCORE:    0.00 PKD
ROOT
HETATM    1  C   UNL     1     -13.979   8.552  71.462  1.00  0.00    -0.410 C  
HETATM    2  C   UNL     1     -13.045   9.651  71.942  1.00  0.00    -0.530 C  
ENDROOT
BRANCH   2   3
HETATM    3  C   UNL     1     -11.636   9.469  71.458  1.00  0.00    -0.465 A  
HETATM    4  C   UNL     1     -10.659   8.643  72.000  1.00  0.00    -0.351 A  
HETATM    5  C   UNL     1     -10.705   7.696  73.145  1.00  0.00    -0.445 C  
HETATM    6  N   UNL     1      -9.506   8.817  71.277  1.00  0.00    -0.225 NA 
HETATM    7  C   UNL     1      -9.728   9.711  70.261  1.00  0.00    -0.259 A  
HETATM    8  H   UNL     1      -8.618   8.352  71.467  1.00  0.00     0.000 HD 
HETATM    9  C   UNL     1     -11.036  10.119  70.335  1.00  0.00    -0.393 A  
HETATM   10  C   UNL     1     -11.601  11.073  69.399  1.00  0.00    -0.312 C  
HETATM   11  O   UNL     1     -12.764  11.456  69.527  1.00  0.00    -0.075 OA 
HETATM   12  C   UNL     1     -10.686  11.625  68.297  1.00  0.00    -0.246 C  
HETATM   13  C   UNL     1      -9.180  11.248  68.362  1.00  0.00    -0.178 C  
HETATM   14  C   UNL     1      -8.702  10.119  69.284  1.00  0.00    -0.186 C  
BRANCH  12  15
HETATM   15  C   UNL     1     -11.279  11.345  66.894  1.00  0.00    -0.264 C  
BRANCH  15  16
HETATM   16  N   UNL     1     -12.101  12.434  66.354  1.00  0.00    -0.614 NA 
HETATM   17  C   UNL     1     -11.749  13.791  66.813  1.00  0.00    -0.391 C  
HETATM   18  C   UNL     1     -10.592  14.443  66.039  1.00  0.00    -0.302 C  
HETATM   19  O   UNL     1     -10.810  14.412  64.625  1.00  0.00    -0.392 OA 
HETATM   20  C   UNL     1     -11.023  13.067  64.179  1.00  0.00    -0.408 C  
HETATM   21  C   UNL     1     -12.225  12.431  64.889  1.00  0.00    -0.418 C  
ENDBRANCH  15  16
ENDBRANCH  12  15
ENDBRANCH   2   3
TORSDOF 3
ENDMDL
MODEL       10
REMARK 921   NORMALIZED FREE ENERGY PREDICTED BY IDOCK:   -5.79 KCAL/MOL
REMARK 922        TOTAL FREE ENERGY PREDICTED BY IDOCK:   -7.35 KCAL/MOL
REMARK 923 INTER-LIGAND FREE ENERGY PREDICTED BY IDOCK:   -6.83 KCAL/MOL
REMARK 924 INTRA-LIGAND FREE ENERGY PREDICTED BY IDOCK:   -0.53 KCAL/MOL
REMARK 927      BINDING AFFINITY PREDICTED BY RF-SCORE:    0.00 PKD
ROOT
HETATM    1  C   UNL     1     -14.309  14.690  72.176  1.00  0.00    -0.589 C  
HETATM    2  C   UNL     1     -12.863  14.271  72.388  1.00  0.00    -0.431 C  
ENDROOT
BRANCH   2   3
HETATM    3  C   UNL     1     -12.247  13.663  71.162  1.00  0.00    -0.326 A  
HETATM    4  C   UNL     1     -12.316  12.337  70.753  1.00  0.00    -0.290 A  
HETATM    5  C   UNL     1     -13.017  11.167  71.346  1.00  0.00    -0.506 C  
HETATM    6  N   UNL     1     -11.577  12.206  69.605  1.00  0.00    -0.409 NA 
HETATM    7  C   UNL     1     -11.063  13.426  69.246  1.00  0.00    -0.164 A  
HETATM    8  H   UNL     1     -11.432  11.335  69.095  1.00  0.00     0.000 HD 
HETATM    9  C   UNL     1     -11.471  14.349  70.176  1.00  0.00    -0.280 A  
HETATM   10  C   UNL     1     -11.096  15.747  70.093  1.00  0.00    -0.352 C  
HETATM   11  O   UNL     1     -11.438  16.537  70.973  1.00  0.00    -0.328 OA 
HETATM   12  C   UNL     1     -10.217  16.185  68.912  1.00  0.00    -0.245 C  
HETATM   13  C   UNL     1      -9.659  15.071  67.984  1.00  0.00    -0.208 C  
HETATM   14  C   UNL     1     -10.227  13.648  68.051  1.00  0.00    -0.248 C  
BRANCH  12  15
HETATM   15  C   UNL     1     -10.906  17.308  68.096  1.00  0.00    -0.294 C  
BRANCH  15  16
HETATM   16  N   UNL     1     -10.314  18.638  68.275  1.00  0.00    -0.368 NA 
HETATM   17  C   UNL     1      -8.847  18.671  68.426  1.00  0.00    -0.339 C  
HETATM   18  C   UNL     1      -8.071  18.637  67.099  1.00  0.00    -0.247 C  
HETATM   19  O   UNL     1      -8.524  19.644  66.188  1.00  0.00    -0.347 OA 
HETATM   20  C   UNL     1      -9.932  19.514  65.956  1.00  0.00    -0.398 C  
HETATM   21  C   UNL     1     -10.723  19.624  67.265  1.00  0.00    -0.458 C  
ENDBRANCH  15  16
ENDBRANCH  12  15
ENDBRANCH   2   3
TORSDOF 3
ENDMDL
MODEL       11
REMARK 921   NORMALIZED FREE ENERGY PREDICTED BY IDOCK:   -5.79 KCAL/MOL
REMARK 922        TOTAL FREE ENERGY PREDICTED BY IDOCK:   -7.35 KCAL/MOL
REMARK 923 INTER-LIGAND FREE ENERGY PREDICTED BY IDOCK:   -7.05 KCAL/MOL
REMARK 924 INTRA-LIGAND FREE ENERGY PREDICTED BY IDOCK:   -0.30 KCAL/MOL
REMARK 927      BINDING AFFINITY PREDICTED BY RF-SCORE:    0.00 PKD
ROOT
HETATM    1  C   UNL     1      -9.242  10.145  66.348  1.00  0.00    -0.190 C  
HETATM    2  C   UNL     1     -10.578  10.872  66.382  1.00  0.00    -0.289 C  
ENDROOT
BRANCH   2   3
HETATM    3  C   UNL     1     -10.476  12.297  65.922  1.00  0.00    -0.288 A  
HETATM    4  C   UNL     1     -10.311  12.753  64.620  1.00  0.00    -0.338 A  
HETATM    5  C   UNL     1     -10.226  12.018  63.331  1.00  0.00    -0.457 C  
HETATM    6  N   UNL     1     -10.222  14.122  64.656  1.00  0.00    -0.641 NA 
HETATM    7  C   UNL     1     -10.362  14.559  65.949  1.00  0.00    -0.319 A  
HETATM    8  H   UNL     1     -10.075  14.722  63.846  1.00  0.00     0.000 HD 
HETATM    9  C   UNL     1     -10.536  13.460  66.752  1.00  0.00    -0.277 A  
HETATM   10  C   UNL     1     -10.714  13.572  68.187  1.00  0.00    -0.252 C  
HETATM   11  O   UNL     1     -10.816  12.561  68.882  1.00  0.00    -0.234 OA 
HETATM   12  C   UNL     1     -10.706  14.979  68.803  1.00  0.00    -0.241 C  
HETATM   13  C   UNL     1     -10.347  16.167  67.869  1.00  0.00    -0.277 C  
HETATM   14  C   UNL     1     -10.328  15.979  66.346  1.00  0.00    -0.312 C  
BRANCH  12  15
HETATM   15  C   UNL     1     -12.018  15.249  69.582  1.00  0.00    -0.338 C  
BRANCH  15  16
HETATM   16  N   UNL     1     -12.130  14.522  70.851  1.00  0.00    -0.317 NA 
HETATM   17  C   UNL     1     -11.447  15.139  72.005  1.00  0.00    -0.364 C  
HETATM   18  C   UNL     1     -12.255  16.244  72.705  1.00  0.00    -0.500 C  
HETATM   19  O   UNL     1     -13.572  15.805  73.053  1.00  0.00    -0.559 OA 
HETATM   20  C   UNL     1     -14.265  15.327  71.893  1.00  0.00    -0.581 C  
HETATM   21  C   UNL     1     -13.506  14.171  71.230  1.00  0.00    -0.274 C  
ENDBRANCH  15  16
ENDBRANCH  12  15
ENDBRANCH   2   3
TORSDOF 3
ENDMDL
MODEL       12
REMARK 921   NORMALIZED FREE ENERGY PREDICTED BY IDOCK:   -5.76 KCAL/MOL
REMARK 922        TOTAL FREE ENERGY PREDICTED BY IDOCK:   -7.31 KCAL/MOL
REMARK 923 INTER-LIGAND FREE ENERGY PREDICTED BY IDOCK:   -7.07 KCAL/MOL
REMARK 924 INTRA-LIGAND FREE ENERGY PREDICTED BY IDOCK:   -0.24 KCAL/MOL
REMARK 927      BINDING AFFINITY PREDICTED BY RF-SCORE:    0.00 PKD
ROOT
HETATM    1  C   UNL     1     -14.016  13.357  72.211  1.00  0.00    -0.605 C  
HETATM    2  C   UNL     1     -12.712  13.041  71.497  1.00  0.00    -0.349 C  
ENDROOT
BRANCH   2   3
HETATM    3  C   UNL     1     -12.140  14.227  70.776  1.00  0.00    -0.418 A  
HETATM    4  C   UNL     1     -11.833  15.471  71.313  1.00  0.00    -0.399 A  
HETATM    5  C   UNL     1     -11.929  15.986  72.705  1.00  0.00    -0.646 C  
HETATM    6  N   UNL     1     -11.378  16.273  70.297  1.00  0.00    -0.432 NA 
HETATM    7  C   UNL     1     -11.352  15.561  69.125  1.00  0.00    -0.328 A  
HETATM    8  H   UNL     1     -11.100  17.249  70.398  1.00  0.00     0.000 HD 
HETATM    9  C   UNL     1     -11.800  14.292  69.389  1.00  0.00    -0.372 A  
HETATM   10  C   UNL     1     -11.900  13.277  68.357  1.00  0.00    -0.360 C  
HETATM   11  O   UNL     1     -12.355  12.164  68.621  1.00  0.00    -0.168 OA 
HETATM   12  C   UNL     1     -11.479  13.661  66.931  1.00  0.00    -0.369 C  
HETATM   13  C   UNL     1     -11.132  15.151  66.664  1.00  0.00    -0.308 C  
HETATM   14  C   UNL     1     -10.903  16.116  67.834  1.00  0.00    -0.332 C  
BRANCH  12  15
HETATM   15  C   UNL     1     -10.363  12.719  66.412  1.00  0.00    -0.258 C  
BRANCH  15  16
HETATM   16  N   UNL     1     -10.850  11.571  65.637  1.00  0.00    -0.272 NA 
HETATM   17  C   UNL     1     -11.152  11.838  64.218  1.00  0.00    -0.355 C  
HETATM   18  C   UNL     1      -9.929  11.792  63.289  1.00  0.00    -0.410 C  
HETATM   19  O   UNL     1      -9.184  10.580  63.444  1.00  0.00    -0.221 OA 
HETATM   20  C   UNL     1      -8.790  10.404  64.811  1.00  0.00    -0.193 C  
HETATM   21  C   UNL     1     -10.009  10.370  65.740  1.00  0.00    -0.270 C  
ENDBRANCH  15  16
ENDBRANCH  12  15
ENDBRANCH   2   3
TORSDOF 3
ENDMDL
MODEL       13
REMARK 921   NORMALIZED FREE ENERGY PREDICTED BY IDOCK:   -5.73 KCAL/MOL
REMARK 922        TOTAL FREE ENERGY PREDICTED BY IDOCK:   -7.28 KCAL/MOL
REMARK 923 INTER-LIGAND FREE ENERGY PREDICTED BY IDOCK:   -6.88 KCAL/MOL
REMARK 924 INTRA-LIGAND FREE ENERGY PREDICTED BY IDOCK:   -0.40 KCAL/MOL
REMARK 927      BINDING AFFINITY PREDICTED BY RF-SCORE:    0.00 PKD
ROOT
HETATM    1  C   UNL     1     -12.509  12.046  63.377  1.00  0.00    -0.625 C  
HETATM    2  C   UNL     1     -11.040  12.384  63.578  1.00  0.00    -0.521 C  
ENDROOT
BRANCH   2   3
HETATM    3  C   UNL     1     -10.613  12.291  65.014  1.00  0.00    -0.322 A  
HETATM    4  C   UNL     1     -10.141  11.168  65.682  1.00  0.00    -0.253 A  
HETATM    5  C   UNL     1      -9.884   9.784  65.205  1.00  0.00    -0.335 C  
HETATM    6  N   UNL     1      -9.912  11.516  66.989  1.00  0.00    -0.198 NA 
HETATM    7  C   UNL     1     -10.192  12.846  67.169  1.00  0.00    -0.239 A  
HETATM    8  H   UNL     1      -9.582  10.882  67.717  1.00  0.00     0.000 HD 
HETATM    9  C   UNL     1     -10.611  13.358  65.966  1.00  0.00    -0.290 A  
HETATM   10  C   UNL     1     -10.991  14.749  65.808  1.00  0.00    -0.334 C  
HETATM   11  O   UNL     1     -11.411  15.160  64.727  1.00  0.00    -0.398 OA 
HETATM   12  C   UNL     1     -10.908  15.659  67.042  1.00  0.00    -0.294 C  
HETATM   13  C   UNL     1     -10.579  14.990  68.405  1.00  0.00    -0.239 C  
HETATM   14  C   UNL     1     -10.043  13.553  68.455  1.00  0.00    -0.240 C  
BRANCH  12  15
HETATM   15  C   UNL     1      -9.984  16.873  66.772  1.00  0.00    -0.289 C  
BRANCH  15  16
HETATM   16  N   UNL     1     -10.531  18.162  67.212  1.00  0.00    -0.392 NA 
HETATM   17  C   UNL     1     -10.068  18.637  68.530  1.00  0.00    -0.382 C  
HETATM   18  C   UNL     1      -8.711  19.360  68.504  1.00  0.00    -0.367 C  
HETATM   19  O   UNL     1      -8.682  20.409  67.531  1.00  0.00    -0.329 OA 
HETATM   20  C   UNL     1      -9.011  19.900  66.232  1.00  0.00    -0.353 C  
HETATM   21  C   UNL     1     -10.397  19.245  66.228  1.00  0.00    -0.480 C  
ENDBRANCH  15  16
ENDBRANCH  12  15
ENDBRANCH   2   3
TORSDOF 3
ENDMDL
MODEL       14
REMARK 921   NORMALIZED FREE ENERGY PREDICTED BY IDOCK:   -5.69 KCAL/MOL
REMARK 922        TOTAL FREE ENERGY PREDICTED BY IDOCK:   -7.23 KCAL/MOL
REMARK 923 INTER-LIGAND FREE ENERGY PREDICTED BY IDOCK:   -6.59 KCAL/MOL
REMARK 924 INTRA-LIGAND FREE ENERGY PREDICTED BY IDOCK:   -0.64 KCAL/MOL
REMARK 927      BINDING AFFINITY PREDICTED BY RF-SCORE:    0.00 PKD
ROOT
HETATM    1  C   UNL     1     -13.387  14.031  70.861  1.00  0.00    -0.176 C  
HETATM    2  C   UNL     1     -12.169  13.224  71.282  1.00  0.00    -0.117 C  
ENDROOT
BRANCH   2   3
HETATM    3  C   UNL     1     -12.041  11.930  70.533  1.00  0.00    -0.422 A  
HETATM    4  C   UNL     1     -12.615  10.707  70.858  1.00  0.00    -0.407 A  
HETATM    5  C   UNL     1     -13.522  10.319  71.970  1.00  0.00    -0.385 C  
HETATM    6  N   UNL     1     -12.202   9.784  69.931  1.00  0.00    -0.411 NA 
HETATM    7  C   UNL     1     -11.405  10.392  68.996  1.00  0.00    -0.219 A  
HETATM    8  H   UNL     1     -12.452   8.795  69.936  1.00  0.00     0.000 HD 
HETATM    9  C   UNL     1     -11.299  11.720  69.329  1.00  0.00    -0.348 A  
HETATM   10  C   UNL     1     -10.518  12.654  68.540  1.00  0.00    -0.234 C  
HETATM   11  O   UNL     1     -10.403  13.826  68.898  1.00  0.00    -0.219 OA 
HETATM   12  C   UNL     1      -9.799  12.115  67.295  1.00  0.00    -0.202 C  
HETATM   13  C   UNL     1      -9.827  10.580  67.060  1.00  0.00    -0.223 C  
HETATM   14  C   UNL     1     -10.799   9.692  67.848  1.00  0.00    -0.272 C  
BRANCH  12  15
HETATM   15  C   UNL     1     -10.237  12.889  66.026  1.00  0.00    -0.284 C  
BRANCH  15  16
HETATM   16  N   UNL     1     -11.690  12.962  65.831  1.00  0.00    -0.377 NA 
HETATM   17  C   UNL     1     -12.247  14.319  65.668  1.00  0.00    -0.400 C  
HETATM   18  C   UNL     1     -12.149  14.879  64.240  1.00  0.00    -0.353 C  
HETATM   19  O   UNL     1     -12.690  13.974  63.273  1.00  0.00    -0.750 OA 
HETATM   20  C   UNL     1     -12.044  12.697  63.363  1.00  0.00    -0.525 C  
HETATM   21  C   UNL     1     -12.203  12.093  64.763  1.00  0.00    -0.264 C  
ENDBRANCH  15  16
ENDBRANCH  12  15
ENDBRANCH   2   3
TORSDOF 3
ENDMDL
MODEL       15
REMARK 921   NORMALIZED FREE ENERGY PREDICTED BY IDOCK:   -5.69 KCAL/MOL
REMARK 922        TOTAL FREE ENERGY PREDICTED BY IDOCK:   -7.23 KCAL/MOL
REMARK 923 INTER-LIGAND FREE ENERGY PREDICTED BY IDOCK:   -6.87 KCAL/MOL
REMARK 924 INTRA-LIGAND FREE ENERGY PREDICTED BY IDOCK:   -0.36 KCAL/MOL
REMARK 927      BINDING AFFINITY PREDICTED BY RF-SCORE:    0.00 PKD
ROOT
HETATM    1  C   UNL     1     -13.002  10.025  71.544  1.00  0.00    -0.535 C  
HETATM    2  C   UNL     1     -11.508   9.781  71.406  1.00  0.00    -0.435 C  
ENDROOT
BRANCH   2   3
HETATM    3  C   UNL     1     -11.163   8.944  70.209  1.00  0.00    -0.219 A  
HETATM    4  C   UNL     1     -11.159   7.558  70.122  1.00  0.00    -0.231 A  
HETATM    5  C   UNL     1     -11.515   6.515  71.121  1.00  0.00    -0.380 C  
HETATM    6  N   UNL     1     -10.740   7.211  68.863  1.00  0.00    -0.315 NA 
HETATM    7  C   UNL     1     -10.507   8.343  68.126  1.00  0.00    -0.174 A  
HETATM    8  H   UNL     1     -10.619   6.256  68.526  1.00  0.00     0.000 HD 
HETATM    9  C   UNL     1     -10.774   9.430  68.921  1.00  0.00    -0.203 A  
HETATM   10  C   UNL     1     -10.626  10.792  68.445  1.00  0.00    -0.197 C  
HETATM   11  O   UNL     1     -10.825  11.741  69.202  1.00  0.00    -0.224 OA 
HETATM   12  C   UNL     1     -10.157  10.998  66.997  1.00  0.00    -0.232 C  
HETATM   13  C   UNL     1      -9.720   9.738  66.200  1.00  0.00    -0.309 C  
HETATM   14  C   UNL     1     -10.054   8.334  66.722  1.00  0.00    -0.373 C  
BRANCH  12  15
HETATM   15  C   UNL     1     -11.181  11.844  66.199  1.00  0.00    -0.333 C  
BRANCH  15  16
HETATM   16  N   UNL     1     -10.641  12.460  64.982  1.00  0.00    -0.288 NA 
HETATM   17  C   UNL     1     -11.088  11.862  63.709  1.00  0.00    -0.436 C  
HETATM   18  C   UNL     1     -12.453  12.367  63.214  1.00  0.00    -0.337 C  
HETATM   19  O   UNL     1     -12.509  13.796  63.167  1.00  0.00    -0.786 OA 
HETATM   20  C   UNL     1     -12.196  14.354  64.449  1.00  0.00    -0.458 C  
HETATM   21  C   UNL     1     -10.803  13.919  64.918  1.00  0.00    -0.405 C  
ENDBRANCH  15  16
ENDBRANCH  12  15
ENDBRANCH   2   3
TORSDOF 3
ENDMDL
MODEL       16
REMARK 921   NORMALIZED FREE ENERGY PREDICTED BY IDOCK:   -5.68 KCAL/MOL
REMARK 922        TOTAL FREE ENERGY PREDICTED BY IDOCK:   -7.22 KCAL/MOL
REMARK 923 INTER-LIGAND FREE ENERGY PREDICTED BY IDOCK:   -6.70 KCAL/MOL
REMARK 924 INTRA-LIGAND FREE ENERGY PREDICTED BY IDOCK:   -0.53 KCAL/MOL
REMARK 927      BINDING AFFINITY PREDICTED BY RF-SCORE:    0.00 PKD
ROOT
HETATM    1  C   UNL     1     -12.942  14.615  72.935  1.00  0.00    -0.592 C  
HETATM    2  C   UNL     1     -13.605  14.159  71.645  1.00  0.00    -0.446 C  
ENDROOT
BRANCH   2   3
HETATM    3  C   UNL     1     -12.615  13.712  70.608  1.00  0.00    -0.366 A  
HETATM    4  C   UNL     1     -11.975  14.500  69.660  1.00  0.00    -0.328 A  
HETATM    5  C   UNL     1     -12.031  15.964  69.407  1.00  0.00    -0.268 C  
HETATM    6  N   UNL     1     -11.191  13.681  68.887  1.00  0.00    -0.258 NA 
HETATM    7  C   UNL     1     -11.285  12.390  69.338  1.00  0.00    -0.158 A  
HETATM    8  H   UNL     1     -10.624  13.987  68.096  1.00  0.00     0.000 HD 
HETATM    9  C   UNL     1     -12.143  12.377  70.409  1.00  0.00    -0.381 A  
HETATM   10  C   UNL     1     -12.467  11.158  71.125  1.00  0.00    -0.393 C  
HETATM   11  O   UNL     1     -13.281  11.176  72.049  1.00  0.00    -0.493 OA 
HETATM   12  C   UNL     1     -11.812   9.852  70.651  1.00  0.00    -0.386 C  
HETATM   13  C   UNL     1     -10.978   9.904  69.341  1.00  0.00    -0.263 C  
HETATM   14  C   UNL     1     -10.561  11.253  68.740  1.00  0.00    -0.234 C  
BRANCH  12  15
HETATM   15  C   UNL     1     -11.017   9.184  71.801  1.00  0.00    -0.359 C  
BRANCH  15  16
HETATM   16  N   UNL     1     -11.662   7.997  72.374  1.00  0.00    -0.367 NA 
HETATM   17  C   UNL     1     -12.335   7.105  71.411  1.00  0.00    -0.377 C  
HETATM   18  C   UNL     1     -11.399   6.107  70.709  1.00  0.00    -0.295 C  
HETATM   19  O   UNL     1     -10.610   5.365  71.644  1.00  0.00    -0.227 OA 
HETATM   20  C   UNL     1      -9.865   6.252  72.488  1.00  0.00    -0.166 C  
HETATM   21  C   UNL     1     -10.795   7.201  73.254  1.00  0.00    -0.338 C  
ENDBRANCH  15  16
ENDBRANCH  12  15
ENDBRANCH   2   3
TORSDOF 3
ENDMDL
MODEL       17
REMARK 921   NORMALIZED FREE ENERGY PREDICTED BY IDOCK:   -5.67 KCAL/MOL
REMARK 922        TOTAL FREE ENERGY PREDICTED BY IDOCK:   -7.21 KCAL/MOL
REMARK 923 INTER-LIGAND FREE ENERGY PREDICTED BY IDOCK:   -7.40 KCAL/MOL
REMARK 924 INTRA-LIGAND FREE ENERGY PREDICTED BY IDOCK:    0.19 KCAL/MOL
REMARK 927      BINDING AFFINITY PREDICTED BY RF-SCORE:    0.00 PKD
ROOT
HETATM    1  C   UNL     1     -14.256  13.283  72.306  1.00  0.00    -0.328 C  
HETATM    2  C   UNL     1     -13.008  13.175  71.445  1.00  0.00    -0.386 C  
ENDROOT
BRANCH   2   3
HETATM    3  C   UNL     1     -12.311  14.493  71.263  1.00  0.00    -0.418 A  
HETATM    4  C   UNL     1     -12.027  15.438  72.240  1.00  0.00    -0.438 A  
HETATM    5  C   UNL     1     -12.271  15.431  73.707  1.00  0.00    -0.714 C  
HETATM    6  N   UNL     1     -11.424  16.510  71.633  1.00  0.00    -0.445 NA 
HETATM    7  C   UNL     1     -11.282  16.261  70.292  1.00  0.00    -0.333 A  
HETATM    8  H   UNL     1     -11.126  17.362  72.107  1.00  0.00     0.000 HD 
HETATM    9  C   UNL     1     -11.805  15.019  70.033  1.00  0.00    -0.360 A  
HETATM   10  C   UNL     1     -11.815  14.447  68.700  1.00  0.00    -0.331 C  
HETATM   11  O   UNL     1     -12.339  13.351  68.498  1.00  0.00    -0.194 OA 
HETATM   12  C   UNL     1     -11.212  15.278  67.559  1.00  0.00    -0.317 C  
HETATM   13  C   UNL     1     -10.782  16.735  67.884  1.00  0.00    -0.347 C  
HETATM   14  C   UNL     1     -10.661  17.202  69.341  1.00  0.00    -0.086 C  
BRANCH  12  15
HETATM   15  C   UNL     1     -10.076  14.499  66.848  1.00  0.00    -0.257 C  
BRANCH  15  16
HETATM   16  N   UNL     1     -10.357  14.160  65.449  1.00  0.00    -0.344 NA 
HETATM   17  C   UNL     1     -10.364  12.720  65.127  1.00  0.00    -0.295 C  
HETATM   18  C   UNL     1     -11.689  12.006  65.439  1.00  0.00    -0.255 C  
HETATM   19  O   UNL     1     -12.810  12.676  64.853  1.00  0.00    -0.763 OA 
HETATM   20  C   UNL     1     -12.857  14.043  65.281  1.00  0.00    -0.384 C  
HETATM   21  C   UNL     1     -11.570  14.788  64.905  1.00  0.00    -0.401 C  
ENDBRANCH  15  16
ENDBRANCH  12  15
ENDBRANCH   2   3
TORSDOF 3
ENDMDL
MODEL       18
REMARK 921   NORMALIZED FREE ENERGY PREDICTED BY IDOCK:   -5.56 KCAL/MOL
REMARK 922        TOTAL FREE ENERGY PREDICTED BY IDOCK:   -7.08 KCAL/MOL
REMARK 923 INTER-LIGAND FREE ENERGY PREDICTED BY IDOCK:   -6.63 KCAL/MOL
REMARK 924 INTRA-LIGAND FREE ENERGY PREDICTED BY IDOCK:   -0.45 KCAL/MOL
REMARK 927      BINDING AFFINITY PREDICTED BY RF-SCORE:    0.00 PKD
ROOT
HETATM    1  C   UNL     1      -6.389  17.032  66.853  1.00  0.00    -0.242 C  
HETATM    2  C   UNL     1      -7.731  17.440  66.266  1.00  0.00    -0.340 C  
ENDROOT
BRANCH   2   3
HETATM    3  C   UNL     1      -8.836  17.436  67.282  1.00  0.00    -0.238 A  
HETATM    4  C   UNL     1      -9.094  18.398  68.250  1.00  0.00    -0.312 A  
HETATM    5  C   UNL     1      -8.420  19.689  68.549  1.00  0.00    -0.334 C  
HETATM    6  N   UNL     1     -10.168  17.976  68.993  1.00  0.00    -0.416 NA 
HETATM    7  C   UNL     1     -10.629  16.782  68.502  1.00  0.00    -0.354 A  
HETATM    8  H   UNL     1     -10.564  18.476  69.790  1.00  0.00     0.000 HD 
HETATM    9  C   UNL     1      -9.839  16.429  67.436  1.00  0.00    -0.244 A  
HETATM   10  C   UNL     1     -10.057  15.207  66.685  1.00  0.00    -0.264 C  
HETATM   11  O   UNL     1      -9.297  14.898  65.767  1.00  0.00    -0.272 OA 
HETATM   12  C   UNL     1     -11.218  14.299  67.114  1.00  0.00    -0.333 C  
HETATM   13  C   UNL     1     -11.973  14.671  68.419  1.00  0.00    -0.289 C  
HETATM   14  C   UNL     1     -11.782  16.052  69.060  1.00  0.00    -0.322 C  
BRANCH  12  15
HETATM   15  C   UNL     1     -12.201  14.066  65.939  1.00  0.00    -0.456 C  
BRANCH  15  16
HETATM   16  N   UNL     1     -12.456  12.654  65.631  1.00  0.00    -0.620 NA 
HETATM   17  C   UNL     1     -12.741  12.348  64.216  1.00  0.00    -0.342 C  
HETATM   18  C   UNL     1     -11.491  12.190  63.336  1.00  0.00    -0.416 C  
HETATM   19  O   UNL     1     -10.559  11.258  63.893  1.00  0.00    -0.348 OA 
HETATM   20  C   UNL     1     -10.196  11.645  65.224  1.00  0.00    -0.272 C  
HETATM   21  C   UNL     1     -11.429  11.730  66.133  1.00  0.00    -0.220 C  
ENDBRANCH  15  16
ENDBRANCH  12  15
ENDBRANCH   2   3
TORSDOF 3
ENDMDL
MODEL       19
REMARK 921   NORMALIZED FREE ENERGY PREDICTED BY IDOCK:   -5.53 KCAL/MOL
REMARK 922        TOTAL FREE ENERGY PREDICTED BY IDOCK:   -7.05 KCAL/MOL
REMARK 923 INTER-LIGAND FREE ENERGY PREDICTED BY IDOCK:   -6.67 KCAL/MOL
REMARK 924 INTRA-LIGAND FREE ENERGY PREDICTED BY IDOCK:   -0.38 KCAL/MOL
REMARK 927      BINDING AFFINITY PREDICTED BY RF-SCORE:    0.00 PKD
ROOT
HETATM    1  C   UNL     1     -10.050  10.665  67.579  1.00  0.00    -0.217 C  
HETATM    2  C   UNL     1     -11.533  10.882  67.837  1.00  0.00    -0.344 C  
ENDROOT
BRANCH   2   3
HETATM    3  C   UNL     1     -11.795  11.706  69.064  1.00  0.00    -0.391 A  
HETATM    4  C   UNL     1     -12.040  11.247  70.352  1.00  0.00    -0.384 A  
HETATM    5  C   UNL     1     -12.081   9.868  70.906  1.00  0.00    -0.431 C  
HETATM    6  N   UNL     1     -12.272  12.335  71.155  1.00  0.00    -0.308 NA 
HETATM    7  C   UNL     1     -12.145  13.486  70.420  1.00  0.00    -0.345 A  
HETATM    8  H   UNL     1     -12.502  12.295  72.147  1.00  0.00     0.000 HD 
HETATM    9  C   UNL     1     -11.836  13.134  69.130  1.00  0.00    -0.364 A  
HETATM   10  C   UNL     1     -11.634  14.122  68.086  1.00  0.00    -0.331 C  
HETATM   11  O   UNL     1     -11.408  13.767  66.930  1.00  0.00    -0.308 OA 
HETATM   12  C   UNL     1     -11.774  15.603  68.465  1.00  0.00    -0.339 C  
HETATM   13  C   UNL     1     -12.279  15.932  69.897  1.00  0.00    -0.189 C  
HETATM   14  C   UNL     1     -12.318  14.842  70.975  1.00  0.00    -0.397 C  
BRANCH  12  15
HETATM   15  C   UNL     1     -10.478  16.384  68.130  1.00  0.00    -0.302 C  
BRANCH  15  16
HETATM   16  N   UNL     1     -10.419  16.903  66.759  1.00  0.00    -0.292 NA 
HETATM   17  C   UNL     1     -10.335  18.371  66.633  1.00  0.00    -0.396 C  
HETATM   18  C   UNL     1      -8.915  18.941  66.780  1.00  0.00    -0.313 C  
HETATM   19  O   UNL     1      -7.984  18.289  65.911  1.00  0.00    -0.499 OA 
HETATM   20  C   UNL     1      -7.989  16.874  66.140  1.00  0.00    -0.255 C  
HETATM   21  C   UNL     1      -9.386  16.281  65.919  1.00  0.00    -0.264 C  
ENDBRANCH  15  16
ENDBRANCH  12  15
ENDBRANCH   2   3
TORSDOF 3
ENDMDL
MODEL       20
REMARK 921   NORMALIZED FREE ENERGY PREDICTED BY IDOCK:   -5.52 KCAL/MOL
REMARK 922        TOTAL FREE ENERGY PREDICTED BY IDOCK:   -7.04 KCAL/MOL
REMARK 923 INTER-LIGAND FREE ENERGY PREDICTED BY IDOCK:   -6.56 KCAL/MOL
REMARK 924 INTRA-LIGAND FREE ENERGY PREDICTED BY IDOCK:   -0.47 KCAL/MOL
REMARK 927      BINDING AFFINITY PREDICTED BY RF-SCORE:    0.00 PKD
ROOT
HETATM    1  C   UNL     1     -12.965  10.361  70.781  1.00  0.00    -0.422 C  
HETATM    2  C   UNL     1     -11.657  11.060  70.447  1.00  0.00    -0.389 C  
ENDROOT
BRANCH   2   3
HETATM    3  C   UNL     1     -11.852  12.287  69.604  1.00  0.00    -0.393 A  
HETATM    4  C   UNL     1     -12.217  13.556  70.036  1.00  0.00    -0.312 A  
HETATM    5  C   UNL     1     -12.476  14.087  71.400  1.00  0.00    -0.438 C  
HETATM    6  N   UNL     1     -12.326  14.365  68.933  1.00  0.00    -0.576 NA 
HETATM    7  C   UNL     1     -12.005  13.654  67.805  1.00  0.00    -0.352 A  
HETATM    8  H   UNL     1     -12.602  15.347  68.950  1.00  0.00     0.000 HD 
HETATM    9  C   UNL     1     -11.693  12.373  68.186  1.00  0.00    -0.408 A  
HETATM   10  C   UNL     1     -11.308  11.354  67.228  1.00  0.00    -0.275 C  
HETATM   11  O   UNL     1     -11.085  10.203  67.600  1.00  0.00    -0.301 OA 
HETATM   12  C   UNL     1     -11.252  11.750  65.745  1.00  0.00    -0.337 C  
HETATM   13  C   UNL     1     -11.768  13.164  65.361  1.00  0.00    -0.383 C  
HETATM   14  C   UNL     1     -12.008  14.223  66.444  1.00  0.00    -0.438 C  
BRANCH  12  15
HETATM   15  C   UNL     1      -9.845  11.481  65.154  1.00  0.00    -0.257 C  
BRANCH  15  16
HETATM   16  N   UNL     1      -9.753  10.267  64.336  1.00  0.00    -0.316 NA 
HETATM   17  C   UNL     1      -9.647  10.482  62.880  1.00  0.00    -0.322 C  
HETATM   18  C   UNL     1      -8.223  10.779  62.383  1.00  0.00    -0.221 C  
HETATM   19  O   UNL     1      -7.283   9.799  62.835  1.00  0.00    -0.110 OA 
HETATM   20  C   UNL     1      -7.311   9.698  64.264  1.00  0.00    -0.122 C  
HETATM   21  C   UNL     1      -8.711   9.324  64.767  1.00  0.00    -0.188 C  
ENDBRANCH  15  16
ENDBRANCH  12  15
ENDBRANCH   2   3
TORSDOF 3
ENDMDL
MODEL       21
REMARK 921   NORMALIZED FREE ENERGY PREDICTED BY IDOCK:   -5.50 KCAL/MOL
REMARK 922        TOTAL FREE ENERGY PREDICTED BY IDOCK:   -7.01 KCAL/MOL
REMARK 923 INTER-LIGAND FREE ENERGY PREDICTED BY IDOCK:   -6.41 KCAL/MOL
REMARK 924 INTRA-LIGAND FREE ENERGY PREDICTED BY IDOCK:   -0.59 KCAL/MOL
REMARK 927      BINDING AFFINITY PREDICTED BY RF-SCORE:    0.00 PKD
ROOT
HETATM    1  C   UNL     1     -13.027  11.717  63.294  1.00  0.00    -0.083 C  
HETATM    2  C   UNL     1     -11.940  12.779  63.351  1.00  0.00    -0.613 C  
ENDROOT
BRANCH   2   3
HETATM    3  C   UNL     1     -10.904  12.495  64.400  1.00  0.00    -0.375 A  
HETATM    4  C   UNL     1      -9.803  11.655  64.291  1.00  0.00    -0.230 A  
HETATM    5  C   UNL     1      -9.302  10.843  63.151  1.00  0.00    -0.336 C  
HETATM    6  N   UNL     1      -9.148  11.654  65.497  1.00  0.00    -0.401 NA 
HETATM    7  C   UNL     1      -9.783  12.502  66.368  1.00  0.00    -0.249 A  
HETATM    8  H   UNL     1      -8.315  11.106  65.712  1.00  0.00     0.000 HD 
HETATM    9  C   UNL     1     -10.861  13.049  65.717  1.00  0.00    -0.292 A  
HETATM   10  C   UNL     1     -11.753  13.995  66.361  1.00  0.00    -0.391 C  
HETATM   11  O   UNL     1     -12.739  14.426  65.763  1.00  0.00    -0.396 OA 
HETATM   12  C   UNL     1     -11.457  14.383  67.817  1.00  0.00    -0.360 C  
HETATM   13  C   UNL     1     -10.322  13.613  68.546  1.00  0.00    -0.244 C  
HETATM   14  C   UNL     1      -9.335  12.748  67.751  1.00  0.00    -0.199 C  
BRANCH  12  15
HETATM   15  C   UNL     1     -11.280  15.916  67.955  1.00  0.00    -0.319 C  
BRANCH  15  16
HETATM   16  N   UNL     1      -9.982  16.421  67.494  1.00  0.00    -0.245 NA 
HETATM   17  C   UNL     1     -10.002  17.178  66.228  1.00  0.00    -0.304 C  
HETATM   18  C   UNL     1     -10.387  18.658  66.379  1.00  0.00    -0.432 C  
HETATM   19  O   UNL     1      -9.594  19.319  67.369  1.00  0.00    -0.303 OA 
HETATM   20  C   UNL     1      -9.690  18.639  68.627  1.00  0.00    -0.377 C  
HETATM   21  C   UNL     1      -9.233  17.180  68.506  1.00  0.00    -0.264 C  
ENDBRANCH  15  16
ENDBRANCH  12  15
ENDBRANCH   2   3
TORSDOF 3
ENDMDL
MODEL       22
REMARK 921   NORMALIZED FREE ENERGY PREDICTED BY IDOCK:   -5.50 KCAL/MOL
REMARK 922        TOTAL FREE ENERGY PREDICTED BY IDOCK:   -7.00 KCAL/MOL
REMARK 923 INTER-LIGAND FREE ENERGY PREDICTED BY IDOCK:   -6.53 KCAL/MOL
REMARK 924 INTRA-LIGAND FREE ENERGY PREDICTED BY IDOCK:   -0.47 KCAL/MOL
REMARK 927      BINDING AFFINITY PREDICTED BY RF-SCORE:    0.00 PKD
ROOT
HETATM    1  C   UNL     1     -12.688  11.858  63.284  1.00  0.00    -0.407 C  
HETATM    2  C   UNL     1     -11.333  12.439  63.657  1.00  0.00    -0.556 C  
ENDROOT
BRANCH   2   3
HETATM    3  C   UNL     1     -10.804  11.896  64.953  1.00  0.00    -0.356 A  
HETATM    4  C   UNL     1      -9.957  10.809  65.128  1.00  0.00    -0.291 A  
HETATM    5  C   UNL     1      -9.307   9.907  64.140  1.00  0.00    -0.295 C  
HETATM    6  N   UNL     1      -9.763  10.634  66.475  1.00  0.00    -0.187 NA 
HETATM    7  C   UNL     1     -10.437  11.606  67.169  1.00  0.00    -0.220 A  
HETATM    8  H   UNL     1      -9.202   9.893  66.896  1.00  0.00     0.000 HD 
HETATM    9  C   UNL     1     -11.076  12.410  66.259  1.00  0.00    -0.344 A  
HETATM   10  C   UNL     1     -11.886  13.543  66.664  1.00  0.00    -0.407 C  
HETATM   11  O   UNL     1     -12.486  14.212  65.823  1.00  0.00    -0.466 OA 
HETATM   12  C   UNL     1     -12.013  13.832  68.167  1.00  0.00    -0.394 C  
HETATM   13  C   UNL     1     -11.400  12.798  69.150  1.00  0.00    -0.337 C  
HETATM   14  C   UNL     1     -10.434  11.720  68.639  1.00  0.00    -0.242 C  
BRANCH  12  15
HETATM   15  C   UNL     1     -11.541  15.272  68.495  1.00  0.00    -0.352 C  
BRANCH  15  16
HETATM   16  N   UNL     1     -10.497  15.786  67.602  1.00  0.00    -0.276 NA 
HETATM   17  C   UNL     1     -10.519  17.241  67.361  1.00  0.00    -0.338 C  
HETATM   18  C   UNL     1      -9.828  18.076  68.452  1.00  0.00    -0.366 C  
HETATM   19  O   UNL     1      -8.501  17.612  68.720  1.00  0.00    -0.280 OA 
HETATM   20  C   UNL     1      -8.517  16.225  69.077  1.00  0.00    -0.244 C  
HETATM   21  C   UNL     1      -9.134  15.372  67.962  1.00  0.00    -0.175 C  
ENDBRANCH  15  16
ENDBRANCH  12  15
ENDBRANCH   2   3
TORSDOF 3
ENDMDL
MODEL       23
REMARK 921   NORMALIZED FREE ENERGY PREDICTED BY IDOCK:   -5.45 KCAL/MOL
REMARK 922        TOTAL FREE ENERGY PREDICTED BY IDOCK:   -6.94 KCAL/MOL
REMARK 923 INTER-LIGAND FREE ENERGY PREDICTED BY IDOCK:   -6.50 KCAL/MOL
REMARK 924 INTRA-LIGAND FREE ENERGY PREDICTED BY IDOCK:   -0.44 KCAL/MOL
REMARK 927      BINDING AFFINITY PREDICTED BY RF-SCORE:    0.00 PKD
ROOT
HETATM    1  C   UNL     1      -9.922  10.436  67.440  1.00  0.00    -0.226 C  
HETATM    2  C   UNL     1     -11.351  10.951  67.517  1.00  0.00    -0.309 C  
ENDROOT
BRANCH   2   3
HETATM    3  C   UNL     1     -11.593  11.814  68.722  1.00  0.00    -0.367 A  
HETATM    4  C   UNL     1     -11.851  11.395  70.021  1.00  0.00    -0.359 A  
HETATM    5  C   UNL     1     -11.924  10.032  70.611  1.00  0.00    -0.401 C  
HETATM    6  N   UNL     1     -12.056  12.508  70.795  1.00  0.00    -0.479 NA 
HETATM    7  C   UNL     1     -11.902  13.637  70.030  1.00  0.00    -0.308 A  
HETATM    8  H   UNL     1     -12.288  12.499  71.788  1.00  0.00     0.000 HD 
HETATM    9  C   UNL     1     -11.600  13.244  68.750  1.00  0.00    -0.350 A  
HETATM   10  C   UNL     1     -11.375  14.198  67.682  1.00  0.00    -0.319 C  
HETATM   11  O   UNL     1     -11.157  13.809  66.535  1.00  0.00    -0.300 OA 
HETATM   12  C   UNL     1     -11.479  15.692  68.022  1.00  0.00    -0.294 C  
HETATM   13  C   UNL     1     -11.978  16.070  69.444  1.00  0.00    -0.188 C  
HETATM   14  C   UNL     1     -12.043  15.009  70.550  1.00  0.00    -0.379 C  
BRANCH  12  15
HETATM   15  C   UNL     1     -10.165  16.433  67.668  1.00  0.00    -0.272 C  
BRANCH  15  16
HETATM   16  N   UNL     1     -10.058  17.782  68.234  1.00  0.00    -0.349 NA 
HETATM   17  C   UNL     1      -8.716  18.176  68.704  1.00  0.00    -0.265 C  
HETATM   18  C   UNL     1      -7.783  18.696  67.599  1.00  0.00    -0.231 C  
HETATM   19  O   UNL     1      -8.393  19.739  66.831  1.00  0.00    -0.286 OA 
HETATM   20  C   UNL     1      -9.637  19.293  66.277  1.00  0.00    -0.362 C  
HETATM   21  C   UNL     1     -10.606  18.844  67.377  1.00  0.00    -0.460 C  
ENDBRANCH  15  16
ENDBRANCH  12  15
ENDBRANCH   2   3
TORSDOF 3
ENDMDL
MODEL       24
REMARK 921   NORMALIZED FREE ENERGY PREDICTED BY IDOCK:   -5.44 KCAL/MOL
REMARK 922        TOTAL FREE ENERGY PREDICTED BY IDOCK:   -6.94 KCAL/MOL
REMARK 923 INTER-LIGAND FREE ENERGY PREDICTED BY IDOCK:   -6.75 KCAL/MOL
REMARK 924 INTRA-LIGAND FREE ENERGY PREDICTED BY IDOCK:   -0.18 KCAL/MOL
REMARK 927      BINDING AFFINITY PREDICTED BY RF-SCORE:    0.00 PKD
ROOT
HETATM    1  C   UNL     1     -12.935  10.915  71.775  1.00  0.00    -0.557 C  
HETATM    2  C   UNL     1     -12.324   9.690  71.114  1.00  0.00    -0.427 C  
ENDROOT
BRANCH   2   3
HETATM    3  C   UNL     1     -10.911   9.917  70.661  1.00  0.00    -0.405 A  
HETATM    4  C   UNL     1      -9.753   9.393  71.220  1.00  0.00    -0.139 A  
HETATM    5  C   UNL     1      -9.554   8.458  72.359  1.00  0.00    -0.373 C  
HETATM    6  N   UNL     1      -8.681   9.892  70.525  1.00  0.00    -0.353 NA 
HETATM    7  C   UNL     1      -9.125  10.699  69.509  1.00  0.00     0.040 A  
HETATM    8  H   UNL     1      -7.702   9.694  70.732  1.00  0.00     0.000 HD 
HETATM    9  C   UNL     1     -10.497  10.723  69.555  1.00  0.00    -0.205 A  
HETATM   10  C   UNL     1     -11.288  11.489  68.612  1.00  0.00    -0.269 C  
HETATM   11  O   UNL     1     -12.514  11.528  68.716  1.00  0.00    -0.331 OA 
HETATM   12  C   UNL     1     -10.543  12.289  67.534  1.00  0.00    -0.242 C  
HETATM   13  C   UNL     1      -8.994  12.350  67.630  1.00  0.00    -0.183 C  
HETATM   14  C   UNL     1      -8.236  11.390  68.557  1.00  0.00    -0.153 C  
BRANCH  12  15
HETATM   15  C   UNL     1     -11.005  11.870  66.116  1.00  0.00    -0.308 C  
BRANCH  15  16
HETATM   16  N   UNL     1     -12.301  12.425  65.711  1.00  0.00    -0.603 NA 
HETATM   17  C   UNL     1     -12.493  13.863  65.976  1.00  0.00    -0.461 C  
HETATM   18  C   UNL     1     -11.898  14.792  64.906  1.00  0.00    -0.377 C  
HETATM   19  O   UNL     1     -12.337  14.442  63.590  1.00  0.00    -0.722 OA 
HETATM   20  C   UNL     1     -12.025  13.073  63.304  1.00  0.00    -0.421 C  
HETATM   21  C   UNL     1     -12.679  12.130  64.321  1.00  0.00    -0.264 C  
ENDBRANCH  15  16
ENDBRANCH  12  15
ENDBRANCH   2   3
TORSDOF 3
ENDMDL
MODEL       25
REMARK 921   NORMALIZED FREE ENERGY PREDICTED BY IDOCK:   -5.35 KCAL/MOL
REMARK 922        TOTAL FREE ENERGY PREDICTED BY IDOCK:   -6.83 KCAL/MOL
REMARK 923 INTER-LIGAND FREE ENERGY PREDICTED BY IDOCK:   -6.35 KCAL/MOL
REMARK 924 INTRA-LIGAND FREE ENERGY PREDICTED BY IDOCK:   -0.48 KCAL/MOL
REMARK 927      BINDING AFFINITY PREDICTED BY RF-SCORE:    0.00 PKD
ROOT
HETATM    1  C   UNL     1      -7.402  11.129  67.128  1.00  0.00    -0.121 C  
HETATM    2  C   UNL     1      -8.416  11.889  67.969  1.00  0.00    -0.162 C  
ENDROOT
BRANCH   2   3
HETATM    3  C   UNL     1      -9.742  12.042  67.284  1.00  0.00    -0.190 A  
HETATM    4  C   UNL     1     -10.759  11.099  67.194  1.00  0.00    -0.259 A  
HETATM    5  C   UNL     1     -10.868   9.725  67.752  1.00  0.00    -0.306 C  
HETATM    6  N   UNL     1     -11.773  11.636  66.443  1.00  0.00    -0.439 NA 
HETATM    7  C   UNL     1     -11.448  12.917  66.076  1.00  0.00    -0.340 A  
HETATM    8  H   UNL     1     -12.638  11.156  66.195  1.00  0.00     0.000 HD 
HETATM    9  C   UNL     1     -10.208  13.204  66.592  1.00  0.00    -0.259 A  
HETATM   10  C   UNL     1      -9.564  14.487  66.386  1.00  0.00    -0.303 C  
HETATM   11  O   UNL     1      -8.430  14.690  66.820  1.00  0.00    -0.208 OA 
HETATM   12  C   UNL     1     -10.316  15.543  65.563  1.00  0.00    -0.419 C  
HETATM   13  C   UNL     1     -11.638  15.106  64.875  1.00  0.00    -0.336 C  
HETATM   14  C   UNL     1     -12.321  13.790  65.270  1.00  0.00    -0.491 C  
BRANCH  12  15
HETATM   15  C   UNL     1     -10.507  16.846  66.378  1.00  0.00    -0.252 C  
BRANCH  15  16
HETATM   16  N   UNL     1      -9.801  18.012  65.834  1.00  0.00    -0.553 NA 
HETATM   17  C   UNL     1     -10.519  19.297  65.928  1.00  0.00    -0.451 C  
HETATM   18  C   UNL     1     -10.384  20.002  67.287  1.00  0.00    -0.410 C  
HETATM   19  O   UNL     1      -9.016  20.139  67.685  1.00  0.00    -0.328 OA 
HETATM   20  C   UNL     1      -8.370  18.860  67.711  1.00  0.00    -0.279 C  
HETATM   21  C   UNL     1      -8.430  18.180  66.338  1.00  0.00    -0.238 C  
ENDBRANCH  15  16
ENDBRANCH  12  15
ENDBRANCH   2   3
TORSDOF 3
ENDMDL
MODEL       26
REMARK 921   NORMALIZED FREE ENERGY PREDICTED BY IDOCK:   -5.31 KCAL/MOL
REMARK 922        TOTAL FREE ENERGY PREDICTED BY IDOCK:   -6.78 KCAL/MOL
REMARK 923 INTER-LIGAND FREE ENERGY PREDICTED BY IDOCK:   -6.60 KCAL/MOL
REMARK 924 INTRA-LIGAND FREE ENERGY PREDICTED BY IDOCK:   -0.18 KCAL/MOL
REMARK 927      BINDING AFFINITY PREDICTED BY RF-SCORE:    0.00 PKD
ROOT
HETATM    1  C   UNL     1     -10.041   9.633  69.764  1.00  0.00    -0.258 C  
HETATM    2  C   UNL     1     -11.389  10.082  69.223  1.00  0.00    -0.169 C  
ENDROOT
BRANCH   2   3
HETATM    3  C   UNL     1     -11.882  11.345  69.867  1.00  0.00    -0.435 A  
HETATM    4  C   UNL     1     -12.635  11.461  71.029  1.00  0.00    -0.386 A  
HETATM    5  C   UNL     1     -13.133  10.429  71.977  1.00  0.00    -0.521 C  
HETATM    6  N   UNL     1     -12.905  12.791  71.231  1.00  0.00    -0.327 NA 
HETATM    7  C   UNL     1     -12.312  13.537  70.245  1.00  0.00    -0.300 A  
HETATM    8  H   UNL     1     -13.461  13.167  71.999  1.00  0.00     0.000 HD 
HETATM    9  C   UNL     1     -11.660  12.677  69.396  1.00  0.00    -0.369 A  
HETATM   10  C   UNL     1     -10.926  13.145  68.236  1.00  0.00    -0.253 C  
HETATM   11  O   UNL     1     -10.397  12.341  67.469  1.00  0.00    -0.201 OA 
HETATM   12  C   UNL     1     -10.890  14.658  67.973  1.00  0.00    -0.260 C  
HETATM   13  C   UNL     1     -11.775  15.563  68.874  1.00  0.00    -0.385 C  
HETATM   14  C   UNL     1     -12.391  15.007  70.164  1.00  0.00    -0.380 C  
BRANCH  12  15
HETATM   15  C   UNL     1      -9.430  15.174  67.914  1.00  0.00    -0.194 C  
BRANCH  15  16
HETATM   16  N   UNL     1      -8.984  15.581  66.577  1.00  0.00    -0.288 NA 
HETATM   17  C   UNL     1      -9.798  15.083  65.451  1.00  0.00    -0.277 C  
HETATM   18  C   UNL     1     -11.052  15.921  65.155  1.00  0.00    -0.311 C  
HETATM   19  O   UNL     1     -10.744  17.310  65.002  1.00  0.00    -0.708 OA 
HETATM   20  C   UNL     1     -10.066  17.805  66.163  1.00  0.00    -0.304 C  
HETATM   21  C   UNL     1      -8.771  17.027  66.423  1.00  0.00    -0.273 C  
ENDBRANCH  15  16
ENDBRANCH  12  15
ENDBRANCH   2   3
TORSDOF 3
ENDMDL
MODEL       27
REMARK 921   NORMALIZED FREE ENERGY PREDICTED BY IDOCK:   -5.30 KCAL/MOL
REMARK 922        TOTAL FREE ENERGY PREDICTED BY IDOCK:   -6.77 KCAL/MOL
REMARK 923 INTER-LIGAND FREE ENERGY PREDICTED BY IDOCK:   -6.18 KCAL/MOL
REMARK 924 INTRA-LIGAND FREE ENERGY PREDICTED BY IDOCK:   -0.59 KCAL/MOL
REMARK 927      BINDING AFFINITY PREDICTED BY RF-SCORE:    0.00 PKD
ROOT
HETATM    1  C   UNL     1      -7.987  16.744  68.875  1.00  0.00    -0.237 C  
HETATM    2  C   UNL     1      -9.473  17.044  68.754  1.00  0.00    -0.263 C  
ENDROOT
BRANCH   2   3
HETATM    3  C   UNL     1     -10.013  16.763  67.382  1.00  0.00    -0.267 A  
HETATM    4  C   UNL     1     -10.007  17.613  66.283  1.00  0.00    -0.318 A  
HETATM    5  C   UNL     1      -9.458  18.984  66.112  1.00  0.00    -0.260 C  
HETATM    6  N   UNL     1     -10.641  16.975  65.247  1.00  0.00    -0.655 NA 
HETATM    7  C   UNL     1     -11.024  15.719  65.644  1.00  0.00    -0.243 A  
HETATM    8  H   UNL     1     -10.802  17.373  64.323  1.00  0.00     0.000 HD 
HETATM    9  C   UNL     1     -10.637  15.550  66.950  1.00  0.00    -0.307 A  
HETATM   10  C   UNL     1     -10.894  14.323  67.680  1.00  0.00    -0.268 C  
HETATM   11  O   UNL     1     -10.578  14.227  68.866  1.00  0.00    -0.242 OA 
HETATM   12  C   UNL     1     -11.620  13.189  66.942  1.00  0.00    -0.417 C  
HETATM   13  C   UNL     1     -12.170  13.496  65.523  1.00  0.00    -0.490 C  
HETATM   14  C   UNL     1     -11.722  14.756  64.772  1.00  0.00    -0.422 C  
BRANCH  12  15
HETATM   15  C   UNL     1     -10.772  11.892  66.952  1.00  0.00    -0.246 C  
BRANCH  15  16
HETATM   16  N   UNL     1     -11.443  10.733  67.552  1.00  0.00    -0.487 NA 
HETATM   17  C   UNL     1     -10.654   9.487  67.594  1.00  0.00    -0.269 C  
HETATM   18  C   UNL     1      -9.684   9.389  68.782  1.00  0.00    -0.156 C  
HETATM   19  O   UNL     1     -10.340   9.632  70.030  1.00  0.00    -0.221 OA 
HETATM   20  C   UNL     1     -10.995  10.907  70.014  1.00  0.00    -0.151 C  
HETATM   21  C   UNL     1     -12.022  10.989  68.878  1.00  0.00    -0.262 C  
ENDBRANCH  15  16
ENDBRANCH  12  15
ENDBRANCH   2   3
TORSDOF 3
ENDMDL
MODEL       28
REMARK 921   NORMALIZED FREE ENERGY PREDICTED BY IDOCK:   -5.29 KCAL/MOL
REMARK 922        TOTAL FREE ENERGY PREDICTED BY IDOCK:   -6.76 KCAL/MOL
REMARK 923 INTER-LIGAND FREE ENERGY PREDICTED BY IDOCK:   -6.18 KCAL/MOL
REMARK 924 INTRA-LIGAND FREE ENERGY PREDICTED BY IDOCK:   -0.58 KCAL/MOL
REMARK 927      BINDING AFFINITY PREDICTED BY RF-SCORE:    0.00 PKD
ROOT
HETATM    1  C   UNL     1     -12.314  13.170  63.747  1.00  0.00    -0.459 C  
HETATM    2  C   UNL     1     -12.236  12.409  65.061  1.00  0.00    -0.465 C  
ENDROOT
BRANCH   2   3
HETATM    3  C   UNL     1     -10.845  12.356  65.622  1.00  0.00    -0.312 A  
HETATM    4  C   UNL     1      -9.835  11.463  65.288  1.00  0.00    -0.248 A  
HETATM    5  C   UNL     1      -9.797  10.358  64.294  1.00  0.00    -0.388 C  
HETATM    6  N   UNL     1      -8.743  11.742  66.071  1.00  0.00    -0.386 NA 
HETATM    7  C   UNL     1      -9.016  12.818  66.876  1.00  0.00    -0.213 A  
HETATM    8  H   UNL     1      -7.863  11.228  66.056  1.00  0.00     0.000 HD 
HETATM    9  C   UNL     1     -10.298  13.231  66.613  1.00  0.00    -0.274 A  
HETATM   10  C   UNL     1     -10.905  14.355  67.300  1.00  0.00    -0.290 C  
HETATM   11  O   UNL     1     -12.075  14.664  67.074  1.00  0.00    -0.357 OA 
HETATM   12  C   UNL     1     -10.062  15.093  68.350  1.00  0.00    -0.225 C  
HETATM   13  C   UNL     1      -8.681  14.484  68.716  1.00  0.00    -0.147 C  
HETATM   14  C   UNL     1      -8.056  13.393  67.836  1.00  0.00    -0.162 C  
BRANCH  12  15
HETATM   15  C   UNL     1      -9.941  16.599  68.003  1.00  0.00    -0.258 C  
BRANCH  15  16
HETATM   16  N   UNL     1      -9.761  16.880  66.575  1.00  0.00    -0.267 NA 
HETATM   17  C   UNL     1     -10.383  18.125  66.084  1.00  0.00    -0.385 C  
HETATM   18  C   UNL     1      -9.541  19.389  66.315  1.00  0.00    -0.375 C  
HETATM   19  O   UNL     1      -8.206  19.242  65.819  1.00  0.00    -0.445 OA 
HETATM   20  C   UNL     1      -7.575  18.098  66.407  1.00  0.00    -0.256 C  
HETATM   21  C   UNL     1      -8.366  16.817  66.116  1.00  0.00    -0.266 C  
ENDBRANCH  15  16
ENDBRANCH  12  15
ENDBRANCH   2   3
TORSDOF 3
ENDMDL
MODEL       29
REMARK 921   NORMALIZED FREE ENERGY PREDICTED BY IDOCK:   -5.28 KCAL/MOL
REMARK 922        TOTAL FREE ENERGY PREDICTED BY IDOCK:   -6.75 KCAL/MOL
REMARK 923 INTER-LIGAND FREE ENERGY PREDICTED BY IDOCK:   -6.14 KCAL/MOL
REMARK 924 INTRA-LIGAND FREE ENERGY PREDICTED BY IDOCK:   -0.61 KCAL/MOL
REMARK 927      BINDING AFFINITY PREDICTED BY RF-SCORE:    0.00 PKD
ROOT
HETATM    1  C   UNL     1      -5.158  17.016  67.192  1.00  0.00    -0.174 C  
HETATM    2  C   UNL     1      -5.604  18.299  67.875  1.00  0.00    -0.157 C  
ENDROOT
BRANCH   2   3
HETATM    3  C   UNL     1      -6.681  19.018  67.117  1.00  0.00    -0.203 A  
HETATM    4  C   UNL     1      -6.522  20.045  66.196  1.00  0.00    -0.206 A  
HETATM    5  C   UNL     1      -5.297  20.700  65.664  1.00  0.00    -0.224 C  
HETATM    6  N   UNL     1      -7.768  20.441  65.779  1.00  0.00    -0.542 NA 
HETATM    7  C   UNL     1      -8.724  19.668  66.385  1.00  0.00    -0.368 A  
HETATM    8  H   UNL     1      -7.954  21.196  65.119  1.00  0.00     0.000 HD 
HETATM    9  C   UNL     1      -8.087  18.769  67.204  1.00  0.00    -0.259 A  
HETATM   10  C   UNL     1      -8.814  17.798  67.999  1.00  0.00    -0.259 C  
HETATM   11  O   UNL     1      -8.211  17.042  68.761  1.00  0.00    -0.253 OA 
HETATM   12  C   UNL     1     -10.346  17.792  67.900  1.00  0.00    -0.388 C  
HETATM   13  C   UNL     1     -11.014  18.932  67.082  1.00  0.00    -0.288 C  
HETATM   14  C   UNL     1     -10.173  19.817  66.154  1.00  0.00    -0.618 C  
BRANCH  12  15
HETATM   15  C   UNL     1     -10.867  16.401  67.460  1.00  0.00    -0.249 C  
BRANCH  15  16
HETATM   16  N   UNL     1     -10.157  15.822  66.314  1.00  0.00    -0.284 NA 
HETATM   17  C   UNL     1      -9.542  14.500  66.543  1.00  0.00    -0.293 C  
HETATM   18  C   UNL     1     -10.508  13.315  66.388  1.00  0.00    -0.284 C  
HETATM   19  O   UNL     1     -11.210  13.355  65.142  1.00  0.00    -0.297 OA 
HETATM   20  C   UNL     1     -11.906  14.599  64.997  1.00  0.00    -0.377 C  
HETATM   21  C   UNL     1     -10.940  15.787  65.071  1.00  0.00    -0.417 C  
ENDBRANCH  15  16
ENDBRANCH  12  15
ENDBRANCH   2   3
TORSDOF 3
ENDMDL
MODEL       30
REMARK 921   NORMALIZED FREE ENERGY PREDICTED BY IDOCK:   -5.28 KCAL/MOL
REMARK 922        TOTAL FREE ENERGY PREDICTED BY IDOCK:   -6.75 KCAL/MOL
REMARK 923 INTER-LIGAND FREE ENERGY PREDICTED BY IDOCK:   -6.14 KCAL/MOL
REMARK 924 INTRA-LIGAND FREE ENERGY PREDICTED BY IDOCK:   -0.61 KCAL/MOL
REMARK 927      BINDING AFFINITY PREDICTED BY RF-SCORE:    0.00 PKD
ROOT
HETATM    1  C   UNL     1      -7.060  17.741  65.997  1.00  0.00    -0.335 C  
HETATM    2  C   UNL     1      -7.179  17.270  67.437  1.00  0.00    -0.183 C  
ENDROOT
BRANCH   2   3
HETATM    3  C   UNL     1      -8.594  17.283  67.938  1.00  0.00    -0.223 A  
HETATM    4  C   UNL     1      -9.338  18.387  68.335  1.00  0.00    -0.329 A  
HETATM    5  C   UNL     1      -9.004  19.835  68.351  1.00  0.00    -0.319 C  
HETATM    6  N   UNL     1     -10.563  17.943  68.763  1.00  0.00    -0.356 NA 
HETATM    7  C   UNL     1     -10.637  16.581  68.619  1.00  0.00    -0.316 A  
HETATM    8  H   UNL     1     -11.306  18.535  69.133  1.00  0.00     0.000 HD 
HETATM    9  C   UNL     1      -9.445  16.145  68.097  1.00  0.00    -0.209 A  
HETATM   10  C   UNL     1      -9.189  14.744  67.820  1.00  0.00    -0.194 C  
HETATM   11  O   UNL     1      -8.089  14.383  67.401  1.00  0.00    -0.176 OA 
HETATM   12  C   UNL     1     -10.307  13.737  68.126  1.00  0.00    -0.252 C  
HETATM   13  C   UNL     1     -11.569  14.269  68.860  1.00  0.00    -0.340 C  
HETATM   14  C   UNL     1     -11.822  15.778  68.973  1.00  0.00    -0.367 C  
BRANCH  12  15
HETATM   15  C   UNL     1     -10.688  12.932  66.859  1.00  0.00    -0.257 C  
BRANCH  15  16
HETATM   16  N   UNL     1     -11.164  13.752  65.739  1.00  0.00    -0.295 NA 
HETATM   17  C   UNL     1     -10.375  13.658  64.496  1.00  0.00    -0.330 C  
HETATM   18  C   UNL     1     -10.730  12.456  63.607  1.00  0.00    -0.455 C  
HETATM   19  O   UNL     1     -12.134  12.384  63.340  1.00  0.00    -0.508 OA 
HETATM   20  C   UNL     1     -12.877  12.347  64.565  1.00  0.00    -0.212 C  
HETATM   21  C   UNL     1     -12.590  13.583  65.426  1.00  0.00    -0.483 C  
ENDBRANCH  15  16
ENDBRANCH  12  15
ENDBRANCH   2   3
TORSDOF 3
ENDMDL
MODEL       31
REMARK 921   NORMALIZED FREE ENERGY PREDICTED BY IDOCK:   -5.22 KCAL/MOL
REMARK 922        TOTAL FREE ENERGY PREDICTED BY IDOCK:   -6.67 KCAL/MOL
REMARK 923 INTER-LIGAND FREE ENERGY PREDICTED BY IDOCK:   -6.12 KCAL/MOL
REMARK 924 INTRA-LIGAND FREE ENERGY PREDICTED BY IDOCK:   -0.55 KCAL/MOL
REMARK 927      BINDING AFFINITY PREDICTED BY RF-SCORE:    0.00 PKD
ROOT
HETATM    1  C   UNL     1     -12.028  13.083  63.851  1.00  0.00    -0.551 C  
HETATM    2  C   UNL     1     -10.568  13.213  64.252  1.00  0.00    -0.432 C  
ENDROOT
BRANCH   2   3
HETATM    3  C   UNL     1     -10.386  13.430  65.727  1.00  0.00    -0.296 A  
HETATM    4  C   UNL     1     -10.148  12.465  66.697  1.00  0.00    -0.221 A  
HETATM    5  C   UNL     1      -9.965  10.993  66.588  1.00  0.00    -0.249 C  
HETATM    6  N   UNL     1     -10.093  13.092  67.916  1.00  0.00    -0.229 NA 
HETATM    7  C   UNL     1     -10.256  14.443  67.748  1.00  0.00    -0.230 A  
HETATM    8  H   UNL     1      -9.952  12.624  68.812  1.00  0.00     0.000 HD 
HETATM    9  C   UNL     1     -10.423  14.686  66.408  1.00  0.00    -0.296 A  
HETATM   10  C   UNL     1     -10.624  16.024  65.885  1.00  0.00    -0.328 C  
HETATM   11  O   UNL     1     -10.822  16.199  64.683  1.00  0.00    -0.650 OA 
HETATM   12  C   UNL     1     -10.642  17.190  66.885  1.00  0.00    -0.209 C  
HETATM   13  C   UNL     1     -10.607  16.836  68.397  1.00  0.00    -0.354 C  
HETATM   14  C   UNL     1     -10.240  15.418  68.854  1.00  0.00    -0.219 C  
BRANCH  12  15
HETATM   15  C   UNL     1      -9.564  18.243  66.526  1.00  0.00    -0.320 C  
BRANCH  15  16
HETATM   16  N   UNL     1      -8.256  18.009  67.147  1.00  0.00    -0.217 NA 
HETATM   17  C   UNL     1      -7.180  17.580  66.234  1.00  0.00    -0.316 C  
HETATM   18  C   UNL     1      -6.484  18.729  65.487  1.00  0.00    -0.282 C  
HETATM   19  O   UNL     1      -6.032  19.751  66.381  1.00  0.00    -0.171 OA 
HETATM   20  C   UNL     1      -7.120  20.245  67.171  1.00  0.00    -0.271 C  
HETATM   21  C   UNL     1      -7.774  19.119  67.981  1.00  0.00    -0.283 C  
ENDBRANCH  15  16
ENDBRANCH  12  15
ENDBRANCH   2   3
TORSDOF 3
ENDMDL
MODEL       32
REMARK 921   NORMALIZED FREE ENERGY PREDICTED BY IDOCK:   -5.21 KCAL/MOL
REMARK 922        TOTAL FREE ENERGY PREDICTED BY IDOCK:   -6.67 KCAL/MOL
REMARK 923 INTER-LIGAND FREE ENERGY PREDICTED BY IDOCK:   -6.22 KCAL/MOL
REMARK 924 INTRA-LIGAND FREE ENERGY PREDICTED BY IDOCK:   -0.45 KCAL/MOL
REMARK 927      BINDING AFFINITY PREDICTED BY RF-SCORE:    0.00 PKD
ROOT
HETATM    1  C   UNL     1      -6.328  20.472  66.092  1.00  0.00    -0.260 C  
HETATM    2  C   UNL     1      -7.548  20.063  66.902  1.00  0.00    -0.313 C  
ENDROOT
BRANCH   2   3
HETATM    3  C   UNL     1      -7.258  18.955  67.872  1.00  0.00    -0.260 A  
HETATM    4  C   UNL     1      -6.633  19.059  69.108  1.00  0.00    -0.291 A  
HETATM    5  C   UNL     1      -6.117  20.242  69.845  1.00  0.00    -0.380 C  
HETATM    6  N   UNL     1      -6.530  17.798  69.641  1.00  0.00    -0.189 NA 
HETATM    7  C   UNL     1      -7.107  16.890  68.790  1.00  0.00    -0.216 A  
HETATM    8  H   UNL     1      -6.093  17.572  70.534  1.00  0.00     0.000 HD 
HETATM    9  C   UNL     1      -7.579  17.572  67.697  1.00  0.00    -0.203 A  
HETATM   10  C   UNL     1      -8.248  16.902  66.598  1.00  0.00    -0.257 C  
HETATM   11  O   UNL     1      -8.613  17.540  65.611  1.00  0.00    -0.431 OA 
HETATM   12  C   UNL     1      -8.425  15.380  66.687  1.00  0.00    -0.296 C  
HETATM   13  C   UNL     1      -7.732  14.646  67.869  1.00  0.00    -0.149 C  
HETATM   14  C   UNL     1      -7.181  15.442  69.060  1.00  0.00    -0.153 C  
BRANCH  12  15
HETATM   15  C   UNL     1      -9.920  14.989  66.580  1.00  0.00    -0.263 C  
BRANCH  15  16
HETATM   16  N   UNL     1     -10.293  14.362  65.307  1.00  0.00    -0.378 NA 
HETATM   17  C   UNL     1     -10.222  12.889  65.273  1.00  0.00    -0.278 C  
HETATM   18  C   UNL     1     -11.460  12.180  65.845  1.00  0.00    -0.363 C  
HETATM   19  O   UNL     1     -12.672  12.657  65.253  1.00  0.00    -0.652 OA 
HETATM   20  C   UNL     1     -12.783  14.077  65.410  1.00  0.00    -0.471 C  
HETATM   21  C   UNL     1     -11.591  14.800  64.772  1.00  0.00    -0.418 C  
ENDBRANCH  15  16
ENDBRANCH  12  15
ENDBRANCH   2   3
TORSDOF 3
ENDMDL
MODEL       33
REMARK 921   NORMALIZED FREE ENERGY PREDICTED BY IDOCK:   -5.18 KCAL/MOL
REMARK 922        TOTAL FREE ENERGY PREDICTED BY IDOCK:   -6.63 KCAL/MOL
REMARK 923 INTER-LIGAND FREE ENERGY PREDICTED BY IDOCK:   -6.08 KCAL/MOL
REMARK 924 INTRA-LIGAND FREE ENERGY PREDICTED BY IDOCK:   -0.55 KCAL/MOL
REMARK 927      BINDING AFFINITY PREDICTED BY RF-SCORE:    0.00 PKD
ROOT
HETATM    1  C   UNL     1      -8.312   6.979  70.671  1.00  0.00    -0.127 C  
HETATM    2  C   UNL     1      -8.532   8.044  71.733  1.00  0.00    -0.164 C  
ENDROOT
BRANCH   2   3
HETATM    3  C   UNL     1      -9.977   8.207  72.103  1.00  0.00    -0.315 A  
HETATM    4  C   UNL     1     -10.672   7.541  73.105  1.00  0.00    -0.398 A  
HETATM    5  C   UNL     1     -10.221   6.537  74.104  1.00  0.00    -0.380 C  
HETATM    6  N   UNL     1     -11.978   7.959  73.067  1.00  0.00    -0.646 NA 
HETATM    7  C   UNL     1     -12.132   8.905  72.087  1.00  0.00    -0.359 A  
HETATM    8  H   UNL     1     -12.721   7.618  73.677  1.00  0.00     0.000 HD 
HETATM    9  C   UNL     1     -10.914   9.093  71.484  1.00  0.00    -0.434 A  
HETATM   10  C   UNL     1     -10.727  10.034  70.395  1.00  0.00    -0.307 C  
HETATM   11  O   UNL     1      -9.631  10.139  69.844  1.00  0.00    -0.213 OA 
HETATM   12  C   UNL     1     -11.949  10.836  69.924  1.00  0.00    -0.418 C  
HETATM   13  C   UNL     1     -13.328  10.466  70.536  1.00  0.00     0.049 C  
HETATM   14  C   UNL     1     -13.410   9.576  71.782  1.00  0.00    -0.501 C  
BRANCH  12  15
HETATM   15  C   UNL     1     -11.679  12.359  70.018  1.00  0.00    -0.230 C  
BRANCH  15  16
HETATM   16  N   UNL     1     -12.151  13.131  68.862  1.00  0.00    -0.264 NA 
HETATM   17  C   UNL     1     -11.704  14.536  68.804  1.00  0.00    -0.327 C  
HETATM   18  C   UNL     1     -10.300  14.731  68.208  1.00  0.00    -0.238 C  
HETATM   19  O   UNL     1     -10.164  14.088  66.938  1.00  0.00    -0.255 OA 
HETATM   20  C   UNL     1     -10.480  12.694  67.043  1.00  0.00    -0.232 C  
HETATM   21  C   UNL     1     -11.908  12.487  67.563  1.00  0.00    -0.323 C  
ENDBRANCH  15  16
ENDBRANCH  12  15
ENDBRANCH   2   3
TORSDOF 3
ENDMDL
MODEL       34
REMARK 921   NORMALIZED FREE ENERGY PREDICTED BY IDOCK:   -5.18 KCAL/MOL
REMARK 922        TOTAL FREE ENERGY PREDICTED BY IDOCK:   -6.63 KCAL/MOL
REMARK 923 INTER-LIGAND FREE ENERGY PREDICTED BY IDOCK:   -6.58 KCAL/MOL
REMARK 924 INTRA-LIGAND FREE ENERGY PREDICTED BY IDOCK:   -0.05 KCAL/MOL
REMARK 927      BINDING AFFINITY PREDICTED BY RF-SCORE:    0.00 PKD
ROOT
HETATM    1  C   UNL     1     -10.926   6.359  67.153  1.00  0.00    -0.476 C  
HETATM    2  C   UNL     1      -9.847   7.183  67.838  1.00  0.00    -0.170 C  
ENDROOT
BRANCH   2   3
HETATM    3  C   UNL     1     -10.407   8.296  68.674  1.00  0.00    -0.225 A  
HETATM    4  C   UNL     1     -10.726   8.258  70.026  1.00  0.00    -0.239 A  
HETATM    5  C   UNL     1     -10.584   7.173  71.032  1.00  0.00    -0.239 C  
HETATM    6  N   UNL     1     -11.251   9.476  70.374  1.00  0.00    -0.257 NA 
HETATM    7  C   UNL     1     -11.245  10.310  69.286  1.00  0.00    -0.228 A  
HETATM    8  H   UNL     1     -11.593   9.725  71.303  1.00  0.00     0.000 HD 
HETATM    9  C   UNL     1     -10.716   9.618  68.225  1.00  0.00    -0.262 A  
HETATM   10  C   UNL     1     -10.568  10.214  66.911  1.00  0.00    -0.200 C  
HETATM   11  O   UNL     1     -10.137   9.547  65.970  1.00  0.00    -0.295 OA 
HETATM   12  C   UNL     1     -11.021  11.670  66.728  1.00  0.00    -0.341 C  
HETATM   13  C   UNL     1     -11.755  12.346  67.919  1.00  0.00    -0.421 C  
HETATM   14  C   UNL     1     -11.730  11.702  69.312  1.00  0.00    -0.396 C  
BRANCH  12  15
HETATM   15  C   UNL     1      -9.858  12.551  66.208  1.00  0.00    -0.252 C  
BRANCH  15  16
HETATM   16  N   UNL     1     -10.056  13.079  64.854  1.00  0.00    -0.252 NA 
HETATM   17  C   UNL     1     -10.830  12.221  63.937  1.00  0.00    -0.412 C  
HETATM   18  C   UNL     1     -12.355  12.352  64.080  1.00  0.00    -0.467 C  
HETATM   19  O   UNL     1     -12.785  13.714  64.005  1.00  0.00    -0.666 OA 
HETATM   20  C   UNL     1     -12.113  14.508  64.991  1.00  0.00    -0.389 C  
HETATM   21  C   UNL     1     -10.591  14.448  64.810  1.00  0.00    -0.393 C  
ENDBRANCH  15  16
ENDBRANCH  12  15
ENDBRANCH   2   3
TORSDOF 3
ENDMDL
MODEL       35
REMARK 921   NORMALIZED FREE ENERGY PREDICTED BY IDOCK:   -5.17 KCAL/MOL
REMARK 922        TOTAL FREE ENERGY PREDICTED BY IDOCK:   -6.62 KCAL/MOL
REMARK 923 INTER-LIGAND FREE ENERGY PREDICTED BY IDOCK:   -6.05 KCAL/MOL
REMARK 924 INTRA-LIGAND FREE ENERGY PREDICTED BY IDOCK:   -0.58 KCAL/MOL
REMARK 927      BINDING AFFINITY PREDICTED BY RF-SCORE:    0.00 PKD
ROOT
HETATM    1  C   UNL     1     -11.458  15.354  71.767  1.00  0.00    -0.497 C  
HETATM    2  C   UNL     1     -12.447  14.892  70.709  1.00  0.00    -0.401 C  
ENDROOT
BRANCH   2   3
HETATM    3  C   UNL     1     -11.775  14.411  69.456  1.00  0.00    -0.362 A  
HETATM    4  C   UNL     1     -11.299  15.183  68.404  1.00  0.00    -0.315 A  
HETATM    5  C   UNL     1     -11.268  16.657  68.211  1.00  0.00    -0.220 C  
HETATM    6  N   UNL     1     -10.802  14.337  67.445  1.00  0.00    -0.282 NA 
HETATM    7  C   UNL     1     -10.915  13.039  67.872  1.00  0.00    -0.241 A  
HETATM    8  H   UNL     1     -10.408  14.629  66.551  1.00  0.00     0.000 HD 
HETATM    9  C   UNL     1     -11.497  13.050  69.115  1.00  0.00    -0.353 A  
HETATM   10  C   UNL     1     -11.763  11.831  69.855  1.00  0.00    -0.323 C  
HETATM   11  O   UNL     1     -12.333  11.876  70.945  1.00  0.00    -0.373 OA 
HETATM   12  C   UNL     1     -11.369  10.497  69.204  1.00  0.00    -0.319 C  
HETATM   13  C   UNL     1     -10.863  10.538  67.736  1.00  0.00    -0.347 C  
HETATM   14  C   UNL     1     -10.467  11.872  67.089  1.00  0.00    -0.249 C  
BRANCH  12  15
HETATM   15  C   UNL     1     -10.398   9.704  70.114  1.00  0.00    -0.266 C  
BRANCH  15  16
HETATM   16  N   UNL     1     -10.817   8.326  70.394  1.00  0.00    -0.234 NA 
HETATM   17  C   UNL     1      -9.867   7.514  71.179  1.00  0.00    -0.173 C  
HETATM   18  C   UNL     1      -9.959   7.722  72.699  1.00  0.00    -0.238 C  
HETATM   19  O   UNL     1     -11.298   7.568  73.180  1.00  0.00    -0.331 OA 
HETATM   20  C   UNL     1     -12.184   8.460  72.492  1.00  0.00    -0.316 C  
HETATM   21  C   UNL     1     -12.160   8.208  70.980  1.00  0.00    -0.207 C  
ENDBRANCH  15  16
ENDBRANCH  12  15
ENDBRANCH   2   3
TORSDOF 3
ENDMDL
MODEL       36
REMARK 921   NORMALIZED FREE ENERGY PREDICTED BY IDOCK:   -5.17 KCAL/MOL
REMARK 922        TOTAL FREE ENERGY PREDICTED BY IDOCK:   -6.62 KCAL/MOL
REMARK 923 INTER-LIGAND FREE ENERGY PREDICTED BY IDOCK:   -6.05 KCAL/MOL
REMARK 924 INTRA-LIGAND FREE ENERGY PREDICTED BY IDOCK:   -0.57 KCAL/MOL
REMARK 927      BINDING AFFINITY PREDICTED BY RF-SCORE:    0.00 PKD
ROOT
HETATM    1  C   UNL     1      -9.057  15.290  69.942  1.00  0.00     0.099 C  
HETATM    2  C   UNL     1     -10.300  16.065  69.535  1.00  0.00    -0.278 C  
ENDROOT
BRANCH   2   3
HETATM    3  C   UNL     1     -10.305  16.434  68.080  1.00  0.00    -0.283 A  
HETATM    4  C   UNL     1      -9.683  17.524  67.485  1.00  0.00    -0.278 A  
HETATM    5  C   UNL     1      -8.825  18.594  68.061  1.00  0.00    -0.329 C  
HETATM    6  N   UNL     1      -9.982  17.507  66.146  1.00  0.00    -0.453 NA 
HETATM    7  C   UNL     1     -10.753  16.410  65.860  1.00  0.00    -0.214 A  
HETATM    8  H   UNL     1      -9.676  18.203  65.467  1.00  0.00     0.000 HD 
HETATM    9  C   UNL     1     -10.958  15.719  67.028  1.00  0.00    -0.221 A  
HETATM   10  C   UNL     1     -11.742  14.499  67.077  1.00  0.00    -0.393 C  
HETATM   11  O   UNL     1     -11.946  13.934  68.152  1.00  0.00    -0.355 OA 
HETATM   12  C   UNL     1     -12.348  13.984  65.764  1.00  0.00    -0.506 C  
HETATM   13  C   UNL     1     -12.216  14.890  64.510  1.00  0.00    -0.396 C  
HETATM   14  C   UNL     1     -11.245  16.078  64.510  1.00  0.00    -0.309 C  
BRANCH  12  15
HETATM   15  C   UNL     1     -11.878  12.537  65.469  1.00  0.00    -0.439 C  
BRANCH  15  16
HETATM   16  N   UNL     1     -10.427  12.392  65.308  1.00  0.00    -0.279 NA 
HETATM   17  C   UNL     1      -9.798  11.322  66.105  1.00  0.00    -0.225 C  
HETATM   18  C   UNL     1      -9.886   9.923  65.473  1.00  0.00    -0.311 C  
HETATM   19  O   UNL     1      -9.411   9.915  64.124  1.00  0.00    -0.266 OA 
HETATM   20  C   UNL     1     -10.125  10.874  63.334  1.00  0.00    -0.340 C  
HETATM   21  C   UNL     1      -9.979  12.287  63.912  1.00  0.00    -0.277 C  
ENDBRANCH  15  16
ENDBRANCH  12  15
ENDBRANCH   2   3
TORSDOF 3
ENDMDL
MODEL       37
REMARK 921   NORMALIZED FREE ENERGY PREDICTED BY IDOCK:   -5.16 KCAL/MOL
REMARK 922        TOTAL FREE ENERGY PREDICTED BY IDOCK:   -6.61 KCAL/MOL
REMARK 923 INTER-LIGAND FREE ENERGY PREDICTED BY IDOCK:   -6.25 KCAL/MOL
REMARK 924 INTRA-LIGAND FREE ENERGY PREDICTED BY IDOCK:   -0.36 KCAL/MOL
REMARK 927      BINDING AFFINITY PREDICTED BY RF-SCORE:    0.00 PKD
ROOT
HETATM    1  C   UNL     1      -8.727  10.033  64.695  1.00  0.00    -0.210 C  
HETATM    2  C   UNL     1     -10.150  10.544  64.856  1.00  0.00    -0.403 C  
ENDROOT
BRANCH   2   3
HETATM    3  C   UNL     1     -10.586  10.608  66.291  1.00  0.00    -0.229 A  
HETATM    4  C   UNL     1     -10.726   9.548  67.178  1.00  0.00    -0.182 A  
HETATM    5  C   UNL     1     -10.464   8.094  67.011  1.00  0.00    -0.396 C  
HETATM    6  N   UNL     1     -11.190  10.047  68.369  1.00  0.00    -0.490 NA 
HETATM    7  C   UNL     1     -11.318  11.409  68.279  1.00  0.00    -0.286 A  
HETATM    8  H   UNL     1     -11.406   9.490  69.195  1.00  0.00     0.000 HD 
HETATM    9  C   UNL     1     -10.939  11.789  67.016  1.00  0.00    -0.333 A  
HETATM   10  C   UNL     1     -10.958  13.175  66.588  1.00  0.00    -0.283 C  
HETATM   11  O   UNL     1     -10.660  13.473  65.431  1.00  0.00    -0.288 OA 
HETATM   12  C   UNL     1     -11.419  14.233  67.601  1.00  0.00    -0.370 C  
HETATM   13  C   UNL     1     -11.984  13.727  68.957  1.00  0.00    -0.399 C  
HETATM   14  C   UNL     1     -11.783  12.267  69.385  1.00  0.00    -0.392 C  
BRANCH  12  15
HETATM   15  C   UNL     1     -10.325  15.310  67.812  1.00  0.00    -0.244 C  
BRANCH  15  16
HETATM   16  N   UNL     1     -10.643  16.619  67.233  1.00  0.00    -0.310 NA 
HETATM   17  C   UNL     1     -10.633  17.756  68.174  1.00  0.00    -0.344 C  
HETATM   18  C   UNL     1      -9.239  18.348  68.439  1.00  0.00    -0.322 C  
HETATM   19  O   UNL     1      -8.554  18.670  67.225  1.00  0.00    -0.261 OA 
HETATM   20  C   UNL     1      -8.463  17.517  66.378  1.00  0.00    -0.252 C  
HETATM   21  C   UNL     1      -9.853  16.964  66.042  1.00  0.00    -0.258 C  
ENDBRANCH  15  16
ENDBRANCH  12  15
ENDBRANCH   2   3
TORSDOF 3
ENDMDL
MODEL       38
REMARK 921   NORMALIZED FREE ENERGY PREDICTED BY IDOCK:   -5.14 KCAL/MOL
REMARK 922        TOTAL FREE ENERGY PREDICTED BY IDOCK:   -6.58 KCAL/MOL
REMARK 923 INTER-LIGAND FREE ENERGY PREDICTED BY IDOCK:   -6.20 KCAL/MOL
REMARK 924 INTRA-LIGAND FREE ENERGY PREDICTED BY IDOCK:   -0.38 KCAL/MOL
REMARK 927      BINDING AFFINITY PREDICTED BY RF-SCORE:    0.00 PKD
ROOT
HETATM    1  C   UNL     1     -11.523  15.219  68.369  1.00  0.00    -0.358 C  
HETATM    2  C   UNL     1     -12.266  14.260  67.452  1.00  0.00    -0.267 C  
ENDROOT
BRANCH   2   3
HETATM    3  C   UNL     1     -11.357  13.556  66.487  1.00  0.00    -0.340 A  
HETATM    4  C   UNL     1     -10.726  14.097  65.375  1.00  0.00    -0.342 A  
HETATM    5  C   UNL     1     -10.716  15.482  64.834  1.00  0.00    -0.415 C  
HETATM    6  N   UNL     1     -10.028  13.094  64.751  1.00  0.00    -0.578 NA 
HETATM    7  C   UNL     1     -10.168  11.926  65.457  1.00  0.00    -0.254 A  
HETATM    8  H   UNL     1      -9.487  13.200  63.893  1.00  0.00     0.000 HD 
HETATM    9  C   UNL     1     -10.968  12.180  66.542  1.00  0.00    -0.325 A  
HETATM   10  C   UNL     1     -11.319  11.150  67.502  1.00  0.00    -0.278 C  
HETATM   11  O   UNL     1     -12.081  11.403  68.435  1.00  0.00    -0.575 OA 
HETATM   12  C   UNL     1     -10.760   9.739  67.274  1.00  0.00    -0.296 C  
HETATM   13  C   UNL     1      -9.994   9.477  65.948  1.00  0.00    -0.342 C  
HETATM   14  C   UNL     1      -9.538  10.650  65.071  1.00  0.00    -0.319 C  
BRANCH  12  15
HETATM   15  C   UNL     1      -9.943   9.263  68.502  1.00  0.00    -0.175 C  
BRANCH  15  16
HETATM   16  N   UNL     1     -10.749   8.666  69.572  1.00  0.00    -0.214 NA 
HETATM   17  C   UNL     1     -10.675   7.197  69.687  1.00  0.00    -0.239 C  
HETATM   18  C   UNL     1      -9.463   6.681  70.478  1.00  0.00    -0.166 C  
HETATM   19  O   UNL     1      -9.353   7.310  71.759  1.00  0.00    -0.149 OA 
HETATM   20  C   UNL     1      -9.297   8.735  71.616  1.00  0.00    -0.275 C  
HETATM   21  C   UNL     1     -10.541   9.270  70.896  1.00  0.00    -0.296 C  
ENDBRANCH  15  16
ENDBRANCH  12  15
ENDBRANCH   2   3
TORSDOF 3
ENDMDL
MODEL       39
REMARK 921   NORMALIZED FREE ENERGY PREDICTED BY IDOCK:   -5.11 KCAL/MOL
REMARK 922        TOTAL FREE ENERGY PREDICTED BY IDOCK:   -6.55 KCAL/MOL
REMARK 923 INTER-LIGAND FREE ENERGY PREDICTED BY IDOCK:   -6.53 KCAL/MOL
REMARK 924 INTRA-LIGAND FREE ENERGY PREDICTED BY IDOCK:   -0.02 KCAL/MOL
REMARK 927      BINDING AFFINITY PREDICTED BY RF-SCORE:    0.00 PKD
ROOT
HETATM    1  C   UNL     1     -10.902  11.260  67.002  1.00  0.00    -0.332 C  
HETATM    2  C   UNL     1      -9.941  12.052  66.130  1.00  0.00    -0.254 C  
ENDROOT
BRANCH   2   3
HETATM    3  C   UNL     1     -10.614  13.171  65.390  1.00  0.00    -0.311 A  
HETATM    4  C   UNL     1     -11.470  13.067  64.301  1.00  0.00    -0.381 A  
HETATM    5  C   UNL     1     -11.997  11.876  63.583  1.00  0.00    -0.578 C  
HETATM    6  N   UNL     1     -11.818  14.335  63.910  1.00  0.00    -0.688 NA 
HETATM    7  C   UNL     1     -11.233  15.252  64.745  1.00  0.00    -0.396 A  
HETATM    8  H   UNL     1     -12.420  14.561  63.119  1.00  0.00     0.000 HD 
HETATM    9  C   UNL     1     -10.497  14.566  65.679  1.00  0.00    -0.351 A  
HETATM   10  C   UNL     1      -9.745  15.243  66.718  1.00  0.00    -0.236 C  
HETATM   11  O   UNL     1      -9.054  14.598  67.507  1.00  0.00    -0.180 OA 
HETATM   12  C   UNL     1      -9.794  16.777  66.755  1.00  0.00    -0.282 C  
HETATM   13  C   UNL     1     -10.512  17.499  65.582  1.00  0.00    -0.156 C  
HETATM   14  C   UNL     1     -11.407  16.711  64.617  1.00  0.00     0.039 C  
BRANCH  12  15
HETATM   15  C   UNL     1     -10.307  17.281  68.128  1.00  0.00    -0.357 C  
BRANCH  15  16
HETATM   16  N   UNL     1      -9.427  18.253  68.785  1.00  0.00    -0.308 NA 
HETATM   17  C   UNL     1      -8.028  18.269  68.318  1.00  0.00    -0.300 C  
HETATM   18  C   UNL     1      -7.792  19.098  67.046  1.00  0.00    -0.250 C  
HETATM   19  O   UNL     1      -8.316  20.425  67.167  1.00  0.00    -0.333 OA 
HETATM   20  C   UNL     1      -9.710  20.386  67.496  1.00  0.00    -0.431 C  
HETATM   21  C   UNL     1      -9.950  19.627  68.807  1.00  0.00    -0.451 C  
ENDBRANCH  15  16
ENDBRANCH  12  15
ENDBRANCH   2   3
TORSDOF 3
ENDMDL
MODEL       40
REMARK 921   NORMALIZED FREE ENERGY PREDICTED BY IDOCK:   -5.08 KCAL/MOL
REMARK 922        TOTAL FREE ENERGY PREDICTED BY IDOCK:   -6.52 KCAL/MOL
REMARK 923 INTER-LIGAND FREE ENERGY PREDICTED BY IDOCK:   -6.26 KCAL/MOL
REMARK 924 INTRA-LIGAND FREE ENERGY PREDICTED BY IDOCK:   -0.25 KCAL/MOL
REMARK 927      BINDING AFFINITY PREDICTED BY RF-SCORE:    0.00 PKD
ROOT
HETATM    1  C   UNL     1     -12.628  12.983  65.115  1.00  0.00    -0.530 C  
HETATM    2  C   UNL     1     -11.349  12.839  65.925  1.00  0.00    -0.363 C  
ENDROOT
BRANCH   2   3
HETATM    3  C   UNL     1     -10.711  11.489  65.768  1.00  0.00    -0.325 A  
HETATM    4  C   UNL     1     -10.083  10.979  64.639  1.00  0.00    -0.311 A  
HETATM    5  C   UNL     1      -9.822  11.588  63.308  1.00  0.00    -0.431 C  
HETATM    6  N   UNL     1      -9.684   9.696  64.916  1.00  0.00    -0.438 NA 
HETATM    7  C   UNL     1     -10.009   9.382  66.211  1.00  0.00    -0.283 A  
HETATM    8  H   UNL     1      -9.216   9.072  64.260  1.00  0.00     0.000 HD 
HETATM    9  C   UNL     1     -10.629  10.471  66.770  1.00  0.00    -0.284 A  
HETATM   10  C   UNL     1     -11.105  10.471  68.140  1.00  0.00    -0.287 C  
HETATM   11  O   UNL     1     -11.703  11.449  68.591  1.00  0.00    -0.295 OA 
HETATM   12  C   UNL     1     -10.892   9.199  68.973  1.00  0.00    -0.115 C  
HETATM   13  C   UNL     1     -10.330   7.950  68.241  1.00  0.00    -0.239 C  
HETATM   14  C   UNL     1      -9.712   8.082  66.842  1.00  0.00    -0.291 C  
BRANCH  12  15
HETATM   15  C   UNL     1     -10.088   9.509  70.260  1.00  0.00    -0.262 C  
BRANCH  15  16
HETATM   16  N   UNL     1     -10.834   9.303  71.506  1.00  0.00    -0.363 NA 
HETATM   17  C   UNL     1     -12.229   8.846  71.350  1.00  0.00    -0.318 C  
HETATM   18  C   UNL     1     -12.382   7.330  71.149  1.00  0.00    -0.345 C  
HETATM   19  O   UNL     1     -11.700   6.584  72.162  1.00  0.00    -0.294 OA 
HETATM   20  C   UNL     1     -10.316   6.952  72.211  1.00  0.00    -0.196 C  
HETATM   21  C   UNL     1     -10.149   8.451  72.489  1.00  0.00    -0.292 C  
ENDBRANCH  15  16
ENDBRANCH  12  15
ENDBRANCH   2   3
TORSDOF 3
ENDMDL
MODEL       41
REMARK 921   NORMALIZED FREE ENERGY PREDICTED BY IDOCK:   -5.08 KCAL/MOL
REMARK 922        TOTAL FREE ENERGY PREDICTED BY IDOCK:   -6.52 KCAL/MOL
REMARK 923 INTER-LIGAND FREE ENERGY PREDICTED BY IDOCK:   -6.03 KCAL/MOL
REMARK 924 INTRA-LIGAND FREE ENERGY PREDICTED BY IDOCK:   -0.49 KCAL/MOL
REMARK 927      BINDING AFFINITY PREDICTED BY RF-SCORE:    0.00 PKD
ROOT
HETATM    1  C   UNL     1     -10.919   6.747  66.969  1.00  0.00    -0.439 C  
HETATM    2  C   UNL     1      -9.856   7.598  67.645  1.00  0.00    -0.207 C  
ENDROOT
BRANCH   2   3
HETATM    3  C   UNL     1     -10.362   8.293  68.875  1.00  0.00    -0.230 A  
HETATM    4  C   UNL     1     -10.399   7.793  70.170  1.00  0.00    -0.218 A  
HETATM    5  C   UNL     1      -9.939   6.495  70.730  1.00  0.00    -0.205 C  
HETATM    6  N   UNL     1     -10.979   8.740  70.976  1.00  0.00    -0.252 NA 
HETATM    7  C   UNL     1     -11.283   9.853  70.235  1.00  0.00    -0.301 A  
HETATM    8  H   UNL     1     -11.157   8.633  71.975  1.00  0.00     0.000 HD 
HETATM    9  C   UNL     1     -10.900   9.616  68.938  1.00  0.00    -0.201 A  
HETATM   10  C   UNL     1     -11.084  10.598  67.886  1.00  0.00    -0.308 C  
HETATM   11  O   UNL     1     -10.775  10.332  66.725  1.00  0.00    -0.217 OA 
HETATM   12  C   UNL     1     -11.726  11.941  68.264  1.00  0.00    -0.385 C  
HETATM   13  C   UNL     1     -12.281  12.089  69.707  1.00  0.00    -0.226 C  
HETATM   14  C   UNL     1     -11.908  11.068  70.790  1.00  0.00    -0.383 C  
BRANCH  12  15
HETATM   15  C   UNL     1     -10.796  13.123  67.892  1.00  0.00    -0.242 C  
BRANCH  15  16
HETATM   16  N   UNL     1     -11.498  14.329  67.439  1.00  0.00    -0.328 NA 
HETATM   17  C   UNL     1     -10.646  15.502  67.167  1.00  0.00    -0.300 C  
HETATM   18  C   UNL     1      -9.995  15.506  65.775  1.00  0.00    -0.359 C  
HETATM   19  O   UNL     1     -10.957  15.307  64.734  1.00  0.00    -0.410 OA 
HETATM   20  C   UNL     1     -11.687  14.093  64.949  1.00  0.00    -0.392 C  
HETATM   21  C   UNL     1     -12.406  14.111  66.304  1.00  0.00    -0.422 C  
ENDBRANCH  15  16
ENDBRANCH  12  15
ENDBRANCH   2   3
TORSDOF 3
ENDMDL
MODEL       42
REMARK 921   NORMALIZED FREE ENERGY PREDICTED BY IDOCK:   -5.03 KCAL/MOL
REMARK 922        TOTAL FREE ENERGY PREDICTED BY IDOCK:   -6.46 KCAL/MOL
REMARK 923 INTER-LIGAND FREE ENERGY PREDICTED BY IDOCK:   -5.90 KCAL/MOL
REMARK 924 INTRA-LIGAND FREE ENERGY PREDICTED BY IDOCK:   -0.55 KCAL/MOL
REMARK 927      BINDING AFFINITY PREDICTED BY RF-SCORE:    0.00 PKD
ROOT
HETATM    1  C   UNL     1      -8.755  13.715  68.227  1.00  0.00    -0.171 C  
HETATM    2  C   UNL     1     -10.187  13.354  67.867  1.00  0.00    -0.241 C  
ENDROOT
BRANCH   2   3
HETATM    3  C   UNL     1     -11.192  13.940  68.817  1.00  0.00    -0.302 A  
HETATM    4  C   UNL     1     -11.672  15.244  68.837  1.00  0.00    -0.342 A  
HETATM    5  C   UNL     1     -11.390  16.402  67.948  1.00  0.00    -0.095 C  
HETATM    6  N   UNL     1     -12.538  15.362  69.894  1.00  0.00    -0.615 NA 
HETATM    7  C   UNL     1     -12.653  14.155  70.534  1.00  0.00    -0.342 A  
HETATM    8  H   UNL     1     -13.022  16.218  70.163  1.00  0.00     0.000 HD 
HETATM    9  C   UNL     1     -11.848  13.252  69.885  1.00  0.00    -0.380 A  
HETATM   10  C   UNL     1     -11.736  11.870  70.311  1.00  0.00    -0.205 C  
HETATM   11  O   UNL     1     -10.965  11.102  69.736  1.00  0.00    -0.233 OA 
HETATM   12  C   UNL     1     -12.558  11.427  71.530  1.00  0.00    -0.393 C  
HETATM   13  C   UNL     1     -13.324  12.527  72.315  1.00  0.00    -0.475 C  
HETATM   14  C   UNL     1     -13.513  13.924  71.709  1.00  0.00    -0.464 C  
BRANCH  12  15
HETATM   15  C   UNL     1     -13.487  10.241  71.168  1.00  0.00    -0.148 C  
BRANCH  15  16
HETATM   16  N   UNL     1     -13.480   9.146  72.144  1.00  0.00    -0.437 NA 
HETATM   17  C   UNL     1     -14.311   7.976  71.801  1.00  0.00    -0.478 C  
HETATM   18  C   UNL     1     -13.635   6.973  70.852  1.00  0.00     0.295 C  
HETATM   19  O   UNL     1     -12.345   6.574  71.326  1.00  0.00    -0.317 OA 
HETATM   20  C   UNL     1     -11.509   7.720  71.532  1.00  0.00    -0.264 C  
HETATM   21  C   UNL     1     -12.138   8.692  72.537  1.00  0.00    -0.298 C  
ENDBRANCH  15  16
ENDBRANCH  12  15
ENDBRANCH   2   3
TORSDOF 3
ENDMDL
MODEL       43
REMARK 921   NORMALIZED FREE ENERGY PREDICTED BY IDOCK:   -5.00 KCAL/MOL
REMARK 922        TOTAL FREE ENERGY PREDICTED BY IDOCK:   -6.41 KCAL/MOL
REMARK 923 INTER-LIGAND FREE ENERGY PREDICTED BY IDOCK:   -5.85 KCAL/MOL
REMARK 924 INTRA-LIGAND FREE ENERGY PREDICTED BY IDOCK:   -0.57 KCAL/MOL
REMARK 927      BINDING AFFINITY PREDICTED BY RF-SCORE:    0.00 PKD
ROOT
HETATM    1  C   UNL     1      -6.377  18.839  67.182  1.00  0.00    -0.193 C  
HETATM    2  C   UNL     1      -7.317  18.257  66.139  1.00  0.00    -0.298 C  
ENDROOT
BRANCH   2   3
HETATM    3  C   UNL     1      -8.670  17.921  66.697  1.00  0.00    -0.280 A  
HETATM    4  C   UNL     1      -9.751  18.777  66.859  1.00  0.00    -0.316 A  
HETATM    5  C   UNL     1      -9.921  20.213  66.514  1.00  0.00    -0.586 C  
HETATM    6  N   UNL     1     -10.770  18.069  67.445  1.00  0.00    -0.366 NA 
HETATM    7  C   UNL     1     -10.381  16.768  67.631  1.00  0.00    -0.309 A  
HETATM    8  H   UNL     1     -11.680  18.453  67.703  1.00  0.00     0.000 HD 
HETATM    9  C   UNL     1      -9.096  16.639  67.166  1.00  0.00    -0.227 A  
HETATM   10  C   UNL     1      -8.379  15.379  67.216  1.00  0.00    -0.199 C  
HETATM   11  O   UNL     1      -7.210  15.313  66.836  1.00  0.00    -0.161 OA 
HETATM   12  C   UNL     1      -9.105  14.164  67.810  1.00  0.00    -0.190 C  
HETATM   13  C   UNL     1     -10.494  14.408  68.463  1.00  0.00    -0.254 C  
HETATM   14  C   UNL     1     -11.240  15.728  68.228  1.00  0.00    -0.356 C  
BRANCH  12  15
HETATM   15  C   UNL     1      -9.157  12.998  66.791  1.00  0.00    -0.210 C  
BRANCH  15  16
HETATM   16  N   UNL     1     -10.506  12.666  66.316  1.00  0.00    -0.248 NA 
HETATM   17  C   UNL     1     -10.877  13.225  65.003  1.00  0.00    -0.322 C  
HETATM   18  C   UNL     1     -10.384  12.404  63.800  1.00  0.00    -0.425 C  
HETATM   19  O   UNL     1     -10.755  11.026  63.905  1.00  0.00    -0.369 OA 
HETATM   20  C   UNL     1     -10.273  10.467  65.133  1.00  0.00    -0.288 C  
HETATM   21  C   UNL     1     -10.822  11.231  66.344  1.00  0.00    -0.251 C  
ENDBRANCH  15  16
ENDBRANCH  12  15
ENDBRANCH   2   3
TORSDOF 3
ENDMDL
MODEL       44
REMARK 921   NORMALIZED FREE ENERGY PREDICTED BY IDOCK:   -4.99 KCAL/MOL
REMARK 922        TOTAL FREE ENERGY PREDICTED BY IDOCK:   -6.40 KCAL/MOL
REMARK 923 INTER-LIGAND FREE ENERGY PREDICTED BY IDOCK:   -5.97 KCAL/MOL
REMARK 924 INTRA-LIGAND FREE ENERGY PREDICTED BY IDOCK:   -0.43 KCAL/MOL
REMARK 927      BINDING AFFINITY PREDICTED BY RF-SCORE:    0.00 PKD
ROOT
HETATM    1  C   UNL     1     -14.019  13.236  72.112  1.00  0.00    -0.471 C  
HETATM    2  C   UNL     1     -12.699  12.804  71.494  1.00  0.00    -0.330 C  
ENDROOT
BRANCH   2   3
HETATM    3  C   UNL     1     -12.172  13.794  70.496  1.00  0.00    -0.440 A  
HETATM    4  C   UNL     1     -11.874  15.133  70.714  1.00  0.00    -0.324 A  
HETATM    5  C   UNL     1     -11.939  15.960  71.948  1.00  0.00    -0.588 C  
HETATM    6  N   UNL     1     -11.465  15.678  69.523  1.00  0.00    -0.318 NA 
HETATM    7  C   UNL     1     -11.459  14.710  68.551  1.00  0.00    -0.302 A  
HETATM    8  H   UNL     1     -11.204  16.653  69.382  1.00  0.00     0.000 HD 
HETATM    9  C   UNL     1     -11.875  13.533  69.122  1.00  0.00    -0.386 A  
HETATM   10  C   UNL     1     -11.985  12.303  68.362  1.00  0.00    -0.210 C  
HETATM   11  O   UNL     1     -12.410  11.278  68.895  1.00  0.00    -0.485 OA 
HETATM   12  C   UNL     1     -11.613  12.344  66.872  1.00  0.00    -0.437 C  
HETATM   13  C   UNL     1     -11.304  13.734  66.250  1.00  0.00    -0.329 C  
HETATM   14  C   UNL     1     -11.060  14.951  67.152  1.00  0.00    -0.332 C  
BRANCH  12  15
HETATM   15  C   UNL     1     -10.496  11.320  66.552  1.00  0.00    -0.253 C  
BRANCH  15  16
HETATM   16  N   UNL     1      -9.378  11.326  67.502  1.00  0.00    -0.161 NA 
HETATM   17  C   UNL     1      -9.137  10.057  68.215  1.00  0.00    -0.122 C  
HETATM   18  C   UNL     1      -8.303   9.033  67.427  1.00  0.00    -0.112 C  
HETATM   19  O   UNL     1      -7.082   9.598  66.941  1.00  0.00    -0.084 OA 
HETATM   20  C   UNL     1      -7.347  10.759  66.144  1.00  0.00    -0.127 C  
HETATM   21  C   UNL     1      -8.111  11.820  66.944  1.00  0.00    -0.160 C  
ENDBRANCH  15  16
ENDBRANCH  12  15
ENDBRANCH   2   3
TORSDOF 3
ENDMDL
MODEL       45
REMARK 921   NORMALIZED FREE ENERGY PREDICTED BY IDOCK:   -4.97 KCAL/MOL
REMARK 922        TOTAL FREE ENERGY PREDICTED BY IDOCK:   -6.38 KCAL/MOL
REMARK 923 INTER-LIGAND FREE ENERGY PREDICTED BY IDOCK:   -5.98 KCAL/MOL
REMARK 924 INTRA-LIGAND FREE ENERGY PREDICTED BY IDOCK:   -0.40 KCAL/MOL
REMARK 927      BINDING AFFINITY PREDICTED BY RF-SCORE:    0.00 PKD
ROOT
HETATM    1  C   UNL     1      -8.961   6.942  69.504  1.00  0.00    -0.143 C  
HETATM    2  C   UNL     1      -9.164   7.693  70.810  1.00  0.00    -0.157 C  
ENDROOT
BRANCH   2   3
HETATM    3  C   UNL     1     -10.544   7.519  71.373  1.00  0.00    -0.229 A  
HETATM    4  C   UNL     1     -11.068   6.388  71.986  1.00  0.00    -0.265 A  
HETATM    5  C   UNL     1     -10.451   5.072  72.300  1.00  0.00    -0.275 C  
HETATM    6  N   UNL     1     -12.376   6.646  72.309  1.00  0.00    -0.536 NA 
HETATM    7  C   UNL     1     -12.696   7.930  71.949  1.00  0.00    -0.316 A  
HETATM    8  H   UNL     1     -13.014   5.984  72.750  1.00  0.00     0.000 HD 
HETATM    9  C   UNL     1     -11.583   8.502  71.384  1.00  0.00    -0.344 A  
HETATM   10  C   UNL     1     -11.582   9.865  70.890  1.00  0.00    -0.373 C  
HETATM   11  O   UNL     1     -10.581  10.327  70.343  1.00  0.00    -0.278 OA 
HETATM   12  C   UNL     1     -12.879  10.676  71.019  1.00  0.00    -0.496 C  
HETATM   13  C   UNL     1     -14.145   9.927  71.520  1.00  0.00     0.172 C  
HETATM   14  C   UNL     1     -14.021   8.540  72.164  1.00  0.00    -0.464 C  
BRANCH  12  15
HETATM   15  C   UNL     1     -12.639  11.980  71.822  1.00  0.00    -0.037 C  
BRANCH  15  16
HETATM   16  N   UNL     1     -13.256  13.175  71.237  1.00  0.00    -0.191 NA 
HETATM   17  C   UNL     1     -13.994  14.040  72.177  1.00  0.00    -0.538 C  
HETATM   18  C   UNL     1     -13.112  15.027  72.959  1.00  0.00    -0.504 C  
HETATM   19  O   UNL     1     -12.272  15.796  72.093  1.00  0.00    -0.376 OA 
HETATM   20  C   UNL     1     -11.469  14.934  71.276  1.00  0.00    -0.271 C  
HETATM   21  C   UNL     1     -12.342  13.997  70.432  1.00  0.00    -0.359 C  
ENDBRANCH  15  16
ENDBRANCH  12  15
ENDBRANCH   2   3
TORSDOF 3
ENDMDL
MODEL       46
REMARK 921   NORMALIZED FREE ENERGY PREDICTED BY IDOCK:   -4.97 KCAL/MOL
REMARK 922        TOTAL FREE ENERGY PREDICTED BY IDOCK:   -6.38 KCAL/MOL
REMARK 923 INTER-LIGAND FREE ENERGY PREDICTED BY IDOCK:   -5.76 KCAL/MOL
REMARK 924 INTRA-LIGAND FREE ENERGY PREDICTED BY IDOCK:   -0.62 KCAL/MOL
REMARK 927      BINDING AFFINITY PREDICTED BY RF-SCORE:    0.00 PKD
ROOT
HETATM    1  C   UNL     1     -12.818  15.464  70.688  1.00  0.00    -0.484 C  
HETATM    2  C   UNL     1     -11.421  15.049  70.254  1.00  0.00    -0.308 C  
ENDROOT
BRANCH   2   3
HETATM    3  C   UNL     1     -11.145  15.356  68.811  1.00  0.00    -0.284 A  
HETATM    4  C   UNL     1     -10.670  16.547  68.278  1.00  0.00    -0.345 A  
HETATM    5  C   UNL     1     -10.266  17.819  68.935  1.00  0.00    -0.345 C  
HETATM    6  N   UNL     1     -10.607  16.409  66.915  1.00  0.00    -0.288 NA 
HETATM    7  C   UNL     1     -10.997  15.143  66.561  1.00  0.00    -0.318 A  
HETATM    8  H   UNL     1     -10.313  17.137  66.264  1.00  0.00     0.000 HD 
HETATM    9  C   UNL     1     -11.321  14.463  67.708  1.00  0.00    -0.331 A  
HETATM   10  C   UNL     1     -11.778  13.086  67.687  1.00  0.00    -0.366 C  
HETATM   11  O   UNL     1     -12.108  12.524  68.731  1.00  0.00    -0.268 OA 
HETATM   12  C   UNL     1     -11.892  12.390  66.323  1.00  0.00    -0.431 C  
HETATM   13  C   UNL     1     -11.666  13.257  65.055  1.00  0.00    -0.362 C  
HETATM   14  C   UNL     1     -11.038  14.652  65.171  1.00  0.00    -0.382 C  
BRANCH  12  15
HETATM   15  C   UNL     1     -11.032  11.101  66.287  1.00  0.00    -0.163 C  
BRANCH  15  16
HETATM   16  N   UNL     1      -9.746  11.249  65.597  1.00  0.00    -0.220 NA 
HETATM   17  C   UNL     1      -8.583  11.526  66.462  1.00  0.00    -0.172 C  
HETATM   18  C   UNL     1      -7.957  10.278  67.104  1.00  0.00    -0.114 C  
HETATM   19  O   UNL     1      -7.656   9.270  66.134  1.00  0.00    -0.094 OA 
HETATM   20  C   UNL     1      -8.831   8.923  65.390  1.00  0.00    -0.193 C  
HETATM   21  C   UNL     1      -9.421  10.147  64.680  1.00  0.00    -0.297 C  
ENDBRANCH  15  16
ENDBRANCH  12  15
ENDBRANCH   2   3
TORSDOF 3
ENDMDL
MODEL       47
REMARK 921   NORMALIZED FREE ENERGY PREDICTED BY IDOCK:   -4.95 KCAL/MOL
REMARK 922        TOTAL FREE ENERGY PREDICTED BY IDOCK:   -6.36 KCAL/MOL
REMARK 923 INTER-LIGAND FREE ENERGY PREDICTED BY IDOCK:   -5.83 KCAL/MOL
REMARK 924 INTRA-LIGAND FREE ENERGY PREDICTED BY IDOCK:   -0.53 KCAL/MOL
REMARK 927      BINDING AFFINITY PREDICTED BY RF-SCORE:    0.00 PKD
ROOT
HETATM    1  C   UNL     1     -13.521   9.982  71.263  1.00  0.00    -0.331 C  
HETATM    2  C   UNL     1     -12.309  10.873  71.479  1.00  0.00    -0.344 C  
ENDROOT
BRANCH   2   3
HETATM    3  C   UNL     1     -12.370  12.143  70.680  1.00  0.00    -0.385 A  
HETATM    4  C   UNL     1     -12.888  13.368  71.082  1.00  0.00    -0.291 A  
HETATM    5  C   UNL     1     -13.479  13.801  72.376  1.00  0.00    -0.672 C  
HETATM    6  N   UNL     1     -12.784  14.240  70.029  1.00  0.00    -0.466 NA 
HETATM    7  C   UNL     1     -12.179  13.615  68.969  1.00  0.00    -0.208 A  
HETATM    8  H   UNL     1     -13.107  15.207  70.033  1.00  0.00     0.000 HD 
HETATM    9  C   UNL     1     -11.896  12.325  69.343  1.00  0.00    -0.370 A  
HETATM   10  C   UNL     1     -11.251  11.384  68.447  1.00  0.00    -0.263 C  
HETATM   11  O   UNL     1     -11.059  10.220  68.800  1.00  0.00    -0.231 OA 
HETATM   12  C   UNL     1     -10.879  11.874  67.040  1.00  0.00    -0.303 C  
HETATM   13  C   UNL     1     -11.365  13.289  66.623  1.00  0.00    -0.353 C  
HETATM   14  C   UNL     1     -11.900  14.268  67.677  1.00  0.00    -0.420 C  
BRANCH  12  15
HETATM   15  C   UNL     1      -9.362  11.698  66.776  1.00  0.00    -0.186 C  
BRANCH  15  16
HETATM   16  N   UNL     1      -9.042  10.884  65.598  1.00  0.00    -0.199 NA 
HETATM   17  C   UNL     1      -7.656  10.383  65.522  1.00  0.00    -0.144 C  
HETATM   18  C   UNL     1      -7.400   9.099  66.328  1.00  0.00    -0.092 C  
HETATM   19  O   UNL     1      -8.344   8.071  66.011  1.00  0.00    -0.112 OA 
HETATM   20  C   UNL     1      -9.683   8.539  66.214  1.00  0.00    -0.229 C  
HETATM   21  C   UNL     1      -9.976   9.775  65.355  1.00  0.00    -0.232 C  
ENDBRANCH  15  16
ENDBRANCH  12  15
ENDBRANCH   2   3
TORSDOF 3
ENDMDL
MODEL       48
REMARK 921   NORMALIZED FREE ENERGY PREDICTED BY IDOCK:   -4.93 KCAL/MOL
REMARK 922        TOTAL FREE ENERGY PREDICTED BY IDOCK:   -6.34 KCAL/MOL
REMARK 923 INTER-LIGAND FREE ENERGY PREDICTED BY IDOCK:   -5.91 KCAL/MOL
REMARK 924 INTRA-LIGAND FREE ENERGY PREDICTED BY IDOCK:   -0.43 KCAL/MOL
REMARK 927      BINDING AFFINITY PREDICTED BY RF-SCORE:    0.00 PKD
ROOT
HETATM    1  C   UNL     1     -12.353  13.437  64.914  1.00  0.00    -0.457 C  
HETATM    2  C   UNL     1     -12.114  13.738  66.385  1.00  0.00    -0.483 C  
ENDROOT
BRANCH   2   3
HETATM    3  C   UNL     1     -10.686  13.529  66.797  1.00  0.00    -0.278 A  
HETATM    4  C   UNL     1      -9.612  14.383  66.579  1.00  0.00    -0.293 A  
HETATM    5  C   UNL     1      -9.543  15.723  65.938  1.00  0.00    -0.382 C  
HETATM    6  N   UNL     1      -8.483  13.783  67.077  1.00  0.00    -0.371 NA 
HETATM    7  C   UNL     1      -8.812  12.578  67.643  1.00  0.00    -0.179 A  
HETATM    8  H   UNL     1      -7.542  14.174  67.034  1.00  0.00     0.000 HD 
HETATM    9  C   UNL     1     -10.166  12.398  67.501  1.00  0.00    -0.214 A  
HETATM   10  C   UNL     1     -10.844  11.214  67.993  1.00  0.00    -0.225 C  
HETATM   11  O   UNL     1     -12.051  11.064  67.802  1.00  0.00    -0.534 OA 
HETATM   12  C   UNL     1      -9.997  10.143  68.695  1.00  0.00    -0.181 C  
HETATM   13  C   UNL     1      -8.455  10.328  68.685  1.00  0.00    -0.127 C  
HETATM   14  C   UNL     1      -7.838  11.675  68.284  1.00  0.00    -0.136 C  
BRANCH  12  15
HETATM   15  C   UNL     1     -10.524   9.873  70.127  1.00  0.00    -0.285 C  
BRANCH  15  16
HETATM   16  N   UNL     1      -9.973   8.669  70.760  1.00  0.00    -0.187 NA 
HETATM   17  C   UNL     1     -10.224   8.534  72.207  1.00  0.00    -0.325 C  
HETATM   18  C   UNL     1     -11.599   7.943  72.561  1.00  0.00    -0.386 C  
HETATM   19  O   UNL     1     -11.847   6.714  71.871  1.00  0.00    -0.303 OA 
HETATM   20  C   UNL     1     -11.723   6.898  70.456  1.00  0.00    -0.350 C  
HETATM   21  C   UNL     1     -10.327   7.413  70.083  1.00  0.00    -0.214 C  
ENDBRANCH  15  16
ENDBRANCH  12  15
ENDBRANCH   2   3
TORSDOF 3
ENDMDL
MODEL       49
REMARK 921   NORMALIZED FREE ENERGY PREDICTED BY IDOCK:   -4.93 KCAL/MOL
REMARK 922        TOTAL FREE ENERGY PREDICTED BY IDOCK:   -6.33 KCAL/MOL
REMARK 923 INTER-LIGAND FREE ENERGY PREDICTED BY IDOCK:   -5.82 KCAL/MOL
REMARK 924 INTRA-LIGAND FREE ENERGY PREDICTED BY IDOCK:   -0.52 KCAL/MOL
REMARK 927      BINDING AFFINITY PREDICTED BY RF-SCORE:    0.00 PKD
ROOT
HETATM    1  C   UNL     1      -8.949   5.374  70.203  1.00  0.00    -0.157 C  
HETATM    2  C   UNL     1     -10.421   5.601  69.897  1.00  0.00    -0.378 C  
ENDROOT
BRANCH   2   3
HETATM    3  C   UNL     1     -11.045   6.640  70.782  1.00  0.00    -0.336 A  
HETATM    4  C   UNL     1     -11.540   6.465  72.069  1.00  0.00    -0.321 A  
HETATM    5  C   UNL     1     -11.571   5.267  72.949  1.00  0.00    -0.292 C  
HETATM    6  N   UNL     1     -12.061   7.662  72.491  1.00  0.00    -0.543 NA 
HETATM    7  C   UNL     1     -11.882   8.612  71.519  1.00  0.00    -0.306 A  
HETATM    8  H   UNL     1     -12.513   7.821  73.391  1.00  0.00     0.000 HD 
HETATM    9  C   UNL     1     -11.244   8.019  70.458  1.00  0.00    -0.252 A  
HETATM   10  C   UNL     1     -10.903   8.751  69.253  1.00  0.00    -0.077 C  
HETATM   11  O   UNL     1     -10.377   8.173  68.302  1.00  0.00    -0.202 OA 
HETATM   12  C   UNL     1     -11.275  10.239  69.189  1.00  0.00    -0.268 C  
HETATM   13  C   UNL     1     -12.134  10.813  70.350  1.00  0.00    -0.443 C  
HETATM   14  C   UNL     1     -12.315  10.016  71.648  1.00  0.00    -0.486 C  
BRANCH  12  15
HETATM   15  C   UNL     1     -10.022  11.112  68.929  1.00  0.00    -0.175 C  
BRANCH  15  16
HETATM   16  N   UNL     1      -9.953  11.686  67.580  1.00  0.00    -0.186 NA 
HETATM   17  C   UNL     1     -11.247  12.045  66.969  1.00  0.00    -0.320 C  
HETATM   18  C   UNL     1     -11.792  13.417  67.394  1.00  0.00    -0.375 C  
HETATM   19  O   UNL     1     -10.825  14.457  67.213  1.00  0.00    -0.282 OA 
HETATM   20  C   UNL     1      -9.618  14.149  67.922  1.00  0.00    -0.223 C  
HETATM   21  C   UNL     1      -9.022  12.817  67.450  1.00  0.00    -0.195 C  
ENDBRANCH  15  16
ENDBRANCH  12  15
ENDBRANCH   2   3
TORSDOF 3
ENDMDL
MODEL       50
REMARK 921   NORMALIZED FREE ENERGY PREDICTED BY IDOCK:   -4.92 KCAL/MOL
REMARK 922        TOTAL FREE ENERGY PREDICTED BY IDOCK:   -6.33 KCAL/MOL
REMARK 923 INTER-LIGAND FREE ENERGY PREDICTED BY IDOCK:   -5.98 KCAL/MOL
REMARK 924 INTRA-LIGAND FREE ENERGY PREDICTED BY IDOCK:   -0.35 KCAL/MOL
REMARK 927      BINDING AFFINITY PREDICTED BY RF-SCORE:    0.00 PKD
ROOT
HETATM    1  C   UNL     1      -9.246   7.619  65.953  1.00  0.00    -0.053 C  
HETATM    2  C   UNL     1      -8.570   8.961  65.719  1.00  0.00    -0.181 C  
ENDROOT
BRANCH   2   3
HETATM    3  C   UNL     1      -9.550  10.074  65.485  1.00  0.00    -0.328 A  
HETATM    4  C   UNL     1      -9.919  10.630  64.267  1.00  0.00    -0.349 A  
HETATM    5  C   UNL     1      -9.514  10.293  62.877  1.00  0.00    -0.333 C  
HETATM    6  N   UNL     1     -10.804  11.649  64.515  1.00  0.00    -0.312 NA 
HETATM    7  C   UNL     1     -11.040  11.737  65.863  1.00  0.00    -0.302 A  
HETATM    8  H   UNL     1     -11.223  12.248  63.805  1.00  0.00     0.000 HD 
HETATM    9  C   UNL     1     -10.294  10.770  66.489  1.00  0.00    -0.300 A  
HETATM   10  C   UNL     1     -10.312  10.591  67.928  1.00  0.00    -0.192 C  
HETATM   11  O   UNL     1      -9.591   9.746  68.459  1.00  0.00    -0.146 OA 
HETATM   12  C   UNL     1     -11.206  11.526  68.756  1.00  0.00    -0.309 C  
HETATM   13  C   UNL     1     -11.900  12.698  68.010  1.00  0.00    -0.376 C  
HETATM   14  C   UNL     1     -11.952  12.720  66.477  1.00  0.00    -0.428 C  
BRANCH  12  15
HETATM   15  C   UNL     1     -12.219  10.715  69.602  1.00  0.00    -0.206 C  
BRANCH  15  16
HETATM   16  N   UNL     1     -11.925  10.688  71.039  1.00  0.00    -0.350 NA 
HETATM   17  C   UNL     1     -13.098  10.699  71.934  1.00  0.00    -0.458 C  
HETATM   18  C   UNL     1     -13.737   9.320  72.162  1.00  0.00    -0.453 C  
HETATM   19  O   UNL     1     -12.774   8.347  72.578  1.00  0.00    -0.327 OA 
HETATM   20  C   UNL     1     -11.705   8.260  71.628  1.00  0.00    -0.292 C  
HETATM   21  C   UNL     1     -11.009   9.615  71.450  1.00  0.00    -0.284 C  
ENDBRANCH  15  16
ENDBRANCH  12  15
ENDBRANCH   2   3
TORSDOF 3
ENDMDL
MODEL       51
REMARK 921   NORMALIZED FREE ENERGY PREDICTED BY IDOCK:   -4.92 KCAL/MOL
REMARK 922        TOTAL FREE ENERGY PREDICTED BY IDOCK:   -6.32 KCAL/MOL
REMARK 923 INTER-LIGAND FREE ENERGY PREDICTED BY IDOCK:   -5.75 KCAL/MOL
REMARK 924 INTRA-LIGAND FREE ENERGY PREDICTED BY IDOCK:   -0.57 KCAL/MOL
REMARK 927      BINDING AFFINITY PREDICTED BY RF-SCORE:    0.00 PKD
ROOT
HETATM    1  C   UNL     1     -12.089  14.577  64.266  1.00  0.00    -0.448 C  
HETATM    2  C   UNL     1     -11.956  14.755  65.770  1.00  0.00    -0.155 C  
ENDROOT
BRANCH   2   3
HETATM    3  C   UNL     1     -10.620  14.315  66.293  1.00  0.00    -0.291 A  
HETATM    4  C   UNL     1      -9.493  15.102  66.494  1.00  0.00    -0.283 A  
HETATM    5  C   UNL     1      -9.272  16.560  66.305  1.00  0.00    -0.345 C  
HETATM    6  N   UNL     1      -8.480  14.289  66.939  1.00  0.00    -0.387 NA 
HETATM    7  C   UNL     1      -8.941  13.003  67.062  1.00  0.00    -0.225 A  
HETATM    8  H   UNL     1      -7.530  14.595  67.147  1.00  0.00     0.000 HD 
HETATM    9  C   UNL     1     -10.261  12.988  66.686  1.00  0.00    -0.257 A  
HETATM   10  C   UNL     1     -11.053  11.773  66.698  1.00  0.00    -0.310 C  
HETATM   11  O   UNL     1     -12.220  11.787  66.306  1.00  0.00    -0.344 OA 
HETATM   12  C   UNL     1     -10.370  10.476  67.154  1.00  0.00    -0.285 C  
HETATM   13  C   UNL     1      -8.839  10.526  67.413  1.00  0.00    -0.132 C  
HETATM   14  C   UNL     1      -8.115  11.874  67.528  1.00  0.00    -0.156 C  
BRANCH  12  15
HETATM   15  C   UNL     1     -11.125   9.843  68.350  1.00  0.00    -0.139 C  
BRANCH  15  16
HETATM   16  N   UNL     1     -10.866  10.489  69.641  1.00  0.00    -0.257 NA 
HETATM   17  C   UNL     1     -11.999  11.233  70.224  1.00  0.00    -0.379 C  
HETATM   18  C   UNL     1     -13.000  10.361  70.999  1.00  0.00    -0.399 C  
HETATM   19  O   UNL     1     -12.352   9.545  71.980  1.00  0.00    -0.368 OA 
HETATM   20  C   UNL     1     -11.339   8.735  71.370  1.00  0.00    -0.294 C  
HETATM   21  C   UNL     1     -10.291   9.600  70.660  1.00  0.00    -0.297 C  
ENDBRANCH  15  16
ENDBRANCH  12  15
ENDBRANCH   2   3
TORSDOF 3
ENDMDL
MODEL       52
REMARK 921   NORMALIZED FREE ENERGY PREDICTED BY IDOCK:   -4.90 KCAL/MOL
REMARK 922        TOTAL FREE ENERGY PREDICTED BY IDOCK:   -6.31 KCAL/MOL
REMARK 923 INTER-LIGAND FREE ENERGY PREDICTED BY IDOCK:   -6.00 KCAL/MOL
REMARK 924 INTRA-LIGAND FREE ENERGY PREDICTED BY IDOCK:   -0.31 KCAL/MOL
REMARK 927      BINDING AFFINITY PREDICTED BY RF-SCORE:    0.00 PKD
ROOT
HETATM    1  C   UNL     1     -11.658  14.610  68.610  1.00  0.00    -0.343 C  
HETATM    2  C   UNL     1     -12.274  13.841  67.452  1.00  0.00    -0.290 C  
ENDROOT
BRANCH   2   3
HETATM    3  C   UNL     1     -11.245  13.232  66.544  1.00  0.00    -0.329 A  
HETATM    4  C   UNL     1     -10.516  13.870  65.549  1.00  0.00    -0.323 A  
HETATM    5  C   UNL     1     -10.493  15.291  65.113  1.00  0.00    -0.438 C  
HETATM    6  N   UNL     1      -9.724  12.933  64.935  1.00  0.00    -0.517 NA 
HETATM    7  C   UNL     1      -9.901  11.713  65.536  1.00  0.00    -0.234 A  
HETATM    8  H   UNL     1      -9.098  13.116  64.150  1.00  0.00     0.000 HD 
HETATM    9  C   UNL     1     -10.821  11.867  66.544  1.00  0.00    -0.317 A  
HETATM   10  C   UNL     1     -11.239  10.760  67.383  1.00  0.00    -0.241 C  
HETATM   11  O   UNL     1     -12.104  10.924  68.243  1.00  0.00    -0.562 OA 
HETATM   12  C   UNL     1     -10.614   9.383  67.118  1.00  0.00    -0.294 C  
HETATM   13  C   UNL     1      -9.703   9.239  65.868  1.00  0.00    -0.355 C  
HETATM   14  C   UNL     1      -9.193  10.485  65.132  1.00  0.00    -0.243 C  
BRANCH  12  15
HETATM   15  C   UNL     1      -9.918   8.837  68.390  1.00  0.00    -0.179 C  
BRANCH  15  16
HETATM   16  N   UNL     1      -9.676   9.845  69.429  1.00  0.00    -0.201 NA 
HETATM   17  C   UNL     1     -10.120   9.483  70.789  1.00  0.00    -0.282 C  
HETATM   18  C   UNL     1      -9.124   8.612  71.571  1.00  0.00    -0.239 C  
HETATM   19  O   UNL     1      -7.812   9.183  71.586  1.00  0.00    -0.340 OA 
HETATM   20  C   UNL     1      -7.347   9.409  70.250  1.00  0.00    -0.118 C  
HETATM   21  C   UNL     1      -8.294  10.340  69.483  1.00  0.00    -0.151 C  
ENDBRANCH  15  16
ENDBRANCH  12  15
ENDBRANCH   2   3
TORSDOF 3
ENDMDL
MODEL       53
REMARK 921   NORMALIZED FREE ENERGY PREDICTED BY IDOCK:   -4.88 KCAL/MOL
REMARK 922        TOTAL FREE ENERGY PREDICTED BY IDOCK:   -6.28 KCAL/MOL
REMARK 923 INTER-LIGAND FREE ENERGY PREDICTED BY IDOCK:   -5.79 KCAL/MOL
REMARK 924 INTRA-LIGAND FREE ENERGY PREDICTED BY IDOCK:   -0.49 KCAL/MOL
REMARK 927      BINDING AFFINITY PREDICTED BY RF-SCORE:    0.00 PKD
ROOT
HETATM    1  C   UNL     1     -11.361  15.080  70.032  1.00  0.00    -0.305 C  
HETATM    2  C   UNL     1     -12.281  14.346  69.070  1.00  0.00    -0.233 C  
ENDROOT
BRANCH   2   3
HETATM    3  C   UNL     1     -11.551  13.357  68.208  1.00  0.00    -0.379 A  
HETATM    4  C   UNL     1     -11.004  13.578  66.950  1.00  0.00    -0.288 A  
HETATM    5  C   UNL     1     -10.934  14.808  66.118  1.00  0.00    -0.332 C  
HETATM    6  N   UNL     1     -10.472  12.395  66.504  1.00  0.00    -0.228 NA 
HETATM    7  C   UNL     1     -10.633  11.426  67.460  1.00  0.00    -0.213 A  
HETATM    8  H   UNL     1     -10.024  12.258  65.598  1.00  0.00     0.000 HD 
HETATM    9  C   UNL     1     -11.281  11.991  68.531  1.00  0.00    -0.306 A  
HETATM   10  C   UNL     1     -11.611  11.232  69.722  1.00  0.00    -0.333 C  
HETATM   11  O   UNL     1     -12.238  11.758  70.641  1.00  0.00    -0.371 OA 
HETATM   12  C   UNL     1     -11.208   9.751  69.763  1.00  0.00    -0.242 C  
HETATM   13  C   UNL     1     -10.621   9.132  68.465  1.00  0.00    -0.209 C  
HETATM   14  C   UNL     1     -10.165  10.036  67.312  1.00  0.00    -0.275 C  
BRANCH  12  15
HETATM   15  C   UNL     1     -10.303   9.458  70.987  1.00  0.00    -0.312 C  
BRANCH  15  16
HETATM   16  N   UNL     1     -10.992   8.815  72.111  1.00  0.00    -0.364 NA 
HETATM   17  C   UNL     1     -12.241   8.105  71.775  1.00  0.00    -0.319 C  
HETATM   18  C   UNL     1     -12.036   6.678  71.242  1.00  0.00    -0.341 C  
HETATM   19  O   UNL     1     -11.209   5.896  72.109  1.00  0.00    -0.266 OA 
HETATM   20  C   UNL     1      -9.948   6.544  72.320  1.00  0.00    -0.163 C  
HETATM   21  C   UNL     1     -10.137   7.940  72.926  1.00  0.00    -0.310 C  
ENDBRANCH  15  16
ENDBRANCH  12  15
ENDBRANCH   2   3
TORSDOF 3
ENDMDL
MODEL       54
REMARK 921   NORMALIZED FREE ENERGY PREDICTED BY IDOCK:   -4.83 KCAL/MOL
REMARK 922        TOTAL FREE ENERGY PREDICTED BY IDOCK:   -6.22 KCAL/MOL
REMARK 923 INTER-LIGAND FREE ENERGY PREDICTED BY IDOCK:   -5.73 KCAL/MOL
REMARK 924 INTRA-LIGAND FREE ENERGY PREDICTED BY IDOCK:   -0.49 KCAL/MOL
REMARK 927      BINDING AFFINITY PREDICTED BY RF-SCORE:    0.00 PKD
ROOT
HETATM    1  C   UNL     1     -11.517  14.170  68.864  1.00  0.00    -0.327 C  
HETATM    2  C   UNL     1     -12.240  13.810  67.576  1.00  0.00    -0.262 C  
ENDROOT
BRANCH   2   3
HETATM    3  C   UNL     1     -11.306  13.353  66.493  1.00  0.00    -0.346 A  
HETATM    4  C   UNL     1     -10.747  14.124  65.481  1.00  0.00    -0.324 A  
HETATM    5  C   UNL     1     -10.857  15.577  65.186  1.00  0.00    -0.452 C  
HETATM    6  N   UNL     1      -9.993  13.299  64.686  1.00  0.00    -0.616 NA 
HETATM    7  C   UNL     1     -10.025  12.022  65.183  1.00  0.00    -0.239 A  
HETATM    8  H   UNL     1      -9.485  13.592  63.851  1.00  0.00     0.000 HD 
HETATM    9  C   UNL     1     -10.813  12.024  66.307  1.00  0.00    -0.316 A  
HETATM   10  C   UNL     1     -11.059  10.821  67.080  1.00  0.00    -0.227 C  
HETATM   11  O   UNL     1     -11.813  10.851  68.053  1.00  0.00    -0.585 OA 
HETATM   12  C   UNL     1     -10.401   9.517  66.607  1.00  0.00    -0.280 C  
HETATM   13  C   UNL     1      -9.653   9.546  65.246  1.00  0.00    -0.314 C  
HETATM   14  C   UNL     1      -9.310  10.883  64.577  1.00  0.00    -0.256 C  
BRANCH  12  15
HETATM   15  C   UNL     1      -9.519   8.906  67.724  1.00  0.00    -0.141 C  
BRANCH  15  16
HETATM   16  N   UNL     1     -10.075   7.699  68.345  1.00  0.00    -0.181 NA 
HETATM   17  C   UNL     1     -10.870   6.830  67.456  1.00  0.00    -0.318 C  
HETATM   18  C   UNL     1     -10.036   5.860  66.604  1.00  0.00    -0.183 C  
HETATM   19  O   UNL     1      -9.124   5.097  67.399  1.00  0.00    -0.112 OA 
HETATM   20  C   UNL     1      -8.273   5.964  68.159  1.00  0.00    -0.109 C  
HETATM   21  C   UNL     1      -9.092   6.884  69.073  1.00  0.00    -0.138 C  
ENDBRANCH  15  16
ENDBRANCH  12  15
ENDBRANCH   2   3
TORSDOF 3
ENDMDL
MODEL       55
REMARK 921   NORMALIZED FREE ENERGY PREDICTED BY IDOCK:   -4.82 KCAL/MOL
REMARK 922        TOTAL FREE ENERGY PREDICTED BY IDOCK:   -6.20 KCAL/MOL
REMARK 923 INTER-LIGAND FREE ENERGY PREDICTED BY IDOCK:   -5.78 KCAL/MOL
REMARK 924 INTRA-LIGAND FREE ENERGY PREDICTED BY IDOCK:   -0.43 KCAL/MOL
REMARK 927      BINDING AFFINITY PREDICTED BY RF-SCORE:    0.00 PKD
ROOT
HETATM    1  C   UNL     1     -11.318  14.392  69.466  1.00  0.00    -0.318 C  
HETATM    2  C   UNL     1     -11.937  14.034  68.125  1.00  0.00    -0.382 C  
ENDROOT
BRANCH   2   3
HETATM    3  C   UNL     1     -10.973  13.344  67.205  1.00  0.00    -0.292 A  
HETATM    4  C   UNL     1     -10.129  13.933  66.272  1.00  0.00    -0.300 A  
HETATM    5  C   UNL     1      -9.893  15.361  65.932  1.00  0.00    -0.387 C  
HETATM    6  N   UNL     1      -9.455  12.933  65.617  1.00  0.00    -0.467 NA 
HETATM    7  C   UNL     1      -9.820  11.716  66.132  1.00  0.00    -0.223 A  
HETATM    8  H   UNL     1      -8.784  13.074  64.862  1.00  0.00     0.000 HD 
HETATM    9  C   UNL     1     -10.743  11.934  67.124  1.00  0.00    -0.280 A  
HETATM   10  C   UNL     1     -11.340  10.848  67.877  1.00  0.00    -0.308 C  
HETATM   11  O   UNL     1     -12.203  11.079  68.725  1.00  0.00    -0.546 OA 
HETATM   12  C   UNL     1     -10.905   9.416  67.537  1.00  0.00    -0.208 C  
HETATM   13  C   UNL     1      -9.981   9.222  66.303  1.00  0.00    -0.357 C  
HETATM   14  C   UNL     1      -9.277  10.427  65.664  1.00  0.00    -0.220 C  
BRANCH  12  15
HETATM   15  C   UNL     1     -10.335   8.699  68.787  1.00  0.00    -0.208 C  
BRANCH  15  16
HETATM   16  N   UNL     1      -9.986   7.290  68.573  1.00  0.00    -0.157 NA 
HETATM   17  C   UNL     1      -8.663   6.874  69.075  1.00  0.00    -0.131 C  
HETATM   18  C   UNL     1      -8.632   6.528  70.572  1.00  0.00    -0.143 C  
HETATM   19  O   UNL     1      -9.644   5.579  70.923  1.00  0.00    -0.161 OA 
HETATM   20  C   UNL     1     -10.938   6.061  70.541  1.00  0.00    -0.319 C  
HETATM   21  C   UNL     1     -11.005   6.336  69.034  1.00  0.00    -0.372 C  
ENDBRANCH  15  16
ENDBRANCH  12  15
ENDBRANCH   2   3
TORSDOF 3
ENDMDL
MODEL       56
REMARK 921   NORMALIZED FREE ENERGY PREDICTED BY IDOCK:   -4.75 KCAL/MOL
REMARK 922        TOTAL FREE ENERGY PREDICTED BY IDOCK:   -6.13 KCAL/MOL
REMARK 923 INTER-LIGAND FREE ENERGY PREDICTED BY IDOCK:   -6.17 KCAL/MOL
REMARK 924 INTRA-LIGAND FREE ENERGY PREDICTED BY IDOCK:    0.04 KCAL/MOL
REMARK 927      BINDING AFFINITY PREDICTED BY RF-SCORE:    0.00 PKD
ROOT
HETATM    1  C   UNL     1     -11.689  16.431  68.926  1.00  0.00    -0.059 C  
HETATM    2  C   UNL     1     -11.232  15.895  70.273  1.00  0.00    -0.388 C  
ENDROOT
BRANCH   2   3
HETATM    3  C   UNL     1     -11.897  14.600  70.640  1.00  0.00    -0.367 A  
HETATM    4  C   UNL     1     -12.829  14.387  71.648  1.00  0.00    -0.343 A  
HETATM    5  C   UNL     1     -13.462  15.329  72.608  1.00  0.00    -0.610 C  
HETATM    6  N   UNL     1     -13.139  13.050  71.665  1.00  0.00    -0.385 NA 
HETATM    7  C   UNL     1     -12.455  12.405  70.668  1.00  0.00    -0.234 A  
HETATM    8  H   UNL     1     -13.782  12.605  72.320  1.00  0.00     0.000 HD 
HETATM    9  C   UNL     1     -11.692  13.334  70.007  1.00  0.00    -0.295 A  
HETATM   10  C   UNL     1     -10.838  12.980  68.889  1.00  0.00    -0.206 C  
HETATM   11  O   UNL     1     -10.129  13.831  68.353  1.00  0.00    -0.233 OA 
HETATM   12  C   UNL     1     -10.808  11.509  68.449  1.00  0.00    -0.250 C  
HETATM   13  C   UNL     1     -11.567  10.481  69.332  1.00  0.00    -0.318 C  
HETATM   14  C   UNL     1     -12.563  10.959  70.396  1.00  0.00    -0.376 C  
BRANCH  12  15
HETATM   15  C   UNL     1     -11.201  11.371  66.956  1.00  0.00    -0.283 C  
BRANCH  15  16
HETATM   16  N   UNL     1     -10.250  11.979  66.019  1.00  0.00    -0.220 NA 
HETATM   17  C   UNL     1      -9.230  11.070  65.462  1.00  0.00    -0.213 C  
HETATM   18  C   UNL     1      -9.705  10.245  64.255  1.00  0.00    -0.308 C  
HETATM   19  O   UNL     1     -10.281  11.069  63.237  1.00  0.00    -0.339 OA 
HETATM   20  C   UNL     1     -11.356  11.852  63.772  1.00  0.00    -0.448 C  
HETATM   21  C   UNL     1     -10.876  12.738  64.927  1.00  0.00    -0.299 C  
ENDBRANCH  15  16
ENDBRANCH  12  15
ENDBRANCH   2   3
TORSDOF 3
ENDMDL
MODEL       57
REMARK 921   NORMALIZED FREE ENERGY PREDICTED BY IDOCK:   -4.74 KCAL/MOL
REMARK 922        TOTAL FREE ENERGY PREDICTED BY IDOCK:   -6.12 KCAL/MOL
REMARK 923 INTER-LIGAND FREE ENERGY PREDICTED BY IDOCK:   -5.65 KCAL/MOL
REMARK 924 INTRA-LIGAND FREE ENERGY PREDICTED BY IDOCK:   -0.47 KCAL/MOL
REMARK 927      BINDING AFFINITY PREDICTED BY RF-SCORE:    0.00 PKD
ROOT
HETATM    1  C   UNL     1     -12.120  15.748  68.733  1.00  0.00    -0.087 C  
HETATM    2  C   UNL     1     -11.591  15.437  70.123  1.00  0.00    -0.351 C  
ENDROOT
BRANCH   2   3
HETATM    3  C   UNL     1     -12.242  14.233  70.738  1.00  0.00    -0.423 A  
HETATM    4  C   UNL     1     -13.245  14.215  71.700  1.00  0.00    -0.353 A  
HETATM    5  C   UNL     1     -13.982  15.322  72.364  1.00  0.00    -0.642 C  
HETATM    6  N   UNL     1     -13.513  12.906  72.011  1.00  0.00    -0.507 NA 
HETATM    7  C   UNL     1     -12.731  12.080  71.245  1.00  0.00    -0.279 A  
HETATM    8  H   UNL     1     -14.192  12.594  72.705  1.00  0.00     0.000 HD 
HETATM    9  C   UNL     1     -11.947  12.866  70.438  1.00  0.00    -0.329 A  
HETATM   10  C   UNL     1     -10.996  12.303  69.499  1.00  0.00     0.056 C  
HETATM   11  O   UNL     1     -10.274  13.039  68.828  1.00  0.00    -0.195 OA 
HETATM   12  C   UNL     1     -10.885  10.773  69.422  1.00  0.00    -0.289 C  
HETATM   13  C   UNL     1     -11.680   9.944  70.467  1.00  0.00    -0.373 C  
HETATM   14  C   UNL     1     -12.773  10.607  71.316  1.00  0.00    -0.537 C  
BRANCH  12  15
HETATM   15  C   UNL     1     -11.154  10.271  67.980  1.00  0.00    -0.274 C  
BRANCH  15  16
HETATM   16  N   UNL     1     -10.084   9.439  67.419  1.00  0.00    -0.200 NA 
HETATM   17  C   UNL     1     -10.125   9.244  65.957  1.00  0.00    -0.192 C  
HETATM   18  C   UNL     1      -9.495  10.387  65.145  1.00  0.00    -0.249 C  
HETATM   19  O   UNL     1      -8.172  10.696  65.593  1.00  0.00    -0.159 OA 
HETATM   20  C   UNL     1      -8.174  11.008  66.992  1.00  0.00    -0.138 C  
HETATM   21  C   UNL     1      -8.729   9.842  67.819  1.00  0.00    -0.129 C  
ENDBRANCH  15  16
ENDBRANCH  12  15
ENDBRANCH   2   3
TORSDOF 3
ENDMDL
MODEL       58
REMARK 921   NORMALIZED FREE ENERGY PREDICTED BY IDOCK:   -4.74 KCAL/MOL
REMARK 922        TOTAL FREE ENERGY PREDICTED BY IDOCK:   -6.11 KCAL/MOL
REMARK 923 INTER-LIGAND FREE ENERGY PREDICTED BY IDOCK:   -5.64 KCAL/MOL
REMARK 924 INTRA-LIGAND FREE ENERGY PREDICTED BY IDOCK:   -0.47 KCAL/MOL
REMARK 927      BINDING AFFINITY PREDICTED BY RF-SCORE:    0.00 PKD
ROOT
HETATM    1  C   UNL     1      -7.055   8.425  71.049  1.00  0.00    -0.061 C  
HETATM    2  C   UNL     1      -8.315   7.786  70.487  1.00  0.00    -0.125 C  
ENDROOT
BRANCH   2   3
HETATM    3  C   UNL     1      -9.564   8.518  70.882  1.00  0.00    -0.228 A  
HETATM    4  C   UNL     1     -10.306   8.352  72.045  1.00  0.00    -0.304 A  
HETATM    5  C   UNL     1     -10.091   7.473  73.224  1.00  0.00    -0.386 C  
HETATM    6  N   UNL     1     -11.393   9.187  71.979  1.00  0.00    -0.340 NA 
HETATM    7  C   UNL     1     -11.348   9.913  70.816  1.00  0.00    -0.353 A  
HETATM    8  H   UNL     1     -12.123   9.258  72.687  1.00  0.00     0.000 HD 
HETATM    9  C   UNL     1     -10.224   9.535  70.124  1.00  0.00    -0.291 A  
HETATM   10  C   UNL     1      -9.876  10.114  68.840  1.00  0.00    -0.189 C  
HETATM   11  O   UNL     1      -8.888   9.714  68.225  1.00  0.00    -0.120 OA 
HETATM   12  C   UNL     1     -10.811  11.185  68.260  1.00  0.00    -0.258 C  
HETATM   13  C   UNL     1     -12.145  11.454  69.010  1.00  0.00    -0.316 C  
HETATM   14  C   UNL     1     -12.358  10.915  70.431  1.00  0.00    -0.436 C  
BRANCH  12  15
HETATM   15  C   UNL     1     -10.042  12.501  67.986  1.00  0.00    -0.220 C  
BRANCH  15  16
HETATM   16  N   UNL     1      -9.872  12.820  66.564  1.00  0.00    -0.252 NA 
HETATM   17  C   UNL     1     -10.841  12.191  65.646  1.00  0.00    -0.284 C  
HETATM   18  C   UNL     1     -12.181  12.935  65.528  1.00  0.00    -0.474 C  
HETATM   19  O   UNL     1     -11.998  14.321  65.223  1.00  0.00    -0.362 OA 
HETATM   20  C   UNL     1     -11.156  14.944  66.201  1.00  0.00    -0.335 C  
HETATM   21  C   UNL     1      -9.786  14.258  66.271  1.00  0.00    -0.307 C  
ENDBRANCH  15  16
ENDBRANCH  12  15
ENDBRANCH   2   3
TORSDOF 3
ENDMDL
MODEL       59
REMARK 921   NORMALIZED FREE ENERGY PREDICTED BY IDOCK:   -4.70 KCAL/MOL
REMARK 922        TOTAL FREE ENERGY PREDICTED BY IDOCK:   -6.07 KCAL/MOL
REMARK 923 INTER-LIGAND FREE ENERGY PREDICTED BY IDOCK:   -5.60 KCAL/MOL
REMARK 924 INTRA-LIGAND FREE ENERGY PREDICTED BY IDOCK:   -0.47 KCAL/MOL
REMARK 927      BINDING AFFINITY PREDICTED BY RF-SCORE:    0.00 PKD
ROOT
HETATM    1  C   UNL     1     -11.679   9.884  71.351  1.00  0.00    -0.449 C  
HETATM    2  C   UNL     1     -12.876  10.575  70.719  1.00  0.00    -0.454 C  
ENDROOT
BRANCH   2   3
HETATM    3  C   UNL     1     -12.590  11.998  70.333  1.00  0.00    -0.128 A  
HETATM    4  C   UNL     1     -12.804  13.137  71.098  1.00  0.00    -0.264 A  
HETATM    5  C   UNL     1     -13.318  13.302  72.483  1.00  0.00    -0.569 C  
HETATM    6  N   UNL     1     -12.446  14.228  70.346  1.00  0.00    -0.348 NA 
HETATM    7  C   UNL     1     -11.974  13.814  69.127  1.00  0.00    -0.361 A  
HETATM    8  H   UNL     1     -12.520  15.199  70.648  1.00  0.00     0.000 HD 
HETATM    9  C   UNL     1     -12.034  12.443  69.093  1.00  0.00    -0.291 A  
HETATM   10  C   UNL     1     -11.608  11.679  67.936  1.00  0.00    -0.298 C  
HETATM   11  O   UNL     1     -11.724  10.454  67.921  1.00  0.00    -0.377 OA 
HETATM   12  C   UNL     1     -11.072  12.455  66.723  1.00  0.00    -0.333 C  
HETATM   13  C   UNL     1     -11.177  14.004  66.761  1.00  0.00    -0.323 C  
HETATM   14  C   UNL     1     -11.493  14.729  68.076  1.00  0.00    -0.351 C  
BRANCH  12  15
HETATM   15  C   UNL     1      -9.638  11.994  66.362  1.00  0.00    -0.228 C  
BRANCH  15  16
HETATM   16  N   UNL     1      -8.796  11.667  67.519  1.00  0.00    -0.154 NA 
HETATM   17  C   UNL     1      -7.691  10.724  67.262  1.00  0.00    -0.109 C  
HETATM   18  C   UNL     1      -6.426  11.373  66.678  1.00  0.00    -0.117 C  
HETATM   19  O   UNL     1      -5.987  12.489  67.458  1.00  0.00    -0.125 OA 
HETATM   20  C   UNL     1      -7.038  13.455  67.589  1.00  0.00    -0.162 C  
HETATM   21  C   UNL     1      -8.280  12.838  68.243  1.00  0.00    -0.159 C  
ENDBRANCH  15  16
ENDBRANCH  12  15
ENDBRANCH   2   3
TORSDOF 3
ENDMDL
MODEL       60
REMARK 921   NORMALIZED FREE ENERGY PREDICTED BY IDOCK:   -4.70 KCAL/MOL
REMARK 922        TOTAL FREE ENERGY PREDICTED BY IDOCK:   -6.06 KCAL/MOL
REMARK 923 INTER-LIGAND FREE ENERGY PREDICTED BY IDOCK:   -5.46 KCAL/MOL
REMARK 924 INTRA-LIGAND FREE ENERGY PREDICTED BY IDOCK:   -0.60 KCAL/MOL
REMARK 927      BINDING AFFINITY PREDICTED BY RF-SCORE:    0.00 PKD
ROOT
HETATM    1  C   UNL     1     -10.716   7.368  66.983  1.00  0.00    -0.389 C  
HETATM    2  C   UNL     1     -10.368   8.058  68.293  1.00  0.00    -0.240 C  
ENDROOT
BRANCH   2   3
HETATM    3  C   UNL     1      -9.335   9.135  68.125  1.00  0.00    -0.147 A  
HETATM    4  C   UNL     1      -7.962   8.973  67.996  1.00  0.00    -0.101 A  
HETATM    5  C   UNL     1      -7.123   7.746  67.944  1.00  0.00    -0.086 C  
HETATM    6  N   UNL     1      -7.392  10.218  67.913  1.00  0.00    -0.086 NA 
HETATM    7  C   UNL     1      -8.372  11.177  67.950  1.00  0.00    -0.129 A  
HETATM    8  H   UNL     1      -6.393  10.403  67.834  1.00  0.00     0.000 HD 
HETATM    9  C   UNL     1      -9.583  10.542  68.065  1.00  0.00    -0.159 A  
HETATM   10  C   UNL     1     -10.835  11.271  68.133  1.00  0.00    -0.217 C  
HETATM   11  O   UNL     1     -11.898  10.669  68.287  1.00  0.00    -0.466 OA 
HETATM   12  C   UNL     1     -10.776  12.804  68.069  1.00  0.00    -0.246 C  
HETATM   13  C   UNL     1      -9.372  13.468  68.099  1.00  0.00    -0.213 C  
HETATM   14  C   UNL     1      -8.110  12.626  67.871  1.00  0.00    -0.165 C  
BRANCH  12  15
HETATM   15  C   UNL     1     -11.630  13.342  66.893  1.00  0.00    -0.364 C  
BRANCH  15  16
HETATM   16  N   UNL     1     -10.892  13.515  65.637  1.00  0.00    -0.284 NA 
HETATM   17  C   UNL     1     -11.067  12.443  64.638  1.00  0.00    -0.307 C  
HETATM   18  C   UNL     1     -12.330  12.579  63.773  1.00  0.00    -0.502 C  
HETATM   19  O   UNL     1     -12.429  13.874  63.171  1.00  0.00    -0.766 OA 
HETATM   20  C   UNL     1     -12.387  14.898  64.172  1.00  0.00    -0.185 C  
HETATM   21  C   UNL     1     -11.092  14.820  64.991  1.00  0.00    -0.405 C  
ENDBRANCH  15  16
ENDBRANCH  12  15
ENDBRANCH   2   3
TORSDOF 3
ENDMDL
MODEL       61
REMARK 921   NORMALIZED FREE ENERGY PREDICTED BY IDOCK:   -4.69 KCAL/MOL
REMARK 922        TOTAL FREE ENERGY PREDICTED BY IDOCK:   -6.05 KCAL/MOL
REMARK 923 INTER-LIGAND FREE ENERGY PREDICTED BY IDOCK:   -5.47 KCAL/MOL
REMARK 924 INTRA-LIGAND FREE ENERGY PREDICTED BY IDOCK:   -0.58 KCAL/MOL
REMARK 927      BINDING AFFINITY PREDICTED BY RF-SCORE:    0.00 PKD
ROOT
HETATM    1  C   UNL     1      -8.048  12.601  67.857  1.00  0.00    -0.165 C  
HETATM    2  C   UNL     1      -8.614  11.224  67.547  1.00  0.00    -0.134 C  
ENDROOT
BRANCH   2   3
HETATM    3  C   UNL     1      -9.977  11.009  68.139  1.00  0.00    -0.190 A  
HETATM    4  C   UNL     1     -11.198  11.411  67.613  1.00  0.00    -0.283 A  
HETATM    5  C   UNL     1     -11.532  12.109  66.343  1.00  0.00    -0.430 C  
HETATM    6  N   UNL     1     -12.182  11.051  68.498  1.00  0.00    -0.781 NA 
HETATM    7  C   UNL     1     -11.625  10.396  69.567  1.00  0.00    -0.219 A  
HETATM    8  H   UNL     1     -13.177  11.242  68.380  1.00  0.00     0.000 HD 
HETATM    9  C   UNL     1     -10.268  10.339  69.369  1.00  0.00    -0.255 A  
HETATM   10  C   UNL     1      -9.374   9.709  70.321  1.00  0.00    -0.242 C  
HETATM   11  O   UNL     1      -8.158   9.722  70.135  1.00  0.00    -0.170 OA 
HETATM   12  C   UNL     1      -9.993   9.089  71.583  1.00  0.00    -0.383 C  
HETATM   13  C   UNL     1     -11.509   9.324  71.827  1.00  0.00    -0.448 C  
HETATM   14  C   UNL     1     -12.402   9.862  70.701  1.00  0.00    -0.299 C  
BRANCH  12  15
HETATM   15  C   UNL     1      -9.628   7.587  71.697  1.00  0.00    -0.150 C  
BRANCH  15  16
HETATM   16  N   UNL     1     -10.746   6.671  71.447  1.00  0.00    -0.225 NA 
HETATM   17  C   UNL     1     -10.771   6.038  70.115  1.00  0.00    -0.311 C  
HETATM   18  C   UNL     1      -9.880   4.792  69.987  1.00  0.00    -0.227 C  
HETATM   19  O   UNL     1     -10.141   3.839  71.022  1.00  0.00    -0.119 OA 
HETATM   20  C   UNL     1      -9.986   4.443  72.312  1.00  0.00    -0.177 C  
HETATM   21  C   UNL     1     -10.928   5.641  72.480  1.00  0.00    -0.264 C  
ENDBRANCH  15  16
ENDBRANCH  12  15
ENDBRANCH   2   3
TORSDOF 3
ENDMDL
MODEL       62
REMARK 921   NORMALIZED FREE ENERGY PREDICTED BY IDOCK:   -4.68 KCAL/MOL
REMARK 922        TOTAL FREE ENERGY PREDICTED BY IDOCK:   -6.04 KCAL/MOL
REMARK 923 INTER-LIGAND FREE ENERGY PREDICTED BY IDOCK:   -5.49 KCAL/MOL
REMARK 924 INTRA-LIGAND FREE ENERGY PREDICTED BY IDOCK:   -0.55 KCAL/MOL
REMARK 927      BINDING AFFINITY PREDICTED BY RF-SCORE:    0.00 PKD
ROOT
HETATM    1  C   UNL     1      -9.534   8.841  65.727  1.00  0.00    -0.239 C  
HETATM    2  C   UNL     1      -9.106   9.900  66.730  1.00  0.00    -0.164 C  
ENDROOT
BRANCH   2   3
HETATM    3  C   UNL     1     -10.268  10.532  67.440  1.00  0.00    -0.253 A  
HETATM    4  C   UNL     1     -11.131  11.502  66.947  1.00  0.00    -0.307 A  
HETATM    5  C   UNL     1     -11.202  12.161  65.616  1.00  0.00    -0.381 C  
HETATM    6  N   UNL     1     -12.018  11.828  67.941  1.00  0.00    -0.597 NA 
HETATM    7  C   UNL     1     -11.768  11.064  69.052  1.00  0.00    -0.333 A  
HETATM    8  H   UNL     1     -12.753  12.532  67.866  1.00  0.00     0.000 HD 
HETATM    9  C   UNL     1     -10.705  10.243  68.771  1.00  0.00    -0.247 A  
HETATM   10  C   UNL     1     -10.178   9.301  69.740  1.00  0.00    -0.211 C  
HETATM   11  O   UNL     1      -9.191   8.617  69.470  1.00  0.00    -0.148 OA 
HETATM   12  C   UNL     1     -10.853   9.238  71.118  1.00  0.00    -0.407 C  
HETATM   13  C   UNL     1     -11.944  10.299  71.430  1.00  0.00    -0.419 C  
HETATM   14  C   UNL     1     -12.544  11.150  70.303  1.00  0.00    -0.288 C  
BRANCH  12  15
HETATM   15  C   UNL     1     -11.355   7.804  71.423  1.00  0.00    -0.251 C  
BRANCH  15  16
HETATM   16  N   UNL     1     -10.953   7.287  72.735  1.00  0.00    -0.297 NA 
HETATM   17  C   UNL     1     -11.023   5.822  72.895  1.00  0.00    -0.274 C  
HETATM   18  C   UNL     1      -9.798   5.065  72.357  1.00  0.00    -0.169 C  
HETATM   19  O   UNL     1      -8.573   5.589  72.880  1.00  0.00    -0.119 OA 
HETATM   20  C   UNL     1      -8.466   6.990  72.601  1.00  0.00    -0.111 C  
HETATM   21  C   UNL     1      -9.644   7.767  73.201  1.00  0.00    -0.275 C  
ENDBRANCH  15  16
ENDBRANCH  12  15
ENDBRANCH   2   3
TORSDOF 3
ENDMDL
MODEL       63
REMARK 921   NORMALIZED FREE ENERGY PREDICTED BY IDOCK:   -4.66 KCAL/MOL
REMARK 922        TOTAL FREE ENERGY PREDICTED BY IDOCK:   -6.02 KCAL/MOL
REMARK 923 INTER-LIGAND FREE ENERGY PREDICTED BY IDOCK:   -5.56 KCAL/MOL
REMARK 924 INTRA-LIGAND FREE ENERGY PREDICTED BY IDOCK:   -0.46 KCAL/MOL
REMARK 927      BINDING AFFINITY PREDICTED BY RF-SCORE:    0.00 PKD
ROOT
HETATM    1  C   UNL     1      -8.538   8.656  66.188  1.00  0.00    -0.158 C  
HETATM    2  C   UNL     1     -10.025   8.545  66.483  1.00  0.00    -0.350 C  
ENDROOT
BRANCH   2   3
HETATM    3  C   UNL     1     -10.349   8.768  67.932  1.00  0.00    -0.281 A  
HETATM    4  C   UNL     1     -10.246   7.851  68.970  1.00  0.00    -0.209 A  
HETATM    5  C   UNL     1      -9.770   6.442  68.985  1.00  0.00    -0.145 C  
HETATM    6  N   UNL     1     -10.686   8.457  70.119  1.00  0.00    -0.234 NA 
HETATM    7  C   UNL     1     -11.037   9.756  69.850  1.00  0.00    -0.254 A  
HETATM    8  H   UNL     1     -10.744   8.011  71.034  1.00  0.00     0.000 HD 
HETATM    9  C   UNL     1     -10.826   9.984  68.514  1.00  0.00    -0.270 A  
HETATM   10  C   UNL     1     -11.100  11.268  67.896  1.00  0.00    -0.267 C  
HETATM   11  O   UNL     1     -10.947  11.421  66.685  1.00  0.00    -0.281 OA 
HETATM   12  C   UNL     1     -11.640  12.393  68.791  1.00  0.00    -0.373 C  
HETATM   13  C   UNL     1     -12.007  12.029  70.256  1.00  0.00    -0.398 C  
HETATM   14  C   UNL     1     -11.542  10.699  70.865  1.00  0.00    -0.311 C  
BRANCH  12  15
HETATM   15  C   UNL     1     -10.718  13.637  68.732  1.00  0.00    -0.244 C  
BRANCH  15  16
HETATM   16  N   UNL     1     -11.346  14.831  68.156  1.00  0.00    -0.293 NA 
HETATM   17  C   UNL     1     -11.671  15.908  69.110  1.00  0.00    -0.363 C  
HETATM   18  C   UNL     1     -10.493  16.838  69.443  1.00  0.00    -0.312 C  
HETATM   19  O   UNL     1      -9.870  17.356  68.263  1.00  0.00    -0.280 OA 
HETATM   20  C   UNL     1      -9.447  16.288  67.408  1.00  0.00    -0.227 C  
HETATM   21  C   UNL     1     -10.629  15.398  67.005  1.00  0.00    -0.309 C  
ENDBRANCH  15  16
ENDBRANCH  12  15
ENDBRANCH   2   3
TORSDOF 3
ENDMDL
MODEL       64
REMARK 921   NORMALIZED FREE ENERGY PREDICTED BY IDOCK:   -4.65 KCAL/MOL
REMARK 922        TOTAL FREE ENERGY PREDICTED BY IDOCK:   -6.01 KCAL/MOL
REMARK 923 INTER-LIGAND FREE ENERGY PREDICTED BY IDOCK:   -5.62 KCAL/MOL
REMARK 924 INTRA-LIGAND FREE ENERGY PREDICTED BY IDOCK:   -0.39 KCAL/MOL
REMARK 927      BINDING AFFINITY PREDICTED BY RF-SCORE:    0.00 PKD
ROOT
HETATM    1  C   UNL     1      -5.721  14.334  67.602  1.00  0.00     0.014 C  
HETATM    2  C   UNL     1      -6.638  14.111  68.794  1.00  0.00    -0.094 C  
ENDROOT
BRANCH   2   3
HETATM    3  C   UNL     1      -7.829  15.024  68.791  1.00  0.00    -0.151 A  
HETATM    4  C   UNL     1      -7.834  16.404  68.950  1.00  0.00    -0.234 A  
HETATM    5  C   UNL     1      -6.719  17.371  69.125  1.00  0.00    -0.243 C  
HETATM    6  N   UNL     1      -9.138  16.830  68.928  1.00  0.00    -0.251 NA 
HETATM    7  C   UNL     1      -9.970  15.760  68.723  1.00  0.00    -0.214 A  
HETATM    8  H   UNL     1      -9.442  17.796  69.046  1.00  0.00     0.000 HD 
HETATM    9  C   UNL     1      -9.194  14.632  68.618  1.00  0.00    -0.194 A  
HETATM   10  C   UNL     1      -9.766  13.318  68.399  1.00  0.00    -0.198 C  
HETATM   11  O   UNL     1      -9.042  12.323  68.361  1.00  0.00    -0.193 OA 
HETATM   12  C   UNL     1     -11.293  13.211  68.279  1.00  0.00    -0.333 C  
HETATM   13  C   UNL     1     -12.125  14.492  68.563  1.00  0.00    -0.257 C  
HETATM   14  C   UNL     1     -11.439  15.863  68.634  1.00  0.00    -0.391 C  
BRANCH  12  15
HETATM   15  C   UNL     1     -11.698  12.562  66.932  1.00  0.00    -0.377 C  
BRANCH  15  16
HETATM   16  N   UNL     1     -10.921  13.026  65.777  1.00  0.00    -0.275 NA 
HETATM   17  C   UNL     1     -10.849  12.093  64.636  1.00  0.00    -0.306 C  
HETATM   18  C   UNL     1     -12.060  12.151  63.691  1.00  0.00    -0.551 C  
HETATM   19  O   UNL     1     -12.335  13.486  63.256  1.00  0.00    -0.709 OA 
HETATM   20  C   UNL     1     -12.528  14.352  64.381  1.00  0.00    -0.312 C  
HETATM   21  C   UNL     1     -11.294  14.362  65.292  1.00  0.00    -0.346 C  
ENDBRANCH  15  16
ENDBRANCH  12  15
ENDBRANCH   2   3
TORSDOF 3
ENDMDL
MODEL       65
REMARK 921   NORMALIZED FREE ENERGY PREDICTED BY IDOCK:   -4.64 KCAL/MOL
REMARK 922        TOTAL FREE ENERGY PREDICTED BY IDOCK:   -6.00 KCAL/MOL
REMARK 923 INTER-LIGAND FREE ENERGY PREDICTED BY IDOCK:   -5.70 KCAL/MOL
REMARK 924 INTRA-LIGAND FREE ENERGY PREDICTED BY IDOCK:   -0.30 KCAL/MOL
REMARK 927      BINDING AFFINITY PREDICTED BY RF-SCORE:    0.00 PKD
ROOT
HETATM    1  C   UNL     1     -12.013  15.064  68.275  1.00  0.00    -0.214 C  
HETATM    2  C   UNL     1     -11.602  15.012  69.738  1.00  0.00    -0.336 C  
ENDROOT
BRANCH   2   3
HETATM    3  C   UNL     1     -12.304  13.928  70.502  1.00  0.00    -0.439 A  
HETATM    4  C   UNL     1     -13.333  14.077  71.423  1.00  0.00    -0.317 A  
HETATM    5  C   UNL     1     -14.056  15.289  71.893  1.00  0.00    -0.656 C  
HETATM    6  N   UNL     1     -13.648  12.836  71.915  1.00  0.00    -0.343 NA 
HETATM    7  C   UNL     1     -12.869  11.886  71.304  1.00  0.00    -0.290 A  
HETATM    8  H   UNL     1     -14.354  12.647  72.626  1.00  0.00     0.000 HD 
HETATM    9  C   UNL     1     -12.041  12.525  70.415  1.00  0.00    -0.380 A  
HETATM   10  C   UNL     1     -11.080  11.806  69.600  1.00  0.00    -0.070 C  
HETATM   11  O   UNL     1     -10.318  12.418  68.851  1.00  0.00    -0.167 OA 
HETATM   12  C   UNL     1     -11.011  10.280  69.752  1.00  0.00    -0.338 C  
HETATM   13  C   UNL     1     -11.858   9.634  70.883  1.00  0.00    -0.403 C  
HETATM   14  C   UNL     1     -12.955  10.442  71.589  1.00  0.00    -0.581 C  
BRANCH  12  15
HETATM   15  C   UNL     1     -11.254   9.577  68.393  1.00  0.00     0.125 C  
BRANCH  15  16
HETATM   16  N   UNL     1     -10.084   8.874  67.856  1.00  0.00    -0.194 NA 
HETATM   17  C   UNL     1      -9.157   8.314  68.858  1.00  0.00    -0.147 C  
HETATM   18  C   UNL     1      -9.574   6.943  69.413  1.00  0.00    -0.147 C  
HETATM   19  O   UNL     1      -9.843   6.002  68.369  1.00  0.00    -0.121 OA 
HETATM   20  C   UNL     1     -10.841   6.513  67.477  1.00  0.00    -0.352 C  
HETATM   21  C   UNL     1     -10.401   7.844  66.856  1.00  0.00    -0.330 C  
ENDBRANCH  15  16
ENDBRANCH  12  15
ENDBRANCH   2   3
TORSDOF 3
ENDMDL
MODEL       66
REMARK 921   NORMALIZED FREE ENERGY PREDICTED BY IDOCK:   -4.64 KCAL/MOL
REMARK 922        TOTAL FREE ENERGY PREDICTED BY IDOCK:   -6.00 KCAL/MOL
REMARK 923 INTER-LIGAND FREE ENERGY PREDICTED BY IDOCK:   -5.46 KCAL/MOL
REMARK 924 INTRA-LIGAND FREE ENERGY PREDICTED BY IDOCK:   -0.54 KCAL/MOL
REMARK 927      BINDING AFFINITY PREDICTED BY RF-SCORE:    0.00 PKD
ROOT
HETATM    1  C   UNL     1      -8.549   8.077  72.369  1.00  0.00    -0.220 C  
HETATM    2  C   UNL     1      -9.689   8.891  71.779  1.00  0.00    -0.365 C  
ENDROOT
BRANCH   2   3
HETATM    3  C   UNL     1     -10.195   8.330  70.482  1.00  0.00    -0.213 A  
HETATM    4  C   UNL     1     -11.068   7.264  70.308  1.00  0.00    -0.266 A  
HETATM    5  C   UNL     1     -11.775   6.409  71.297  1.00  0.00    -0.359 C  
HETATM    6  N   UNL     1     -11.226   7.059  68.961  1.00  0.00    -0.491 NA 
HETATM    7  C   UNL     1     -10.502   7.992  68.263  1.00  0.00    -0.161 A  
HETATM    8  H   UNL     1     -11.796   6.324  68.541  1.00  0.00     0.000 HD 
HETATM    9  C   UNL     1      -9.867   8.801  69.172  1.00  0.00    -0.181 A  
HETATM   10  C   UNL     1      -9.011   9.898  68.763  1.00  0.00    -0.140 C  
HETATM   11  O   UNL     1      -8.417  10.571  69.605  1.00  0.00    -0.108 OA 
HETATM   12  C   UNL     1      -8.829  10.144  67.258  1.00  0.00    -0.137 C  
HETATM   13  C   UNL     1      -9.443   9.101  66.283  1.00  0.00    -0.299 C  
HETATM   14  C   UNL     1     -10.456   8.067  66.791  1.00  0.00    -0.319 C  
BRANCH  12  15
HETATM   15  C   UNL     1      -9.247  11.587  66.879  1.00  0.00    -0.176 C  
BRANCH  15  16
HETATM   16  N   UNL     1     -10.541  11.683  66.194  1.00  0.00    -0.253 NA 
HETATM   17  C   UNL     1     -11.634  12.295  66.974  1.00  0.00    -0.349 C  
HETATM   18  C   UNL     1     -11.646  13.831  66.955  1.00  0.00    -0.370 C  
HETATM   19  O   UNL     1     -11.604  14.350  65.622  1.00  0.00    -0.338 OA 
HETATM   20  C   UNL     1     -10.461  13.843  64.922  1.00  0.00    -0.426 C  
HETATM   21  C   UNL     1     -10.479  12.311  64.866  1.00  0.00    -0.289 C  
ENDBRANCH  15  16
ENDBRANCH  12  15
ENDBRANCH   2   3
TORSDOF 3
ENDMDL
MODEL       67
REMARK 921   NORMALIZED FREE ENERGY PREDICTED BY IDOCK:   -4.63 KCAL/MOL
REMARK 922        TOTAL FREE ENERGY PREDICTED BY IDOCK:   -5.98 KCAL/MOL
REMARK 923 INTER-LIGAND FREE ENERGY PREDICTED BY IDOCK:   -5.42 KCAL/MOL
REMARK 924 INTRA-LIGAND FREE ENERGY PREDICTED BY IDOCK:   -0.56 KCAL/MOL
REMARK 927      BINDING AFFINITY PREDICTED BY RF-SCORE:    0.00 PKD
ROOT
HETATM    1  C   UNL     1      -5.980  13.986  68.787  1.00  0.00    -0.085 C  
HETATM    2  C   UNL     1      -6.775  14.845  69.758  1.00  0.00    -0.179 C  
ENDROOT
BRANCH   2   3
HETATM    3  C   UNL     1      -7.122  16.192  69.193  1.00  0.00    -0.209 A  
HETATM    4  C   UNL     1      -6.425  17.382  69.362  1.00  0.00    -0.233 A  
HETATM    5  C   UNL     1      -5.160  17.679  70.084  1.00  0.00    -0.215 C  
HETATM    6  N   UNL     1      -7.115  18.375  68.714  1.00  0.00    -0.277 NA 
HETATM    7  C   UNL     1      -8.221  17.844  68.101  1.00  0.00    -0.269 A  
HETATM    8  H   UNL     1      -6.846  19.358  68.690  1.00  0.00     0.000 HD 
HETATM    9  C   UNL     1      -8.246  16.497  68.364  1.00  0.00    -0.194 A  
HETATM   10  C   UNL     1      -9.295  15.631  67.860  1.00  0.00    -0.195 C  
HETATM   11  O   UNL     1      -9.313  14.437  68.159  1.00  0.00    -0.191 OA 
HETATM   12  C   UNL     1     -10.400  16.266  67.004  1.00  0.00    -0.292 C  
HETATM   13  C   UNL     1     -10.405  17.814  66.875  1.00  0.00    -0.344 C  
HETATM   14  C   UNL     1      -9.180  18.633  67.306  1.00  0.00    -0.297 C  
BRANCH  12  15
HETATM   15  C   UNL     1     -10.486  15.583  65.616  1.00  0.00    -0.374 C  
BRANCH  15  16
HETATM   16  N   UNL     1     -11.802  15.017  65.300  1.00  0.00    -0.215 NA 
HETATM   17  C   UNL     1     -11.896  14.292  64.018  1.00  0.00    -0.237 C  
HETATM   18  C   UNL     1     -11.417  12.832  64.078  1.00  0.00    -0.417 C  
HETATM   19  O   UNL     1     -12.048  12.105  65.136  1.00  0.00    -0.388 OA 
HETATM   20  C   UNL     1     -11.836  12.760  66.392  1.00  0.00    -0.408 C  
HETATM   21  C   UNL     1     -12.381  14.193  66.370  1.00  0.00    -0.400 C  
ENDBRANCH  15  16
ENDBRANCH  12  15
ENDBRANCH   2   3
TORSDOF 3
ENDMDL
MODEL       68
REMARK 921   NORMALIZED FREE ENERGY PREDICTED BY IDOCK:   -4.61 KCAL/MOL
REMARK 922        TOTAL FREE ENERGY PREDICTED BY IDOCK:   -5.96 KCAL/MOL
REMARK 923 INTER-LIGAND FREE ENERGY PREDICTED BY IDOCK:   -5.56 KCAL/MOL
REMARK 924 INTRA-LIGAND FREE ENERGY PREDICTED BY IDOCK:   -0.40 KCAL/MOL
REMARK 927      BINDING AFFINITY PREDICTED BY RF-SCORE:    0.00 PKD
ROOT
HETATM    1  C   UNL     1      -5.146  17.379  67.560  1.00  0.00    -0.130 C  
HETATM    2  C   UNL     1      -5.930  17.995  68.708  1.00  0.00    -0.197 C  
ENDROOT
BRANCH   2   3
HETATM    3  C   UNL     1      -7.326  18.383  68.317  1.00  0.00    -0.285 A  
HETATM    4  C   UNL     1      -7.734  19.565  67.711  1.00  0.00    -0.286 A  
HETATM    5  C   UNL     1      -6.956  20.743  67.245  1.00  0.00    -0.414 C  
HETATM    6  N   UNL     1      -9.098  19.524  67.574  1.00  0.00    -0.298 NA 
HETATM    7  C   UNL     1      -9.574  18.328  68.046  1.00  0.00    -0.304 A  
HETATM    8  H   UNL     1      -9.672  20.270  67.180  1.00  0.00     0.000 HD 
HETATM    9  C   UNL     1      -8.505  17.594  68.496  1.00  0.00    -0.289 A  
HETATM   10  C   UNL     1      -8.662  16.269  69.065  1.00  0.00    -0.246 C  
HETATM   11  O   UNL     1      -7.686  15.662  69.505  1.00  0.00    -0.224 OA 
HETATM   12  C   UNL     1     -10.081  15.689  69.150  1.00  0.00    -0.237 C  
HETATM   13  C   UNL     1     -11.262  16.626  68.773  1.00  0.00    -0.217 C  
HETATM   14  C   UNL     1     -10.999  17.948  68.039  1.00  0.00    -0.059 C  
BRANCH  12  15
HETATM   15  C   UNL     1     -10.172  14.336  68.400  1.00  0.00    -0.245 C  
BRANCH  15  16
HETATM   16  N   UNL     1     -11.540  13.854  68.182  1.00  0.00    -0.314 NA 
HETATM   17  C   UNL     1     -11.736  12.998  66.996  1.00  0.00    -0.383 C  
HETATM   18  C   UNL     1     -11.379  11.519  67.214  1.00  0.00    -0.290 C  
HETATM   19  O   UNL     1     -12.034  10.974  68.364  1.00  0.00    -0.565 OA 
HETATM   20  C   UNL     1     -11.726  11.748  69.531  1.00  0.00    -0.343 C  
HETATM   21  C   UNL     1     -12.150  13.211  69.354  1.00  0.00    -0.231 C  
ENDBRANCH  15  16
ENDBRANCH  12  15
ENDBRANCH   2   3
TORSDOF 3
ENDMDL
MODEL       69
REMARK 921   NORMALIZED FREE ENERGY PREDICTED BY IDOCK:   -4.61 KCAL/MOL
REMARK 922        TOTAL FREE ENERGY PREDICTED BY IDOCK:   -5.96 KCAL/MOL
REMARK 923 INTER-LIGAND FREE ENERGY PREDICTED BY IDOCK:   -5.57 KCAL/MOL
REMARK 924 INTRA-LIGAND FREE ENERGY PREDICTED BY IDOCK:   -0.39 KCAL/MOL
REMARK 927      BINDING AFFINITY PREDICTED BY RF-SCORE:    0.00 PKD
ROOT
HETATM    1  C   UNL     1     -12.290  12.306  64.394  1.00  0.00    -0.493 C  
HETATM    2  C   UNL     1     -11.041  12.241  65.259  1.00  0.00    -0.359 C  
ENDROOT
BRANCH   2   3
HETATM    3  C   UNL     1     -10.264  10.971  65.064  1.00  0.00    -0.360 A  
HETATM    4  C   UNL     1      -9.507  10.607  63.958  1.00  0.00    -0.285 A  
HETATM    5  C   UNL     1      -9.207  11.335  62.697  1.00  0.00    -0.330 C  
HETATM    6  N   UNL     1      -9.006   9.349  64.180  1.00  0.00    -0.377 NA 
HETATM    7  C   UNL     1      -9.395   8.909  65.419  1.00  0.00    -0.088 A  
HETATM    8  H   UNL     1      -8.432   8.821  63.523  1.00  0.00     0.000 HD 
HETATM    9  C   UNL     1     -10.158   9.893  65.998  1.00  0.00    -0.314 A  
HETATM   10  C   UNL     1     -10.734   9.746  67.321  1.00  0.00    -0.227 C  
HETATM   11  O   UNL     1     -11.455  10.628  67.787  1.00  0.00    -0.460 OA 
HETATM   12  C   UNL     1     -10.461   8.440  68.081  1.00  0.00    -0.228 C  
HETATM   13  C   UNL     1      -9.726   7.306  67.314  1.00  0.00    -0.204 C  
HETATM   14  C   UNL     1      -9.021   7.599  65.984  1.00  0.00    -0.178 C  
BRANCH  12  15
HETATM   15  C   UNL     1      -9.789   8.725  69.448  1.00  0.00    -0.186 C  
BRANCH  15  16
HETATM   16  N   UNL     1      -9.740   7.571  70.352  1.00  0.00    -0.179 NA 
HETATM   17  C   UNL     1      -8.868   7.719  71.533  1.00  0.00    -0.129 C  
HETATM   18  C   UNL     1      -9.516   8.462  72.712  1.00  0.00    -0.242 C  
HETATM   19  O   UNL     1     -10.783   7.899  73.067  1.00  0.00    -0.365 OA 
HETATM   20  C   UNL     1     -11.661   7.882  71.934  1.00  0.00    -0.292 C  
HETATM   21  C   UNL     1     -11.057   7.077  70.777  1.00  0.00    -0.273 C  
ENDBRANCH  15  16
ENDBRANCH  12  15
ENDBRANCH   2   3
TORSDOF 3
ENDMDL
MODEL       70
REMARK 921   NORMALIZED FREE ENERGY PREDICTED BY IDOCK:   -4.58 KCAL/MOL
REMARK 922        TOTAL FREE ENERGY PREDICTED BY IDOCK:   -5.92 KCAL/MOL
REMARK 923 INTER-LIGAND FREE ENERGY PREDICTED BY IDOCK:   -5.53 KCAL/MOL
REMARK 924 INTRA-LIGAND FREE ENERGY PREDICTED BY IDOCK:   -0.39 KCAL/MOL
REMARK 927      BINDING AFFINITY PREDICTED BY RF-SCORE:    0.00 PKD
ROOT
HETATM    1  C   UNL     1      -8.039   7.936  65.804  1.00  0.00    -0.123 C  
HETATM    2  C   UNL     1      -7.660   9.353  65.406  1.00  0.00    -0.100 C  
ENDROOT
BRANCH   2   3
HETATM    3  C   UNL     1      -8.720  10.030  64.585  1.00  0.00    -0.210 A  
HETATM    4  C   UNL     1      -9.096   9.730  63.282  1.00  0.00    -0.237 A  
HETATM    5  C   UNL     1      -8.624   8.676  62.347  1.00  0.00    -0.162 C  
HETATM    6  N   UNL     1     -10.067  10.622  62.904  1.00  0.00    -0.709 NA 
HETATM    7  C   UNL     1     -10.350  11.467  63.947  1.00  0.00    -0.371 A  
HETATM    8  H   UNL     1     -10.512  10.653  61.987  1.00  0.00     0.000 HD 
HETATM    9  C   UNL     1      -9.547  11.118  65.004  1.00  0.00    -0.278 A  
HETATM   10  C   UNL     1      -9.593  11.819  66.273  1.00  0.00    -0.225 C  
HETATM   11  O   UNL     1      -8.822  11.511  67.183  1.00  0.00    -0.158 OA 
HETATM   12  C   UNL     1     -10.584  12.984  66.414  1.00  0.00    -0.294 C  
HETATM   13  C   UNL     1     -11.348  13.431  65.137  1.00  0.00    -0.316 C  
HETATM   14  C   UNL     1     -11.357  12.543  63.887  1.00  0.00    -0.504 C  
BRANCH  12  15
HETATM   15  C   UNL     1     -11.554  12.745  67.598  1.00  0.00    -0.358 C  
BRANCH  15  16
HETATM   16  N   UNL     1     -11.013  13.120  68.910  1.00  0.00    -0.243 NA 
HETATM   17  C   UNL     1     -10.293  14.407  68.962  1.00  0.00    -0.198 C  
HETATM   18  C   UNL     1     -11.201  15.637  69.121  1.00  0.00    -0.315 C  
HETATM   19  O   UNL     1     -12.102  15.498  70.224  1.00  0.00    -0.340 OA 
HETATM   20  C   UNL     1     -12.883  14.305  70.088  1.00  0.00    -0.077 C  
HETATM   21  C   UNL     1     -11.989  13.062  70.007  1.00  0.00    -0.312 C  
ENDBRANCH  15  16
ENDBRANCH  12  15
ENDBRANCH   2   3
TORSDOF 3
ENDMDL
MODEL       71
REMARK 921   NORMALIZED FREE ENERGY PREDICTED BY IDOCK:   -4.57 KCAL/MOL
REMARK 922        TOTAL FREE ENERGY PREDICTED BY IDOCK:   -5.92 KCAL/MOL
REMARK 923 INTER-LIGAND FREE ENERGY PREDICTED BY IDOCK:   -5.48 KCAL/MOL
REMARK 924 INTRA-LIGAND FREE ENERGY PREDICTED BY IDOCK:   -0.44 KCAL/MOL
REMARK 927      BINDING AFFINITY PREDICTED BY RF-SCORE:    0.00 PKD
ROOT
HETATM    1  C   UNL     1     -13.886  15.092  71.285  1.00  0.00    -0.553 C  
HETATM    2  C   UNL     1     -12.662  14.206  71.455  1.00  0.00    -0.439 C  
ENDROOT
BRANCH   2   3
HETATM    3  C   UNL     1     -11.831  14.118  70.208  1.00  0.00    -0.373 A  
HETATM    4  C   UNL     1     -11.143  15.147  69.578  1.00  0.00    -0.277 A  
HETATM    5  C   UNL     1     -10.986  16.581  69.939  1.00  0.00    -0.273 C  
HETATM    6  N   UNL     1     -10.555  14.638  68.448  1.00  0.00    -0.236 NA 
HETATM    7  C   UNL     1     -10.819  13.295  68.356  1.00  0.00    -0.258 A  
HETATM    8  H   UNL     1     -10.004  15.176  67.779  1.00  0.00     0.000 HD 
HETATM    9  C   UNL     1     -11.590  12.940  69.434  1.00  0.00    -0.363 A  
HETATM   10  C   UNL     1     -12.050  11.579  69.639  1.00  0.00    -0.296 C  
HETATM   11  O   UNL     1     -12.783  11.308  70.590  1.00  0.00    -0.291 OA 
HETATM   12  C   UNL     1     -11.643  10.521  68.604  1.00  0.00    -0.241 C  
HETATM   13  C   UNL     1     -10.907  11.013  67.328  1.00  0.00    -0.335 C  
HETATM   14  C   UNL     1     -10.327  12.432  67.266  1.00  0.00    -0.227 C  
BRANCH  12  15
HETATM   15  C   UNL     1     -10.884   9.351  69.278  1.00  0.00    -0.172 C  
BRANCH  15  16
HETATM   16  N   UNL     1      -9.995   9.755  70.373  1.00  0.00    -0.265 NA 
HETATM   17  C   UNL     1     -10.264   9.127  71.681  1.00  0.00    -0.301 C  
HETATM   18  C   UNL     1      -9.644   7.732  71.856  1.00  0.00    -0.165 C  
HETATM   19  O   UNL     1      -8.245   7.726  71.552  1.00  0.00    -0.099 OA 
HETATM   20  C   UNL     1      -8.017   8.221  70.226  1.00  0.00    -0.102 C  
HETATM   21  C   UNL     1      -8.563   9.645  70.064  1.00  0.00    -0.215 C  
ENDBRANCH  15  16
ENDBRANCH  12  15
ENDBRANCH   2   3
TORSDOF 3
ENDMDL
MODEL       72
REMARK 921   NORMALIZED FREE ENERGY PREDICTED BY IDOCK:   -4.54 KCAL/MOL
REMARK 922        TOTAL FREE ENERGY PREDICTED BY IDOCK:   -5.88 KCAL/MOL
REMARK 923 INTER-LIGAND FREE ENERGY PREDICTED BY IDOCK:   -5.44 KCAL/MOL
REMARK 924 INTRA-LIGAND FREE ENERGY PREDICTED BY IDOCK:   -0.44 KCAL/MOL
REMARK 927      BINDING AFFINITY PREDICTED BY RF-SCORE:    0.00 PKD
ROOT
HETATM    1  C   UNL     1      -9.314   7.617  69.264  1.00  0.00    -0.148 C  
HETATM    2  C   UNL     1     -10.809   7.830  69.084  1.00  0.00    -0.066 C  
ENDROOT
BRANCH   2   3
HETATM    3  C   UNL     1     -11.357   8.894  69.990  1.00  0.00    -0.050 A  
HETATM    4  C   UNL     1     -11.816   8.739  71.292  1.00  0.00    -0.303 A  
HETATM    5  C   UNL     1     -11.872   7.541  72.172  1.00  0.00    -0.338 C  
HETATM    6  N   UNL     1     -12.270   9.956  71.732  1.00  0.00    -0.382 NA 
HETATM    7  C   UNL     1     -12.081  10.900  70.755  1.00  0.00    -0.368 A  
HETATM    8  H   UNL     1     -12.685  10.133  72.647  1.00  0.00     0.000 HD 
HETATM    9  C   UNL     1     -11.505  10.281  69.674  1.00  0.00    -0.297 A  
HETATM   10  C   UNL     1     -11.172  11.000  68.459  1.00  0.00    -0.268 C  
HETATM   11  O   UNL     1     -10.703  10.402  67.490  1.00  0.00    -0.245 OA 
HETATM   12  C   UNL     1     -11.480  12.504  68.408  1.00  0.00    -0.355 C  
HETATM   13  C   UNL     1     -12.273  13.112  69.597  1.00  0.00    -0.241 C  
HETATM   14  C   UNL     1     -12.447  12.321  70.900  1.00  0.00    -0.371 C  
BRANCH  12  15
HETATM   15  C   UNL     1     -10.198  13.321  68.107  1.00  0.00    -0.243 C  
BRANCH  15  16
HETATM   16  N   UNL     1     -10.418  14.765  67.971  1.00  0.00    -0.243 NA 
HETATM   17  C   UNL     1      -9.227  15.615  68.164  1.00  0.00    -0.185 C  
HETATM   18  C   UNL     1      -8.338  15.756  66.919  1.00  0.00    -0.248 C  
HETATM   19  O   UNL     1      -9.088  16.162  65.769  1.00  0.00    -0.398 OA 
HETATM   20  C   UNL     1     -10.165  15.250  65.524  1.00  0.00    -0.388 C  
HETATM   21  C   UNL     1     -11.104  15.160  66.733  1.00  0.00    -0.307 C  
ENDBRANCH  15  16
ENDBRANCH  12  15
ENDBRANCH   2   3
TORSDOF 3
ENDMDL
MODEL       73
REMARK 921   NORMALIZED FREE ENERGY PREDICTED BY IDOCK:   -4.54 KCAL/MOL
REMARK 922        TOTAL FREE ENERGY PREDICTED BY IDOCK:   -5.88 KCAL/MOL
REMARK 923 INTER-LIGAND FREE ENERGY PREDICTED BY IDOCK:   -5.34 KCAL/MOL
REMARK 924 INTRA-LIGAND FREE ENERGY PREDICTED BY IDOCK:   -0.54 KCAL/MOL
REMARK 927      BINDING AFFINITY PREDICTED BY RF-SCORE:    0.00 PKD
ROOT
HETATM    1  C   UNL     1      -6.508  12.700  69.002  1.00  0.00    -0.097 C  
HETATM    2  C   UNL     1      -6.898  13.213  67.625  1.00  0.00    -0.160 C  
ENDROOT
BRANCH   2   3
HETATM    3  C   UNL     1      -8.194  12.636  67.134  1.00  0.00    -0.159 A  
HETATM    4  C   UNL     1      -8.409  11.361  66.625  1.00  0.00    -0.172 A  
HETATM    5  C   UNL     1      -7.485  10.210  66.449  1.00  0.00    -0.108 C  
HETATM    6  N   UNL     1      -9.727  11.268  66.254  1.00  0.00    -0.209 NA 
HETATM    7  C   UNL     1     -10.373  12.442  66.547  1.00  0.00    -0.228 A  
HETATM    8  H   UNL     1     -10.161  10.450  65.827  1.00  0.00     0.000 HD 
HETATM    9  C   UNL     1      -9.459  13.301  67.105  1.00  0.00    -0.240 A  
HETATM   10  C   UNL     1      -9.817  14.640  67.531  1.00  0.00    -0.218 C  
HETATM   11  O   UNL     1      -8.960  15.401  67.980  1.00  0.00    -0.169 OA 
HETATM   12  C   UNL     1     -11.275  15.086  67.343  1.00  0.00    -0.337 C  
HETATM   13  C   UNL     1     -12.221  14.132  66.564  1.00  0.00    -0.463 C  
HETATM   14  C   UNL     1     -11.805  12.681  66.289  1.00  0.00    -0.471 C  
BRANCH  12  15
HETATM   15  C   UNL     1     -11.898  15.521  68.694  1.00  0.00    -0.300 C  
BRANCH  15  16
HETATM   16  N   UNL     1     -11.385  14.795  69.861  1.00  0.00    -0.264 NA 
HETATM   17  C   UNL     1     -10.966  15.631  71.002  1.00  0.00    -0.237 C  
HETATM   18  C   UNL     1     -12.114  16.064  71.928  1.00  0.00    -0.514 C  
HETATM   19  O   UNL     1     -12.902  14.950  72.359  1.00  0.00    -0.310 OA 
HETATM   20  C   UNL     1     -13.406  14.224  71.231  1.00  0.00    -0.321 C  
HETATM   21  C   UNL     1     -12.264  13.720  70.340  1.00  0.00    -0.363 C  
ENDBRANCH  15  16
ENDBRANCH  12  15
ENDBRANCH   2   3
TORSDOF 3
ENDMDL
MODEL       74
REMARK 921   NORMALIZED FREE ENERGY PREDICTED BY IDOCK:   -4.53 KCAL/MOL
REMARK 922        TOTAL FREE ENERGY PREDICTED BY IDOCK:   -5.87 KCAL/MOL
REMARK 923 INTER-LIGAND FREE ENERGY PREDICTED BY IDOCK:   -5.35 KCAL/MOL
REMARK 924 INTRA-LIGAND FREE ENERGY PREDICTED BY IDOCK:   -0.52 KCAL/MOL
REMARK 927      BINDING AFFINITY PREDICTED BY RF-SCORE:    0.00 PKD
ROOT
HETATM    1  C   UNL     1      -8.919   9.764  65.181  1.00  0.00    -0.237 C  
HETATM    2  C   UNL     1      -8.651  10.712  66.339  1.00  0.00    -0.151 C  
ENDROOT
BRANCH   2   3
HETATM    3  C   UNL     1      -9.892  11.048  67.114  1.00  0.00    -0.211 A  
HETATM    4  C   UNL     1     -10.886  11.952  66.764  1.00  0.00    -0.266 A  
HETATM    5  C   UNL     1     -11.052  12.802  65.555  1.00  0.00    -0.318 C  
HETATM    6  N   UNL     1     -11.811  11.983  67.777  1.00  0.00    -0.545 NA 
HETATM    7  C   UNL     1     -11.452  11.091  68.756  1.00  0.00    -0.305 A  
HETATM    8  H   UNL     1     -12.639  12.577  67.799  1.00  0.00     0.000 HD 
HETATM    9  C   UNL     1     -10.282  10.486  68.371  1.00  0.00    -0.192 A  
HETATM   10  C   UNL     1      -9.625   9.484  69.188  1.00  0.00    -0.170 C  
HETATM   11  O   UNL     1      -8.549   9.000  68.834  1.00  0.00    -0.128 OA 
HETATM   12  C   UNL     1     -10.283   9.102  70.521  1.00  0.00    -0.288 C  
HETATM   13  C   UNL     1     -11.516   9.932  70.975  1.00  0.00    -0.466 C  
HETATM   14  C   UNL     1     -12.232  10.861  69.986  1.00  0.00    -0.422 C  
BRANCH  12  15
HETATM   15  C   UNL     1     -10.573   7.581  70.579  1.00  0.00    -0.225 C  
BRANCH  15  16
HETATM   16  N   UNL     1      -9.632   6.815  71.403  1.00  0.00    -0.168 NA 
HETATM   17  C   UNL     1      -9.189   7.471  72.648  1.00  0.00    -0.152 C  
HETATM   18  C   UNL     1     -10.161   7.316  73.829  1.00  0.00    -0.329 C  
HETATM   19  O   UNL     1     -10.511   5.947  74.057  1.00  0.00    -0.265 OA 
HETATM   20  C   UNL     1     -11.059   5.364  72.869  1.00  0.00    -0.305 C  
HETATM   21  C   UNL     1     -10.066   5.443  71.703  1.00  0.00    -0.203 C  
ENDBRANCH  15  16
ENDBRANCH  12  15
ENDBRANCH   2   3
TORSDOF 3
ENDMDL
MODEL       75
REMARK 921   NORMALIZED FREE ENERGY PREDICTED BY IDOCK:   -4.52 KCAL/MOL
REMARK 922        TOTAL FREE ENERGY PREDICTED BY IDOCK:   -5.86 KCAL/MOL
REMARK 923 INTER-LIGAND FREE ENERGY PREDICTED BY IDOCK:   -5.47 KCAL/MOL
REMARK 924 INTRA-LIGAND FREE ENERGY PREDICTED BY IDOCK:   -0.39 KCAL/MOL
REMARK 927      BINDING AFFINITY PREDICTED BY RF-SCORE:    0.00 PKD
ROOT
HETATM    1  C   UNL     1      -7.746   9.051  68.051  1.00  0.00    -0.097 C  
HETATM    2  C   UNL     1      -8.173  10.338  68.737  1.00  0.00    -0.119 C  
ENDROOT
BRANCH   2   3
HETATM    3  C   UNL     1      -9.570  10.755  68.375  1.00  0.00    -0.177 A  
HETATM    4  C   UNL     1     -10.755  10.120  68.722  1.00  0.00    -0.220 A  
HETATM    5  C   UNL     1     -11.010   8.913  69.552  1.00  0.00    -0.097 C  
HETATM    6  N   UNL     1     -11.792  10.809  68.146  1.00  0.00    -0.782 NA 
HETATM    7  C   UNL     1     -11.303  11.894  67.465  1.00  0.00    -0.314 A  
HETATM    8  H   UNL     1     -12.777  10.554  68.214  1.00  0.00     0.000 HD 
HETATM    9  C   UNL     1      -9.937  11.899  67.599  1.00  0.00    -0.197 A  
HETATM   10  C   UNL     1      -9.104  12.920  66.993  1.00  0.00    -0.228 C  
HETATM   11  O   UNL     1      -7.878  12.863  67.093  1.00  0.00    -0.156 OA 
HETATM   12  C   UNL     1      -9.799  14.024  66.183  1.00  0.00    -0.319 C  
HETATM   13  C   UNL     1     -11.325  13.876  65.934  1.00  0.00    -0.314 C  
HETATM   14  C   UNL     1     -12.147  12.859  66.736  1.00  0.00    -0.335 C  
BRANCH  12  15
HETATM   15  C   UNL     1      -9.450  15.425  66.745  1.00  0.00    -0.241 C  
BRANCH  15  16
HETATM   16  N   UNL     1     -10.586  16.351  66.812  1.00  0.00    -0.277 NA 
HETATM   17  C   UNL     1     -11.093  16.646  68.166  1.00  0.00    -0.285 C  
HETATM   18  C   UNL     1     -10.312  17.740  68.912  1.00  0.00    -0.300 C  
HETATM   19  O   UNL     1     -10.185  18.933  68.132  1.00  0.00    -0.366 OA 
HETATM   20  C   UNL     1      -9.573  18.645  66.869  1.00  0.00    -0.310 C  
HETATM   21  C   UNL     1     -10.386  17.610  66.081  1.00  0.00    -0.334 C  
ENDBRANCH  15  16
ENDBRANCH  12  15
ENDBRANCH   2   3
TORSDOF 3
ENDMDL
MODEL       76
REMARK 921   NORMALIZED FREE ENERGY PREDICTED BY IDOCK:   -4.48 KCAL/MOL
REMARK 922        TOTAL FREE ENERGY PREDICTED BY IDOCK:   -5.80 KCAL/MOL
REMARK 923 INTER-LIGAND FREE ENERGY PREDICTED BY IDOCK:   -5.63 KCAL/MOL
REMARK 924 INTRA-LIGAND FREE ENERGY PREDICTED BY IDOCK:   -0.18 KCAL/MOL
REMARK 927      BINDING AFFINITY PREDICTED BY RF-SCORE:    0.00 PKD
ROOT
HETATM    1  C   UNL     1      -5.146  18.520  64.414  1.00  0.00    -0.146 C  
HETATM    2  C   UNL     1      -5.540  18.052  65.806  1.00  0.00    -0.233 C  
ENDROOT
BRANCH   2   3
HETATM    3  C   UNL     1      -6.925  18.481  66.193  1.00  0.00    -0.295 A  
HETATM    4  C   UNL     1      -7.504  19.730  66.006  1.00  0.00    -0.320 A  
HETATM    5  C   UNL     1      -6.980  20.963  65.362  1.00  0.00     0.065 C  
HETATM    6  N   UNL     1      -8.765  19.700  66.547  1.00  0.00    -0.346 NA 
HETATM    7  C   UNL     1      -9.023  18.449  67.046  1.00  0.00    -0.275 A  
HETATM    8  H   UNL     1      -9.412  20.488  66.573  1.00  0.00     0.000 HD 
HETATM    9  C   UNL     1      -7.915  17.669  66.830  1.00  0.00    -0.268 A  
HETATM   10  C   UNL     1      -7.856  16.279  67.242  1.00  0.00    -0.173 C  
HETATM   11  O   UNL     1      -6.826  15.625  67.077  1.00  0.00    -0.246 OA 
HETATM   12  C   UNL     1      -9.088  15.685  67.939  1.00  0.00    -0.185 C  
HETATM   13  C   UNL     1     -10.246  16.657  68.297  1.00  0.00    -0.281 C  
HETATM   14  C   UNL     1     -10.293  18.065  67.690  1.00  0.00    -0.397 C  
BRANCH  12  15
HETATM   15  C   UNL     1      -9.610  14.442  67.175  1.00  0.00    -0.250 C  
BRANCH  15  16
HETATM   16  N   UNL     1     -10.828  14.678  66.392  1.00  0.00    -0.309 NA 
HETATM   17  C   UNL     1     -10.654  14.697  64.927  1.00  0.00    -0.422 C  
HETATM   18  C   UNL     1     -10.647  13.308  64.270  1.00  0.00    -0.384 C  
HETATM   19  O   UNL     1     -11.786  12.530  64.650  1.00  0.00    -0.343 OA 
HETATM   20  C   UNL     1     -11.864  12.416  66.076  1.00  0.00    -0.395 C  
HETATM   21  C   UNL     1     -11.952  13.796  66.739  1.00  0.00    -0.426 C  
ENDBRANCH  15  16
ENDBRANCH  12  15
ENDBRANCH   2   3
TORSDOF 3
ENDMDL
MODEL       77
REMARK 921   NORMALIZED FREE ENERGY PREDICTED BY IDOCK:   -4.43 KCAL/MOL
REMARK 922        TOTAL FREE ENERGY PREDICTED BY IDOCK:   -5.75 KCAL/MOL
REMARK 923 INTER-LIGAND FREE ENERGY PREDICTED BY IDOCK:   -5.37 KCAL/MOL
REMARK 924 INTRA-LIGAND FREE ENERGY PREDICTED BY IDOCK:   -0.38 KCAL/MOL
REMARK 927      BINDING AFFINITY PREDICTED BY RF-SCORE:    0.00 PKD
ROOT
HETATM    1  C   UNL     1     -12.319  13.073  70.723  1.00  0.00    -0.394 C  
HETATM    2  C   UNL     1     -12.266  13.183  69.208  1.00  0.00    -0.165 C  
ENDROOT
BRANCH   2   3
HETATM    3  C   UNL     1     -10.905  12.881  68.650  1.00  0.00    -0.288 A  
HETATM    4  C   UNL     1     -10.456  11.672  68.133  1.00  0.00    -0.195 A  
HETATM    5  C   UNL     1     -11.153  10.373  67.939  1.00  0.00    -0.363 C  
HETATM    6  N   UNL     1      -9.139  11.824  67.778  1.00  0.00    -0.171 NA 
HETATM    7  C   UNL     1      -8.741  13.113  68.023  1.00  0.00    -0.190 A  
HETATM    8  H   UNL     1      -8.547  11.090  67.391  1.00  0.00     0.000 HD 
HETATM    9  C   UNL     1      -9.811  13.796  68.546  1.00  0.00    -0.204 A  
HETATM   10  C   UNL     1      -9.727  15.194  68.921  1.00  0.00    -0.224 C  
HETATM   11  O   UNL     1     -10.693  15.760  69.434  1.00  0.00    -0.226 OA 
HETATM   12  C   UNL     1      -8.387  15.914  68.711  1.00  0.00    -0.206 C  
HETATM   13  C   UNL     1      -7.174  15.051  68.266  1.00  0.00    -0.113 C  
HETATM   14  C   UNL     1      -7.386  13.624  67.746  1.00  0.00    -0.170 C  
BRANCH  12  15
HETATM   15  C   UNL     1      -8.562  17.155  67.801  1.00  0.00    -0.216 C  
BRANCH  15  16
HETATM   16  N   UNL     1      -8.657  18.429  68.523  1.00  0.00    -0.323 NA 
HETATM   17  C   UNL     1      -7.784  19.511  68.030  1.00  0.00    -0.299 C  
HETATM   18  C   UNL     1      -8.352  20.288  66.831  1.00  0.00    -0.289 C  
HETATM   19  O   UNL     1      -9.680  20.761  67.080  1.00  0.00    -0.462 OA 
HETATM   20  C   UNL     1     -10.542  19.673  67.434  1.00  0.00    -0.460 C  
HETATM   21  C   UNL     1     -10.027  18.938  68.677  1.00  0.00    -0.412 C  
ENDBRANCH  15  16
ENDBRANCH  12  15
ENDBRANCH   2   3
TORSDOF 3
ENDMDL
MODEL       78
REMARK 921   NORMALIZED FREE ENERGY PREDICTED BY IDOCK:   -4.42 KCAL/MOL
REMARK 922        TOTAL FREE ENERGY PREDICTED BY IDOCK:   -5.74 KCAL/MOL
REMARK 923 INTER-LIGAND FREE ENERGY PREDICTED BY IDOCK:   -5.51 KCAL/MOL
REMARK 924 INTRA-LIGAND FREE ENERGY PREDICTED BY IDOCK:   -0.24 KCAL/MOL
REMARK 927      BINDING AFFINITY PREDICTED BY RF-SCORE:    0.00 PKD
ROOT
HETATM    1  C   UNL     1     -10.118   8.648  72.297  1.00  0.00    -0.363 C  
HETATM    2  C   UNL     1     -11.202   8.901  71.262  1.00  0.00    -0.368 C  
ENDROOT
BRANCH   2   3
HETATM    3  C   UNL     1     -10.844   8.371  69.903  1.00  0.00    -0.207 A  
HETATM    4  C   UNL     1     -10.698   7.042  69.529  1.00  0.00    -0.241 A  
HETATM    5  C   UNL     1     -10.877   5.784  70.301  1.00  0.00    -0.373 C  
HETATM    6  N   UNL     1     -10.321   7.010  68.210  1.00  0.00    -0.185 NA 
HETATM    7  C   UNL     1     -10.257   8.288  67.717  1.00  0.00    -0.223 A  
HETATM    8  H   UNL     1     -10.121   6.164  67.676  1.00  0.00     0.000 HD 
HETATM    9  C   UNL     1     -10.589   9.151  68.732  1.00  0.00    -0.208 A  
HETATM   10  C   UNL     1     -10.617  10.589  68.545  1.00  0.00    -0.206 C  
HETATM   11  O   UNL     1     -10.870  11.334  69.491  1.00  0.00    -0.226 OA 
HETATM   12  C   UNL     1     -10.263  11.138  67.155  1.00  0.00    -0.235 C  
HETATM   13  C   UNL     1      -9.744  10.127  66.097  1.00  0.00    -0.275 C  
HETATM   14  C   UNL     1      -9.893   8.618  66.327  1.00  0.00    -0.320 C  
BRANCH  12  15
HETATM   15  C   UNL     1     -11.419  12.003  66.592  1.00  0.00    -0.346 C  
BRANCH  15  16
HETATM   16  N   UNL     1     -11.016  13.344  66.155  1.00  0.00    -0.276 NA 
HETATM   17  C   UNL     1     -11.901  14.448  66.575  1.00  0.00    -0.390 C  
HETATM   18  C   UNL     1     -11.638  14.965  67.998  1.00  0.00    -0.341 C  
HETATM   19  O   UNL     1     -10.261  15.295  68.203  1.00  0.00    -0.226 OA 
HETATM   20  C   UNL     1      -9.426  14.167  67.911  1.00  0.00    -0.211 C  
HETATM   21  C   UNL     1      -9.622  13.690  66.467  1.00  0.00    -0.286 C  
ENDBRANCH  15  16
ENDBRANCH  12  15
ENDBRANCH   2   3
TORSDOF 3
ENDMDL
MODEL       79
REMARK 921   NORMALIZED FREE ENERGY PREDICTED BY IDOCK:   -4.40 KCAL/MOL
REMARK 922        TOTAL FREE ENERGY PREDICTED BY IDOCK:   -5.72 KCAL/MOL
REMARK 923 INTER-LIGAND FREE ENERGY PREDICTED BY IDOCK:   -5.28 KCAL/MOL
REMARK 924 INTRA-LIGAND FREE ENERGY PREDICTED BY IDOCK:   -0.44 KCAL/MOL
REMARK 927      BINDING AFFINITY PREDICTED BY RF-SCORE:    0.00 PKD
ROOT
HETATM    1  C   UNL     1     -12.026  12.070  63.283  1.00  0.00    -0.477 C  
HETATM    2  C   UNL     1     -10.812  12.357  64.153  1.00  0.00    -0.414 C  
ENDROOT
BRANCH   2   3
HETATM    3  C   UNL     1     -11.102  12.219  65.619  1.00  0.00    -0.357 A  
HETATM    4  C   UNL     1     -11.807  13.104  66.426  1.00  0.00    -0.400 A  
HETATM    5  C   UNL     1     -12.497  14.381  66.105  1.00  0.00    -0.276 C  
HETATM    6  N   UNL     1     -11.795  12.613  67.707  1.00  0.00    -0.348 NA 
HETATM    7  C   UNL     1     -11.128  11.415  67.737  1.00  0.00    -0.265 A  
HETATM    8  H   UNL     1     -12.218  13.070  68.515  1.00  0.00     0.000 HD 
HETATM    9  C   UNL     1     -10.702  11.136  66.462  1.00  0.00    -0.314 A  
HETATM   10  C   UNL     1      -9.957   9.933  66.143  1.00  0.00    -0.263 C  
HETATM   11  O   UNL     1      -9.547   9.740  64.999  1.00  0.00    -0.276 OA 
HETATM   12  C   UNL     1      -9.651   8.954  67.287  1.00  0.00    -0.212 C  
HETATM   13  C   UNL     1     -10.020   9.400  68.728  1.00  0.00    -0.191 C  
HETATM   14  C   UNL     1     -10.938  10.608  68.956  1.00  0.00    -0.295 C  
BRANCH  12  15
HETATM   15  C   UNL     1     -10.210   7.544  66.971  1.00  0.00    -0.298 C  
BRANCH  15  16
HETATM   16  N   UNL     1      -9.333   6.439  67.377  1.00  0.00    -0.116 NA 
HETATM   17  C   UNL     1      -9.977   5.116  67.484  1.00  0.00    -0.174 C  
HETATM   18  C   UNL     1     -10.108   4.363  66.150  1.00  0.00    -0.234 C  
HETATM   19  O   UNL     1      -8.858   4.280  65.458  1.00  0.00    -0.118 OA 
HETATM   20  C   UNL     1      -8.310   5.588  65.251  1.00  0.00    -0.144 C  
HETATM   21  C   UNL     1      -8.102   6.320  66.582  1.00  0.00    -0.110 C  
ENDBRANCH  15  16
ENDBRANCH  12  15
ENDBRANCH   2   3
TORSDOF 3
ENDMDL
MODEL       80
REMARK 921   NORMALIZED FREE ENERGY PREDICTED BY IDOCK:   -4.39 KCAL/MOL
REMARK 922        TOTAL FREE ENERGY PREDICTED BY IDOCK:   -5.70 KCAL/MOL
REMARK 923 INTER-LIGAND FREE ENERGY PREDICTED BY IDOCK:   -5.30 KCAL/MOL
REMARK 924 INTRA-LIGAND FREE ENERGY PREDICTED BY IDOCK:   -0.40 KCAL/MOL
REMARK 927      BINDING AFFINITY PREDICTED BY RF-SCORE:    0.00 PKD
ROOT
HETATM    1  C   UNL     1     -10.706  15.492  68.903  1.00  0.00    -0.242 C  
HETATM    2  C   UNL     1      -9.665  15.595  67.799  1.00  0.00    -0.218 C  
ENDROOT
BRANCH   2   3
HETATM    3  C   UNL     1     -10.191  15.164  66.461  1.00  0.00    -0.283 A  
HETATM    4  C   UNL     1     -10.670  15.978  65.442  1.00  0.00    -0.383 A  
HETATM    5  C   UNL     1     -10.772  17.458  65.340  1.00  0.00    -0.040 C  
HETATM    6  N   UNL     1     -11.092  15.171  64.416  1.00  0.00    -0.671 NA 
HETATM    7  C   UNL     1     -10.863  13.858  64.737  1.00  0.00    -0.419 A  
HETATM    8  H   UNL     1     -11.512  15.498  63.546  1.00  0.00     0.000 HD 
HETATM    9  C   UNL     1     -10.293  13.820  65.985  1.00  0.00    -0.311 A  
HETATM   10  C   UNL     1      -9.924  12.573  66.629  1.00  0.00    -0.236 C  
HETATM   11  O   UNL     1      -9.463  12.575  67.770  1.00  0.00    -0.184 OA 
HETATM   12  C   UNL     1     -10.187  11.267  65.865  1.00  0.00    -0.298 C  
HETATM   13  C   UNL     1     -10.975  11.364  64.530  1.00  0.00    -0.346 C  
HETATM   14  C   UNL     1     -11.188  12.724  63.852  1.00  0.00    -0.491 C  
BRANCH  12  15
HETATM   15  C   UNL     1      -8.877  10.457  65.690  1.00  0.00    -0.173 C  
BRANCH  15  16
HETATM   16  N   UNL     1      -8.549   9.583  66.822  1.00  0.00    -0.127 NA 
HETATM   17  C   UNL     1      -9.700   9.038  67.566  1.00  0.00    -0.161 C  
HETATM   18  C   UNL     1     -10.326   7.783  66.936  1.00  0.00    -0.326 C  
HETATM   19  O   UNL     1      -9.348   6.771  66.674  1.00  0.00    -0.156 OA 
HETATM   20  C   UNL     1      -8.302   7.288  65.843  1.00  0.00    -0.144 C  
HETATM   21  C   UNL     1      -7.617   8.494  66.497  1.00  0.00    -0.088 C  
ENDBRANCH  15  16
ENDBRANCH  12  15
ENDBRANCH   2   3
TORSDOF 3
ENDMDL
MODEL       81
REMARK 921   NORMALIZED FREE ENERGY PREDICTED BY IDOCK:   -4.34 KCAL/MOL
REMARK 922        TOTAL FREE ENERGY PREDICTED BY IDOCK:   -5.64 KCAL/MOL
REMARK 923 INTER-LIGAND FREE ENERGY PREDICTED BY IDOCK:   -5.20 KCAL/MOL
REMARK 924 INTRA-LIGAND FREE ENERGY PREDICTED BY IDOCK:   -0.44 KCAL/MOL
REMARK 927      BINDING AFFINITY PREDICTED BY RF-SCORE:    0.00 PKD
ROOT
HETATM    1  C   UNL     1     -11.082  12.063  67.795  1.00  0.00    -0.303 C  
HETATM    2  C   UNL     1      -9.803  11.245  67.869  1.00  0.00    -0.187 C  
ENDROOT
BRANCH   2   3
HETATM    3  C   UNL     1     -10.012   9.804  67.505  1.00  0.00    -0.230 A  
HETATM    4  C   UNL     1      -9.864   9.221  66.253  1.00  0.00    -0.291 A  
HETATM    5  C   UNL     1      -9.435   9.797  64.951  1.00  0.00    -0.331 C  
HETATM    6  N   UNL     1     -10.198   7.894  66.359  1.00  0.00    -0.485 NA 
HETATM    7  C   UNL     1     -10.524   7.602  67.658  1.00  0.00    -0.244 A  
HETATM    8  H   UNL     1     -10.202   7.226  65.588  1.00  0.00     0.000 HD 
HETATM    9  C   UNL     1     -10.404   8.755  68.394  1.00  0.00    -0.242 A  
HETATM   10  C   UNL     1     -10.680   8.794  69.818  1.00  0.00    -0.218 C  
HETATM   11  O   UNL     1     -10.612   9.857  70.435  1.00  0.00    -0.274 OA 
HETATM   12  C   UNL     1     -11.115   7.489  70.500  1.00  0.00    -0.275 C  
HETATM   13  C   UNL     1     -11.385   6.260  69.590  1.00  0.00    -0.492 C  
HETATM   14  C   UNL     1     -10.921   6.262  68.127  1.00  0.00    -0.412 C  
BRANCH  12  15
HETATM   15  C   UNL     1     -10.159   7.130  71.666  1.00  0.00    -0.185 C  
BRANCH  15  16
HETATM   16  N   UNL     1     -10.024   5.691  71.918  1.00  0.00    -0.176 NA 
HETATM   17  C   UNL     1      -8.644   5.170  71.935  1.00  0.00    -0.130 C  
HETATM   18  C   UNL     1      -7.913   5.350  73.275  1.00  0.00    -0.111 C  
HETATM   19  O   UNL     1      -8.676   4.840  74.373  1.00  0.00    -0.112 OA 
HETATM   20  C   UNL     1      -9.970   5.454  74.414  1.00  0.00    -0.235 C  
HETATM   21  C   UNL     1     -10.740   5.214  73.110  1.00  0.00    -0.265 C  
ENDBRANCH  15  16
ENDBRANCH  12  15
ENDBRANCH   2   3
TORSDOF 3
ENDMDL
MODEL       82
REMARK 921   NORMALIZED FREE ENERGY PREDICTED BY IDOCK:   -4.34 KCAL/MOL
REMARK 922        TOTAL FREE ENERGY PREDICTED BY IDOCK:   -5.64 KCAL/MOL
REMARK 923 INTER-LIGAND FREE ENERGY PREDICTED BY IDOCK:   -5.27 KCAL/MOL
REMARK 924 INTRA-LIGAND FREE ENERGY PREDICTED BY IDOCK:   -0.37 KCAL/MOL
REMARK 927      BINDING AFFINITY PREDICTED BY RF-SCORE:    0.00 PKD
ROOT
HETATM    1  C   UNL     1      -5.230  18.068  66.213  1.00  0.00    -0.204 C  
HETATM    2  C   UNL     1      -5.541  17.997  67.700  1.00  0.00    -0.148 C  
ENDROOT
BRANCH   2   3
HETATM    3  C   UNL     1      -6.959  18.377  68.016  1.00  0.00    -0.231 A  
HETATM    4  C   UNL     1      -7.437  19.635  68.361  1.00  0.00    -0.324 A  
HETATM    5  C   UNL     1      -6.744  20.945  68.482  1.00  0.00     0.017 C  
HETATM    6  N   UNL     1      -8.782  19.525  68.609  1.00  0.00    -0.360 NA 
HETATM    7  C   UNL     1      -9.187  18.232  68.398  1.00  0.00    -0.317 A  
HETATM    8  H   UNL     1      -9.389  20.290  68.906  1.00  0.00     0.000 HD 
HETATM    9  C   UNL     1      -8.089  17.502  68.015  1.00  0.00    -0.237 A  
HETATM   10  C   UNL     1      -8.171  16.085  67.713  1.00  0.00    -0.149 C  
HETATM   11  O   UNL     1      -7.157  15.452  67.423  1.00  0.00    -0.178 OA 
HETATM   12  C   UNL     1      -9.543  15.406  67.830  1.00  0.00    -0.210 C  
HETATM   13  C   UNL     1     -10.710  16.245  68.418  1.00  0.00    -0.311 C  
HETATM   14  C   UNL     1     -10.576  17.766  68.563  1.00  0.00    -0.260 C  
BRANCH  12  15
HETATM   15  C   UNL     1      -9.945  14.739  66.490  1.00  0.00    -0.271 C  
BRANCH  15  16
HETATM   16  N   UNL     1     -10.602  13.435  66.634  1.00  0.00    -0.280 NA 
HETATM   17  C   UNL     1     -12.074  13.445  66.541  1.00  0.00    -0.388 C  
HETATM   18  C   UNL     1     -12.620  13.425  65.104  1.00  0.00    -0.440 C  
HETATM   19  O   UNL     1     -12.056  12.360  64.332  1.00  0.00    -0.391 OA 
HETATM   20  C   UNL     1     -10.625  12.443  64.331  1.00  0.00    -0.337 C  
HETATM   21  C   UNL     1     -10.064  12.386  65.757  1.00  0.00    -0.253 C  
ENDBRANCH  15  16
ENDBRANCH  12  15
ENDBRANCH   2   3
TORSDOF 3
ENDMDL
MODEL       83
REMARK 921   NORMALIZED FREE ENERGY PREDICTED BY IDOCK:   -4.30 KCAL/MOL
REMARK 922        TOTAL FREE ENERGY PREDICTED BY IDOCK:   -5.60 KCAL/MOL
REMARK 923 INTER-LIGAND FREE ENERGY PREDICTED BY IDOCK:   -5.12 KCAL/MOL
REMARK 924 INTRA-LIGAND FREE ENERGY PREDICTED BY IDOCK:   -0.48 KCAL/MOL
REMARK 927      BINDING AFFINITY PREDICTED BY RF-SCORE:    0.00 PKD
ROOT
HETATM    1  C   UNL     1      -6.243  20.558  65.878  1.00  0.00    -0.261 C  
HETATM    2  C   UNL     1      -7.382  20.022  66.731  1.00  0.00    -0.278 C  
ENDROOT
BRANCH   2   3
HETATM    3  C   UNL     1      -6.912  19.091  67.811  1.00  0.00    -0.235 A  
HETATM    4  C   UNL     1      -6.228  19.425  68.973  1.00  0.00    -0.266 A  
HETATM    5  C   UNL     1      -5.800  20.743  69.510  1.00  0.00    -0.322 C  
HETATM    6  N   UNL     1      -5.955  18.266  69.654  1.00  0.00    -0.245 NA 
HETATM    7  C   UNL     1      -6.479  17.196  68.974  1.00  0.00    -0.208 A  
HETATM    8  H   UNL     1      -5.440  18.208  70.533  1.00  0.00     0.000 HD 
HETATM    9  C   UNL     1      -7.090  17.672  67.841  1.00  0.00    -0.190 A  
HETATM   10  C   UNL     1      -7.748  16.795  66.891  1.00  0.00    -0.219 C  
HETATM   11  O   UNL     1      -8.241  17.252  65.860  1.00  0.00    -0.534 OA 
HETATM   12  C   UNL     1      -7.750  15.289  67.189  1.00  0.00    -0.238 C  
HETATM   13  C   UNL     1      -6.909  14.797  68.399  1.00  0.00    -0.104 C  
HETATM   14  C   UNL     1      -6.377  15.798  69.433  1.00  0.00    -0.154 C  
BRANCH  12  15
HETATM   15  C   UNL     1      -9.197  14.739  67.246  1.00  0.00    -0.203 C  
BRANCH  15  16
HETATM   16  N   UNL     1      -9.625  14.292  68.577  1.00  0.00    -0.220 NA 
HETATM   17  C   UNL     1     -10.138  15.345  69.472  1.00  0.00    -0.276 C  
HETATM   18  C   UNL     1     -11.617  15.702  69.251  1.00  0.00    -0.366 C  
HETATM   19  O   UNL     1     -12.456  14.543  69.274  1.00  0.00    -0.201 OA 
HETATM   20  C   UNL     1     -12.015  13.584  68.306  1.00  0.00    -0.342 C  
HETATM   21  C   UNL     1     -10.564  13.161  68.564  1.00  0.00    -0.259 C  
ENDBRANCH  15  16
ENDBRANCH  12  15
ENDBRANCH   2   3
TORSDOF 3
ENDMDL
MODEL       84
REMARK 921   NORMALIZED FREE ENERGY PREDICTED BY IDOCK:   -4.28 KCAL/MOL
REMARK 922        TOTAL FREE ENERGY PREDICTED BY IDOCK:   -5.58 KCAL/MOL
REMARK 923 INTER-LIGAND FREE ENERGY PREDICTED BY IDOCK:   -5.15 KCAL/MOL
REMARK 924 INTRA-LIGAND FREE ENERGY PREDICTED BY IDOCK:   -0.42 KCAL/MOL
REMARK 927      BINDING AFFINITY PREDICTED BY RF-SCORE:    0.00 PKD
ROOT
HETATM    1  C   UNL     1     -12.477  12.779  65.015  1.00  0.00    -0.572 C  
HETATM    2  C   UNL     1     -11.077  12.575  65.572  1.00  0.00    -0.336 C  
ENDROOT
BRANCH   2   3
HETATM    3  C   UNL     1     -11.080  12.150  67.012  1.00  0.00    -0.347 A  
HETATM    4  C   UNL     1     -11.448  12.910  68.115  1.00  0.00    -0.315 A  
HETATM    5  C   UNL     1     -11.966  14.300  68.214  1.00  0.00    -0.346 C  
HETATM    6  N   UNL     1     -11.257  12.149  69.240  1.00  0.00    -0.365 NA 
HETATM    7  C   UNL     1     -10.808  10.903  68.883  1.00  0.00    -0.219 A  
HETATM    8  H   UNL     1     -11.424  12.461  70.196  1.00  0.00     0.000 HD 
HETATM    9  C   UNL     1     -10.704  10.866  67.515  1.00  0.00    -0.299 A  
HETATM   10  C   UNL     1     -10.251   9.683  66.807  1.00  0.00    -0.239 C  
HETATM   11  O   UNL     1     -10.121   9.703  65.583  1.00  0.00    -0.296 OA 
HETATM   12  C   UNL     1      -9.886   8.445  67.638  1.00  0.00    -0.222 C  
HETATM   13  C   UNL     1      -9.873   8.599  69.184  1.00  0.00    -0.185 C  
HETATM   14  C   UNL     1     -10.511   9.827  69.847  1.00  0.00    -0.298 C  
BRANCH  12  15
HETATM   15  C   UNL     1     -10.725   7.218  67.200  1.00  0.00    -0.343 C  
BRANCH  15  16
HETATM   16  N   UNL     1     -10.044   6.323  66.258  1.00  0.00    -0.019 NA 
HETATM   17  C   UNL     1      -8.570   6.391  66.261  1.00  0.00    -0.140 C  
HETATM   18  C   UNL     1      -7.897   5.550  67.357  1.00  0.00    -0.101 C  
HETATM   19  O   UNL     1      -8.357   4.195  67.350  1.00  0.00    -0.098 OA 
HETATM   20  C   UNL     1      -9.783   4.147  67.478  1.00  0.00    -0.134 C  
HETATM   21  C   UNL     1     -10.468   4.918  66.343  1.00  0.00    -0.280 C  
ENDBRANCH  15  16
ENDBRANCH  12  15
ENDBRANCH   2   3
TORSDOF 3
ENDMDL
MODEL       85
REMARK 921   NORMALIZED FREE ENERGY PREDICTED BY IDOCK:   -4.25 KCAL/MOL
REMARK 922        TOTAL FREE ENERGY PREDICTED BY IDOCK:   -5.54 KCAL/MOL
REMARK 923 INTER-LIGAND FREE ENERGY PREDICTED BY IDOCK:   -5.12 KCAL/MOL
REMARK 924 INTRA-LIGAND FREE ENERGY PREDICTED BY IDOCK:   -0.42 KCAL/MOL
REMARK 927      BINDING AFFINITY PREDICTED BY RF-SCORE:    0.00 PKD
ROOT
HETATM    1  C   UNL     1     -11.470  11.744  63.943  1.00  0.00    -0.481 C  
HETATM    2  C   UNL     1     -10.444  11.624  65.058  1.00  0.00    -0.336 C  
ENDROOT
BRANCH   2   3
HETATM    3  C   UNL     1      -9.785  10.276  65.101  1.00  0.00    -0.364 A  
HETATM    4  C   UNL     1      -8.871   9.756  64.194  1.00  0.00    -0.231 A  
HETATM    5  C   UNL     1      -8.255  10.350  62.978  1.00  0.00    -0.160 C  
HETATM    6  N   UNL     1      -8.561   8.479  64.587  1.00  0.00    -0.365 NA 
HETATM    7  C   UNL     1      -9.228   8.178  65.746  1.00  0.00    -0.034 A  
HETATM    8  H   UNL     1      -7.929   7.849  64.092  1.00  0.00     0.000 HD 
HETATM    9  C   UNL     1      -9.979   9.271  66.099  1.00  0.00    -0.348 A  
HETATM   10  C   UNL     1     -10.813   9.285  67.286  1.00  0.00    -0.069 C  
HETATM   11  O   UNL     1     -11.513  10.265  67.543  1.00  0.00    -0.323 OA 
HETATM   12  C   UNL     1     -10.835   8.024  68.161  1.00  0.00     0.013 C  
HETATM   13  C   UNL     1     -10.092   6.769  67.628  1.00  0.00    -0.201 C  
HETATM   14  C   UNL     1      -9.114   6.888  66.452  1.00  0.00    -0.185 C  
BRANCH  12  15
HETATM   15  C   UNL     1     -10.416   8.353  69.616  1.00  0.00    -0.221 C  
BRANCH  15  16
HETATM   16  N   UNL     1     -11.514   8.311  70.589  1.00  0.00    -0.259 NA 
HETATM   17  C   UNL     1     -12.154   6.995  70.775  1.00  0.00    -0.327 C  
HETATM   18  C   UNL     1     -11.417   6.062  71.749  1.00  0.00    -0.253 C  
HETATM   19  O   UNL     1     -11.156   6.697  73.004  1.00  0.00    -0.255 OA 
HETATM   20  C   UNL     1     -10.420   7.911  72.810  1.00  0.00    -0.346 C  
HETATM   21  C   UNL     1     -11.183   8.883  71.902  1.00  0.00    -0.377 C  
ENDBRANCH  15  16
ENDBRANCH  12  15
ENDBRANCH   2   3
TORSDOF 3
ENDMDL
MODEL       86
REMARK 921   NORMALIZED FREE ENERGY PREDICTED BY IDOCK:   -4.23 KCAL/MOL
REMARK 922        TOTAL FREE ENERGY PREDICTED BY IDOCK:   -5.51 KCAL/MOL
REMARK 923 INTER-LIGAND FREE ENERGY PREDICTED BY IDOCK:   -5.01 KCAL/MOL
REMARK 924 INTRA-LIGAND FREE ENERGY PREDICTED BY IDOCK:   -0.50 KCAL/MOL
REMARK 927      BINDING AFFINITY PREDICTED BY RF-SCORE:    0.00 PKD
ROOT
HETATM    1  C   UNL     1      -6.490  17.962  66.966  1.00  0.00    -0.194 C  
HETATM    2  C   UNL     1      -7.577  17.270  66.160  1.00  0.00    -0.318 C  
ENDROOT
BRANCH   2   3
HETATM    3  C   UNL     1      -8.917  17.309  66.836  1.00  0.00    -0.256 A  
HETATM    4  C   UNL     1      -9.807  18.374  66.882  1.00  0.00    -0.338 A  
HETATM    5  C   UNL     1      -9.741  19.729  66.275  1.00  0.00    -0.532 C  
HETATM    6  N   UNL     1     -10.885  17.995  67.642  1.00  0.00    -0.333 NA 
HETATM    7  C   UNL     1     -10.725  16.698  68.056  1.00  0.00    -0.350 A  
HETATM    8  H   UNL     1     -11.685  18.588  67.863  1.00  0.00     0.000 HD 
HETATM    9  C   UNL     1      -9.528  16.240  67.564  1.00  0.00    -0.227 A  
HETATM   10  C   UNL     1      -9.050  14.895  67.821  1.00  0.00    -0.185 C  
HETATM   11  O   UNL     1      -7.949  14.536  67.406  1.00  0.00    -0.177 OA 
HETATM   12  C   UNL     1      -9.933  13.972  68.674  1.00  0.00    -0.203 C  
HETATM   13  C   UNL     1     -11.195  14.595  69.332  1.00  0.00    -0.307 C  
HETATM   14  C   UNL     1     -11.705  15.970  68.883  1.00  0.00    -0.322 C  
BRANCH  12  15
HETATM   15  C   UNL     1     -10.281  12.674  67.903  1.00  0.00    -0.220 C  
BRANCH  15  16
HETATM   16  N   UNL     1      -9.879  11.438  68.583  1.00  0.00    -0.204 NA 
HETATM   17  C   UNL     1     -10.621  10.222  68.196  1.00  0.00    -0.221 C  
HETATM   18  C   UNL     1     -10.104   9.543  66.917  1.00  0.00    -0.230 C  
HETATM   19  O   UNL     1      -8.696   9.298  66.974  1.00  0.00    -0.123 OA 
HETATM   20  C   UNL     1      -7.983  10.516  67.225  1.00  0.00    -0.114 C  
HETATM   21  C   UNL     1      -8.436  11.163  68.539  1.00  0.00    -0.156 C  
ENDBRANCH  15  16
ENDBRANCH  12  15
ENDBRANCH   2   3
TORSDOF 3
ENDMDL
MODEL       87
REMARK 921   NORMALIZED FREE ENERGY PREDICTED BY IDOCK:   -4.18 KCAL/MOL
REMARK 922        TOTAL FREE ENERGY PREDICTED BY IDOCK:   -5.46 KCAL/MOL
REMARK 923 INTER-LIGAND FREE ENERGY PREDICTED BY IDOCK:   -5.30 KCAL/MOL
REMARK 924 INTRA-LIGAND FREE ENERGY PREDICTED BY IDOCK:   -0.16 KCAL/MOL
REMARK 927      BINDING AFFINITY PREDICTED BY RF-SCORE:    0.00 PKD
ROOT
HETATM    1  C   UNL     1     -12.569  14.306  64.918  1.00  0.00    -0.339 C  
HETATM    2  C   UNL     1     -12.181  14.250  66.387  1.00  0.00    -0.426 C  
ENDROOT
BRANCH   2   3
HETATM    3  C   UNL     1     -10.706  14.063  66.593  1.00  0.00    -0.281 A  
HETATM    4  C   UNL     1      -9.706  15.015  66.440  1.00  0.00    -0.283 A  
HETATM    5  C   UNL     1      -9.776  16.457  66.082  1.00  0.00    -0.355 C  
HETATM    6  N   UNL     1      -8.500  14.409  66.683  1.00  0.00    -0.421 NA 
HETATM    7  C   UNL     1      -8.703  13.096  67.023  1.00  0.00    -0.189 A  
HETATM    8  H   UNL     1      -7.590  14.865  66.620  1.00  0.00     0.000 HD 
HETATM    9  C   UNL     1     -10.054  12.855  66.993  1.00  0.00    -0.245 A  
HETATM   10  C   UNL     1     -10.614  11.553  67.303  1.00  0.00    -0.228 C  
HETATM   11  O   UNL     1     -11.826  11.360  67.216  1.00  0.00    -0.594 OA 
HETATM   12  C   UNL     1      -9.641  10.426  67.679  1.00  0.00    -0.168 C  
HETATM   13  C   UNL     1      -8.121  10.716  67.542  1.00  0.00    -0.111 C  
HETATM   14  C   UNL     1      -7.619  12.155  67.360  1.00  0.00    -0.155 C  
BRANCH  12  15
HETATM   15  C   UNL     1      -9.981   9.844  69.074  1.00  0.00    -0.187 C  
BRANCH  15  16
HETATM   16  N   UNL     1      -9.381   8.533  69.348  1.00  0.00    -0.153 NA 
HETATM   17  C   UNL     1     -10.011   7.753  70.430  1.00  0.00    -0.188 C  
HETATM   18  C   UNL     1     -11.255   6.959  69.999  1.00  0.00    -0.299 C  
HETATM   19  O   UNL     1     -10.998   6.144  68.851  1.00  0.00    -0.310 OA 
HETATM   20  C   UNL     1     -10.507   6.943  67.768  1.00  0.00    -0.223 C  
HETATM   21  C   UNL     1      -9.221   7.680  68.161  1.00  0.00    -0.138 C  
ENDBRANCH  15  16
ENDBRANCH  12  15
ENDBRANCH   2   3
TORSDOF 3
ENDMDL
MODEL       88
REMARK 921   NORMALIZED FREE ENERGY PREDICTED BY IDOCK:   -4.15 KCAL/MOL
REMARK 922        TOTAL FREE ENERGY PREDICTED BY IDOCK:   -5.42 KCAL/MOL
REMARK 923 INTER-LIGAND FREE ENERGY PREDICTED BY IDOCK:   -4.96 KCAL/MOL
REMARK 924 INTRA-LIGAND FREE ENERGY PREDICTED BY IDOCK:   -0.46 KCAL/MOL
REMARK 927      BINDING AFFINITY PREDICTED BY RF-SCORE:    0.00 PKD
ROOT
HETATM    1  C   UNL     1      -8.481   5.226  70.519  1.00  0.00    -0.120 C  
HETATM    2  C   UNL     1      -9.841   5.594  69.945  1.00  0.00    -0.250 C  
ENDROOT
BRANCH   2   3
HETATM    3  C   UNL     1     -10.553   6.635  70.760  1.00  0.00    -0.265 A  
HETATM    4  C   UNL     1     -11.059   6.498  72.046  1.00  0.00    -0.258 A  
HETATM    5  C   UNL     1     -11.023   5.352  72.993  1.00  0.00    -0.348 C  
HETATM    6  N   UNL     1     -11.671   7.676  72.391  1.00  0.00    -0.393 NA 
HETATM    7  C   UNL     1     -11.539   8.581  71.368  1.00  0.00    -0.289 A  
HETATM    8  H   UNL     1     -12.150   7.853  73.274  1.00  0.00     0.000 HD 
HETATM    9  C   UNL     1     -10.841   7.975  70.354  1.00  0.00    -0.247 A  
HETATM   10  C   UNL     1     -10.528   8.661  69.114  1.00  0.00    -0.211 C  
HETATM   11  O   UNL     1      -9.945   8.070  68.206  1.00  0.00    -0.173 OA 
HETATM   12  C   UNL     1     -11.003  10.113  68.959  1.00  0.00    -0.265 C  
HETATM   13  C   UNL     1     -11.921  10.689  70.072  1.00  0.00    -0.408 C  
HETATM   14  C   UNL     1     -12.072   9.955  71.411  1.00  0.00    -0.501 C  
BRANCH  12  15
HETATM   15  C   UNL     1      -9.808  11.057  68.668  1.00  0.00    -0.193 C  
BRANCH  15  16
HETATM   16  N   UNL     1      -9.963  11.877  67.461  1.00  0.00    -0.186 NA 
HETATM   17  C   UNL     1      -8.716  12.418  66.890  1.00  0.00    -0.191 C  
HETATM   18  C   UNL     1      -7.956  11.440  65.981  1.00  0.00     0.095 C  
HETATM   19  O   UNL     1      -8.799  10.890  64.963  1.00  0.00    -0.194 OA 
HETATM   20  C   UNL     1      -9.943  10.255  65.548  1.00  0.00    -0.296 C  
HETATM   21  C   UNL     1     -10.753  11.244  66.396  1.00  0.00    -0.267 C  
ENDBRANCH  15  16
ENDBRANCH  12  15
ENDBRANCH   2   3
TORSDOF 3
ENDMDL
MODEL       89
REMARK 921   NORMALIZED FREE ENERGY PREDICTED BY IDOCK:   -4.14 KCAL/MOL
REMARK 922        TOTAL FREE ENERGY PREDICTED BY IDOCK:   -5.41 KCAL/MOL
REMARK 923 INTER-LIGAND FREE ENERGY PREDICTED BY IDOCK:   -4.99 KCAL/MOL
REMARK 924 INTRA-LIGAND FREE ENERGY PREDICTED BY IDOCK:   -0.42 KCAL/MOL
REMARK 927      BINDING AFFINITY PREDICTED BY RF-SCORE:    0.00 PKD
ROOT
HETATM    1  C   UNL     1     -12.006  13.408  63.101  1.00  0.00    -0.089 C  
HETATM    2  C   UNL     1     -12.011  11.964  63.574  1.00  0.00    -0.567 C  
ENDROOT
BRANCH   2   3
HETATM    3  C   UNL     1     -10.779  11.603  64.352  1.00  0.00    -0.387 A  
HETATM    4  C   UNL     1      -9.606  11.043  63.861  1.00  0.00    -0.272 A  
HETATM    5  C   UNL     1      -9.202  10.679  62.477  1.00  0.00    -0.323 C  
HETATM    6  N   UNL     1      -8.758  10.835  64.919  1.00  0.00    -0.285 NA 
HETATM    7  C   UNL     1      -9.345  11.281  66.076  1.00  0.00    -0.214 A  
HETATM    8  H   UNL     1      -7.831  10.414  64.856  1.00  0.00     0.000 HD 
HETATM    9  C   UNL     1     -10.585  11.775  65.758  1.00  0.00    -0.312 A  
HETATM   10  C   UNL     1     -11.476  12.328  66.761  1.00  0.00    -0.361 C  
HETATM   11  O   UNL     1     -12.602  12.715  66.447  1.00  0.00    -0.307 OA 
HETATM   12  C   UNL     1     -10.990  12.353  68.217  1.00  0.00    -0.269 C  
HETATM   13  C   UNL     1      -9.648  11.638  68.536  1.00  0.00    -0.181 C  
HETATM   14  C   UNL     1      -8.703  11.220  67.402  1.00  0.00    -0.139 C  
BRANCH  12  15
HETATM   15  C   UNL     1     -11.009  13.796  68.781  1.00  0.00    -0.264 C  
BRANCH  15  16
HETATM   16  N   UNL     1     -11.017  13.874  70.246  1.00  0.00     0.307 NA 
HETATM   17  C   UNL     1     -10.450  15.107  70.825  1.00  0.00     0.158 C  
HETATM   18  C   UNL     1     -11.427  16.292  70.878  1.00  0.00    -0.301 C  
HETATM   19  O   UNL     1     -12.662  15.940  71.509  1.00  0.00    -0.460 OA 
HETATM   20  C   UNL     1     -13.261  14.818  70.850  1.00  0.00    -0.356 C  
HETATM   21  C   UNL     1     -12.325  13.603  70.861  1.00  0.00    -0.371 C  
ENDBRANCH  15  16
ENDBRANCH  12  15
ENDBRANCH   2   3
TORSDOF 3
ENDMDL
MODEL       90
REMARK 921   NORMALIZED FREE ENERGY PREDICTED BY IDOCK:   -4.14 KCAL/MOL
REMARK 922        TOTAL FREE ENERGY PREDICTED BY IDOCK:   -5.40 KCAL/MOL
REMARK 923 INTER-LIGAND FREE ENERGY PREDICTED BY IDOCK:   -5.29 KCAL/MOL
REMARK 924 INTRA-LIGAND FREE ENERGY PREDICTED BY IDOCK:   -0.12 KCAL/MOL
REMARK 927      BINDING AFFINITY PREDICTED BY RF-SCORE:    0.00 PKD
ROOT
HETATM    1  C   UNL     1     -11.469  11.777  67.481  1.00  0.00    -0.373 C  
HETATM    2  C   UNL     1     -10.109  11.828  66.805  1.00  0.00    -0.235 C  
ENDROOT
BRANCH   2   3
HETATM    3  C   UNL     1      -9.040  12.401  67.690  1.00  0.00    -0.186 A  
HETATM    4  C   UNL     1      -8.196  11.708  68.549  1.00  0.00    -0.144 A  
HETATM    5  C   UNL     1      -8.061  10.253  68.822  1.00  0.00    -0.120 C  
HETATM    6  N   UNL     1      -7.406  12.622  69.199  1.00  0.00    -0.317 NA 
HETATM    7  C   UNL     1      -7.698  13.885  68.752  1.00  0.00    -0.096 A  
HETATM    8  H   UNL     1      -6.708  12.396  69.907  1.00  0.00     0.000 HD 
HETATM    9  C   UNL     1      -8.691  13.782  67.809  1.00  0.00    -0.182 A  
HETATM   10  C   UNL     1      -9.237  14.943  67.133  1.00  0.00    -0.220 C  
HETATM   11  O   UNL     1     -10.162  14.818  66.330  1.00  0.00    -0.274 OA 
HETATM   12  C   UNL     1      -8.666  16.321  67.499  1.00  0.00    -0.192 C  
HETATM   13  C   UNL     1      -7.661  16.388  68.682  1.00  0.00    -0.197 C  
HETATM   14  C   UNL     1      -7.025  15.106  69.233  1.00  0.00    -0.161 C  
BRANCH  12  15
HETATM   15  C   UNL     1      -8.111  17.041  66.244  1.00  0.00    -0.297 C  
BRANCH  15  16
HETATM   16  N   UNL     1      -8.813  18.280  65.895  1.00  0.00    -0.467 NA 
HETATM   17  C   UNL     1     -10.231  18.349  66.300  1.00  0.00    -0.406 C  
HETATM   18  C   UNL     1     -10.454  18.776  67.759  1.00  0.00    -0.420 C  
HETATM   19  O   UNL     1      -9.763  19.989  68.074  1.00  0.00    -0.366 OA 
HETATM   20  C   UNL     1      -8.364  19.858  67.793  1.00  0.00    -0.303 C  
HETATM   21  C   UNL     1      -8.125  19.508  66.319  1.00  0.00    -0.334 C  
ENDBRANCH  15  16
ENDBRANCH  12  15
ENDBRANCH   2   3
TORSDOF 3
ENDMDL
MODEL       91
REMARK 921   NORMALIZED FREE ENERGY PREDICTED BY IDOCK:   -4.13 KCAL/MOL
REMARK 922        TOTAL FREE ENERGY PREDICTED BY IDOCK:   -5.39 KCAL/MOL
REMARK 923 INTER-LIGAND FREE ENERGY PREDICTED BY IDOCK:   -4.93 KCAL/MOL
REMARK 924 INTRA-LIGAND FREE ENERGY PREDICTED BY IDOCK:   -0.46 KCAL/MOL
REMARK 927      BINDING AFFINITY PREDICTED BY RF-SCORE:    0.00 PKD
ROOT
HETATM    1  C   UNL     1      -7.425  10.198  65.613  1.00  0.00    -0.144 C  
HETATM    2  C   UNL     1      -8.829  10.494  66.114  1.00  0.00    -0.172 C  
ENDROOT
BRANCH   2   3
HETATM    3  C   UNL     1      -9.416  11.734  65.504  1.00  0.00    -0.185 A  
HETATM    4  C   UNL     1     -10.052  11.848  64.274  1.00  0.00    -0.295 A  
HETATM    5  C   UNL     1     -10.375  10.827  63.243  1.00  0.00    -0.137 C  
HETATM    6  N   UNL     1     -10.391  13.164  64.091  1.00  0.00    -0.592 NA 
HETATM    7  C   UNL     1     -10.019  13.894  65.190  1.00  0.00    -0.218 A  
HETATM    8  H   UNL     1     -10.851  13.543  63.263  1.00  0.00     0.000 HD 
HETATM    9  C   UNL     1      -9.429  13.039  66.087  1.00  0.00    -0.159 A  
HETATM   10  C   UNL     1      -8.915  13.494  67.366  1.00  0.00    -0.219 C  
HETATM   11  O   UNL     1      -8.346  12.707  68.123  1.00  0.00    -0.162 OA 
HETATM   12  C   UNL     1      -9.053  14.985  67.704  1.00  0.00    -0.182 C  
HETATM   13  C   UNL     1      -9.584  15.927  66.588  1.00  0.00    -0.265 C  
HETATM   14  C   UNL     1     -10.244  15.345  65.331  1.00  0.00    -0.408 C  
BRANCH  12  15
HETATM   15  C   UNL     1      -9.834  15.182  69.028  1.00  0.00    -0.238 C  
BRANCH  15  16
HETATM   16  N   UNL     1     -11.269  14.891  68.935  1.00  0.00    -0.254 NA 
HETATM   17  C   UNL     1     -11.657  13.492  69.197  1.00  0.00    -0.310 C  
HETATM   18  C   UNL     1     -11.807  13.143  70.687  1.00  0.00    -0.012 C  
HETATM   19  O   UNL     1     -12.669  14.060  71.367  1.00  0.00    -0.329 OA 
HETATM   20  C   UNL     1     -12.201  15.405  71.206  1.00  0.00    -0.371 C  
HETATM   21  C   UNL     1     -12.122  15.791  69.724  1.00  0.00    -0.281 C  
ENDBRANCH  15  16
ENDBRANCH  12  15
ENDBRANCH   2   3
TORSDOF 3
ENDMDL
MODEL       92
REMARK 921   NORMALIZED FREE ENERGY PREDICTED BY IDOCK:   -4.11 KCAL/MOL
REMARK 922        TOTAL FREE ENERGY PREDICTED BY IDOCK:   -5.37 KCAL/MOL
REMARK 923 INTER-LIGAND FREE ENERGY PREDICTED BY IDOCK:   -4.78 KCAL/MOL
REMARK 924 INTRA-LIGAND FREE ENERGY PREDICTED BY IDOCK:   -0.59 KCAL/MOL
REMARK 927      BINDING AFFINITY PREDICTED BY RF-SCORE:    0.00 PKD
ROOT
HETATM    1  C   UNL     1     -10.147  10.469  63.894  1.00  0.00    -0.288 C  
HETATM    2  C   UNL     1      -9.761   9.936  65.265  1.00  0.00    -0.383 C  
ENDROOT
BRANCH   2   3
HETATM    3  C   UNL     1      -8.580  10.650  65.856  1.00  0.00    -0.177 A  
HETATM    4  C   UNL     1      -7.236  10.377  65.640  1.00  0.00    -0.146 A  
HETATM    5  C   UNL     1      -6.570   9.370  64.772  1.00  0.00    -0.079 C  
HETATM    6  N   UNL     1      -6.497  11.239  66.411  1.00  0.00    -0.285 NA 
HETATM    7  C   UNL     1      -7.336  12.085  67.090  1.00  0.00    -0.134 A  
HETATM    8  H   UNL     1      -5.479  11.250  66.468  1.00  0.00     0.000 HD 
HETATM    9  C   UNL     1      -8.627  11.759  66.758  1.00  0.00    -0.185 A  
HETATM   10  C   UNL     1      -9.769  12.465  67.308  1.00  0.00    -0.201 C  
HETATM   11  O   UNL     1     -10.914  12.111  67.027  1.00  0.00    -0.246 OA 
HETATM   12  C   UNL     1      -9.496  13.614  68.289  1.00  0.00    -0.213 C  
HETATM   13  C   UNL     1      -8.027  13.831  68.747  1.00  0.00    -0.041 C  
HETATM   14  C   UNL     1      -6.873  13.147  68.002  1.00  0.00    -0.118 C  
BRANCH  12  15
HETATM   15  C   UNL     1     -10.132  14.934  67.786  1.00  0.00    -0.234 C  
BRANCH  15  16
HETATM   16  N   UNL     1      -9.354  15.627  66.753  1.00  0.00    -0.231 NA 
HETATM   17  C   UNL     1      -9.810  15.424  65.364  1.00  0.00    -0.279 C  
HETATM   18  C   UNL     1     -10.968  16.340  64.936  1.00  0.00    -0.307 C  
HETATM   19  O   UNL     1     -10.683  17.719  65.195  1.00  0.00    -0.638 OA 
HETATM   20  C   UNL     1     -10.367  17.915  66.579  1.00  0.00    -0.362 C  
HETATM   21  C   UNL     1      -9.163  17.063  66.999  1.00  0.00    -0.236 C  
ENDBRANCH  15  16
ENDBRANCH  12  15
ENDBRANCH   2   3
TORSDOF 3
ENDMDL
MODEL       93
REMARK 921   NORMALIZED FREE ENERGY PREDICTED BY IDOCK:   -4.09 KCAL/MOL
REMARK 922        TOTAL FREE ENERGY PREDICTED BY IDOCK:   -5.35 KCAL/MOL
REMARK 923 INTER-LIGAND FREE ENERGY PREDICTED BY IDOCK:   -5.15 KCAL/MOL
REMARK 924 INTRA-LIGAND FREE ENERGY PREDICTED BY IDOCK:   -0.20 KCAL/MOL
REMARK 927      BINDING AFFINITY PREDICTED BY RF-SCORE:    0.00 PKD
ROOT
HETATM    1  C   UNL     1     -13.778   8.370  71.976  1.00  0.00    -0.415 C  
HETATM    2  C   UNL     1     -12.437   9.072  72.121  1.00  0.00    -0.450 C  
ENDROOT
BRANCH   2   3
HETATM    3  C   UNL     1     -12.172  10.056  71.019  1.00  0.00    -0.462 A  
HETATM    4  C   UNL     1     -12.532  11.397  70.982  1.00  0.00    -0.383 A  
HETATM    5  C   UNL     1     -13.220  12.252  71.985  1.00  0.00    -0.508 C  
HETATM    6  N   UNL     1     -12.136  11.911  69.773  1.00  0.00    -0.278 NA 
HETATM    7  C   UNL     1     -11.499  10.939  69.045  1.00  0.00    -0.302 A  
HETATM    8  H   UNL     1     -12.292  12.870  69.463  1.00  0.00     0.000 HD 
HETATM    9  C   UNL     1     -11.490   9.787  69.791  1.00  0.00    -0.145 A  
HETATM   10  C   UNL     1     -10.889   8.559  69.309  1.00  0.00    -0.056 C  
HETATM   11  O   UNL     1     -10.945   7.531  69.985  1.00  0.00    -0.257 OA 
HETATM   12  C   UNL     1     -10.245   8.575  67.915  1.00  0.00    -0.273 C  
HETATM   13  C   UNL     1     -10.426   9.857  67.057  1.00  0.00    -0.296 C  
HETATM   14  C   UNL     1     -10.935  11.154  67.699  1.00  0.00    -0.323 C  
BRANCH  12  15
HETATM   15  C   UNL     1      -8.757   8.149  67.989  1.00  0.00    -0.128 C  
BRANCH  15  16
HETATM   16  N   UNL     1      -8.436   6.930  67.239  1.00  0.00    -0.121 NA 
HETATM   17  C   UNL     1      -7.922   5.802  68.040  1.00  0.00    -0.101 C  
HETATM   18  C   UNL     1      -9.011   4.955  68.717  1.00  0.00    -0.104 C  
HETATM   19  O   UNL     1     -10.008   4.521  67.786  1.00  0.00    -0.142 OA 
HETATM   20  C   UNL     1     -10.586   5.644  67.110  1.00  0.00    -0.270 C  
HETATM   21  C   UNL     1      -9.518   6.454  66.365  1.00  0.00    -0.133 C  
ENDBRANCH  15  16
ENDBRANCH  12  15
ENDBRANCH   2   3
TORSDOF 3
ENDMDL
MODEL       94
REMARK 921   NORMALIZED FREE ENERGY PREDICTED BY IDOCK:   -4.09 KCAL/MOL
REMARK 922        TOTAL FREE ENERGY PREDICTED BY IDOCK:   -5.35 KCAL/MOL
REMARK 923 INTER-LIGAND FREE ENERGY PREDICTED BY IDOCK:   -4.94 KCAL/MOL
REMARK 924 INTRA-LIGAND FREE ENERGY PREDICTED BY IDOCK:   -0.41 KCAL/MOL
REMARK 927      BINDING AFFINITY PREDICTED BY RF-SCORE:    0.00 PKD
ROOT
HETATM    1  C   UNL     1     -10.802  11.854  64.573  1.00  0.00    -0.368 C  
HETATM    2  C   UNL     1      -9.707  11.448  65.546  1.00  0.00    -0.263 C  
ENDROOT
BRANCH   2   3
HETATM    3  C   UNL     1      -9.287  10.016  65.384  1.00  0.00    -0.284 A  
HETATM    4  C   UNL     1      -8.460   9.487  64.400  1.00  0.00    -0.181 A  
HETATM    5  C   UNL     1      -7.734  10.140  63.279  1.00  0.00    -0.151 C  
HETATM    6  N   UNL     1      -8.376   8.132  64.598  1.00  0.00    -0.309 NA 
HETATM    7  C   UNL     1      -9.102   7.782  65.708  1.00  0.00    -0.011 A  
HETATM    8  H   UNL     1      -7.853   7.484  64.010  1.00  0.00     0.000 HD 
HETATM    9  C   UNL     1      -9.663   8.923  66.225  1.00  0.00    -0.345 A  
HETATM   10  C   UNL     1     -10.500   8.904  67.410  1.00  0.00    -0.277 C  
HETATM   11  O   UNL     1     -11.028   9.939  67.815  1.00  0.00    -0.282 OA 
HETATM   12  C   UNL     1     -10.748   7.550  68.091  1.00  0.00    -0.145 C  
HETATM   13  C   UNL     1     -10.219   6.279  67.371  1.00  0.00    -0.223 C  
HETATM   14  C   UNL     1      -9.218   6.402  66.215  1.00  0.00    -0.162 C  
BRANCH  12  15
HETATM   15  C   UNL     1     -10.301   7.587  69.574  1.00  0.00    -0.216 C  
BRANCH  15  16
HETATM   16  N   UNL     1     -11.195   6.877  70.495  1.00  0.00    -0.288 NA 
HETATM   17  C   UNL     1     -10.534   5.996  71.477  1.00  0.00    -0.228 C  
HETATM   18  C   UNL     1     -10.015   6.719  72.730  1.00  0.00    -0.173 C  
HETATM   19  O   UNL     1     -11.030   7.518  73.346  1.00  0.00    -0.380 OA 
HETATM   20  C   UNL     1     -11.570   8.455  72.407  1.00  0.00    -0.380 C  
HETATM   21  C   UNL     1     -12.162   7.740  71.187  1.00  0.00    -0.268 C  
ENDBRANCH  15  16
ENDBRANCH  12  15
ENDBRANCH   2   3
TORSDOF 3
ENDMDL
MODEL       95
REMARK 921   NORMALIZED FREE ENERGY PREDICTED BY IDOCK:   -4.07 KCAL/MOL
REMARK 922        TOTAL FREE ENERGY PREDICTED BY IDOCK:   -5.33 KCAL/MOL
REMARK 923 INTER-LIGAND FREE ENERGY PREDICTED BY IDOCK:   -4.87 KCAL/MOL
REMARK 924 INTRA-LIGAND FREE ENERGY PREDICTED BY IDOCK:   -0.46 KCAL/MOL
REMARK 927      BINDING AFFINITY PREDICTED BY RF-SCORE:    0.00 PKD
ROOT
HETATM    1  C   UNL     1     -14.025   8.777  72.016  1.00  0.00    -0.511 C  
HETATM    2  C   UNL     1     -12.661   9.411  72.232  1.00  0.00    -0.378 C  
ENDROOT
BRANCH   2   3
HETATM    3  C   UNL     1     -12.285  10.370  71.141  1.00  0.00    -0.498 A  
HETATM    4  C   UNL     1     -12.628  11.713  71.043  1.00  0.00    -0.331 A  
HETATM    5  C   UNL     1     -13.402  12.592  71.959  1.00  0.00    -0.555 C  
HETATM    6  N   UNL     1     -12.116  12.199  69.867  1.00  0.00    -0.284 NA 
HETATM    7  C   UNL     1     -11.421  11.208  69.222  1.00  0.00    -0.294 A  
HETATM    8  H   UNL     1     -12.234  13.152  69.525  1.00  0.00     0.000 HD 
HETATM    9  C   UNL     1     -11.492  10.072  69.989  1.00  0.00    -0.310 A  
HETATM   10  C   UNL     1     -10.858   8.830  69.589  1.00  0.00    -0.169 C  
HETATM   11  O   UNL     1     -10.987   7.817  70.277  1.00  0.00    -0.249 OA 
HETATM   12  C   UNL     1     -10.085   8.814  68.263  1.00  0.00    -0.220 C  
HETATM   13  C   UNL     1     -10.174  10.079  67.367  1.00  0.00    -0.269 C  
HETATM   14  C   UNL     1     -10.731  11.393  67.932  1.00  0.00    -0.242 C  
BRANCH  12  15
HETATM   15  C   UNL     1      -8.614   8.381  68.485  1.00  0.00    -0.136 C  
BRANCH  15  16
HETATM   16  N   UNL     1      -8.052   8.786  69.778  1.00  0.00    -0.107 NA 
HETATM   17  C   UNL     1      -6.956   7.942  70.293  1.00  0.00    -0.049 C  
HETATM   18  C   UNL     1      -5.570   8.282  69.721  1.00  0.00    -0.026 C  
HETATM   19  O   UNL     1      -5.263   9.673  69.853  1.00  0.00    -0.033 OA 
HETATM   20  C   UNL     1      -6.278  10.473  69.233  1.00  0.00    -0.048 C  
HETATM   21  C   UNL     1      -7.655  10.199  69.851  1.00  0.00    -0.166 C  
ENDBRANCH  15  16
ENDBRANCH  12  15
ENDBRANCH   2   3
TORSDOF 3
ENDMDL
MODEL       96
REMARK 921   NORMALIZED FREE ENERGY PREDICTED BY IDOCK:   -4.06 KCAL/MOL
REMARK 922        TOTAL FREE ENERGY PREDICTED BY IDOCK:   -5.31 KCAL/MOL
REMARK 923 INTER-LIGAND FREE ENERGY PREDICTED BY IDOCK:   -4.94 KCAL/MOL
REMARK 924 INTRA-LIGAND FREE ENERGY PREDICTED BY IDOCK:   -0.37 KCAL/MOL
REMARK 927      BINDING AFFINITY PREDICTED BY RF-SCORE:    0.00 PKD
ROOT
HETATM    1  C   UNL     1     -12.426  15.695  64.005  1.00  0.00     0.364 C  
HETATM    2  C   UNL     1     -11.200  14.877  64.375  1.00  0.00    -0.171 C  
ENDROOT
BRANCH   2   3
HETATM    3  C   UNL     1     -11.464  13.903  65.487  1.00  0.00    -0.319 A  
HETATM    4  C   UNL     1     -11.861  12.577  65.370  1.00  0.00    -0.428 A  
HETATM    5  C   UNL     1     -12.100  11.731  64.170  1.00  0.00    -0.311 C  
HETATM    6  N   UNL     1     -12.031  12.070  66.633  1.00  0.00    -0.603 NA 
HETATM    7  C   UNL     1     -11.719  13.030  67.561  1.00  0.00    -0.370 A  
HETATM    8  H   UNL     1     -12.343  11.123  66.849  1.00  0.00     0.000 HD 
HETATM    9  C   UNL     1     -11.350  14.167  66.888  1.00  0.00    -0.343 A  
HETATM   10  C   UNL     1     -10.957  15.381  67.578  1.00  0.00    -0.315 C  
HETATM   11  O   UNL     1     -10.681  16.397  66.941  1.00  0.00    -0.296 OA 
HETATM   12  C   UNL     1     -10.959  15.365  69.114  1.00  0.00    -0.252 C  
HETATM   13  C   UNL     1     -11.536  14.105  69.816  1.00  0.00    -0.309 C  
HETATM   14  C   UNL     1     -11.782  12.817  69.019  1.00  0.00    -0.371 C  
BRANCH  12  15
HETATM   15  C   UNL     1      -9.561  15.732  69.672  1.00  0.00    -0.233 C  
BRANCH  15  16
HETATM   16  N   UNL     1      -8.456  15.521  68.730  1.00  0.00    -0.175 NA 
HETATM   17  C   UNL     1      -7.584  16.686  68.493  1.00  0.00    -0.212 C  
HETATM   18  C   UNL     1      -6.484  16.883  69.550  1.00  0.00    -0.223 C  
HETATM   19  O   UNL     1      -5.718  15.691  69.753  1.00  0.00    -0.119 OA 
HETATM   20  C   UNL     1      -6.574  14.598  70.108  1.00  0.00    -0.143 C  
HETATM   21  C   UNL     1      -7.627  14.342  69.023  1.00  0.00    -0.106 C  
ENDBRANCH  15  16
ENDBRANCH  12  15
ENDBRANCH   2   3
TORSDOF 3
ENDMDL
MODEL       97
REMARK 921   NORMALIZED FREE ENERGY PREDICTED BY IDOCK:   -4.04 KCAL/MOL
REMARK 922        TOTAL FREE ENERGY PREDICTED BY IDOCK:   -5.29 KCAL/MOL
REMARK 923 INTER-LIGAND FREE ENERGY PREDICTED BY IDOCK:   -4.84 KCAL/MOL
REMARK 924 INTRA-LIGAND FREE ENERGY PREDICTED BY IDOCK:   -0.45 KCAL/MOL
REMARK 927      BINDING AFFINITY PREDICTED BY RF-SCORE:    0.00 PKD
ROOT
HETATM    1  C   UNL     1      -7.508   7.310  66.176  1.00  0.00    -0.083 C  
HETATM    2  C   UNL     1      -9.017   7.339  65.998  1.00  0.00    -0.149 C  
ENDROOT
BRANCH   2   3
HETATM    3  C   UNL     1      -9.726   7.990  67.151  1.00  0.00    -0.255 A  
HETATM    4  C   UNL     1     -10.071   7.409  68.365  1.00  0.00    -0.177 A  
HETATM    5  C   UNL     1      -9.827   6.043  68.899  1.00  0.00    -0.173 C  
HETATM    6  N   UNL     1     -10.745   8.345  69.108  1.00  0.00    -0.384 NA 
HETATM    7  C   UNL     1     -10.811   9.526  68.414  1.00  0.00    -0.137 A  
HETATM    8  H   UNL     1     -11.137   8.186  70.036  1.00  0.00     0.000 HD 
HETATM    9  C   UNL     1     -10.178   9.345  67.209  1.00  0.00    -0.308 A  
HETATM   10  C   UNL     1     -10.069  10.407  66.227  1.00  0.00    -0.231 C  
HETATM   11  O   UNL     1      -9.539  10.194  65.136  1.00  0.00    -0.245 OA 
HETATM   12  C   UNL     1     -10.688  11.769  66.572  1.00  0.00    -0.304 C  
HETATM   13  C   UNL     1     -11.525  11.865  67.877  1.00  0.00    -0.385 C  
HETATM   14  C   UNL     1     -11.458  10.748  68.926  1.00  0.00    -0.362 C  
BRANCH  12  15
HETATM   15  C   UNL     1      -9.624  12.894  66.500  1.00  0.00    -0.259 C  
BRANCH  15  16
HETATM   16  N   UNL     1      -9.899  14.046  67.365  1.00  0.00    -0.236 NA 
HETATM   17  C   UNL     1      -8.766  14.516  68.186  1.00  0.00    -0.171 C  
HETATM   18  C   UNL     1      -7.796  15.454  67.451  1.00  0.00    -0.188 C  
HETATM   19  O   UNL     1      -8.477  16.547  66.827  1.00  0.00    -0.192 OA 
HETATM   20  C   UNL     1      -9.490  16.065  65.935  1.00  0.00    -0.316 C  
HETATM   21  C   UNL     1     -10.510  15.191  66.675  1.00  0.00    -0.287 C  
ENDBRANCH  15  16
ENDBRANCH  12  15
ENDBRANCH   2   3
TORSDOF 3
ENDMDL
MODEL       98
REMARK 921   NORMALIZED FREE ENERGY PREDICTED BY IDOCK:   -4.04 KCAL/MOL
REMARK 922        TOTAL FREE ENERGY PREDICTED BY IDOCK:   -5.29 KCAL/MOL
REMARK 923 INTER-LIGAND FREE ENERGY PREDICTED BY IDOCK:   -4.75 KCAL/MOL
REMARK 924 INTRA-LIGAND FREE ENERGY PREDICTED BY IDOCK:   -0.54 KCAL/MOL
REMARK 927      BINDING AFFINITY PREDICTED BY RF-SCORE:    0.00 PKD
ROOT
HETATM    1  C   UNL     1      -8.024  13.444  67.641  1.00  0.00    -0.174 C  
HETATM    2  C   UNL     1      -8.966  12.502  66.909  1.00  0.00    -0.212 C  
ENDROOT
BRANCH   2   3
HETATM    3  C   UNL     1     -10.226  12.227  67.677  1.00  0.00    -0.208 A  
HETATM    4  C   UNL     1     -11.464  12.837  67.513  1.00  0.00    -0.336 A  
HETATM    5  C   UNL     1     -11.922  13.873  66.550  1.00  0.00    -0.470 C  
HETATM    6  N   UNL     1     -12.321  12.319  68.450  1.00  0.00    -0.052 NA 
HETATM    7  C   UNL     1     -11.674  11.363  69.190  1.00  0.00    -0.342 A  
HETATM    8  H   UNL     1     -13.293  12.601  68.577  1.00  0.00     0.000 HD 
HETATM    9  C   UNL     1     -10.384  11.270  68.728  1.00  0.00    -0.223 A  
HETATM   10  C   UNL     1      -9.423  10.347  69.301  1.00  0.00    -0.198 C  
HETATM   11  O   UNL     1      -8.261  10.328  68.894  1.00  0.00    -0.112 OA 
HETATM   12  C   UNL     1      -9.890   9.452  70.458  1.00  0.00    -0.331 C  
HETATM   13  C   UNL     1     -11.306   9.714  71.039  1.00  0.00    -0.444 C  
HETATM   14  C   UNL     1     -12.306  10.596  70.279  1.00  0.00    -0.406 C  
BRANCH  12  15
HETATM   15  C   UNL     1      -9.687   7.955  70.115  1.00  0.00    -0.179 C  
BRANCH  15  16
HETATM   16  N   UNL     1     -10.853   7.310  69.500  1.00  0.00    -0.233 NA 
HETATM   17  C   UNL     1     -10.998   7.504  68.044  1.00  0.00     0.074 C  
HETATM   18  C   UNL     1     -10.164   6.537  67.189  1.00  0.00    -0.198 C  
HETATM   19  O   UNL     1     -10.382   5.172  67.557  1.00  0.00    -0.180 OA 
HETATM   20  C   UNL     1     -10.112   4.978  68.951  1.00  0.00    -0.144 C  
HETATM   21  C   UNL     1     -10.995   5.883  69.819  1.00  0.00    -0.382 C  
ENDBRANCH  15  16
ENDBRANCH  12  15
ENDBRANCH   2   3
TORSDOF 3
ENDMDL
MODEL       99
REMARK 921   NORMALIZED FREE ENERGY PREDICTED BY IDOCK:   -4.04 KCAL/MOL
REMARK 922        TOTAL FREE ENERGY PREDICTED BY IDOCK:   -5.29 KCAL/MOL
REMARK 923 INTER-LIGAND FREE ENERGY PREDICTED BY IDOCK:   -4.95 KCAL/MOL
REMARK 924 INTRA-LIGAND FREE ENERGY PREDICTED BY IDOCK:   -0.33 KCAL/MOL
REMARK 927      BINDING AFFINITY PREDICTED BY RF-SCORE:    0.00 PKD
ROOT
HETATM    1  C   UNL     1     -12.076  14.273  64.318  1.00  0.00    -0.467 C  
HETATM    2  C   UNL     1     -12.038  14.435  65.829  1.00  0.00    -0.362 C  
ENDROOT
BRANCH   2   3
HETATM    3  C   UNL     1     -10.648  14.354  66.389  1.00  0.00    -0.297 A  
HETATM    4  C   UNL     1      -9.675  15.345  66.377  1.00  0.00    -0.288 A  
HETATM    5  C   UNL     1      -9.710  16.742  65.871  1.00  0.00    -0.247 C  
HETATM    6  N   UNL     1      -8.539  14.833  66.952  1.00  0.00    -0.294 NA 
HETATM    7  C   UNL     1      -8.770  13.546  67.365  1.00  0.00    -0.220 A  
HETATM    8  H   UNL     1      -7.657  15.334  67.057  1.00  0.00     0.000 HD 
HETATM    9  C   UNL     1     -10.066  13.225  67.047  1.00  0.00    -0.242 A  
HETATM   10  C   UNL     1     -10.636  11.926  67.347  1.00  0.00    -0.225 C  
HETATM   11  O   UNL     1     -11.786  11.656  67.001  1.00  0.00    -0.591 OA 
HETATM   12  C   UNL     1      -9.740  10.894  68.049  1.00  0.00    -0.176 C  
HETATM   13  C   UNL     1      -8.242  11.259  68.239  1.00  0.00    -0.143 C  
HETATM   14  C   UNL     1      -7.763  12.703  68.036  1.00  0.00    -0.139 C  
BRANCH  12  15
HETATM   15  C   UNL     1     -10.379  10.419  69.378  1.00  0.00    -0.237 C  
BRANCH  15  16
HETATM   16  N   UNL     1     -10.767   9.005  69.393  1.00  0.00    -0.219 NA 
HETATM   17  C   UNL     1     -10.406   8.229  68.191  1.00  0.00    -0.202 C  
HETATM   18  C   UNL     1      -8.961   7.706  68.182  1.00  0.00    -0.126 C  
HETATM   19  O   UNL     1      -8.643   6.991  69.380  1.00  0.00    -0.132 OA 
HETATM   20  C   UNL     1      -8.880   7.809  70.532  1.00  0.00    -0.145 C  
HETATM   21  C   UNL     1     -10.341   8.272  70.593  1.00  0.00    -0.199 C  
ENDBRANCH  15  16
ENDBRANCH  12  15
ENDBRANCH   2   3
TORSDOF 3
ENDMDL
MODEL      100
REMARK 921   NORMALIZED FREE ENERGY PREDICTED BY IDOCK:   -4.03 KCAL/MOL
REMARK 922        TOTAL FREE ENERGY PREDICTED BY IDOCK:   -5.28 KCAL/MOL
REMARK 923 INTER-LIGAND FREE ENERGY PREDICTED BY IDOCK:   -4.87 KCAL/MOL
REMARK 924 INTRA-LIGAND FREE ENERGY PREDICTED BY IDOCK:   -0.40 KCAL/MOL
REMARK 927      BINDING AFFINITY PREDICTED BY RF-SCORE:    0.00 PKD
ROOT
HETATM    1  C   UNL     1     -11.727  13.575  69.115  1.00  0.00    -0.374 C  
HETATM    2  C   UNL     1     -10.358  13.730  68.474  1.00  0.00    -0.244 C  
ENDROOT
BRANCH   2   3
HETATM    3  C   UNL     1     -10.423  13.825  66.978  1.00  0.00    -0.274 A  
HETATM    4  C   UNL     1     -10.561  14.976  66.212  1.00  0.00    -0.307 A  
HETATM    5  C   UNL     1     -10.643  16.407  66.605  1.00  0.00    -0.239 C  
HETATM    6  N   UNL     1     -10.622  14.604  64.892  1.00  0.00    -0.488 NA 
HETATM    7  C   UNL     1     -10.491  13.243  64.790  1.00  0.00    -0.384 A  
HETATM    8  H   UNL     1     -10.746  15.243  64.107  1.00  0.00     0.000 HD 
HETATM    9  C   UNL     1     -10.351  12.734  66.057  1.00  0.00    -0.291 A  
HETATM   10  C   UNL     1     -10.191  11.313  66.305  1.00  0.00    -0.236 C  
HETATM   11  O   UNL     1     -10.119  10.888  67.458  1.00  0.00    -0.177 OA 
HETATM   12  C   UNL     1     -10.178  10.371  65.093  1.00  0.00    -0.326 C  
HETATM   13  C   UNL     1     -10.500  10.986  63.704  1.00  0.00    -0.388 C  
HETATM   14  C   UNL     1     -10.502  12.508  63.511  1.00  0.00    -0.360 C  
BRANCH  12  15
HETATM   15  C   UNL     1      -8.872   9.538  65.054  1.00  0.00    -0.195 C  
BRANCH  15  16
HETATM   16  N   UNL     1      -7.690  10.285  64.610  1.00  0.00    -0.141 NA 
HETATM   17  C   UNL     1      -6.479  10.120  65.438  1.00  0.00    -0.117 C  
HETATM   18  C   UNL     1      -5.656   8.863  65.115  1.00  0.00    -0.046 C  
HETATM   19  O   UNL     1      -5.351   8.766  63.720  1.00  0.00    -0.060 OA 
HETATM   20  C   UNL     1      -6.552   8.800  62.940  1.00  0.00    -0.091 C  
HETATM   21  C   UNL     1      -7.344  10.088  63.195  1.00  0.00    -0.134 C  
ENDBRANCH  15  16
ENDBRANCH  12  15
ENDBRANCH   2   3
TORSDOF 3
ENDMDL
MODEL      101
REMARK 921   NORMALIZED FREE ENERGY PREDICTED BY IDOCK:   -4.02 KCAL/MOL
REMARK 922        TOTAL FREE ENERGY PREDICTED BY IDOCK:   -5.27 KCAL/MOL
REMARK 923 INTER-LIGAND FREE ENERGY PREDICTED BY IDOCK:   -4.74 KCAL/MOL
REMARK 924 INTRA-LIGAND FREE ENERGY PREDICTED BY IDOCK:   -0.53 KCAL/MOL
REMARK 927      BINDING AFFINITY PREDICTED BY RF-SCORE:    0.00 PKD
ROOT
HETATM    1  C   UNL     1     -12.012  13.848  64.698  1.00  0.00    -0.443 C  
HETATM    2  C   UNL     1     -12.373  12.926  65.851  1.00  0.00    -0.378 C  
ENDROOT
BRANCH   2   3
HETATM    3  C   UNL     1     -11.235  12.717  66.807  1.00  0.00    -0.347 A  
HETATM    4  C   UNL     1     -11.014  13.373  68.012  1.00  0.00    -0.244 A  
HETATM    5  C   UNL     1     -11.813  14.407  68.721  1.00  0.00    -0.360 C  
HETATM    6  N   UNL     1      -9.837  12.908  68.540  1.00  0.00    -0.357 NA 
HETATM    7  C   UNL     1      -9.312  11.943  67.720  1.00  0.00    -0.184 A  
HETATM    8  H   UNL     1      -9.416  13.232  69.411  1.00  0.00     0.000 HD 
HETATM    9  C   UNL     1     -10.158  11.789  66.650  1.00  0.00    -0.231 A  
HETATM   10  C   UNL     1      -9.894  10.839  65.586  1.00  0.00    -0.245 C  
HETATM   11  O   UNL     1     -10.648  10.766  64.617  1.00  0.00    -0.328 OA 
HETATM   12  C   UNL     1      -8.620   9.987  65.686  1.00  0.00    -0.166 C  
HETATM   13  C   UNL     1      -7.626  10.317  66.833  1.00  0.00    -0.105 C  
HETATM   14  C   UNL     1      -8.054  11.223  67.995  1.00  0.00    -0.128 C  
BRANCH  12  15
HETATM   15  C   UNL     1      -8.962   8.476  65.651  1.00  0.00    -0.160 C  
BRANCH  15  16
HETATM   16  N   UNL     1      -8.768   7.781  66.929  1.00  0.00    -0.128 NA 
HETATM   17  C   UNL     1      -9.988   7.562  67.730  1.00  0.00    -0.171 C  
HETATM   18  C   UNL     1     -10.804   6.326  67.320  1.00  0.00    -0.375 C  
HETATM   19  O   UNL     1      -9.997   5.146  67.266  1.00  0.00    -0.159 OA 
HETATM   20  C   UNL     1      -8.886   5.337  66.381  1.00  0.00    -0.123 C  
HETATM   21  C   UNL     1      -8.019   6.521  66.826  1.00  0.00    -0.108 C  
ENDBRANCH  15  16
ENDBRANCH  12  15
ENDBRANCH   2   3
TORSDOF 3
ENDMDL
MODEL      102
REMARK 921   NORMALIZED FREE ENERGY PREDICTED BY IDOCK:   -4.01 KCAL/MOL
REMARK 922        TOTAL FREE ENERGY PREDICTED BY IDOCK:   -5.25 KCAL/MOL
REMARK 923 INTER-LIGAND FREE ENERGY PREDICTED BY IDOCK:   -4.89 KCAL/MOL
REMARK 924 INTRA-LIGAND FREE ENERGY PREDICTED BY IDOCK:   -0.36 KCAL/MOL
REMARK 927      BINDING AFFINITY PREDICTED BY RF-SCORE:    0.00 PKD
ROOT
HETATM    1  C   UNL     1      -8.808   4.674  67.256  1.00  0.00    -0.107 C  
HETATM    2  C   UNL     1     -10.183   5.266  67.525  1.00  0.00    -0.229 C  
ENDROOT
BRANCH   2   3
HETATM    3  C   UNL     1     -10.240   6.047  68.806  1.00  0.00    -0.236 A  
HETATM    4  C   UNL     1     -10.175   5.548  70.100  1.00  0.00    -0.263 A  
HETATM    5  C   UNL     1      -9.998   4.161  70.605  1.00  0.00    -0.185 C  
HETATM    6  N   UNL     1     -10.311   6.601  70.969  1.00  0.00    -0.206 NA 
HETATM    7  C   UNL     1     -10.426   7.771  70.263  1.00  0.00    -0.225 A  
HETATM    8  H   UNL     1     -10.324   6.525  71.986  1.00  0.00     0.000 HD 
HETATM    9  C   UNL     1     -10.369   7.466  68.926  1.00  0.00    -0.214 A  
HETATM   10  C   UNL     1     -10.464   8.483  67.897  1.00  0.00    -0.201 C  
HETATM   11  O   UNL     1     -10.461   8.167  66.707  1.00  0.00    -0.326 OA 
HETATM   12  C   UNL     1     -10.628   9.943  68.345  1.00  0.00    -0.258 C  
HETATM   13  C   UNL     1     -10.843  10.207  69.860  1.00  0.00    -0.347 C  
HETATM   14  C   UNL     1     -10.575   9.098  70.887  1.00  0.00    -0.341 C  
BRANCH  12  15
HETATM   15  C   UNL     1      -9.491  10.828  67.773  1.00  0.00    -0.155 C  
BRANCH  15  16
HETATM   16  N   UNL     1      -9.932  11.819  66.786  1.00  0.00    -0.199 NA 
HETATM   17  C   UNL     1     -11.377  12.121  66.782  1.00  0.00    -0.342 C  
HETATM   18  C   UNL     1     -11.813  13.153  67.835  1.00  0.00    -0.348 C  
HETATM   19  O   UNL     1     -11.031  14.349  67.768  1.00  0.00    -0.263 OA 
HETATM   20  C   UNL     1      -9.637  14.046  67.902  1.00  0.00    -0.221 C  
HETATM   21  C   UNL     1      -9.172  13.077  66.809  1.00  0.00    -0.228 C  
ENDBRANCH  15  16
ENDBRANCH  12  15
ENDBRANCH   2   3
TORSDOF 3
ENDMDL
MODEL      103
REMARK 921   NORMALIZED FREE ENERGY PREDICTED BY IDOCK:   -4.01 KCAL/MOL
REMARK 922        TOTAL FREE ENERGY PREDICTED BY IDOCK:   -5.25 KCAL/MOL
REMARK 923 INTER-LIGAND FREE ENERGY PREDICTED BY IDOCK:   -5.37 KCAL/MOL
REMARK 924 INTRA-LIGAND FREE ENERGY PREDICTED BY IDOCK:    0.12 KCAL/MOL
REMARK 927      BINDING AFFINITY PREDICTED BY RF-SCORE:    0.00 PKD
ROOT
HETATM    1  C   UNL     1      -8.404   6.448  67.253  1.00  0.00    -0.112 C  
HETATM    2  C   UNL     1      -8.014   7.888  66.960  1.00  0.00    -0.112 C  
ENDROOT
BRANCH   2   3
HETATM    3  C   UNL     1      -8.318   8.297  65.548  1.00  0.00    -0.163 A  
HETATM    4  C   UNL     1      -8.014   7.602  64.384  1.00  0.00    -0.123 A  
HETATM    5  C   UNL     1      -7.359   6.283  64.177  1.00  0.00    -0.071 C  
HETATM    6  N   UNL     1      -8.431   8.356  63.316  1.00  0.00    -0.403 NA 
HETATM    7  C   UNL     1      -9.029   9.505  63.768  1.00  0.00    -0.175 A  
HETATM    8  H   UNL     1      -8.314   8.101  62.336  1.00  0.00     0.000 HD 
HETATM    9  C   UNL     1      -8.990   9.492  65.140  1.00  0.00    -0.253 A  
HETATM   10  C   UNL     1      -9.541  10.570  65.938  1.00  0.00    -0.204 C  
HETATM   11  O   UNL     1      -9.443  10.549  67.165  1.00  0.00    -0.156 OA 
HETATM   12  C   UNL     1     -10.187  11.752  65.200  1.00  0.00    -0.309 C  
HETATM   13  C   UNL     1     -10.058  11.785  63.652  1.00  0.00    -0.445 C  
HETATM   14  C   UNL     1      -9.602  10.537  62.885  1.00  0.00    -0.355 C  
BRANCH  12  15
HETATM   15  C   UNL     1     -11.656  11.949  65.650  1.00  0.00    -0.210 C  
BRANCH  15  16
HETATM   16  N   UNL     1     -11.925  13.237  66.298  1.00  0.00    -0.403 NA 
HETATM   17  C   UNL     1     -10.744  13.951  66.820  1.00  0.00    -0.281 C  
HETATM   18  C   UNL     1      -9.984  14.775  65.769  1.00  0.00    -0.347 C  
HETATM   19  O   UNL     1     -10.852  15.659  65.052  1.00  0.00    -0.412 OA 
HETATM   20  C   UNL     1     -11.924  14.927  64.444  1.00  0.00    -0.394 C  
HETATM   21  C   UNL     1     -12.738  14.162  65.494  1.00  0.00    -0.443 C  
ENDBRANCH  15  16
ENDBRANCH  12  15
ENDBRANCH   2   3
TORSDOF 3
ENDMDL
MODEL      104
REMARK 921   NORMALIZED FREE ENERGY PREDICTED BY IDOCK:   -3.99 KCAL/MOL
REMARK 922        TOTAL FREE ENERGY PREDICTED BY IDOCK:   -5.24 KCAL/MOL
REMARK 923 INTER-LIGAND FREE ENERGY PREDICTED BY IDOCK:   -4.81 KCAL/MOL
REMARK 924 INTRA-LIGAND FREE ENERGY PREDICTED BY IDOCK:   -0.43 KCAL/MOL
REMARK 927      BINDING AFFINITY PREDICTED BY RF-SCORE:    0.00 PKD
ROOT
HETATM    1  C   UNL     1      -8.407   4.088  69.445  1.00  0.00    -0.078 C  
HETATM    2  C   UNL     1      -9.899   4.250  69.687  1.00  0.00    -0.244 C  
ENDROOT
BRANCH   2   3
HETATM    3  C   UNL     1     -10.205   5.019  70.940  1.00  0.00    -0.287 A  
HETATM    4  C   UNL     1     -10.059   4.585  72.252  1.00  0.00    -0.191 A  
HETATM    5  C   UNL     1      -9.545   3.305  72.806  1.00  0.00    -0.173 C  
HETATM    6  N   UNL     1     -10.497   5.586  73.082  1.00  0.00    -0.206 NA 
HETATM    7  C   UNL     1     -10.887   6.668  72.335  1.00  0.00    -0.235 A  
HETATM    8  H   UNL     1     -10.526   5.533  74.100  1.00  0.00     0.000 HD 
HETATM    9  C   UNL     1     -10.704   6.357  71.011  1.00  0.00    -0.301 A  
HETATM   10  C   UNL     1     -11.024   7.290  69.947  1.00  0.00    -0.243 C  
HETATM   11  O   UNL     1     -10.895   6.957  68.769  1.00  0.00    -0.221 OA 
HETATM   12  C   UNL     1     -11.579   8.665  70.343  1.00  0.00    -0.090 C  
HETATM   13  C   UNL     1     -11.911   8.899  71.842  1.00  0.00    -0.441 C  
HETATM   14  C   UNL     1     -11.401   7.924  72.911  1.00  0.00    -0.399 C  
BRANCH  12  15
HETATM   15  C   UNL     1     -10.693   9.803  69.777  1.00  0.00    -0.256 C  
BRANCH  15  16
HETATM   16  N   UNL     1     -11.204  10.414  68.544  1.00  0.00    -0.264 NA 
HETATM   17  C   UNL     1     -11.907  11.700  68.710  1.00  0.00    -0.325 C  
HETATM   18  C   UNL     1     -10.981  12.925  68.790  1.00  0.00    -0.254 C  
HETATM   19  O   UNL     1     -10.061  12.971  67.695  1.00  0.00    -0.211 OA 
HETATM   20  C   UNL     1      -9.296  11.761  67.629  1.00  0.00    -0.180 C  
HETATM   21  C   UNL     1     -10.207  10.537  67.471  1.00  0.00    -0.206 C  
ENDBRANCH  15  16
ENDBRANCH  12  15
ENDBRANCH   2   3
TORSDOF 3
ENDMDL
MODEL      105
REMARK 921   NORMALIZED FREE ENERGY PREDICTED BY IDOCK:   -3.99 KCAL/MOL
REMARK 922        TOTAL FREE ENERGY PREDICTED BY IDOCK:   -5.23 KCAL/MOL
REMARK 923 INTER-LIGAND FREE ENERGY PREDICTED BY IDOCK:   -4.59 KCAL/MOL
REMARK 924 INTRA-LIGAND FREE ENERGY PREDICTED BY IDOCK:   -0.64 KCAL/MOL
REMARK 927      BINDING AFFINITY PREDICTED BY RF-SCORE:    0.00 PKD
ROOT
HETATM    1  C   UNL     1     -10.173   7.890  66.916  1.00  0.00    -0.380 C  
HETATM    2  C   UNL     1     -11.126   6.744  67.216  1.00  0.00    -0.394 C  
ENDROOT
BRANCH   2   3
HETATM    3  C   UNL     1     -10.455   5.597  67.915  1.00  0.00    -0.274 A  
HETATM    4  C   UNL     1      -9.755   4.548  67.332  1.00  0.00    -0.178 A  
HETATM    5  C   UNL     1      -9.430   4.261  65.909  1.00  0.00    -0.176 C  
HETATM    6  N   UNL     1      -9.348   3.700  68.331  1.00  0.00    -0.163 NA 
HETATM    7  C   UNL     1      -9.740   4.199  69.547  1.00  0.00    -0.183 A  
HETATM    8  H   UNL     1      -8.833   2.832  68.190  1.00  0.00     0.000 HD 
HETATM    9  C   UNL     1     -10.411   5.376  69.327  1.00  0.00    -0.322 A  
HETATM   10  C   UNL     1     -10.964   6.165  70.411  1.00  0.00    -0.337 C  
HETATM   11  O   UNL     1     -11.603   7.189  70.172  1.00  0.00    -0.249 OA 
HETATM   12  C   UNL     1     -10.775   5.645  71.844  1.00  0.00    -0.299 C  
HETATM   13  C   UNL     1     -10.149   4.234  72.017  1.00  0.00    -0.244 C  
HETATM   14  C   UNL     1      -9.456   3.542  70.836  1.00  0.00    -0.236 C  
BRANCH  12  15
HETATM   15  C   UNL     1     -10.050   6.696  72.722  1.00  0.00    -0.177 C  
BRANCH  15  16
HETATM   16  N   UNL     1      -8.615   6.451  72.902  1.00  0.00    -0.124 NA 
HETATM   17  C   UNL     1      -7.729   7.056  71.889  1.00  0.00    -0.093 C  
HETATM   18  C   UNL     1      -7.386   8.532  72.146  1.00  0.00    -0.071 C  
HETATM   19  O   UNL     1      -6.884   8.742  73.469  1.00  0.00    -0.322 OA 
HETATM   20  C   UNL     1      -7.818   8.262  74.444  1.00  0.00    -0.244 C  
HETATM   21  C   UNL     1      -8.109   6.770  74.245  1.00  0.00    -0.121 C  
ENDBRANCH  15  16
ENDBRANCH  12  15
ENDBRANCH   2   3
TORSDOF 3
ENDMDL
MODEL      106
REMARK 921   NORMALIZED FREE ENERGY PREDICTED BY IDOCK:   -3.96 KCAL/MOL
REMARK 922        TOTAL FREE ENERGY PREDICTED BY IDOCK:   -5.20 KCAL/MOL
REMARK 923 INTER-LIGAND FREE ENERGY PREDICTED BY IDOCK:   -4.57 KCAL/MOL
REMARK 924 INTRA-LIGAND FREE ENERGY PREDICTED BY IDOCK:   -0.63 KCAL/MOL
REMARK 927      BINDING AFFINITY PREDICTED BY RF-SCORE:    0.00 PKD
ROOT
HETATM    1  C   UNL     1     -10.047  10.388  65.235  1.00  0.00    -0.370 C  
HETATM    2  C   UNL     1      -9.231   9.106  65.278  1.00  0.00    -0.243 C  
ENDROOT
BRANCH   2   3
HETATM    3  C   UNL     1      -8.407   8.982  66.526  1.00  0.00    -0.115 A  
HETATM    4  C   UNL     1      -7.143   9.510  66.757  1.00  0.00    -0.086 A  
HETATM    5  C   UNL     1      -6.265  10.354  65.904  1.00  0.00    -0.118 C  
HETATM    6  N   UNL     1      -6.741   9.119  68.010  1.00  0.00    -0.067 NA 
HETATM    7  C   UNL     1      -7.733   8.382  68.603  1.00  0.00    -0.107 A  
HETATM    8  H   UNL     1      -5.842   9.344  68.435  1.00  0.00     0.000 HD 
HETATM    9  C   UNL     1      -8.781   8.292  67.721  1.00  0.00    -0.134 A  
HETATM   10  C   UNL     1      -9.999   7.572  68.039  1.00  0.00    -0.172 C  
HETATM   11  O   UNL     1     -10.897   7.469  67.204  1.00  0.00    -0.324 OA 
HETATM   12  C   UNL     1     -10.096   6.899  69.416  1.00  0.00    -0.176 C  
HETATM   13  C   UNL     1      -8.822   6.901  70.305  1.00  0.00    -0.148 C  
HETATM   14  C   UNL     1      -7.636   7.813  69.961  1.00  0.00    -0.085 C  
BRANCH  12  15
HETATM   15  C   UNL     1     -11.330   7.415  70.198  1.00  0.00    -0.177 C  
BRANCH  15  16
HETATM   16  N   UNL     1     -11.019   8.389  71.250  1.00  0.00    -0.242 NA 
HETATM   17  C   UNL     1     -10.971   9.801  70.822  1.00  0.00    -0.336 C  
HETATM   18  C   UNL     1     -12.342  10.492  70.757  1.00  0.00    -0.378 C  
HETATM   19  O   UNL     1     -13.076  10.341  71.976  1.00  0.00    -0.447 OA 
HETATM   20  C   UNL     1     -13.222   8.954  72.307  1.00  0.00    -0.447 C  
HETATM   21  C   UNL     1     -11.856   8.272  72.452  1.00  0.00    -0.396 C  
ENDBRANCH  15  16
ENDBRANCH  12  15
ENDBRANCH   2   3
TORSDOF 3
ENDMDL
MODEL      107
REMARK 921   NORMALIZED FREE ENERGY PREDICTED BY IDOCK:   -3.95 KCAL/MOL
REMARK 922        TOTAL FREE ENERGY PREDICTED BY IDOCK:   -5.19 KCAL/MOL
REMARK 923 INTER-LIGAND FREE ENERGY PREDICTED BY IDOCK:   -4.90 KCAL/MOL
REMARK 924 INTRA-LIGAND FREE ENERGY PREDICTED BY IDOCK:   -0.29 KCAL/MOL
REMARK 927      BINDING AFFINITY PREDICTED BY RF-SCORE:    0.00 PKD
ROOT
HETATM    1  C   UNL     1      -9.385  10.538  63.953  1.00  0.00    -0.314 C  
HETATM    2  C   UNL     1     -10.307  11.029  65.058  1.00  0.00    -0.360 C  
ENDROOT
BRANCH   2   3
HETATM    3  C   UNL     1     -10.948  12.348  64.736  1.00  0.00    -0.340 A  
HETATM    4  C   UNL     1     -12.042  12.575  63.910  1.00  0.00    -0.498 A  
HETATM    5  C   UNL     1     -12.906  11.632  63.152  1.00  0.00     0.066 C  
HETATM    6  N   UNL     1     -12.265  13.928  63.861  1.00  0.00    -0.798 NA 
HETATM    7  C   UNL     1     -11.362  14.574  64.666  1.00  0.00    -0.370 A  
HETATM    8  H   UNL     1     -12.993  14.384  63.311  1.00  0.00     0.000 HD 
HETATM    9  C   UNL     1     -10.545  13.628  65.233  1.00  0.00    -0.354 A  
HETATM   10  C   UNL     1      -9.472  13.978  66.143  1.00  0.00    -0.185 C  
HETATM   11  O   UNL     1      -8.727  13.107  66.592  1.00  0.00    -0.137 OA 
HETATM   12  C   UNL     1      -9.265  15.464  66.469  1.00  0.00    -0.323 C  
HETATM   13  C   UNL     1     -10.115  16.496  65.677  1.00  0.00    -0.278 C  
HETATM   14  C   UNL     1     -11.326  16.036  64.855  1.00  0.00    -0.232 C  
BRANCH  12  15
HETATM   15  C   UNL     1      -9.355  15.712  67.996  1.00  0.00    -0.193 C  
BRANCH  15  16
HETATM   16  N   UNL     1      -8.173  16.361  68.575  1.00  0.00    -0.190 NA 
HETATM   17  C   UNL     1      -7.609  15.712  69.774  1.00  0.00    -0.023 C  
HETATM   18  C   UNL     1      -6.666  14.536  69.475  1.00  0.00    -0.151 C  
HETATM   19  O   UNL     1      -5.639  14.896  68.545  1.00  0.00    -0.089 OA 
HETATM   20  C   UNL     1      -6.214  15.405  67.335  1.00  0.00    -0.001 C  
HETATM   21  C   UNL     1      -7.095  16.629  67.612  1.00  0.00    -0.136 C  
ENDBRANCH  15  16
ENDBRANCH  12  15
ENDBRANCH   2   3
TORSDOF 3
ENDMDL
MODEL      108
REMARK 921   NORMALIZED FREE ENERGY PREDICTED BY IDOCK:   -3.95 KCAL/MOL
REMARK 922        TOTAL FREE ENERGY PREDICTED BY IDOCK:   -5.19 KCAL/MOL
REMARK 923 INTER-LIGAND FREE ENERGY PREDICTED BY IDOCK:   -4.94 KCAL/MOL
REMARK 924 INTRA-LIGAND FREE ENERGY PREDICTED BY IDOCK:   -0.24 KCAL/MOL
REMARK 927      BINDING AFFINITY PREDICTED BY RF-SCORE:    0.00 PKD
ROOT
HETATM    1  C   UNL     1     -12.149  13.036  66.066  1.00  0.00    -0.493 C  
HETATM    2  C   UNL     1     -10.911  12.530  66.790  1.00  0.00    -0.281 C  
ENDROOT
BRANCH   2   3
HETATM    3  C   UNL     1     -10.517  11.144  66.370  1.00  0.00    -0.311 A  
HETATM    4  C   UNL     1     -10.172  10.715  65.094  1.00  0.00    -0.299 A  
HETATM    5  C   UNL     1     -10.049  11.460  63.813  1.00  0.00    -0.408 C  
HETATM    6  N   UNL     1      -9.928   9.366  65.150  1.00  0.00    -0.342 NA 
HETATM    7  C   UNL     1     -10.075   8.923  66.439  1.00  0.00    -0.263 A  
HETATM    8  H   UNL     1      -9.676   8.782  64.353  1.00  0.00     0.000 HD 
HETATM    9  C   UNL     1     -10.422   9.998  67.220  1.00  0.00    -0.313 A  
HETATM   10  C   UNL     1     -10.657   9.873  68.646  1.00  0.00    -0.217 C  
HETATM   11  O   UNL     1     -11.017  10.848  69.305  1.00  0.00    -0.212 OA 
HETATM   12  C   UNL     1     -10.500   8.483  69.279  1.00  0.00    -0.224 C  
HETATM   13  C   UNL     1     -10.262   7.283  68.322  1.00  0.00    -0.208 C  
HETATM   14  C   UNL     1      -9.875   7.523  66.857  1.00  0.00    -0.295 C  
BRANCH  12  15
HETATM   15  C   UNL     1      -9.454   8.510  70.422  1.00  0.00    -0.165 C  
BRANCH  15  16
HETATM   16  N   UNL     1      -9.573   7.405  71.379  1.00  0.00    -0.160 NA 
HETATM   17  C   UNL     1      -8.430   6.474  71.428  1.00  0.00    -0.125 C  
HETATM   18  C   UNL     1      -7.260   6.948  72.305  1.00  0.00    -0.078 C  
HETATM   19  O   UNL     1      -7.691   7.312  73.620  1.00  0.00    -0.101 OA 
HETATM   20  C   UNL     1      -8.714   8.314  73.554  1.00  0.00    -0.189 C  
HETATM   21  C   UNL     1      -9.921   7.821  72.745  1.00  0.00    -0.260 C  
ENDBRANCH  15  16
ENDBRANCH  12  15
ENDBRANCH   2   3
TORSDOF 3
ENDMDL
MODEL      109
REMARK 921   NORMALIZED FREE ENERGY PREDICTED BY IDOCK:   -3.95 KCAL/MOL
REMARK 922        TOTAL FREE ENERGY PREDICTED BY IDOCK:   -5.19 KCAL/MOL
REMARK 923 INTER-LIGAND FREE ENERGY PREDICTED BY IDOCK:   -4.71 KCAL/MOL
REMARK 924 INTRA-LIGAND FREE ENERGY PREDICTED BY IDOCK:   -0.48 KCAL/MOL
REMARK 927      BINDING AFFINITY PREDICTED BY RF-SCORE:    0.00 PKD
ROOT
HETATM    1  C   UNL     1      -7.784   6.784  69.461  1.00  0.00    -0.104 C  
HETATM    2  C   UNL     1      -8.885   7.809  69.686  1.00  0.00    -0.139 C  
ENDROOT
BRANCH   2   3
HETATM    3  C   UNL     1      -9.530   8.260  68.407  1.00  0.00    -0.144 A  
HETATM    4  C   UNL     1     -10.311   7.501  67.544  1.00  0.00    -0.252 A  
HETATM    5  C   UNL     1     -10.767   6.089  67.626  1.00  0.00    -0.377 C  
HETATM    6  N   UNL     1     -10.657   8.292  66.478  1.00  0.00    -0.298 NA 
HETATM    7  C   UNL     1     -10.146   9.552  66.652  1.00  0.00    -0.252 A  
HETATM    8  H   UNL     1     -11.211   7.989  65.677  1.00  0.00     0.000 HD 
HETATM    9  C   UNL     1      -9.459   9.571  67.840  1.00  0.00    -0.149 A  
HETATM   10  C   UNL     1      -8.789  10.761  68.327  1.00  0.00    -0.139 C  
HETATM   11  O   UNL     1      -8.139  10.726  69.372  1.00  0.00    -0.131 OA 
HETATM   12  C   UNL     1      -8.869  12.031  67.468  1.00  0.00    -0.172 C  
HETATM   13  C   UNL     1      -9.523  11.906  66.065  1.00  0.00    -0.241 C  
HETATM   14  C   UNL     1     -10.339  10.659  65.697  1.00  0.00    -0.285 C  
BRANCH  12  15
HETATM   15  C   UNL     1      -9.480  13.206  68.274  1.00  0.00    -0.210 C  
BRANCH  15  16
HETATM   16  N   UNL     1     -10.927  13.374  68.098  1.00  0.00    -0.246 NA 
HETATM   17  C   UNL     1     -11.777  12.412  68.824  1.00  0.00    -0.332 C  
HETATM   18  C   UNL     1     -12.036  12.777  70.295  1.00  0.00    -0.297 C  
HETATM   19  O   UNL     1     -12.525  14.114  70.436  1.00  0.00    -0.333 OA 
HETATM   20  C   UNL     1     -11.619  15.047  69.834  1.00  0.00    -0.293 C  
HETATM   21  C   UNL     1     -11.413  14.739  68.346  1.00  0.00    -0.314 C  
ENDBRANCH  15  16
ENDBRANCH  12  15
ENDBRANCH   2   3
TORSDOF 3
ENDMDL
MODEL      110
REMARK 921   NORMALIZED FREE ENERGY PREDICTED BY IDOCK:   -3.92 KCAL/MOL
REMARK 922        TOTAL FREE ENERGY PREDICTED BY IDOCK:   -5.15 KCAL/MOL
REMARK 923 INTER-LIGAND FREE ENERGY PREDICTED BY IDOCK:   -4.56 KCAL/MOL
REMARK 924 INTRA-LIGAND FREE ENERGY PREDICTED BY IDOCK:   -0.59 KCAL/MOL
REMARK 927      BINDING AFFINITY PREDICTED BY RF-SCORE:    0.00 PKD
ROOT
HETATM    1  C   UNL     1      -6.627   7.491  65.713  1.00  0.00    -0.045 C  
HETATM    2  C   UNL     1      -6.479   8.842  65.030  1.00  0.00    -0.065 C  
ENDROOT
BRANCH   2   3
HETATM    3  C   UNL     1      -7.791   9.404  64.564  1.00  0.00    -0.121 A  
HETATM    4  C   UNL     1      -8.519   9.027  63.444  1.00  0.00    -0.173 A  
HETATM    5  C   UNL     1      -8.268   7.975  62.424  1.00  0.00    -0.150 C  
HETATM    6  N   UNL     1      -9.631   9.828  63.369  1.00  0.00    -0.504 NA 
HETATM    7  C   UNL     1      -9.652  10.689  64.436  1.00  0.00    -0.295 A  
HETATM    8  H   UNL     1     -10.335   9.789  62.632  1.00  0.00     0.000 HD 
HETATM    9  C   UNL     1      -8.540  10.443  65.202  1.00  0.00    -0.189 A  
HETATM   10  C   UNL     1      -8.255  11.187  66.414  1.00  0.00    -0.164 C  
HETATM   11  O   UNL     1      -7.222  10.974  67.047  1.00  0.00    -0.107 OA 
HETATM   12  C   UNL     1      -9.250  12.279  66.834  1.00  0.00    -0.209 C  
HETATM   13  C   UNL     1     -10.401  12.617  65.848  1.00  0.00    -0.295 C  
HETATM   14  C   UNL     1     -10.716  11.683  64.672  1.00  0.00    -0.371 C  
BRANCH  12  15
HETATM   15  C   UNL     1      -9.790  12.014  68.263  1.00  0.00    -0.204 C  
BRANCH  15  16
HETATM   16  N   UNL     1     -10.832  10.985  68.336  1.00  0.00    -0.203 NA 
HETATM   17  C   UNL     1     -10.427   9.706  68.951  1.00  0.00    -0.215 C  
HETATM   18  C   UNL     1     -10.478   9.696  70.488  1.00  0.00    -0.303 C  
HETATM   19  O   UNL     1     -11.747  10.134  70.984  1.00  0.00    -0.337 OA 
HETATM   20  C   UNL     1     -12.063  11.435  70.474  1.00  0.00    -0.394 C  
HETATM   21  C   UNL     1     -12.092  11.440  68.941  1.00  0.00    -0.219 C  
ENDBRANCH  15  16
ENDBRANCH  12  15
ENDBRANCH   2   3
TORSDOF 3
ENDMDL
MODEL      111
REMARK 921   NORMALIZED FREE ENERGY PREDICTED BY IDOCK:   -3.91 KCAL/MOL
REMARK 922        TOTAL FREE ENERGY PREDICTED BY IDOCK:   -5.14 KCAL/MOL
REMARK 923 INTER-LIGAND FREE ENERGY PREDICTED BY IDOCK:   -4.93 KCAL/MOL
REMARK 924 INTRA-LIGAND FREE ENERGY PREDICTED BY IDOCK:   -0.21 KCAL/MOL
REMARK 927      BINDING AFFINITY PREDICTED BY RF-SCORE:    0.00 PKD
ROOT
HETATM    1  C   UNL     1      -7.062  12.254  67.981  1.00  0.00    -0.099 C  
HETATM    2  C   UNL     1      -7.922  11.079  67.545  1.00  0.00    -0.116 C  
ENDROOT
BRANCH   2   3
HETATM    3  C   UNL     1      -8.718  10.490  68.673  1.00  0.00    -0.143 A  
HETATM    4  C   UNL     1      -8.357   9.430  69.495  1.00  0.00    -0.127 A  
HETATM    5  C   UNL     1      -7.118   8.609  69.545  1.00  0.00    -0.055 C  
HETATM    6  N   UNL     1      -9.394   9.191  70.362  1.00  0.00    -0.212 NA 
HETATM    7  C   UNL     1     -10.399  10.096  70.139  1.00  0.00    -0.224 A  
HETATM    8  H   UNL     1      -9.414   8.452  71.065  1.00  0.00     0.000 HD 
HETATM    9  C   UNL     1     -10.007  10.922  69.115  1.00  0.00    -0.181 A  
HETATM   10  C   UNL     1     -10.848  11.998  68.625  1.00  0.00    -0.237 C  
HETATM   11  O   UNL     1     -10.485  12.685  67.670  1.00  0.00    -0.214 OA 
HETATM   12  C   UNL     1     -12.215  12.201  69.294  1.00  0.00    -0.106 C  
HETATM   13  C   UNL     1     -12.667  11.141  70.335  1.00  0.00    -0.247 C  
HETATM   14  C   UNL     1     -11.660  10.132  70.903  1.00  0.00    -0.459 C  
BRANCH  12  15
HETATM   15  C   UNL     1     -12.346  13.638  69.857  1.00  0.00    -0.249 C  
BRANCH  15  16
HETATM   16  N   UNL     1     -12.269  13.726  71.320  1.00  0.00    -0.302 NA 
HETATM   17  C   UNL     1     -11.429  14.815  71.853  1.00  0.00    -0.009 C  
HETATM   18  C   UNL     1     -12.131  16.181  71.929  1.00  0.00    -0.476 C  
HETATM   19  O   UNL     1     -13.381  16.101  72.620  1.00  0.00    -0.414 OA 
HETATM   20  C   UNL     1     -14.234  15.126  72.007  1.00  0.00    -0.577 C  
HETATM   21  C   UNL     1     -13.574  13.741  71.996  1.00  0.00    -0.479 C  
ENDBRANCH  15  16
ENDBRANCH  12  15
ENDBRANCH   2   3
TORSDOF 3
ENDMDL
MODEL      112
REMARK 921   NORMALIZED FREE ENERGY PREDICTED BY IDOCK:   -3.90 KCAL/MOL
REMARK 922        TOTAL FREE ENERGY PREDICTED BY IDOCK:   -5.13 KCAL/MOL
REMARK 923 INTER-LIGAND FREE ENERGY PREDICTED BY IDOCK:   -4.66 KCAL/MOL
REMARK 924 INTRA-LIGAND FREE ENERGY PREDICTED BY IDOCK:   -0.47 KCAL/MOL
REMARK 927      BINDING AFFINITY PREDICTED BY RF-SCORE:    0.00 PKD
ROOT
HETATM    1  C   UNL     1      -8.349  14.164  67.537  1.00  0.00    -0.194 C  
HETATM    2  C   UNL     1      -9.692  13.625  67.070  1.00  0.00    -0.251 C  
ENDROOT
BRANCH   2   3
HETATM    3  C   UNL     1     -10.532  13.101  68.199  1.00  0.00    -0.255 A  
HETATM    4  C   UNL     1     -11.442  13.810  68.972  1.00  0.00    -0.305 A  
HETATM    5  C   UNL     1     -11.882  15.229  68.908  1.00  0.00    -0.344 C  
HETATM    6  N   UNL     1     -11.953  12.958  69.918  1.00  0.00    -0.351 NA 
HETATM    7  C   UNL     1     -11.418  11.707  69.748  1.00  0.00    -0.264 A  
HETATM    8  H   UNL     1     -12.628  13.216  70.637  1.00  0.00     0.000 HD 
HETATM    9  C   UNL     1     -10.550  11.757  68.686  1.00  0.00    -0.250 A  
HETATM   10  C   UNL     1      -9.809  10.593  68.239  1.00  0.00    -0.163 C  
HETATM   11  O   UNL     1      -9.000  10.688  67.315  1.00  0.00    -0.136 OA 
HETATM   12  C   UNL     1     -10.023   9.273  68.993  1.00  0.00    -0.187 C  
HETATM   13  C   UNL     1     -10.893   9.316  70.279  1.00  0.00    -0.286 C  
HETATM   14  C   UNL     1     -11.759  10.544  70.589  1.00  0.00    -0.453 C  
BRANCH  12  15
HETATM   15  C   UNL     1     -10.496   8.156  68.028  1.00  0.00    -0.183 C  
BRANCH  15  16
HETATM   16  N   UNL     1      -9.731   6.908  68.123  1.00  0.00    -0.130 NA 
HETATM   17  C   UNL     1     -10.484   5.671  67.840  1.00  0.00    -0.211 C  
HETATM   18  C   UNL     1     -10.614   5.335  66.346  1.00  0.00    -0.276 C  
HETATM   19  O   UNL     1      -9.346   5.336  65.684  1.00  0.00    -0.161 OA 
HETATM   20  C   UNL     1      -8.685   6.594  65.865  1.00  0.00    -0.137 C  
HETATM   21  C   UNL     1      -8.479   6.904  67.353  1.00  0.00    -0.121 C  
ENDBRANCH  15  16
ENDBRANCH  12  15
ENDBRANCH   2   3
TORSDOF 3
ENDMDL
MODEL      113
REMARK 921   NORMALIZED FREE ENERGY PREDICTED BY IDOCK:   -3.87 KCAL/MOL
REMARK 922        TOTAL FREE ENERGY PREDICTED BY IDOCK:   -5.10 KCAL/MOL
REMARK 923 INTER-LIGAND FREE ENERGY PREDICTED BY IDOCK:   -4.64 KCAL/MOL
REMARK 924 INTRA-LIGAND FREE ENERGY PREDICTED BY IDOCK:   -0.46 KCAL/MOL
REMARK 927      BINDING AFFINITY PREDICTED BY RF-SCORE:    0.00 PKD
ROOT
HETATM    1  C   UNL     1      -9.508   5.702  70.093  1.00  0.00    -0.200 C  
HETATM    2  C   UNL     1     -10.861   6.324  69.785  1.00  0.00    -0.399 C  
ENDROOT
BRANCH   2   3
HETATM    3  C   UNL     1     -10.851   7.821  69.892  1.00  0.00    -0.228 A  
HETATM    4  C   UNL     1     -11.057   8.586  71.033  1.00  0.00    -0.260 A  
HETATM    5  C   UNL     1     -11.299   8.189  72.445  1.00  0.00    -0.456 C  
HETATM    6  N   UNL     1     -11.008   9.909  70.673  1.00  0.00    -0.318 NA 
HETATM    7  C   UNL     1     -10.740  10.013  69.332  1.00  0.00    -0.233 A  
HETATM    8  H   UNL     1     -11.148  10.696  71.307  1.00  0.00     0.000 HD 
HETATM    9  C   UNL     1     -10.622   8.744  68.824  1.00  0.00    -0.174 A  
HETATM   10  C   UNL     1     -10.340   8.495  67.423  1.00  0.00    -0.286 C  
HETATM   11  O   UNL     1     -10.292   7.343  66.992  1.00  0.00    -0.259 OA 
HETATM   12  C   UNL     1     -10.168   9.711  66.500  1.00  0.00    -0.294 C  
HETATM   13  C   UNL     1     -10.469  11.112  67.098  1.00  0.00    -0.270 C  
HETATM   14  C   UNL     1     -10.607  11.295  68.616  1.00  0.00    -0.231 C  
BRANCH  12  15
HETATM   15  C   UNL     1      -8.788   9.681  65.798  1.00  0.00    -0.157 C  
BRANCH  15  16
HETATM   16  N   UNL     1      -8.806   9.108  64.447  1.00  0.00    -0.163 NA 
HETATM   17  C   UNL     1      -9.268  10.010  63.375  1.00  0.00    -0.281 C  
HETATM   18  C   UNL     1      -8.184  10.953  62.828  1.00  0.00    -0.074 C  
HETATM   19  O   UNL     1      -7.003  10.244  62.440  1.00  0.00    -0.124 OA 
HETATM   20  C   UNL     1      -6.498   9.473  63.537  1.00  0.00    -0.103 C  
HETATM   21  C   UNL     1      -7.545   8.472  64.041  1.00  0.00    -0.124 C  
ENDBRANCH  15  16
ENDBRANCH  12  15
ENDBRANCH   2   3
TORSDOF 3
ENDMDL
MODEL      114
REMARK 921   NORMALIZED FREE ENERGY PREDICTED BY IDOCK:   -3.87 KCAL/MOL
REMARK 922        TOTAL FREE ENERGY PREDICTED BY IDOCK:   -5.09 KCAL/MOL
REMARK 923 INTER-LIGAND FREE ENERGY PREDICTED BY IDOCK:   -4.61 KCAL/MOL
REMARK 924 INTRA-LIGAND FREE ENERGY PREDICTED BY IDOCK:   -0.48 KCAL/MOL
REMARK 927      BINDING AFFINITY PREDICTED BY RF-SCORE:    0.00 PKD
ROOT
HETATM    1  C   UNL     1      -7.156  16.692  66.604  1.00  0.00    -0.257 C  
HETATM    2  C   UNL     1      -7.577  16.431  68.042  1.00  0.00    -0.158 C  
ENDROOT
BRANCH   2   3
HETATM    3  C   UNL     1      -9.029  16.074  68.167  1.00  0.00    -0.183 A  
HETATM    4  C   UNL     1     -10.108  16.947  68.249  1.00  0.00    -0.302 A  
HETATM    5  C   UNL     1     -10.169  18.431  68.200  1.00  0.00    -0.410 C  
HETATM    6  N   UNL     1     -11.249  16.200  68.399  1.00  0.00    -0.360 NA 
HETATM    7  C   UNL     1     -10.933  14.866  68.380  1.00  0.00    -0.261 A  
HETATM    8  H   UNL     1     -12.189  16.580  68.507  1.00  0.00     0.000 HD 
HETATM    9  C   UNL     1      -9.574  14.753  68.222  1.00  0.00    -0.215 A  
HETATM   10  C   UNL     1      -8.907  13.467  68.164  1.00  0.00    -0.180 C  
HETATM   11  O   UNL     1      -7.681  13.406  68.073  1.00  0.00    -0.118 OA 
HETATM   12  C   UNL     1      -9.772  12.204  68.280  1.00  0.00    -0.216 C  
HETATM   13  C   UNL     1     -11.277  12.396  68.614  1.00  0.00    -0.314 C  
HETATM   14  C   UNL     1     -11.926  13.782  68.506  1.00  0.00    -0.402 C  
BRANCH  12  15
HETATM   15  C   UNL     1      -9.580  11.287  67.046  1.00  0.00    -0.178 C  
BRANCH  15  16
HETATM   16  N   UNL     1      -8.743  10.107  67.291  1.00  0.00    -0.129 NA 
HETATM   17  C   UNL     1      -8.597   9.708  68.704  1.00  0.00    -0.120 C  
HETATM   18  C   UNL     1      -9.752   8.850  69.245  1.00  0.00    -0.165 C  
HETATM   19  O   UNL     1     -10.016   7.720  68.409  1.00  0.00    -0.167 OA 
HETATM   20  C   UNL     1     -10.282   8.140  67.065  1.00  0.00    -0.308 C  
HETATM   21  C   UNL     1      -9.102   8.931  66.487  1.00  0.00    -0.166 C  
ENDBRANCH  15  16
ENDBRANCH  12  15
ENDBRANCH   2   3
TORSDOF 3
ENDMDL
MODEL      115
REMARK 921   NORMALIZED FREE ENERGY PREDICTED BY IDOCK:   -3.86 KCAL/MOL
REMARK 922        TOTAL FREE ENERGY PREDICTED BY IDOCK:   -5.08 KCAL/MOL
REMARK 923 INTER-LIGAND FREE ENERGY PREDICTED BY IDOCK:   -4.44 KCAL/MOL
REMARK 924 INTRA-LIGAND FREE ENERGY PREDICTED BY IDOCK:   -0.64 KCAL/MOL
REMARK 927      BINDING AFFINITY PREDICTED BY RF-SCORE:    0.00 PKD
ROOT
HETATM    1  C   UNL     1      -9.160   6.608  70.243  1.00  0.00    -0.156 C  
HETATM    2  C   UNL     1     -10.552   6.873  69.694  1.00  0.00    -0.258 C  
ENDROOT
BRANCH   2   3
HETATM    3  C   UNL     1     -11.032   8.268  69.975  1.00  0.00    -0.197 A  
HETATM    4  C   UNL     1     -11.609   8.741  71.146  1.00  0.00    -0.289 A  
HETATM    5  C   UNL     1     -11.885   8.066  72.442  1.00  0.00    -0.429 C  
HETATM    6  N   UNL     1     -11.938  10.060  70.956  1.00  0.00    -0.346 NA 
HETATM    7  C   UNL     1     -11.554  10.455  69.700  1.00  0.00    -0.239 A  
HETATM    8  H   UNL     1     -12.399  10.655  71.644  1.00  0.00     0.000 HD 
HETATM    9  C   UNL     1     -10.977   9.378  69.075  1.00  0.00    -0.094 A  
HETATM   10  C   UNL     1     -10.460   9.456  67.722  1.00  0.00    -0.254 C  
HETATM   11  O   UNL     1      -9.996   8.456  67.174  1.00  0.00    -0.190 OA 
HETATM   12  C   UNL     1     -10.571  10.801  66.989  1.00  0.00    -0.312 C  
HETATM   13  C   UNL     1     -11.373  11.933  67.687  1.00  0.00    -0.372 C  
HETATM   14  C   UNL     1     -11.748  11.817  69.170  1.00  0.00    -0.388 C  
BRANCH  12  15
HETATM   15  C   UNL     1      -9.176  11.297  66.530  1.00  0.00    -0.188 C  
BRANCH  15  16
HETATM   16  N   UNL     1      -8.132  11.208  67.557  1.00  0.00    -0.116 NA 
HETATM   17  C   UNL     1      -6.916  10.468  67.172  1.00  0.00    -0.089 C  
HETATM   18  C   UNL     1      -5.893  11.296  66.377  1.00  0.00    -0.136 C  
HETATM   19  O   UNL     1      -5.570  12.524  67.037  1.00  0.00    -0.322 OA 
HETATM   20  C   UNL     1      -6.756  13.287  67.288  1.00  0.00     0.078 C  
HETATM   21  C   UNL     1      -7.752  12.499  68.147  1.00  0.00    -0.141 C  
ENDBRANCH  15  16
ENDBRANCH  12  15
ENDBRANCH   2   3
TORSDOF 3
ENDMDL
MODEL      116
REMARK 921   NORMALIZED FREE ENERGY PREDICTED BY IDOCK:   -3.85 KCAL/MOL
REMARK 922        TOTAL FREE ENERGY PREDICTED BY IDOCK:   -5.07 KCAL/MOL
REMARK 923 INTER-LIGAND FREE ENERGY PREDICTED BY IDOCK:   -4.59 KCAL/MOL
REMARK 924 INTRA-LIGAND FREE ENERGY PREDICTED BY IDOCK:   -0.48 KCAL/MOL
REMARK 927      BINDING AFFINITY PREDICTED BY RF-SCORE:    0.00 PKD
ROOT
HETATM    1  C   UNL     1      -9.579   3.966  67.563  1.00  0.00    -0.212 C  
HETATM    2  C   UNL     1      -8.376   4.893  67.484  1.00  0.00    -0.105 C  
ENDROOT
BRANCH   2   3
HETATM    3  C   UNL     1      -8.645   6.128  66.674  1.00  0.00    -0.118 A  
HETATM    4  C   UNL     1      -8.535   6.273  65.297  1.00  0.00    -0.111 A  
HETATM    5  C   UNL     1      -8.174   5.295  64.237  1.00  0.00    -0.132 C  
HETATM    6  N   UNL     1      -8.830   7.575  64.982  1.00  0.00    -0.348 NA 
HETATM    7  C   UNL     1      -9.162   8.263  66.121  1.00  0.00    -0.192 A  
HETATM    8  H   UNL     1      -8.806   7.972  64.042  1.00  0.00     0.000 HD 
HETATM    9  C   UNL     1      -9.074   7.395  67.181  1.00  0.00    -0.146 A  
HETATM   10  C   UNL     1      -9.360   7.806  68.542  1.00  0.00    -0.147 C  
HETATM   11  O   UNL     1      -9.221   7.013  69.473  1.00  0.00    -0.149 OA 
HETATM   12  C   UNL     1      -9.778   9.264  68.778  1.00  0.00    -0.162 C  
HETATM   13  C   UNL     1      -9.706  10.234  67.566  1.00  0.00    -0.196 C  
HETATM   14  C   UNL     1      -9.545   9.687  66.142  1.00  0.00    -0.295 C  
BRANCH  12  15
HETATM   15  C   UNL     1     -11.157   9.338  69.479  1.00  0.00    -0.080 C  
BRANCH  15  16
HETATM   16  N   UNL     1     -11.119   9.894  70.836  1.00  0.00    -0.340 NA 
HETATM   17  C   UNL     1     -12.299  10.682  71.240  1.00  0.00    -0.383 C  
HETATM   18  C   UNL     1     -13.481   9.842  71.749  1.00  0.00    -0.376 C  
HETATM   19  O   UNL     1     -13.085   8.931  72.779  1.00  0.00    -0.377 OA 
HETATM   20  C   UNL     1     -12.021   8.087  72.322  1.00  0.00    -0.358 C  
HETATM   21  C   UNL     1     -10.806   8.913  71.885  1.00  0.00    -0.363 C  
ENDBRANCH  15  16
ENDBRANCH  12  15
ENDBRANCH   2   3
TORSDOF 3
ENDMDL
MODEL      117
REMARK 921   NORMALIZED FREE ENERGY PREDICTED BY IDOCK:   -3.85 KCAL/MOL
REMARK 922        TOTAL FREE ENERGY PREDICTED BY IDOCK:   -5.06 KCAL/MOL
REMARK 923 INTER-LIGAND FREE ENERGY PREDICTED BY IDOCK:   -4.45 KCAL/MOL
REMARK 924 INTRA-LIGAND FREE ENERGY PREDICTED BY IDOCK:   -0.62 KCAL/MOL
REMARK 927      BINDING AFFINITY PREDICTED BY RF-SCORE:    0.00 PKD
ROOT
HETATM    1  C   UNL     1      -6.189  17.993  67.596  1.00  0.00    -0.174 C  
HETATM    2  C   UNL     1      -7.131  18.357  68.732  1.00  0.00    -0.299 C  
ENDROOT
BRANCH   2   3
HETATM    3  C   UNL     1      -8.575  18.155  68.378  1.00  0.00    -0.310 A  
HETATM    4  C   UNL     1      -9.424  19.058  67.750  1.00  0.00    -0.304 A  
HETATM    5  C   UNL     1      -9.176  20.426  67.221  1.00  0.00    -0.525 C  
HETATM    6  N   UNL     1     -10.667  18.484  67.661  1.00  0.00    -0.412 NA 
HETATM    7  C   UNL     1     -10.629  17.218  68.186  1.00  0.00    -0.386 A  
HETATM    8  H   UNL     1     -11.493  18.932  67.265  1.00  0.00     0.000 HD 
HETATM    9  C   UNL     1      -9.350  16.978  68.622  1.00  0.00    -0.270 A  
HETATM   10  C   UNL     1      -8.966  15.721  69.236  1.00  0.00    -0.266 C  
HETATM   11  O   UNL     1      -7.823  15.560  69.662  1.00  0.00    -0.213 OA 
HETATM   12  C   UNL     1     -10.045  14.639  69.388  1.00  0.00    -0.068 C  
HETATM   13  C   UNL     1     -11.504  15.026  69.023  1.00  0.00    -0.322 C  
HETATM   14  C   UNL     1     -11.792  16.314  68.240  1.00  0.00     0.177 C  
BRANCH  12  15
HETATM   15  C   UNL     1      -9.615  13.327  68.684  1.00  0.00    -0.048 C  
BRANCH  15  16
HETATM   16  N   UNL     1      -9.226  13.492  67.280  1.00  0.00    -0.223 NA 
HETATM   17  C   UNL     1      -7.945  12.871  66.893  1.00  0.00     0.079 C  
HETATM   18  C   UNL     1      -8.039  11.372  66.565  1.00  0.00    -0.141 C  
HETATM   19  O   UNL     1      -9.062  11.098  65.603  1.00  0.00    -0.205 OA 
HETATM   20  C   UNL     1     -10.326  11.598  66.057  1.00  0.00    -0.243 C  
HETATM   21  C   UNL     1     -10.265  13.109  66.313  1.00  0.00    -0.293 C  
ENDBRANCH  15  16
ENDBRANCH  12  15
ENDBRANCH   2   3
TORSDOF 3
ENDMDL
MODEL      118
REMARK 921   NORMALIZED FREE ENERGY PREDICTED BY IDOCK:   -3.84 KCAL/MOL
REMARK 922        TOTAL FREE ENERGY PREDICTED BY IDOCK:   -5.06 KCAL/MOL
REMARK 923 INTER-LIGAND FREE ENERGY PREDICTED BY IDOCK:   -4.47 KCAL/MOL
REMARK 924 INTRA-LIGAND FREE ENERGY PREDICTED BY IDOCK:   -0.59 KCAL/MOL
REMARK 927      BINDING AFFINITY PREDICTED BY RF-SCORE:    0.00 PKD
ROOT
HETATM    1  C   UNL     1      -8.514   8.080  65.981  1.00  0.00    -0.144 C  
HETATM    2  C   UNL     1      -8.547   6.619  66.402  1.00  0.00    -0.130 C  
ENDROOT
BRANCH   2   3
HETATM    3  C   UNL     1      -8.142   6.417  67.833  1.00  0.00    -0.115 A  
HETATM    4  C   UNL     1      -6.852   6.369  68.345  1.00  0.00    -0.071 A  
HETATM    5  C   UNL     1      -5.531   6.534  67.682  1.00  0.00    -0.005 C  
HETATM    6  N   UNL     1      -6.937   6.121  69.691  1.00  0.00    -0.068 NA 
HETATM    7  C   UNL     1      -8.254   6.043  70.064  1.00  0.00    -0.122 A  
HETATM    8  H   UNL     1      -6.141   6.011  70.320  1.00  0.00     0.000 HD 
HETATM    9  C   UNL     1      -9.024   6.237  68.944  1.00  0.00    -0.126 A  
HETATM   10  C   UNL     1     -10.474   6.215  68.989  1.00  0.00    -0.248 C  
HETATM   11  O   UNL     1     -11.130   6.342  67.956  1.00  0.00    -0.333 OA 
HETATM   12  C   UNL     1     -11.145   5.968  70.348  1.00  0.00    -0.399 C  
HETATM   13  C   UNL     1     -10.225   5.599  71.545  1.00  0.00    -0.263 C  
HETATM   14  C   UNL     1      -8.707   5.797  71.446  1.00  0.00    -0.133 C  
BRANCH  12  15
HETATM   15  C   UNL     1     -12.104   7.130  70.710  1.00  0.00    -0.288 C  
BRANCH  15  16
HETATM   16  N   UNL     1     -11.566   8.077  71.694  1.00  0.00    -0.264 NA 
HETATM   17  C   UNL     1     -10.653   9.106  71.161  1.00  0.00    -0.309 C  
HETATM   18  C   UNL     1     -11.360  10.328  70.552  1.00  0.00    -0.341 C  
HETATM   19  O   UNL     1     -12.317  10.896  71.452  1.00  0.00    -0.346 OA 
HETATM   20  C   UNL     1     -13.272   9.908  71.858  1.00  0.00    -0.458 C  
HETATM   21  C   UNL     1     -12.584   8.718  72.538  1.00  0.00    -0.306 C  
ENDBRANCH  15  16
ENDBRANCH  12  15
ENDBRANCH   2   3
TORSDOF 3
ENDMDL
MODEL      119
REMARK 921   NORMALIZED FREE ENERGY PREDICTED BY IDOCK:   -3.79 KCAL/MOL
REMARK 922        TOTAL FREE ENERGY PREDICTED BY IDOCK:   -5.00 KCAL/MOL
REMARK 923 INTER-LIGAND FREE ENERGY PREDICTED BY IDOCK:   -4.74 KCAL/MOL
REMARK 924 INTRA-LIGAND FREE ENERGY PREDICTED BY IDOCK:   -0.26 KCAL/MOL
REMARK 927      BINDING AFFINITY PREDICTED BY RF-SCORE:    0.00 PKD
ROOT
HETATM    1  C   UNL     1     -11.249  14.335  69.058  1.00  0.00    -0.294 C  
HETATM    2  C   UNL     1     -12.254  13.410  68.390  1.00  0.00    -0.127 C  
ENDROOT
BRANCH   2   3
HETATM    3  C   UNL     1     -11.610  12.211  67.758  1.00  0.00    -0.410 A  
HETATM    4  C   UNL     1     -11.214  12.066  66.435  1.00  0.00    -0.337 A  
HETATM    5  C   UNL     1     -11.261  13.015  65.291  1.00  0.00    -0.316 C  
HETATM    6  N   UNL     1     -10.714  10.798  66.276  1.00  0.00    -0.185 NA 
HETATM    7  C   UNL     1     -10.748  10.135  67.476  1.00  0.00    -0.290 A  
HETATM    8  H   UNL     1     -10.370  10.408  65.399  1.00  0.00     0.000 HD 
HETATM    9  C   UNL     1     -11.280  10.984  68.414  1.00  0.00    -0.337 A  
HETATM   10  C   UNL     1     -11.458  10.590  69.799  1.00  0.00    -0.294 C  
HETATM   11  O   UNL     1     -11.986  11.360  70.602  1.00  0.00    -0.352 OA 
HETATM   12  C   UNL     1     -11.026   9.173  70.203  1.00  0.00    -0.267 C  
HETATM   13  C   UNL     1     -10.581   8.210  69.069  1.00  0.00    -0.167 C  
HETATM   14  C   UNL     1     -10.275   8.751  67.666  1.00  0.00    -0.298 C  
BRANCH  12  15
HETATM   15  C   UNL     1      -9.982   9.219  71.348  1.00  0.00    -0.253 C  
BRANCH  15  16
HETATM   16  N   UNL     1      -9.033   8.101  71.348  1.00  0.00    -0.140 NA 
HETATM   17  C   UNL     1      -7.689   8.401  71.879  1.00  0.00    -0.121 C  
HETATM   18  C   UNL     1      -7.582   8.334  73.410  1.00  0.00    -0.122 C  
HETATM   19  O   UNL     1      -8.082   7.098  73.928  1.00  0.00    -0.108 OA 
HETATM   20  C   UNL     1      -9.435   6.886  73.505  1.00  0.00    -0.178 C  
HETATM   21  C   UNL     1      -9.542   6.873  71.975  1.00  0.00    -0.142 C  
ENDBRANCH  15  16
ENDBRANCH  12  15
ENDBRANCH   2   3
TORSDOF 3
ENDMDL
MODEL      120
REMARK 921   NORMALIZED FREE ENERGY PREDICTED BY IDOCK:   -3.79 KCAL/MOL
REMARK 922        TOTAL FREE ENERGY PREDICTED BY IDOCK:   -4.99 KCAL/MOL
REMARK 923 INTER-LIGAND FREE ENERGY PREDICTED BY IDOCK:   -4.39 KCAL/MOL
REMARK 924 INTRA-LIGAND FREE ENERGY PREDICTED BY IDOCK:   -0.60 KCAL/MOL
REMARK 927      BINDING AFFINITY PREDICTED BY RF-SCORE:    0.00 PKD
ROOT
HETATM    1  C   UNL     1     -10.725   3.248  73.974  1.00  0.00    -0.283 C  
HETATM    2  C   UNL     1      -9.347   3.589  73.430  1.00  0.00    -0.116 C  
ENDROOT
BRANCH   2   3
HETATM    3  C   UNL     1      -9.378   4.007  71.989  1.00  0.00    -0.187 A  
HETATM    4  C   UNL     1      -9.496   3.185  70.875  1.00  0.00    -0.160 A  
HETATM    5  C   UNL     1      -9.661   1.711  70.761  1.00  0.00    -0.166 C  
HETATM    6  N   UNL     1      -9.434   3.974  69.755  1.00  0.00    -0.180 NA 
HETATM    7  C   UNL     1      -9.315   5.290  70.123  1.00  0.00    -0.153 A  
HETATM    8  H   UNL     1      -9.472   3.635  68.794  1.00  0.00     0.000 HD 
HETATM    9  C   UNL     1      -9.293   5.346  71.495  1.00  0.00    -0.177 A  
HETATM   10  C   UNL     1      -9.173   6.599  72.215  1.00  0.00    -0.136 C  
HETATM   11  O   UNL     1      -9.105   6.606  73.444  1.00  0.00    -0.123 OA 
HETATM   12  C   UNL     1      -9.072   7.892  71.392  1.00  0.00    -0.163 C  
HETATM   13  C   UNL     1      -8.943   7.751  69.851  1.00  0.00    -0.146 C  
HETATM   14  C   UNL     1      -9.234   6.409  69.167  1.00  0.00    -0.133 C  
BRANCH  12  15
HETATM   15  C   UNL     1     -10.201   8.881  71.777  1.00  0.00    -0.344 C  
BRANCH  15  16
HETATM   16  N   UNL     1     -11.388   8.811  70.917  1.00  0.00    -0.268 NA 
HETATM   17  C   UNL     1     -12.515   8.018  71.444  1.00  0.00    -0.301 C  
HETATM   18  C   UNL     1     -13.421   8.778  72.427  1.00  0.00    -0.401 C  
HETATM   19  O   UNL     1     -13.869  10.025  71.887  1.00  0.00    -0.199 OA 
HETATM   20  C   UNL     1     -12.752  10.834  71.498  1.00  0.00    -0.431 C  
HETATM   21  C   UNL     1     -11.882  10.117  70.458  1.00  0.00    -0.321 C  
ENDBRANCH  15  16
ENDBRANCH  12  15
ENDBRANCH   2   3
TORSDOF 3
ENDMDL
MODEL      121
REMARK 921   NORMALIZED FREE ENERGY PREDICTED BY IDOCK:   -3.78 KCAL/MOL
REMARK 922        TOTAL FREE ENERGY PREDICTED BY IDOCK:   -4.99 KCAL/MOL
REMARK 923 INTER-LIGAND FREE ENERGY PREDICTED BY IDOCK:   -4.67 KCAL/MOL
REMARK 924 INTRA-LIGAND FREE ENERGY PREDICTED BY IDOCK:   -0.32 KCAL/MOL
REMARK 927      BINDING AFFINITY PREDICTED BY RF-SCORE:    0.00 PKD
ROOT
HETATM    1  C   UNL     1     -12.376   6.794  72.013  1.00  0.00    -0.311 C  
HETATM    2  C   UNL     1     -11.985   8.242  72.265  1.00  0.00    -0.448 C  
ENDROOT
BRANCH   2   3
HETATM    3  C   UNL     1     -10.527   8.502  72.020  1.00  0.00    -0.407 A  
HETATM    4  C   UNL     1      -9.452   8.059  72.780  1.00  0.00    -0.269 A  
HETATM    5  C   UNL     1      -9.400   7.200  73.993  1.00  0.00    -0.291 C  
HETATM    6  N   UNL     1      -8.302   8.563  72.226  1.00  0.00    -0.304 NA 
HETATM    7  C   UNL     1      -8.610   9.291  71.106  1.00  0.00    -0.025 A  
HETATM    8  H   UNL     1      -7.361   8.418  72.592  1.00  0.00     0.000 HD 
HETATM    9  C   UNL     1      -9.973   9.260  70.941  1.00  0.00    -0.367 A  
HETATM   10  C   UNL     1     -10.634   9.937  69.842  1.00  0.00    -0.273 C  
HETATM   11  O   UNL     1     -11.862   9.930  69.755  1.00  0.00    -0.106 OA 
HETATM   12  C   UNL     1      -9.758  10.705  68.842  1.00  0.00    -0.210 C  
HETATM   13  C   UNL     1      -8.245  10.836  69.169  1.00  0.00    -0.124 C  
HETATM   14  C   UNL     1      -7.608   9.964  70.259  1.00  0.00    -0.172 C  
BRANCH  12  15
HETATM   15  C   UNL     1      -9.981  10.186  67.399  1.00  0.00    -0.195 C  
BRANCH  15  16
HETATM   16  N   UNL     1      -8.944  10.589  66.442  1.00  0.00    -0.156 NA 
HETATM   17  C   UNL     1      -8.111   9.497  65.903  1.00  0.00    -0.115 C  
HETATM   18  C   UNL     1      -8.739   8.743  64.720  1.00  0.00    -0.097 C  
HETATM   19  O   UNL     1      -9.166   9.634  63.684  1.00  0.00    -0.247 OA 
HETATM   20  C   UNL     1     -10.076  10.610  64.204  1.00  0.00    -0.334 C  
HETATM   21  C   UNL     1      -9.433  11.422  65.335  1.00  0.00    -0.216 C  
ENDBRANCH  15  16
ENDBRANCH  12  15
ENDBRANCH   2   3
TORSDOF 3
ENDMDL
MODEL      122
REMARK 921   NORMALIZED FREE ENERGY PREDICTED BY IDOCK:   -3.77 KCAL/MOL
REMARK 922        TOTAL FREE ENERGY PREDICTED BY IDOCK:   -4.98 KCAL/MOL
REMARK 923 INTER-LIGAND FREE ENERGY PREDICTED BY IDOCK:   -4.61 KCAL/MOL
REMARK 924 INTRA-LIGAND FREE ENERGY PREDICTED BY IDOCK:   -0.37 KCAL/MOL
REMARK 927      BINDING AFFINITY PREDICTED BY RF-SCORE:    0.00 PKD
ROOT
HETATM    1  C   UNL     1     -11.955  15.285  71.780  1.00  0.00    -0.453 C  
HETATM    2  C   UNL     1     -12.276  14.998  70.322  1.00  0.00    -0.390 C  
ENDROOT
BRANCH   2   3
HETATM    3  C   UNL     1     -11.180  14.248  69.622  1.00  0.00    -0.256 A  
HETATM    4  C   UNL     1     -11.124  12.885  69.361  1.00  0.00    -0.068 A  
HETATM    5  C   UNL     1     -12.097  11.796  69.642  1.00  0.00    -0.323 C  
HETATM    6  N   UNL     1      -9.929  12.618  68.743  1.00  0.00    -0.424 NA 
HETATM    7  C   UNL     1      -9.229  13.784  68.569  1.00  0.00    -0.138 A  
HETATM    8  H   UNL     1      -9.609  11.693  68.457  1.00  0.00     0.000 HD 
HETATM    9  C   UNL     1      -9.980  14.811  69.085  1.00  0.00    -0.184 A  
HETATM   10  C   UNL     1      -9.525  16.188  69.063  1.00  0.00    -0.246 C  
HETATM   11  O   UNL     1     -10.203  17.075  69.581  1.00  0.00    -0.161 OA 
HETATM   12  C   UNL     1      -8.156  16.481  68.431  1.00  0.00    -0.196 C  
HETATM   13  C   UNL     1      -7.287  15.264  68.010  1.00  0.00    -0.133 C  
HETATM   14  C   UNL     1      -7.904  13.862  67.925  1.00  0.00    -0.161 C  
BRANCH  12  15
HETATM   15  C   UNL     1      -8.287  17.508  67.279  1.00  0.00    -0.213 C  
BRANCH  15  16
HETATM   16  N   UNL     1      -7.021  18.124  66.869  1.00  0.00    -0.185 NA 
HETATM   17  C   UNL     1      -7.075  18.947  65.645  1.00  0.00    -0.196 C  
HETATM   18  C   UNL     1      -7.563  20.387  65.868  1.00  0.00    -0.083 C  
HETATM   19  O   UNL     1      -6.831  21.045  66.907  1.00  0.00    -0.306 OA 
HETATM   20  C   UNL     1      -6.898  20.292  68.124  1.00  0.00    -0.289 C  
HETATM   21  C   UNL     1      -6.340  18.877  67.932  1.00  0.00    -0.204 C  
ENDBRANCH  15  16
ENDBRANCH  12  15
ENDBRANCH   2   3
TORSDOF 3
ENDMDL
MODEL      123
REMARK 921   NORMALIZED FREE ENERGY PREDICTED BY IDOCK:   -3.73 KCAL/MOL
REMARK 922        TOTAL FREE ENERGY PREDICTED BY IDOCK:   -4.92 KCAL/MOL
REMARK 923 INTER-LIGAND FREE ENERGY PREDICTED BY IDOCK:   -4.49 KCAL/MOL
REMARK 924 INTRA-LIGAND FREE ENERGY PREDICTED BY IDOCK:   -0.44 KCAL/MOL
REMARK 927      BINDING AFFINITY PREDICTED BY RF-SCORE:    0.00 PKD
ROOT
HETATM    1  C   UNL     1     -11.267   8.261  72.607  1.00  0.00    -0.410 C  
HETATM    2  C   UNL     1      -9.886   7.963  72.047  1.00  0.00    -0.250 C  
ENDROOT
BRANCH   2   3
HETATM    3  C   UNL     1      -9.910   6.927  70.960  1.00  0.00    -0.185 A  
HETATM    4  C   UNL     1     -10.141   5.565  71.099  1.00  0.00    -0.207 A  
HETATM    5  C   UNL     1     -10.460   4.745  72.298  1.00  0.00    -0.255 C  
HETATM    6  N   UNL     1     -10.027   4.985  69.861  1.00  0.00    -0.231 NA 
HETATM    7  C   UNL     1      -9.763   5.949  68.923  1.00  0.00    -0.135 A  
HETATM    8  H   UNL     1     -10.125   3.988  69.668  1.00  0.00     0.000 HD 
HETATM    9  C   UNL     1      -9.700   7.161  69.565  1.00  0.00    -0.157 A  
HETATM   10  C   UNL     1      -9.433   8.398  68.857  1.00  0.00    -0.147 C  
HETATM   11  O   UNL     1      -9.333   9.459  69.474  1.00  0.00    -0.161 OA 
HETATM   12  C   UNL     1      -9.220   8.323  67.338  1.00  0.00    -0.163 C  
HETATM   13  C   UNL     1      -9.146   6.912  66.694  1.00  0.00    -0.172 C  
HETATM   14  C   UNL     1      -9.591   5.674  67.484  1.00  0.00    -0.124 C  
BRANCH  12  15
HETATM   15  C   UNL     1     -10.231   9.231  66.593  1.00  0.00    -0.253 C  
BRANCH  15  16
HETATM   16  N   UNL     1      -9.666  10.493  66.103  1.00  0.00    -0.199 NA 
HETATM   17  C   UNL     1      -9.724  10.697  64.643  1.00  0.00    -0.302 C  
HETATM   18  C   UNL     1     -11.067  11.240  64.130  1.00  0.00    -0.233 C  
HETATM   19  O   UNL     1     -11.474  12.416  64.837  1.00  0.00    -0.313 OA 
HETATM   20  C   UNL     1     -11.535  12.160  66.246  1.00  0.00    -0.374 C  
HETATM   21  C   UNL     1     -10.177  11.691  66.784  1.00  0.00    -0.217 C  
ENDBRANCH  15  16
ENDBRANCH  12  15
ENDBRANCH   2   3
TORSDOF 3
ENDMDL
MODEL      124
REMARK 921   NORMALIZED FREE ENERGY PREDICTED BY IDOCK:   -3.71 KCAL/MOL
REMARK 922        TOTAL FREE ENERGY PREDICTED BY IDOCK:   -4.91 KCAL/MOL
REMARK 923 INTER-LIGAND FREE ENERGY PREDICTED BY IDOCK:   -4.51 KCAL/MOL
REMARK 924 INTRA-LIGAND FREE ENERGY PREDICTED BY IDOCK:   -0.39 KCAL/MOL
REMARK 927      BINDING AFFINITY PREDICTED BY RF-SCORE:    0.00 PKD
ROOT
HETATM    1  C   UNL     1     -11.449  15.615  67.953  1.00  0.00    -0.253 C  
HETATM    2  C   UNL     1     -10.648  14.895  69.026  1.00  0.00    -0.245 C  
ENDROOT
BRANCH   2   3
HETATM    3  C   UNL     1     -11.169  13.517  69.315  1.00  0.00    -0.285 A  
HETATM    4  C   UNL     1     -12.071  13.147  70.305  1.00  0.00    -0.328 A  
HETATM    5  C   UNL     1     -12.800  13.958  71.314  1.00  0.00    -0.435 C  
HETATM    6  N   UNL     1     -12.235  11.786  70.244  1.00  0.00    -0.320 NA 
HETATM    7  C   UNL     1     -11.487  11.276  69.214  1.00  0.00    -0.301 A  
HETATM    8  H   UNL     1     -12.825  11.237  70.869  1.00  0.00     0.000 HD 
HETATM    9  C   UNL     1     -10.829  12.319  68.611  1.00  0.00    -0.268 A  
HETATM   10  C   UNL     1      -9.944  12.123  67.479  1.00  0.00    -0.197 C  
HETATM   11  O   UNL     1      -9.332  13.076  66.996  1.00  0.00    -0.221 OA 
HETATM   12  C   UNL     1      -9.756  10.692  66.955  1.00  0.00    -0.213 C  
HETATM   13  C   UNL     1     -10.399   9.539  67.774  1.00  0.00    -0.291 C  
HETATM   14  C   UNL     1     -11.439   9.846  68.859  1.00  0.00     0.022 C  
BRANCH  12  15
HETATM   15  C   UNL     1     -10.135  10.598  65.455  1.00  0.00    -0.280 C  
BRANCH  15  16
HETATM   16  N   UNL     1      -9.081  11.040  64.534  1.00  0.00    -0.156 NA 
HETATM   17  C   UNL     1      -7.833  10.254  64.566  1.00  0.00    -0.116 C  
HETATM   18  C   UNL     1      -7.868   8.972  63.719  1.00  0.00    -0.137 C  
HETATM   19  O   UNL     1      -8.288   9.229  62.375  1.00  0.00    -0.150 OA 
HETATM   20  C   UNL     1      -9.565   9.879  62.364  1.00  0.00     0.017 C  
HETATM   21  C   UNL     1      -9.522  11.200  63.141  1.00  0.00    -0.357 C  
ENDBRANCH  15  16
ENDBRANCH  12  15
ENDBRANCH   2   3
TORSDOF 3
ENDMDL
MODEL      125
REMARK 921   NORMALIZED FREE ENERGY PREDICTED BY IDOCK:   -3.71 KCAL/MOL
REMARK 922        TOTAL FREE ENERGY PREDICTED BY IDOCK:   -4.90 KCAL/MOL
REMARK 923 INTER-LIGAND FREE ENERGY PREDICTED BY IDOCK:   -4.47 KCAL/MOL
REMARK 924 INTRA-LIGAND FREE ENERGY PREDICTED BY IDOCK:   -0.43 KCAL/MOL
REMARK 927      BINDING AFFINITY PREDICTED BY RF-SCORE:    0.00 PKD
ROOT
HETATM    1  C   UNL     1     -13.329   7.658  71.666  1.00  0.00    -0.400 C  
HETATM    2  C   UNL     1     -12.144   8.564  71.960  1.00  0.00    -0.428 C  
ENDROOT
BRANCH   2   3
HETATM    3  C   UNL     1     -11.944   9.619  70.910  1.00  0.00    -0.391 A  
HETATM    4  C   UNL     1     -12.441  10.916  70.914  1.00  0.00    -0.408 A  
HETATM    5  C   UNL     1     -13.252  11.649  71.921  1.00  0.00    -0.475 C  
HETATM    6  N   UNL     1     -12.058  11.522  69.744  1.00  0.00    -0.315 NA 
HETATM    7  C   UNL     1     -11.296  10.655  69.003  1.00  0.00    -0.277 A  
HETATM    8  H   UNL     1     -12.302  12.472  69.467  1.00  0.00     0.000 HD 
HETATM    9  C   UNL     1     -11.193   9.478  69.702  1.00  0.00    -0.138 A  
HETATM   10  C   UNL     1     -10.449   8.340  69.194  1.00  0.00    -0.206 C  
HETATM   11  O   UNL     1     -10.422   7.284  69.825  1.00  0.00    -0.215 OA 
HETATM   12  C   UNL     1      -9.760   8.486  67.830  1.00  0.00    -0.193 C  
HETATM   13  C   UNL     1     -10.043   9.780  67.019  1.00  0.00    -0.277 C  
HETATM   14  C   UNL     1     -10.709  10.987  67.692  1.00  0.00    -0.281 C  
BRANCH  12  15
HETATM   15  C   UNL     1      -8.239   8.214  67.948  1.00  0.00    -0.129 C  
BRANCH  15  16
HETATM   16  N   UNL     1      -7.854   6.814  67.733  1.00  0.00    -0.111 NA 
HETATM   17  C   UNL     1      -7.774   6.380  66.326  1.00  0.00    -0.099 C  
HETATM   18  C   UNL     1      -6.447   6.724  65.630  1.00  0.00    -0.050 C  
HETATM   19  O   UNL     1      -5.316   6.272  66.380  1.00  0.00    -0.012 OA 
HETATM   20  C   UNL     1      -5.346   6.809  67.708  1.00  0.00    -0.012 C  
HETATM   21  C   UNL     1      -6.632   6.406  68.441  1.00  0.00    -0.058 C  
ENDBRANCH  15  16
ENDBRANCH  12  15
ENDBRANCH   2   3
TORSDOF 3
ENDMDL
MODEL      126
REMARK 921   NORMALIZED FREE ENERGY PREDICTED BY IDOCK:   -3.68 KCAL/MOL
REMARK 922        TOTAL FREE ENERGY PREDICTED BY IDOCK:   -4.87 KCAL/MOL
REMARK 923 INTER-LIGAND FREE ENERGY PREDICTED BY IDOCK:   -4.37 KCAL/MOL
REMARK 924 INTRA-LIGAND FREE ENERGY PREDICTED BY IDOCK:   -0.49 KCAL/MOL
REMARK 927      BINDING AFFINITY PREDICTED BY RF-SCORE:    0.00 PKD
ROOT
HETATM    1  C   UNL     1     -12.796  11.935  71.184  1.00  0.00    -0.346 C  
HETATM    2  C   UNL     1     -12.487  11.089  69.959  1.00  0.00    -0.319 C  
ENDROOT
BRANCH   2   3
HETATM    3  C   UNL     1     -11.223  10.293  70.106  1.00  0.00    -0.387 A  
HETATM    4  C   UNL     1     -10.986   9.241  70.982  1.00  0.00    -0.320 A  
HETATM    5  C   UNL     1     -11.874   8.576  71.972  1.00  0.00    -0.429 C  
HETATM    6  N   UNL     1      -9.687   8.832  70.816  1.00  0.00    -0.192 NA 
HETATM    7  C   UNL     1      -9.092   9.575  69.829  1.00  0.00    -0.205 A  
HETATM    8  H   UNL     1      -9.233   8.089  71.347  1.00  0.00     0.000 HD 
HETATM    9  C   UNL     1     -10.017  10.474  69.359  1.00  0.00    -0.220 A  
HETATM   10  C   UNL     1      -9.709  11.419  68.302  1.00  0.00    -0.202 C  
HETATM   11  O   UNL     1     -10.547  12.244  67.942  1.00  0.00    -0.202 OA 
HETATM   12  C   UNL     1      -8.295  11.389  67.704  1.00  0.00    -0.129 C  
HETATM   13  C   UNL     1      -7.249  10.462  68.383  1.00  0.00    -0.080 C  
HETATM   14  C   UNL     1      -7.698   9.390  69.386  1.00  0.00    -0.085 C  
BRANCH  12  15
HETATM   15  C   UNL     1      -8.347  11.156  66.173  1.00  0.00    -0.144 C  
BRANCH  15  16
HETATM   16  N   UNL     1      -9.356  10.182  65.742  1.00  0.00    -0.175 NA 
HETATM   17  C   UNL     1      -9.991  10.452  64.438  1.00  0.00    -0.318 C  
HETATM   18  C   UNL     1      -9.182   9.969  63.224  1.00  0.00    -0.284 C  
HETATM   19  O   UNL     1      -8.805   8.594  63.345  1.00  0.00     0.009 OA 
HETATM   20  C   UNL     1      -8.076   8.377  64.560  1.00  0.00    -0.152 C  
HETATM   21  C   UNL     1      -8.905   8.783  65.784  1.00  0.00    -0.195 C  
ENDBRANCH  15  16
ENDBRANCH  12  15
ENDBRANCH   2   3
TORSDOF 3
ENDMDL
MODEL      127
REMARK 921   NORMALIZED FREE ENERGY PREDICTED BY IDOCK:   -3.68 KCAL/MOL
REMARK 922        TOTAL FREE ENERGY PREDICTED BY IDOCK:   -4.87 KCAL/MOL
REMARK 923 INTER-LIGAND FREE ENERGY PREDICTED BY IDOCK:   -4.40 KCAL/MOL
REMARK 924 INTRA-LIGAND FREE ENERGY PREDICTED BY IDOCK:   -0.47 KCAL/MOL
REMARK 927      BINDING AFFINITY PREDICTED BY RF-SCORE:    0.00 PKD
ROOT
HETATM    1  C   UNL     1     -12.336  15.042  64.782  1.00  0.00    -0.162 C  
HETATM    2  C   UNL     1     -10.968  15.654  64.528  1.00  0.00    -0.220 C  
ENDROOT
BRANCH   2   3
HETATM    3  C   UNL     1     -10.246  16.012  65.795  1.00  0.00    -0.401 A  
HETATM    4  C   UNL     1     -10.117  17.273  66.364  1.00  0.00    -0.316 A  
HETATM    5  C   UNL     1     -10.656  18.594  65.945  1.00  0.00    -0.365 C  
HETATM    6  N   UNL     1      -9.342  17.154  67.490  1.00  0.00    -0.236 NA 
HETATM    7  C   UNL     1      -8.999  15.840  67.678  1.00  0.00    -0.187 A  
HETATM    8  H   UNL     1      -9.064  17.926  68.095  1.00  0.00     0.000 HD 
HETATM    9  C   UNL     1      -9.554  15.107  66.659  1.00  0.00    -0.272 A  
HETATM   10  C   UNL     1      -9.381  13.670  66.557  1.00  0.00    -0.228 C  
HETATM   11  O   UNL     1      -9.850  13.053  65.601  1.00  0.00    -0.251 OA 
HETATM   12  C   UNL     1      -8.548  12.970  67.640  1.00  0.00    -0.190 C  
HETATM   13  C   UNL     1      -7.817  13.870  68.674  1.00  0.00    -0.120 C  
HETATM   14  C   UNL     1      -8.178  15.356  68.803  1.00  0.00    -0.172 C  
BRANCH  12  15
HETATM   15  C   UNL     1      -9.372  11.860  68.340  1.00  0.00    -0.184 C  
BRANCH  15  16
HETATM   16  N   UNL     1      -8.773  10.523  68.267  1.00  0.00    -0.130 NA 
HETATM   17  C   UNL     1      -9.625   9.413  68.733  1.00  0.00    -0.154 C  
HETATM   18  C   UNL     1     -10.620   8.891  67.684  1.00  0.00    -0.224 C  
HETATM   19  O   UNL     1      -9.974   8.569  66.448  1.00  0.00    -0.269 OA 
HETATM   20  C   UNL     1      -9.255   9.703  65.946  1.00  0.00    -0.194 C  
HETATM   21  C   UNL     1      -8.204  10.184  66.955  1.00  0.00    -0.122 C  
ENDBRANCH  15  16
ENDBRANCH  12  15
ENDBRANCH   2   3
TORSDOF 3
ENDMDL
MODEL      128
REMARK 921   NORMALIZED FREE ENERGY PREDICTED BY IDOCK:   -3.65 KCAL/MOL
REMARK 922        TOTAL FREE ENERGY PREDICTED BY IDOCK:   -4.83 KCAL/MOL
REMARK 923 INTER-LIGAND FREE ENERGY PREDICTED BY IDOCK:   -4.57 KCAL/MOL
REMARK 924 INTRA-LIGAND FREE ENERGY PREDICTED BY IDOCK:   -0.26 KCAL/MOL
REMARK 927      BINDING AFFINITY PREDICTED BY RF-SCORE:    0.00 PKD
ROOT
HETATM    1  C   UNL     1     -11.810   6.429  71.950  1.00  0.00    -0.380 C  
HETATM    2  C   UNL     1     -11.796   7.060  70.567  1.00  0.00    -0.337 C  
ENDROOT
BRANCH   2   3
HETATM    3  C   UNL     1     -10.434   7.050  69.937  1.00  0.00    -0.234 A  
HETATM    4  C   UNL     1      -9.603   5.954  69.741  1.00  0.00    -0.153 A  
HETATM    5  C   UNL     1      -9.803   4.511  70.039  1.00  0.00    -0.296 C  
HETATM    6  N   UNL     1      -8.436   6.400  69.174  1.00  0.00    -0.121 NA 
HETATM    7  C   UNL     1      -8.511   7.754  68.969  1.00  0.00    -0.132 A  
HETATM    8  H   UNL     1      -7.635   5.814  68.941  1.00  0.00     0.000 HD 
HETATM    9  C   UNL     1      -9.736   8.184  69.413  1.00  0.00    -0.170 A  
HETATM   10  C   UNL     1     -10.139   9.575  69.343  1.00  0.00    -0.198 C  
HETATM   11  O   UNL     1     -11.226   9.932  69.798  1.00  0.00    -0.245 OA 
HETATM   12  C   UNL     1      -9.145  10.580  68.743  1.00  0.00    -0.166 C  
HETATM   13  C   UNL     1      -7.720  10.062  68.405  1.00  0.00    -0.084 C  
HETATM   14  C   UNL     1      -7.431   8.556  68.364  1.00  0.00    -0.095 C  
BRANCH  12  15
HETATM   15  C   UNL     1      -9.774  11.329  67.541  1.00  0.00    -0.177 C  
BRANCH  15  16
HETATM   16  N   UNL     1     -10.320  12.651  67.869  1.00  0.00    -0.213 NA 
HETATM   17  C   UNL     1      -9.511  13.805  67.432  1.00  0.00    -0.224 C  
HETATM   18  C   UNL     1      -9.725  14.214  65.966  1.00  0.00    -0.274 C  
HETATM   19  O   UNL     1     -11.111  14.404  65.661  1.00  0.00    -0.306 OA 
HETATM   20  C   UNL     1     -11.860  13.223  65.974  1.00  0.00    -0.395 C  
HETATM   21  C   UNL     1     -11.716  12.850  67.454  1.00  0.00    -0.372 C  
ENDBRANCH  15  16
ENDBRANCH  12  15
ENDBRANCH   2   3
TORSDOF 3
ENDMDL
MODEL      129
REMARK 921   NORMALIZED FREE ENERGY PREDICTED BY IDOCK:   -3.62 KCAL/MOL
REMARK 922        TOTAL FREE ENERGY PREDICTED BY IDOCK:   -4.80 KCAL/MOL
REMARK 923 INTER-LIGAND FREE ENERGY PREDICTED BY IDOCK:   -4.19 KCAL/MOL
REMARK 924 INTRA-LIGAND FREE ENERGY PREDICTED BY IDOCK:   -0.61 KCAL/MOL
REMARK 927      BINDING AFFINITY PREDICTED BY RF-SCORE:    0.00 PKD
ROOT
HETATM    1  C   UNL     1     -11.349   4.957  73.307  1.00  0.00    -0.408 C  
HETATM    2  C   UNL     1      -9.832   5.034  73.236  1.00  0.00    -0.172 C  
ENDROOT
BRANCH   2   3
HETATM    3  C   UNL     1      -9.312   4.991  71.829  1.00  0.00    -0.184 A  
HETATM    4  C   UNL     1      -9.220   3.881  70.998  1.00  0.00    -0.130 A  
HETATM    5  C   UNL     1      -9.622   2.466  71.210  1.00  0.00    -0.222 C  
HETATM    6  N   UNL     1      -8.647   4.281  69.817  1.00  0.00    -0.067 NA 
HETATM    7  C   UNL     1      -8.401   5.629  69.856  1.00  0.00    -0.117 A  
HETATM    8  H   UNL     1      -8.437   3.668  69.029  1.00  0.00     0.000 HD 
HETATM    9  C   UNL     1      -8.814   6.101  71.077  1.00  0.00    -0.139 A  
HETATM   10  C   UNL     1      -8.693   7.498  71.447  1.00  0.00    -0.124 C  
HETATM   11  O   UNL     1      -9.027   7.875  72.570  1.00  0.00    -0.140 OA 
HETATM   12  C   UNL     1      -8.082   8.461  70.419  1.00  0.00    -0.109 C  
HETATM   13  C   UNL     1      -7.490   7.844  69.122  1.00  0.00    -0.093 C  
HETATM   14  C   UNL     1      -7.799   6.389  68.744  1.00  0.00    -0.109 C  
BRANCH  12  15
HETATM   15  C   UNL     1      -9.061   9.619  70.097  1.00  0.00    -0.240 C  
BRANCH  15  16
HETATM   16  N   UNL     1     -10.421   9.188  69.757  1.00  0.00    -0.215 NA 
HETATM   17  C   UNL     1     -11.510   9.872  70.480  1.00  0.00    -0.318 C  
HETATM   18  C   UNL     1     -11.919  11.226  69.879  1.00  0.00    -0.365 C  
HETATM   19  O   UNL     1     -12.205  11.126  68.480  1.00  0.00    -0.600 OA 
HETATM   20  C   UNL     1     -11.084  10.577  67.776  1.00  0.00    -0.317 C  
HETATM   21  C   UNL     1     -10.715   9.190  68.317  1.00  0.00    -0.122 C  
ENDBRANCH  15  16
ENDBRANCH  12  15
ENDBRANCH   2   3
TORSDOF 3
ENDMDL
MODEL      130
REMARK 921   NORMALIZED FREE ENERGY PREDICTED BY IDOCK:   -3.59 KCAL/MOL
REMARK 922        TOTAL FREE ENERGY PREDICTED BY IDOCK:   -4.77 KCAL/MOL
REMARK 923 INTER-LIGAND FREE ENERGY PREDICTED BY IDOCK:   -4.58 KCAL/MOL
REMARK 924 INTRA-LIGAND FREE ENERGY PREDICTED BY IDOCK:   -0.18 KCAL/MOL
REMARK 927      BINDING AFFINITY PREDICTED BY RF-SCORE:    0.00 PKD
ROOT
HETATM    1  C   UNL     1     -10.753   8.925  71.619  1.00  0.00    -0.418 C  
HETATM    2  C   UNL     1     -10.806   9.064  70.106  1.00  0.00    -0.261 C  
ENDROOT
BRANCH   2   3
HETATM    3  C   UNL     1      -9.533   9.609  69.527  1.00  0.00    -0.211 A  
HETATM    4  C   UNL     1      -8.272   9.028  69.568  1.00  0.00    -0.114 A  
HETATM    5  C   UNL     1      -7.811   7.733  70.134  1.00  0.00    -0.095 C  
HETATM    6  N   UNL     1      -7.389   9.884  68.959  1.00  0.00    -0.076 NA 
HETATM    7  C   UNL     1      -8.060  10.986  68.494  1.00  0.00    -0.140 A  
HETATM    8  H   UNL     1      -6.386   9.724  68.864  1.00  0.00     0.000 HD 
HETATM    9  C   UNL     1      -9.387  10.840  68.814  1.00  0.00    -0.186 A  
HETATM   10  C   UNL     1     -10.380  11.839  68.466  1.00  0.00    -0.217 C  
HETATM   11  O   UNL     1     -11.552  11.699  68.815  1.00  0.00    -0.258 OA 
HETATM   12  C   UNL     1      -9.905  13.089  67.711  1.00  0.00    -0.224 C  
HETATM   13  C   UNL     1      -8.375  13.271  67.518  1.00  0.00    -0.186 C  
HETATM   14  C   UNL     1      -7.416  12.101  67.777  1.00  0.00    -0.122 C  
BRANCH  12  15
HETATM   15  C   UNL     1     -10.666  13.248  66.371  1.00  0.00    -0.285 C  
BRANCH  15  16
HETATM   16  N   UNL     1     -11.604  14.376  66.336  1.00  0.00    -0.365 NA 
HETATM   17  C   UNL     1     -11.754  15.124  67.599  1.00  0.00    -0.216 C  
HETATM   18  C   UNL     1     -10.672  16.188  67.839  1.00  0.00    -0.321 C  
HETATM   19  O   UNL     1     -10.534  17.073  66.722  1.00  0.00    -0.308 OA 
HETATM   20  C   UNL     1     -10.261  16.333  65.526  1.00  0.00    -0.298 C  
HETATM   21  C   UNL     1     -11.375  15.320  65.234  1.00  0.00    -0.282 C  
ENDBRANCH  15  16
ENDBRANCH  12  15
ENDBRANCH   2   3
TORSDOF 3
ENDMDL
MODEL      131
REMARK 921   NORMALIZED FREE ENERGY PREDICTED BY IDOCK:   -3.57 KCAL/MOL
REMARK 922        TOTAL FREE ENERGY PREDICTED BY IDOCK:   -4.73 KCAL/MOL
REMARK 923 INTER-LIGAND FREE ENERGY PREDICTED BY IDOCK:   -4.16 KCAL/MOL
REMARK 924 INTRA-LIGAND FREE ENERGY PREDICTED BY IDOCK:   -0.58 KCAL/MOL
REMARK 927      BINDING AFFINITY PREDICTED BY RF-SCORE:    0.00 PKD
ROOT
HETATM    1  C   UNL     1      -9.007   5.214  70.727  1.00  0.00    -0.162 C  
HETATM    2  C   UNL     1     -10.457   5.602  70.482  1.00  0.00    -0.347 C  
ENDROOT
BRANCH   2   3
HETATM    3  C   UNL     1     -10.677   7.086  70.525  1.00  0.00    -0.262 A  
HETATM    4  C   UNL     1     -10.924   7.870  71.645  1.00  0.00    -0.238 A  
HETATM    5  C   UNL     1     -11.006   7.516  73.087  1.00  0.00    -0.420 C  
HETATM    6  N   UNL     1     -11.110   9.164  71.227  1.00  0.00    -0.305 NA 
HETATM    7  C   UNL     1     -10.952   9.236  69.867  1.00  0.00    -0.213 A  
HETATM    8  H   UNL     1     -11.330   9.952  71.836  1.00  0.00     0.000 HD 
HETATM    9  C   UNL     1     -10.669   7.975  69.405  1.00  0.00    -0.167 A  
HETATM   10  C   UNL     1     -10.445   7.700  67.998  1.00  0.00    -0.189 C  
HETATM   11  O   UNL     1     -10.244   6.548  67.614  1.00  0.00    -0.140 OA 
HETATM   12  C   UNL     1     -10.530   8.876  67.015  1.00  0.00    -0.326 C  
HETATM   13  C   UNL     1     -11.008  10.244  67.575  1.00  0.00    -0.344 C  
HETATM   14  C   UNL     1     -11.072  10.484  69.089  1.00  0.00    -0.302 C  
BRANCH  12  15
HETATM   15  C   UNL     1      -9.211   9.024  66.214  1.00  0.00    -0.206 C  
BRANCH  15  16
HETATM   16  N   UNL     1      -8.113   9.644  66.963  1.00  0.00    -0.112 NA 
HETATM   17  C   UNL     1      -7.129   8.712  67.546  1.00  0.00    -0.080 C  
HETATM   18  C   UNL     1      -6.038   8.246  66.569  1.00  0.00    -0.049 C  
HETATM   19  O   UNL     1      -5.393   9.347  65.922  1.00  0.00    -0.039 OA 
HETATM   20  C   UNL     1      -6.356  10.170  65.252  1.00  0.00    -0.119 C  
HETATM   21  C   UNL     1      -7.406  10.706  66.233  1.00  0.00    -0.137 C  
ENDBRANCH  15  16
ENDBRANCH  12  15
ENDBRANCH   2   3
TORSDOF 3
ENDMDL
MODEL      132
REMARK 921   NORMALIZED FREE ENERGY PREDICTED BY IDOCK:   -3.49 KCAL/MOL
REMARK 922        TOTAL FREE ENERGY PREDICTED BY IDOCK:   -4.64 KCAL/MOL
REMARK 923 INTER-LIGAND FREE ENERGY PREDICTED BY IDOCK:   -4.48 KCAL/MOL
REMARK 924 INTRA-LIGAND FREE ENERGY PREDICTED BY IDOCK:   -0.16 KCAL/MOL
REMARK 927      BINDING AFFINITY PREDICTED BY RF-SCORE:    0.00 PKD
ROOT
HETATM    1  C   UNL     1     -11.657  11.316  68.226  1.00  0.00    -0.370 C  
HETATM    2  C   UNL     1     -10.406  10.675  68.804  1.00  0.00    -0.210 C  
ENDROOT
BRANCH   2   3
HETATM    3  C   UNL     1     -10.447   9.175  68.759  1.00  0.00    -0.236 A  
HETATM    4  C   UNL     1     -10.274   8.359  67.647  1.00  0.00    -0.236 A  
HETATM    5  C   UNL     1      -9.969   8.691  66.231  1.00  0.00    -0.287 C  
HETATM    6  N   UNL     1     -10.436   7.057  68.046  1.00  0.00    -0.195 NA 
HETATM    7  C   UNL     1     -10.674   7.013  69.396  1.00  0.00    -0.238 A  
HETATM    8  H   UNL     1     -10.386   6.244  67.432  1.00  0.00     0.000 HD 
HETATM    9  C   UNL     1     -10.672   8.301  69.869  1.00  0.00    -0.234 A  
HETATM   10  C   UNL     1     -10.897   8.611  71.268  1.00  0.00    -0.260 C  
HETATM   11  O   UNL     1     -10.939   9.782  71.647  1.00  0.00    -0.240 OA 
HETATM   12  C   UNL     1     -11.140   7.440  72.231  1.00  0.00    -0.308 C  
HETATM   13  C   UNL     1     -11.289   6.023  71.613  1.00  0.00    -0.313 C  
HETATM   14  C   UNL     1     -10.884   5.766  70.155  1.00  0.00    -0.383 C  
BRANCH  12  15
HETATM   15  C   UNL     1     -10.104   7.448  73.383  1.00  0.00    -0.338 C  
BRANCH  15  16
HETATM   16  N   UNL     1      -8.860   6.732  73.085  1.00  0.00    -0.123 NA 
HETATM   17  C   UNL     1      -8.087   7.240  71.935  1.00  0.00    -0.099 C  
HETATM   18  C   UNL     1      -7.178   8.436  72.259  1.00  0.00    -0.092 C  
HETATM   19  O   UNL     1      -6.331   8.176  73.382  1.00  0.00    -0.082 OA 
HETATM   20  C   UNL     1      -7.111   7.807  74.526  1.00  0.00    -0.133 C  
HETATM   21  C   UNL     1      -7.964   6.565  74.239  1.00  0.00    -0.108 C  
ENDBRANCH  15  16
ENDBRANCH  12  15
ENDBRANCH   2   3
TORSDOF 3
ENDMDL
MODEL      133
REMARK 921   NORMALIZED FREE ENERGY PREDICTED BY IDOCK:   -3.44 KCAL/MOL
REMARK 922        TOTAL FREE ENERGY PREDICTED BY IDOCK:   -4.59 KCAL/MOL
REMARK 923 INTER-LIGAND FREE ENERGY PREDICTED BY IDOCK:   -4.29 KCAL/MOL
REMARK 924 INTRA-LIGAND FREE ENERGY PREDICTED BY IDOCK:   -0.29 KCAL/MOL
REMARK 927      BINDING AFFINITY PREDICTED BY RF-SCORE:    0.00 PKD
ROOT
HETATM    1  C   UNL     1     -11.601   8.047  72.525  1.00  0.00    -0.464 C  
HETATM    2  C   UNL     1     -10.496   8.888  71.905  1.00  0.00    -0.415 C  
ENDROOT
BRANCH   2   3
HETATM    3  C   UNL     1     -10.686   9.105  70.432  1.00  0.00    -0.282 A  
HETATM    4  C   UNL     1     -11.297  10.187  69.811  1.00  0.00    -0.256 A  
HETATM    5  C   UNL     1     -11.891  11.429  70.374  1.00  0.00    -0.428 C  
HETATM    6  N   UNL     1     -11.296   9.958  68.459  1.00  0.00    -0.514 NA 
HETATM    7  C   UNL     1     -10.666   8.769  68.192  1.00  0.00    -0.073 A  
HETATM    8  H   UNL     1     -11.701  10.578  67.758  1.00  0.00     0.000 HD 
HETATM    9  C   UNL     1     -10.264   8.225  69.386  1.00  0.00    -0.204 A  
HETATM   10  C   UNL     1      -9.563   6.958  69.461  1.00  0.00    -0.148 C  
HETATM   11  O   UNL     1      -9.263   6.476  70.553  1.00  0.00    -0.154 OA 
HETATM   12  C   UNL     1      -9.271   6.222  68.145  1.00  0.00    -0.110 C  
HETATM   13  C   UNL     1      -9.887   6.807  66.845  1.00  0.00    -0.229 C  
HETATM   14  C   UNL     1     -10.478   8.223  66.835  1.00  0.00    -0.365 C  
BRANCH  12  15
HETATM   15  C   UNL     1      -7.752   5.963  67.983  1.00  0.00    -0.100 C  
BRANCH  15  16
HETATM   16  N   UNL     1      -7.366   4.549  68.061  1.00  0.00    -0.065 NA 
HETATM   17  C   UNL     1      -8.462   3.600  68.330  1.00  0.00    -0.088 C  
HETATM   18  C   UNL     1      -9.264   3.186  67.086  1.00  0.00    -0.181 C  
HETATM   19  O   UNL     1      -8.415   2.717  66.033  1.00  0.00    -0.093 OA 
HETATM   20  C   UNL     1      -7.435   3.708  65.699  1.00  0.00    -0.077 C  
HETATM   21  C   UNL     1      -6.576   4.072  66.917  1.00  0.00    -0.046 C  
ENDBRANCH  15  16
ENDBRANCH  12  15
ENDBRANCH   2   3
TORSDOF 3
ENDMDL
MODEL      134
REMARK 921   NORMALIZED FREE ENERGY PREDICTED BY IDOCK:   -3.43 KCAL/MOL
REMARK 922        TOTAL FREE ENERGY PREDICTED BY IDOCK:   -4.57 KCAL/MOL
REMARK 923 INTER-LIGAND FREE ENERGY PREDICTED BY IDOCK:   -4.57 KCAL/MOL
REMARK 924 INTRA-LIGAND FREE ENERGY PREDICTED BY IDOCK:   -0.00 KCAL/MOL
REMARK 927      BINDING AFFINITY PREDICTED BY RF-SCORE:    0.00 PKD
ROOT
HETATM    1  C   UNL     1     -11.888  13.802  68.421  1.00  0.00    -0.411 C  
HETATM    2  C   UNL     1     -11.763  12.404  67.837  1.00  0.00    -0.421 C  
ENDROOT
BRANCH   2   3
HETATM    3  C   UNL     1     -11.491  12.412  66.361  1.00  0.00    -0.427 A  
HETATM    4  C   UNL     1     -11.986  13.303  65.418  1.00  0.00    -0.395 A  
HETATM    5  C   UNL     1     -12.864  14.494  65.565  1.00  0.00    -0.134 C  
HETATM    6  N   UNL     1     -11.523  12.919  64.185  1.00  0.00    -0.370 NA 
HETATM    7  C   UNL     1     -10.712  11.821  64.318  1.00  0.00    -0.342 A  
HETATM    8  H   UNL     1     -11.747  13.380  63.303  1.00  0.00     0.000 HD 
HETATM    9  C   UNL     1     -10.658  11.493  65.649  1.00  0.00    -0.326 A  
HETATM   10  C   UNL     1      -9.882  10.368  66.137  1.00  0.00    -0.222 C  
HETATM   11  O   UNL     1      -9.898  10.073  67.332  1.00  0.00    -0.172 OA 
HETATM   12  C   UNL     1      -9.100   9.537  65.109  1.00  0.00    -0.281 C  
HETATM   13  C   UNL     1      -9.326   9.860  63.606  1.00  0.00    -0.242 C  
HETATM   14  C   UNL     1     -10.036  11.155  63.189  1.00  0.00    -0.393 C  
BRANCH  12  15
HETATM   15  C   UNL     1      -7.591   9.503  65.459  1.00  0.00    -0.105 C  
BRANCH  15  16
HETATM   16  N   UNL     1      -7.107   8.201  65.931  1.00  0.00    -0.064 NA 
HETATM   17  C   UNL     1      -7.751   7.020  65.324  1.00  0.00    -0.114 C  
HETATM   18  C   UNL     1      -7.167   6.607  63.963  1.00  0.00    -0.067 C  
HETATM   19  O   UNL     1      -5.744   6.457  64.014  1.00  0.00    -0.022 OA 
HETATM   20  C   UNL     1      -5.129   7.662  64.486  1.00  0.00    -0.029 C  
HETATM   21  C   UNL     1      -5.647   8.041  65.879  1.00  0.00    -0.036 C  
ENDBRANCH  15  16
ENDBRANCH  12  15
ENDBRANCH   2   3
TORSDOF 3
ENDMDL
MODEL      135
REMARK 921   NORMALIZED FREE ENERGY PREDICTED BY IDOCK:   -3.42 KCAL/MOL
REMARK 922        TOTAL FREE ENERGY PREDICTED BY IDOCK:   -4.57 KCAL/MOL
REMARK 923 INTER-LIGAND FREE ENERGY PREDICTED BY IDOCK:   -4.26 KCAL/MOL
REMARK 924 INTRA-LIGAND FREE ENERGY PREDICTED BY IDOCK:   -0.31 KCAL/MOL
REMARK 927      BINDING AFFINITY PREDICTED BY RF-SCORE:    0.00 PKD
ROOT
HETATM    1  C   UNL     1      -9.603   2.192  70.379  1.00  0.00    -0.106 C  
HETATM    2  C   UNL     1      -8.929   3.170  71.328  1.00  0.00    -0.160 C  
ENDROOT
BRANCH   2   3
HETATM    3  C   UNL     1      -9.889   4.159  71.922  1.00  0.00    -0.251 A  
HETATM    4  C   UNL     1     -10.614   4.028  73.100  1.00  0.00    -0.183 A  
HETATM    5  C   UNL     1     -10.639   2.942  74.116  1.00  0.00    -0.246 C  
HETATM    6  N   UNL     1     -11.401   5.143  73.243  1.00  0.00    -0.446 NA 
HETATM    7  C   UNL     1     -11.173   6.004  72.201  1.00  0.00    -0.291 A  
HETATM    8  H   UNL     1     -12.055   5.306  74.007  1.00  0.00     0.000 HD 
HETATM    9  C   UNL     1     -10.234   5.435  71.377  1.00  0.00    -0.279 A  
HETATM   10  C   UNL     1      -9.765   6.090  70.171  1.00  0.00    -0.167 C  
HETATM   11  O   UNL     1      -8.961   5.527  69.429  1.00  0.00    -0.105 OA 
HETATM   12  C   UNL     1     -10.352   7.468  69.829  1.00  0.00    -0.221 C  
HETATM   13  C   UNL     1     -11.521   7.987  70.710  1.00  0.00    -0.273 C  
HETATM   14  C   UNL     1     -11.846   7.308  72.047  1.00  0.00    -0.332 C  
BRANCH  12  15
HETATM   15  C   UNL     1      -9.230   8.529  69.696  1.00  0.00    -0.157 C  
BRANCH  15  16
HETATM   16  N   UNL     1      -9.658   9.790  69.081  1.00  0.00    -0.178 NA 
HETATM   17  C   UNL     1      -8.583  10.758  68.790  1.00  0.00    -0.156 C  
HETATM   18  C   UNL     1      -7.841  10.505  67.468  1.00  0.00    -0.106 C  
HETATM   19  O   UNL     1      -8.742  10.380  66.364  1.00  0.00    -0.136 OA 
HETATM   20  C   UNL     1      -9.702   9.345  66.613  1.00  0.00    -0.219 C  
HETATM   21  C   UNL     1     -10.503   9.627  67.890  1.00  0.00    -0.246 C  
ENDBRANCH  15  16
ENDBRANCH  12  15
ENDBRANCH   2   3
TORSDOF 3
ENDMDL
MODEL      136
REMARK 921   NORMALIZED FREE ENERGY PREDICTED BY IDOCK:   -3.39 KCAL/MOL
REMARK 922        TOTAL FREE ENERGY PREDICTED BY IDOCK:   -4.53 KCAL/MOL
REMARK 923 INTER-LIGAND FREE ENERGY PREDICTED BY IDOCK:   -4.36 KCAL/MOL
REMARK 924 INTRA-LIGAND FREE ENERGY PREDICTED BY IDOCK:   -0.17 KCAL/MOL
REMARK 927      BINDING AFFINITY PREDICTED BY RF-SCORE:    0.00 PKD
ROOT
HETATM    1  C   UNL     1      -6.047  16.461  69.132  1.00  0.00    -0.161 C  
HETATM    2  C   UNL     1      -7.230  17.392  68.918  1.00  0.00    -0.250 C  
ENDROOT
BRANCH   2   3
HETATM    3  C   UNL     1      -8.026  17.048  67.692  1.00  0.00    -0.187 A  
HETATM    4  C   UNL     1      -7.906  17.606  66.426  1.00  0.00    -0.283 A  
HETATM    5  C   UNL     1      -6.976  18.638  65.897  1.00  0.00    -0.305 C  
HETATM    6  N   UNL     1      -8.856  17.035  65.617  1.00  0.00    -0.361 NA 
HETATM    7  C   UNL     1      -9.561  16.096  66.325  1.00  0.00    -0.306 A  
HETATM    8  H   UNL     1      -9.013  17.272  64.638  1.00  0.00     0.000 HD 
HETATM    9  C   UNL     1      -9.063  16.068  67.604  1.00  0.00    -0.200 A  
HETATM   10  C   UNL     1      -9.592  15.177  68.620  1.00  0.00    -0.213 C  
HETATM   11  O   UNL     1      -9.155  15.216  69.770  1.00  0.00    -0.148 OA 
HETATM   12  C   UNL     1     -10.744  14.243  68.224  1.00  0.00    -0.253 C  
HETATM   13  C   UNL     1     -11.368  14.432  66.814  1.00  0.00    -0.360 C  
HETATM   14  C   UNL     1     -10.651  15.282  65.757  1.00  0.00    -0.359 C  
BRANCH  12  15
HETATM   15  C   UNL     1     -10.368  12.762  68.482  1.00  0.00    -0.221 C  
BRANCH  15  16
HETATM   16  N   UNL     1      -9.577  12.142  67.413  1.00  0.00    -0.176 NA 
HETATM   17  C   UNL     1      -8.264  12.760  67.147  1.00  0.00    -0.146 C  
HETATM   18  C   UNL     1      -7.140  12.292  68.084  1.00  0.00    -0.091 C  
HETATM   19  O   UNL     1      -7.044  10.865  68.134  1.00  0.00    -0.075 OA 
HETATM   20  C   UNL     1      -8.298  10.290  68.520  1.00  0.00    -0.116 C  
HETATM   21  C   UNL     1      -9.414  10.687  67.545  1.00  0.00    -0.153 C  
ENDBRANCH  15  16
ENDBRANCH  12  15
ENDBRANCH   2   3
TORSDOF 3
ENDMDL
MODEL      137
REMARK 921   NORMALIZED FREE ENERGY PREDICTED BY IDOCK:   -3.38 KCAL/MOL
REMARK 922        TOTAL FREE ENERGY PREDICTED BY IDOCK:   -4.51 KCAL/MOL
REMARK 923 INTER-LIGAND FREE ENERGY PREDICTED BY IDOCK:   -4.57 KCAL/MOL
REMARK 924 INTRA-LIGAND FREE ENERGY PREDICTED BY IDOCK:    0.06 KCAL/MOL
REMARK 927      BINDING AFFINITY PREDICTED BY RF-SCORE:    0.00 PKD
ROOT
HETATM    1  C   UNL     1      -5.144  16.932  67.347  1.00  0.00    -0.150 C  
HETATM    2  C   UNL     1      -5.561  18.118  68.202  1.00  0.00    -0.161 C  
ENDROOT
BRANCH   2   3
HETATM    3  C   UNL     1      -6.696  18.897  67.603  1.00  0.00    -0.218 A  
HETATM    4  C   UNL     1      -6.616  19.907  66.652  1.00  0.00    -0.196 A  
HETATM    5  C   UNL     1      -5.449  20.481  65.933  1.00  0.00    -0.218 C  
HETATM    6  N   UNL     1      -7.885  20.375  66.421  1.00  0.00    -0.499 NA 
HETATM    7  C   UNL     1      -8.783  19.665  67.176  1.00  0.00    -0.312 A  
HETATM    8  H   UNL     1      -8.123  21.135  65.785  1.00  0.00     0.000 HD 
HETATM    9  C   UNL     1      -8.084  18.735  67.904  1.00  0.00    -0.284 A  
HETATM   10  C   UNL     1      -8.740  17.815  68.814  1.00  0.00    -0.198 C  
HETATM   11  O   UNL     1      -8.075  17.028  69.489  1.00  0.00     0.124 OA 
HETATM   12  C   UNL     1     -10.267  17.903  68.945  1.00  0.00    -0.331 C  
HETATM   13  C   UNL     1     -10.982  19.075  68.219  1.00  0.00     0.266 C  
HETATM   14  C   UNL     1     -10.239  19.902  67.162  1.00  0.00    -0.579 C  
BRANCH  12  15
HETATM   15  C   UNL     1     -10.930  16.543  68.610  1.00  0.00    -0.344 C  
BRANCH  15  16
HETATM   16  N   UNL     1     -10.394  15.404  69.366  1.00  0.00    -0.242 NA 
HETATM   17  C   UNL     1     -11.350  14.722  70.259  1.00  0.00    -0.231 C  
HETATM   18  C   UNL     1     -12.242  13.683  69.561  1.00  0.00    -0.264 C  
HETATM   19  O   UNL     1     -11.475  12.743  68.802  1.00  0.00    -0.260 OA 
HETATM   20  C   UNL     1     -10.647  13.422  67.850  1.00  0.00    -0.245 C  
HETATM   21  C   UNL     1      -9.697  14.406  68.543  1.00  0.00    -0.225 C  
ENDBRANCH  15  16
ENDBRANCH  12  15
ENDBRANCH   2   3
TORSDOF 3
ENDMDL
MODEL      138
REMARK 921   NORMALIZED FREE ENERGY PREDICTED BY IDOCK:   -3.37 KCAL/MOL
REMARK 922        TOTAL FREE ENERGY PREDICTED BY IDOCK:   -4.51 KCAL/MOL
REMARK 923 INTER-LIGAND FREE ENERGY PREDICTED BY IDOCK:   -4.35 KCAL/MOL
REMARK 924 INTRA-LIGAND FREE ENERGY PREDICTED BY IDOCK:   -0.16 KCAL/MOL
REMARK 927      BINDING AFFINITY PREDICTED BY RF-SCORE:    0.00 PKD
ROOT
HETATM    1  C   UNL     1      -7.910  19.816  65.973  1.00  0.00    -0.344 C  
HETATM    2  C   UNL     1      -8.790  18.688  66.486  1.00  0.00    -0.310 C  
ENDROOT
BRANCH   2   3
HETATM    3  C   UNL     1      -8.130  17.879  67.565  1.00  0.00    -0.228 A  
HETATM    4  C   UNL     1      -7.448  18.355  68.677  1.00  0.00    -0.296 A  
HETATM    5  C   UNL     1      -7.201  19.742  69.151  1.00  0.00    -0.319 C  
HETATM    6  N   UNL     1      -6.967  17.277  69.375  1.00  0.00    -0.185 NA 
HETATM    7  C   UNL     1      -7.355  16.116  68.756  1.00  0.00    -0.184 A  
HETATM    8  H   UNL     1      -6.407  17.330  70.226  1.00  0.00     0.000 HD 
HETATM    9  C   UNL     1      -8.087  16.452  67.645  1.00  0.00    -0.170 A  
HETATM   10  C   UNL     1      -8.650  15.451  66.759  1.00  0.00    -0.273 C  
HETATM   11  O   UNL     1      -9.258  15.790  65.744  1.00  0.00    -0.321 OA 
HETATM   12  C   UNL     1      -8.407  13.974  67.100  1.00  0.00    -0.174 C  
HETATM   13  C   UNL     1      -7.441  13.660  68.276  1.00  0.00    -0.124 C  
HETATM   14  C   UNL     1      -7.018  14.767  69.249  1.00  0.00    -0.149 C  
BRANCH  12  15
HETATM   15  C   UNL     1      -9.749  13.213  67.253  1.00  0.00    -0.230 C  
BRANCH  15  16
HETATM   16  N   UNL     1     -10.018  12.239  66.189  1.00  0.00    -0.238 NA 
HETATM   17  C   UNL     1      -8.940  11.267  65.923  1.00  0.00    -0.197 C  
HETATM   18  C   UNL     1      -8.932  10.053  66.867  1.00  0.00    -0.135 C  
HETATM   19  O   UNL     1     -10.210   9.412  66.924  1.00  0.00    -0.224 OA 
HETATM   20  C   UNL     1     -11.225  10.347  67.310  1.00  0.00    -0.075 C  
HETATM   21  C   UNL     1     -11.295  11.525  66.330  1.00  0.00    -0.176 C  
ENDBRANCH  15  16
ENDBRANCH  12  15
ENDBRANCH   2   3
TORSDOF 3
ENDMDL
MODEL      139
REMARK 921   NORMALIZED FREE ENERGY PREDICTED BY IDOCK:   -3.35 KCAL/MOL
REMARK 922        TOTAL FREE ENERGY PREDICTED BY IDOCK:   -4.48 KCAL/MOL
REMARK 923 INTER-LIGAND FREE ENERGY PREDICTED BY IDOCK:   -4.20 KCAL/MOL
REMARK 924 INTRA-LIGAND FREE ENERGY PREDICTED BY IDOCK:   -0.28 KCAL/MOL
REMARK 927      BINDING AFFINITY PREDICTED BY RF-SCORE:    0.00 PKD
ROOT
HETATM    1  C   UNL     1     -10.747  16.369  67.010  1.00  0.00    -0.217 C  
HETATM    2  C   UNL     1      -9.853  15.266  66.468  1.00  0.00    -0.283 C  
ENDROOT
BRANCH   2   3
HETATM    3  C   UNL     1     -10.552  13.940  66.381  1.00  0.00    -0.280 A  
HETATM    4  C   UNL     1     -11.594  13.591  65.531  1.00  0.00    -0.320 A  
HETATM    5  C   UNL     1     -12.286  14.363  64.465  1.00  0.00    -0.483 C  
HETATM    6  N   UNL     1     -11.962  12.301  65.816  1.00  0.00    -0.567 NA 
HETATM    7  C   UNL     1     -11.157  11.799  66.807  1.00  0.00    -0.306 A  
HETATM    8  H   UNL     1     -12.719  11.791  65.361  1.00  0.00     0.000 HD 
HETATM    9  C   UNL     1     -10.266  12.780  67.166  1.00  0.00    -0.235 A  
HETATM   10  C   UNL     1      -9.267  12.576  68.198  1.00  0.00    -0.209 C  
HETATM   11  O   UNL     1      -8.518  13.495  68.529  1.00  0.00    -0.157 OA 
HETATM   12  C   UNL     1      -9.223  11.207  68.892  1.00  0.00    -0.106 C  
HETATM   13  C   UNL     1     -10.353  10.197  68.555  1.00  0.00    -0.203 C  
HETATM   14  C   UNL     1     -11.271  10.433  67.349  1.00  0.00    -0.205 C  
BRANCH  12  15
HETATM   15  C   UNL     1      -7.823  10.558  68.747  1.00  0.00    -0.116 C  
BRANCH  15  16
HETATM   16  N   UNL     1      -7.209  10.151  70.015  1.00  0.00    -0.151 NA 
HETATM   17  C   UNL     1      -7.934   9.115  70.775  1.00  0.00    -0.163 C  
HETATM   18  C   UNL     1      -7.652   7.675  70.315  1.00  0.00    -0.089 C  
HETATM   19  O   UNL     1      -6.249   7.396  70.262  1.00  0.00    -0.033 OA 
HETATM   20  C   UNL     1      -5.581   8.339  69.415  1.00  0.00    -0.030 C  
HETATM   21  C   UNL     1      -5.791   9.776  69.909  1.00  0.00    -0.042 C  
ENDBRANCH  15  16
ENDBRANCH  12  15
ENDBRANCH   2   3
TORSDOF 3
ENDMDL
MODEL      140
REMARK 921   NORMALIZED FREE ENERGY PREDICTED BY IDOCK:   -3.31 KCAL/MOL
REMARK 922        TOTAL FREE ENERGY PREDICTED BY IDOCK:   -4.44 KCAL/MOL
REMARK 923 INTER-LIGAND FREE ENERGY PREDICTED BY IDOCK:   -4.05 KCAL/MOL
REMARK 924 INTRA-LIGAND FREE ENERGY PREDICTED BY IDOCK:   -0.38 KCAL/MOL
REMARK 927      BINDING AFFINITY PREDICTED BY RF-SCORE:    0.00 PKD
ROOT
HETATM    1  C   UNL     1     -12.003  13.878  64.680  1.00  0.00    -0.443 C  
HETATM    2  C   UNL     1     -12.220  12.774  65.703  1.00  0.00    -0.503 C  
ENDROOT
BRANCH   2   3
HETATM    3  C   UNL     1     -11.095  12.666  66.690  1.00  0.00    -0.314 A  
HETATM    4  C   UNL     1     -11.007  13.271  67.938  1.00  0.00    -0.249 A  
HETATM    5  C   UNL     1     -11.965  14.140  68.672  1.00  0.00    -0.373 C  
HETATM    6  N   UNL     1      -9.793  12.943  68.486  1.00  0.00    -0.357 NA 
HETATM    7  C   UNL     1      -9.112  12.111  67.634  1.00  0.00    -0.181 A  
HETATM    8  H   UNL     1      -9.449  13.267  69.389  1.00  0.00     0.000 HD 
HETATM    9  C   UNL     1      -9.894  11.908  66.524  1.00  0.00    -0.225 A  
HETATM   10  C   UNL     1      -9.465  11.071  65.420  1.00  0.00    -0.222 C  
HETATM   11  O   UNL     1     -10.171  10.953  64.418  1.00  0.00    -0.313 OA 
HETATM   12  C   UNL     1      -8.089  10.399  65.522  1.00  0.00    -0.156 C  
HETATM   13  C   UNL     1      -7.187  10.792  66.724  1.00  0.00    -0.128 C  
HETATM   14  C   UNL     1      -7.775  11.557  67.917  1.00  0.00    -0.120 C  
BRANCH  12  15
HETATM   15  C   UNL     1      -8.213   8.860  65.389  1.00  0.00    -0.129 C  
BRANCH  15  16
HETATM   16  N   UNL     1      -7.395   8.275  64.321  1.00  0.00    -0.089 NA 
HETATM   17  C   UNL     1      -5.966   8.087  64.638  1.00  0.00    -0.048 C  
HETATM   18  C   UNL     1      -5.653   6.800  65.417  1.00  0.00    -0.030 C  
HETATM   19  O   UNL     1      -6.202   5.642  64.781  1.00  0.00    -0.024 OA 
HETATM   20  C   UNL     1      -7.615   5.792  64.597  1.00  0.00    -0.083 C  
HETATM   21  C   UNL     1      -7.936   7.032  63.754  1.00  0.00    -0.065 C  
ENDBRANCH  15  16
ENDBRANCH  12  15
ENDBRANCH   2   3
TORSDOF 3
ENDMDL
MODEL      141
REMARK 921   NORMALIZED FREE ENERGY PREDICTED BY IDOCK:   -3.27 KCAL/MOL
REMARK 922        TOTAL FREE ENERGY PREDICTED BY IDOCK:   -4.39 KCAL/MOL
REMARK 923 INTER-LIGAND FREE ENERGY PREDICTED BY IDOCK:   -4.74 KCAL/MOL
REMARK 924 INTRA-LIGAND FREE ENERGY PREDICTED BY IDOCK:    0.35 KCAL/MOL
REMARK 927      BINDING AFFINITY PREDICTED BY RF-SCORE:    0.00 PKD
ROOT
HETATM    1  C   UNL     1     -12.857  11.316  71.217  1.00  0.00    -0.491 C  
HETATM    2  C   UNL     1     -11.748  10.478  70.601  1.00  0.00    -0.453 C  
ENDROOT
BRANCH   2   3
HETATM    3  C   UNL     1     -11.779   9.047  71.055  1.00  0.00    -0.353 A  
HETATM    4  C   UNL     1     -12.697   8.456  71.914  1.00  0.00    -0.355 A  
HETATM    5  C   UNL     1     -13.900   9.009  72.590  1.00  0.00    -0.414 C  
HETATM    6  N   UNL     1     -12.327   7.147  72.095  1.00  0.00    -0.482 NA 
HETATM    7  C   UNL     1     -11.213   6.873  71.344  1.00  0.00    -0.259 A  
HETATM    8  H   UNL     1     -12.809   6.478  72.697  1.00  0.00     0.000 HD 
HETATM    9  C   UNL     1     -10.859   8.020  70.678  1.00  0.00    -0.240 A  
HETATM   10  C   UNL     1      -9.712   8.076  69.792  1.00  0.00    -0.176 C  
HETATM   11  O   UNL     1      -9.394   9.135  69.251  1.00  0.00    -0.152 OA 
HETATM   12  C   UNL     1      -8.887   6.794  69.606  1.00  0.00    -0.144 C  
HETATM   13  C   UNL     1      -9.241   5.578  70.505  1.00  0.00    -0.179 C  
HETATM   14  C   UNL     1     -10.556   5.554  71.296  1.00  0.00    -0.304 C  
BRANCH  12  15
HETATM   15  C   UNL     1      -8.819   6.392  68.111  1.00  0.00    -0.114 C  
BRANCH  15  16
HETATM   16  N   UNL     1      -8.476   4.985  67.877  1.00  0.00    -0.104 NA 
HETATM   17  C   UNL     1      -9.396   4.239  66.997  1.00  0.00    -0.167 C  
HETATM   18  C   UNL     1      -9.131   4.428  65.494  1.00  0.00    -0.140 C  
HETATM   19  O   UNL     1      -7.764   4.172  65.156  1.00  0.00    -0.083 OA 
HETATM   20  C   UNL     1      -6.891   5.001  65.933  1.00  0.00    -0.061 C  
HETATM   21  C   UNL     1      -7.092   4.763  67.435  1.00  0.00    -0.065 C  
ENDBRANCH  15  16
ENDBRANCH  12  15
ENDBRANCH   2   3
TORSDOF 3
ENDMDL
MODEL      142
REMARK 921   NORMALIZED FREE ENERGY PREDICTED BY IDOCK:   -3.25 KCAL/MOL
REMARK 922        TOTAL FREE ENERGY PREDICTED BY IDOCK:   -4.37 KCAL/MOL
REMARK 923 INTER-LIGAND FREE ENERGY PREDICTED BY IDOCK:   -3.90 KCAL/MOL
REMARK 924 INTRA-LIGAND FREE ENERGY PREDICTED BY IDOCK:   -0.47 KCAL/MOL
REMARK 927      BINDING AFFINITY PREDICTED BY RF-SCORE:    0.00 PKD
ROOT
HETATM    1  C   UNL     1     -11.044   6.453  67.284  1.00  0.00    -0.416 C  
HETATM    2  C   UNL     1     -10.119   6.609  68.480  1.00  0.00    -0.166 C  
ENDROOT
BRANCH   2   3
HETATM    3  C   UNL     1      -8.766   7.140  68.104  1.00  0.00    -0.127 A  
HETATM    4  C   UNL     1      -7.600   6.412  67.903  1.00  0.00    -0.102 A  
HETATM    5  C   UNL     1      -7.342   4.949  67.954  1.00  0.00    -0.071 C  
HETATM    6  N   UNL     1      -6.590   7.296  67.620  1.00  0.00    -0.055 NA 
HETATM    7  C   UNL     1      -7.087   8.574  67.599  1.00  0.00    -0.080 A  
HETATM    8  H   UNL     1      -5.617   7.041  67.450  1.00  0.00     0.000 HD 
HETATM    9  C   UNL     1      -8.429   8.511  67.878  1.00  0.00    -0.130 A  
HETATM   10  C   UNL     1      -9.262   9.698  67.937  1.00  0.00    -0.124 C  
HETATM   11  O   UNL     1     -10.452   9.608  68.240  1.00  0.00    -0.199 OA 
HETATM   12  C   UNL     1      -8.596  11.055  67.670  1.00  0.00    -0.125 C  
HETATM   13  C   UNL     1      -7.050  11.077  67.517  1.00  0.00    -0.091 C  
HETATM   14  C   UNL     1      -6.272   9.770  67.315  1.00  0.00    -0.067 C  
BRANCH  12  15
HETATM   15  C   UNL     1      -9.290  11.790  66.495  1.00  0.00    -0.210 C  
BRANCH  15  16
HETATM   16  N   UNL     1      -9.443  13.236  66.690  1.00  0.00    -0.259 NA 
HETATM   17  C   UNL     1     -10.139  13.958  65.608  1.00  0.00    -0.313 C  
HETATM   18  C   UNL     1     -11.673  13.906  65.693  1.00  0.00    -0.354 C  
HETATM   19  O   UNL     1     -12.151  14.310  66.980  1.00  0.00    -0.425 OA 
HETATM   20  C   UNL     1     -11.558  13.509  68.010  1.00  0.00    -0.337 C  
HETATM   21  C   UNL     1     -10.029  13.614  67.984  1.00  0.00    -0.247 C  
ENDBRANCH  15  16
ENDBRANCH  12  15
ENDBRANCH   2   3
TORSDOF 3
ENDMDL
MODEL      143
REMARK 921   NORMALIZED FREE ENERGY PREDICTED BY IDOCK:   -3.20 KCAL/MOL
REMARK 922        TOTAL FREE ENERGY PREDICTED BY IDOCK:   -4.31 KCAL/MOL
REMARK 923 INTER-LIGAND FREE ENERGY PREDICTED BY IDOCK:   -3.72 KCAL/MOL
REMARK 924 INTRA-LIGAND FREE ENERGY PREDICTED BY IDOCK:   -0.58 KCAL/MOL
REMARK 927      BINDING AFFINITY PREDICTED BY RF-SCORE:    0.00 PKD
ROOT
HETATM    1  C   UNL     1      -5.140  10.398  67.527  1.00  0.00    -0.037 C  
HETATM    2  C   UNL     1      -6.002   9.160  67.718  1.00  0.00    -0.049 C  
ENDROOT
BRANCH   2   3
HETATM    3  C   UNL     1      -7.425   9.370  67.290  1.00  0.00    -0.091 A  
HETATM    4  C   UNL     1      -7.927   9.352  65.995  1.00  0.00    -0.110 A  
HETATM    5  C   UNL     1      -7.260   9.095  64.691  1.00  0.00    -0.098 C  
HETATM    6  N   UNL     1      -9.269   9.635  66.054  1.00  0.00    -0.169 NA 
HETATM    7  C   UNL     1      -9.648   9.798  67.362  1.00  0.00    -0.155 A  
HETATM    8  H   UNL     1      -9.889   9.711  65.248  1.00  0.00     0.000 HD 
HETATM    9  C   UNL     1      -8.538   9.625  68.150  1.00  0.00    -0.119 A  
HETATM   10  C   UNL     1      -8.593   9.734  69.596  1.00  0.00    -0.191 C  
HETATM   11  O   UNL     1      -7.567   9.623  70.267  1.00  0.00    -0.136 OA 
HETATM   12  C   UNL     1      -9.951  10.049  70.240  1.00  0.00    -0.184 C  
HETATM   13  C   UNL     1     -11.132  10.390  69.291  1.00  0.00    -0.303 C  
HETATM   14  C   UNL     1     -11.027  10.100  67.787  1.00  0.00    -0.338 C  
BRANCH  12  15
HETATM   15  C   UNL     1     -10.345   8.954  71.263  1.00  0.00    -0.285 C  
BRANCH  15  16
HETATM   16  N   UNL     1     -11.216   7.904  70.722  1.00  0.00    -0.265 NA 
HETATM   17  C   UNL     1     -10.537   6.840  69.958  1.00  0.00    -0.220 C  
HETATM   18  C   UNL     1      -9.932   5.724  70.823  1.00  0.00    -0.193 C  
HETATM   19  O   UNL     1     -10.887   5.179  71.739  1.00  0.00    -0.183 OA 
HETATM   20  C   UNL     1     -11.441   6.214  72.561  1.00  0.00    -0.276 C  
HETATM   21  C   UNL     1     -12.117   7.296  71.711  1.00  0.00    -0.319 C  
ENDBRANCH  15  16
ENDBRANCH  12  15
ENDBRANCH   2   3
TORSDOF 3
ENDMDL
MODEL      144
REMARK 921   NORMALIZED FREE ENERGY PREDICTED BY IDOCK:   -3.19 KCAL/MOL
REMARK 922        TOTAL FREE ENERGY PREDICTED BY IDOCK:   -4.29 KCAL/MOL
REMARK 923 INTER-LIGAND FREE ENERGY PREDICTED BY IDOCK:   -3.74 KCAL/MOL
REMARK 924 INTRA-LIGAND FREE ENERGY PREDICTED BY IDOCK:   -0.56 KCAL/MOL
REMARK 927      BINDING AFFINITY PREDICTED BY RF-SCORE:    0.00 PKD
ROOT
HETATM    1  C   UNL     1     -12.370   8.286  72.045  1.00  0.00    -0.395 C  
HETATM    2  C   UNL     1     -12.328   7.056  71.153  1.00  0.00    -0.423 C  
ENDROOT
BRANCH   2   3
HETATM    3  C   UNL     1     -11.018   6.327  71.228  1.00  0.00    -0.330 A  
HETATM    4  C   UNL     1     -10.644   5.357  72.150  1.00  0.00    -0.227 A  
HETATM    5  C   UNL     1     -11.395   4.736  73.272  1.00  0.00    -0.408 C  
HETATM    6  N   UNL     1      -9.349   4.992  71.882  1.00  0.00    -0.140 NA 
HETATM    7  C   UNL     1      -8.893   5.679  70.786  1.00  0.00    -0.139 A  
HETATM    8  H   UNL     1      -8.808   4.312  72.416  1.00  0.00     0.000 HD 
HETATM    9  C   UNL     1      -9.903   6.499  70.349  1.00  0.00    -0.193 A  
HETATM   10  C   UNL     1      -9.748   7.370  69.199  1.00  0.00    -0.165 C  
HETATM   11  O   UNL     1     -10.658   8.129  68.867  1.00  0.00    -0.212 OA 
HETATM   12  C   UNL     1      -8.400   7.352  68.463  1.00  0.00    -0.126 C  
HETATM   13  C   UNL     1      -7.248   6.525  69.097  1.00  0.00    -0.091 C  
HETATM   14  C   UNL     1      -7.542   5.518  70.217  1.00  0.00    -0.080 C  
BRANCH  12  15
HETATM   15  C   UNL     1      -8.593   6.998  66.967  1.00  0.00    -0.122 C  
BRANCH  15  16
HETATM   16  N   UNL     1      -7.964   5.737  66.556  1.00  0.00    -0.101 NA 
HETATM   17  C   UNL     1      -8.865   4.573  66.463  1.00  0.00    -0.112 C  
HETATM   18  C   UNL     1      -9.642   4.475  65.141  1.00  0.00    -0.159 C  
HETATM   19  O   UNL     1      -8.777   4.557  64.004  1.00  0.00    -0.130 OA 
HETATM   20  C   UNL     1      -8.002   5.761  64.048  1.00  0.00    -0.121 C  
HETATM   21  C   UNL     1      -7.161   5.832  65.329  1.00  0.00    -0.065 C  
ENDBRANCH  15  16
ENDBRANCH  12  15
ENDBRANCH   2   3
TORSDOF 3
ENDMDL
MODEL      145
REMARK 921   NORMALIZED FREE ENERGY PREDICTED BY IDOCK:   -3.18 KCAL/MOL
REMARK 922        TOTAL FREE ENERGY PREDICTED BY IDOCK:   -4.28 KCAL/MOL
REMARK 923 INTER-LIGAND FREE ENERGY PREDICTED BY IDOCK:   -3.83 KCAL/MOL
REMARK 924 INTRA-LIGAND FREE ENERGY PREDICTED BY IDOCK:   -0.45 KCAL/MOL
REMARK 927      BINDING AFFINITY PREDICTED BY RF-SCORE:    0.00 PKD
ROOT
HETATM    1  C   UNL     1      -7.509   9.865  64.382  1.00  0.00    -0.137 C  
HETATM    2  C   UNL     1      -6.887   8.950  65.426  1.00  0.00    -0.072 C  
ENDROOT
BRANCH   2   3
HETATM    3  C   UNL     1      -7.625   7.651  65.575  1.00  0.00    -0.092 A  
HETATM    4  C   UNL     1      -7.417   6.477  64.862  1.00  0.00    -0.086 A  
HETATM    5  C   UNL     1      -6.425   6.136  63.808  1.00  0.00    -0.029 C  
HETATM    6  N   UNL     1      -8.339   5.554  65.285  1.00  0.00    -0.139 NA 
HETATM    7  C   UNL     1      -9.113   6.096  66.279  1.00  0.00    -0.154 A  
HETATM    8  H   UNL     1      -8.435   4.607  64.917  1.00  0.00     0.000 HD 
HETATM    9  C   UNL     1      -8.688   7.383  66.493  1.00  0.00    -0.149 A  
HETATM   10  C   UNL     1      -9.301   8.245  67.486  1.00  0.00    -0.140 C  
HETATM   11  O   UNL     1      -8.927   9.410  67.614  1.00  0.00    -0.119 OA 
HETATM   12  C   UNL     1     -10.460   7.672  68.314  1.00  0.00    -0.219 C  
HETATM   13  C   UNL     1     -10.998   6.269  67.919  1.00  0.00    -0.421 C  
HETATM   14  C   UNL     1     -10.197   5.370  66.968  1.00  0.00    -0.274 C  
BRANCH  12  15
HETATM   15  C   UNL     1     -10.148   7.750  69.830  1.00  0.00    -0.194 C  
BRANCH  15  16
HETATM   16  N   UNL     1     -10.830   6.737  70.643  1.00  0.00    -0.238 NA 
HETATM   17  C   UNL     1      -9.956   5.899  71.487  1.00  0.00    -0.180 C  
HETATM   18  C   UNL     1      -9.566   6.538  72.829  1.00  0.00    -0.149 C  
HETATM   19  O   UNL     1     -10.711   6.996  73.556  1.00  0.00    -0.349 OA 
HETATM   20  C   UNL     1     -11.478   7.910  72.763  1.00  0.00    -0.368 C  
HETATM   21  C   UNL     1     -11.940   7.256  71.454  1.00  0.00    -0.320 C  
ENDBRANCH  15  16
ENDBRANCH  12  15
ENDBRANCH   2   3
TORSDOF 3
ENDMDL
MODEL      146
REMARK 921   NORMALIZED FREE ENERGY PREDICTED BY IDOCK:   -3.16 KCAL/MOL
REMARK 922        TOTAL FREE ENERGY PREDICTED BY IDOCK:   -4.25 KCAL/MOL
REMARK 923 INTER-LIGAND FREE ENERGY PREDICTED BY IDOCK:   -3.82 KCAL/MOL
REMARK 924 INTRA-LIGAND FREE ENERGY PREDICTED BY IDOCK:   -0.44 KCAL/MOL
REMARK 927      BINDING AFFINITY PREDICTED BY RF-SCORE:    0.00 PKD
ROOT
HETATM    1  C   UNL     1     -11.937  11.885  67.160  1.00  0.00    -0.045 C  
HETATM    2  C   UNL     1     -11.024  12.080  65.960  1.00  0.00    -0.346 C  
ENDROOT
BRANCH   2   3
HETATM    3  C   UNL     1      -9.583  11.798  66.274  1.00  0.00    -0.242 A  
HETATM    4  C   UNL     1      -8.920  10.581  66.170  1.00  0.00    -0.160 A  
HETATM    5  C   UNL     1      -9.389   9.250  65.703  1.00  0.00    -0.308 C  
HETATM    6  N   UNL     1      -7.630  10.762  66.600  1.00  0.00    -0.128 NA 
HETATM    7  C   UNL     1      -7.437  12.075  66.944  1.00  0.00    -0.051 A  
HETATM    8  H   UNL     1      -6.921  10.030  66.654  1.00  0.00     0.000 HD 
HETATM    9  C   UNL     1      -8.618  12.745  66.740  1.00  0.00    -0.084 A  
HETATM   10  C   UNL     1      -8.759  14.163  67.010  1.00  0.00    -0.204 C  
HETATM   11  O   UNL     1      -9.847  14.719  66.863  1.00  0.00    -0.233 OA 
HETATM   12  C   UNL     1      -7.530  14.918  67.537  1.00  0.00    -0.224 C  
HETATM   13  C   UNL     1      -6.274  14.078  67.897  1.00  0.00    -0.164 C  
HETATM   14  C   UNL     1      -6.158  12.619  67.437  1.00  0.00    -0.142 C  
BRANCH  12  15
HETATM   15  C   UNL     1      -7.169  16.104  66.608  1.00  0.00    -0.063 C  
BRANCH  15  16
HETATM   16  N   UNL     1      -7.971  17.313  66.829  1.00  0.00    -0.220 NA 
HETATM   17  C   UNL     1      -8.260  17.642  68.238  1.00  0.00    -0.276 C  
HETATM   18  C   UNL     1      -7.135  18.404  68.956  1.00  0.00    -0.245 C  
HETATM   19  O   UNL     1      -6.721  19.562  68.224  1.00  0.00    -0.249 OA 
HETATM   20  C   UNL     1      -6.322  19.202  66.896  1.00  0.00    -0.186 C  
HETATM   21  C   UNL     1      -7.464  18.510  66.142  1.00  0.00    -0.248 C  
ENDBRANCH  15  16
ENDBRANCH  12  15
ENDBRANCH   2   3
TORSDOF 3
ENDMDL
MODEL      147
REMARK 921   NORMALIZED FREE ENERGY PREDICTED BY IDOCK:   -3.13 KCAL/MOL
REMARK 922        TOTAL FREE ENERGY PREDICTED BY IDOCK:   -4.23 KCAL/MOL
REMARK 923 INTER-LIGAND FREE ENERGY PREDICTED BY IDOCK:   -4.07 KCAL/MOL
REMARK 924 INTRA-LIGAND FREE ENERGY PREDICTED BY IDOCK:   -0.16 KCAL/MOL
REMARK 927      BINDING AFFINITY PREDICTED BY RF-SCORE:    0.00 PKD
ROOT
HETATM    1  C   UNL     1      -5.520  11.800  68.292  1.00  0.00    -0.042 C  
HETATM    2  C   UNL     1      -6.821  12.135  69.004  1.00  0.00    -0.098 C  
ENDROOT
BRANCH   2   3
HETATM    3  C   UNL     1      -7.101  13.609  69.043  1.00  0.00    -0.077 A  
HETATM    4  C   UNL     1      -6.425  14.577  69.775  1.00  0.00    -0.154 A  
HETATM    5  C   UNL     1      -5.247  14.474  70.676  1.00  0.00    -0.122 C  
HETATM    6  N   UNL     1      -7.038  15.784  69.553  1.00  0.00    -0.202 NA 
HETATM    7  C   UNL     1      -8.070  15.621  68.665  1.00  0.00    -0.158 A  
HETATM    8  H   UNL     1      -6.766  16.668  69.981  1.00  0.00     0.000 HD 
HETATM    9  C   UNL     1      -8.126  14.294  68.319  1.00  0.00    -0.143 A  
HETATM   10  C   UNL     1      -9.115  13.779  67.391  1.00  0.00    -0.221 C  
HETATM   11  O   UNL     1      -9.167  12.574  67.143  1.00  0.00    -0.191 OA 
HETATM   12  C   UNL     1     -10.118  14.773  66.787  1.00  0.00    -0.258 C  
HETATM   13  C   UNL     1     -10.105  16.225  67.336  1.00  0.00    -0.260 C  
HETATM   14  C   UNL     1      -8.934  16.720  68.196  1.00  0.00    -0.224 C  
BRANCH  12  15
HETATM   15  C   UNL     1     -10.052  14.753  65.239  1.00  0.00    -0.354 C  
BRANCH  15  16
HETATM   16  N   UNL     1     -11.290  14.317  64.584  1.00  0.00    -0.378 NA 
HETATM   17  C   UNL     1     -11.145  13.221  63.606  1.00  0.00    -0.012 C  
HETATM   18  C   UNL     1     -11.120  11.815  64.226  1.00  0.00    -0.355 C  
HETATM   19  O   UNL     1     -12.235  11.594  65.096  1.00  0.00    -0.129 OA 
HETATM   20  C   UNL     1     -12.283  12.598  66.117  1.00  0.00    -0.209 C  
HETATM   21  C   UNL     1     -12.387  14.002  65.510  1.00  0.00    -0.483 C  
ENDBRANCH  15  16
ENDBRANCH  12  15
ENDBRANCH   2   3
TORSDOF 3
ENDMDL
MODEL      148
REMARK 921   NORMALIZED FREE ENERGY PREDICTED BY IDOCK:   -3.13 KCAL/MOL
REMARK 922        TOTAL FREE ENERGY PREDICTED BY IDOCK:   -4.22 KCAL/MOL
REMARK 923 INTER-LIGAND FREE ENERGY PREDICTED BY IDOCK:   -3.81 KCAL/MOL
REMARK 924 INTRA-LIGAND FREE ENERGY PREDICTED BY IDOCK:   -0.41 KCAL/MOL
REMARK 927      BINDING AFFINITY PREDICTED BY RF-SCORE:    0.00 PKD
ROOT
HETATM    1  C   UNL     1      -8.838  10.539  67.931  1.00  0.00    -0.133 C  
HETATM    2  C   UNL     1      -8.292  11.566  66.951  1.00  0.00    -0.166 C  
ENDROOT
BRANCH   2   3
HETATM    3  C   UNL     1      -7.252  12.458  67.563  1.00  0.00    -0.145 A  
HETATM    4  C   UNL     1      -5.926  12.145  67.833  1.00  0.00    -0.072 A  
HETATM    5  C   UNL     1      -5.143  10.906  67.580  1.00  0.00    -0.036 C  
HETATM    6  N   UNL     1      -5.345  13.233  68.434  1.00  0.00    -0.076 NA 
HETATM    7  C   UNL     1      -6.258  14.252  68.524  1.00  0.00    -0.090 A  
HETATM    8  H   UNL     1      -4.380  13.278  68.762  1.00  0.00     0.000 HD 
HETATM    9  C   UNL     1      -7.439  13.813  67.981  1.00  0.00    -0.139 A  
HETATM   10  C   UNL     1      -8.621  14.652  67.920  1.00  0.00    -0.165 C  
HETATM   11  O   UNL     1      -9.678  14.206  67.473  1.00  0.00    -0.227 OA 
HETATM   12  C   UNL     1      -8.519  16.076  68.484  1.00  0.00    -0.189 C  
HETATM   13  C   UNL     1      -7.209  16.461  69.225  1.00  0.00    -0.221 C  
HETATM   14  C   UNL     1      -5.962  15.574  69.107  1.00  0.00    -0.108 C  
BRANCH  12  15
HETATM   15  C   UNL     1      -8.887  17.126  67.405  1.00  0.00    -0.212 C  
BRANCH  15  16
HETATM   16  N   UNL     1     -10.021  17.986  67.758  1.00  0.00    -0.311 NA 
HETATM   17  C   UNL     1      -9.720  19.097  68.682  1.00  0.00    -0.417 C  
HETATM   18  C   UNL     1      -9.138  20.347  68.004  1.00  0.00    -0.039 C  
HETATM   19  O   UNL     1      -9.946  20.786  66.907  1.00  0.00    -0.357 OA 
HETATM   20  C   UNL     1     -10.120  19.729  65.956  1.00  0.00    -0.477 C  
HETATM   21  C   UNL     1     -10.773  18.502  66.604  1.00  0.00    -0.233 C  
ENDBRANCH  15  16
ENDBRANCH  12  15
ENDBRANCH   2   3
TORSDOF 3
ENDMDL
MODEL      149
REMARK 921   NORMALIZED FREE ENERGY PREDICTED BY IDOCK:   -3.08 KCAL/MOL
REMARK 922        TOTAL FREE ENERGY PREDICTED BY IDOCK:   -4.16 KCAL/MOL
REMARK 923 INTER-LIGAND FREE ENERGY PREDICTED BY IDOCK:   -3.78 KCAL/MOL
REMARK 924 INTRA-LIGAND FREE ENERGY PREDICTED BY IDOCK:   -0.38 KCAL/MOL
REMARK 927      BINDING AFFINITY PREDICTED BY RF-SCORE:    0.00 PKD
ROOT
HETATM    1  C   UNL     1      -6.912   3.924  70.027  1.00  0.00    -0.041 C  
HETATM    2  C   UNL     1      -7.728   3.361  71.179  1.00  0.00    -0.051 C  
ENDROOT
BRANCH   2   3
HETATM    3  C   UNL     1      -7.984   4.371  72.259  1.00  0.00    -0.096 A  
HETATM    4  C   UNL     1      -7.197   4.630  73.375  1.00  0.00    -0.080 A  
HETATM    5  C   UNL     1      -5.900   4.050  73.811  1.00  0.00    -0.008 C  
HETATM    6  N   UNL     1      -7.822   5.596  74.122  1.00  0.00    -0.099 NA 
HETATM    7  C   UNL     1      -8.976   5.990  73.494  1.00  0.00    -0.124 A  
HETATM    8  H   UNL     1      -7.481   5.966  75.009  1.00  0.00     0.000 HD 
HETATM    9  C   UNL     1      -9.097   5.265  72.335  1.00  0.00    -0.143 A  
HETATM   10  C   UNL     1     -10.217   5.437  71.429  1.00  0.00    -0.216 C  
HETATM   11  O   UNL     1     -10.319   4.733  70.425  1.00  0.00    -0.223 OA 
HETATM   12  C   UNL     1     -11.288   6.473  71.802  1.00  0.00    -0.325 C  
HETATM   13  C   UNL     1     -11.179   7.145  73.198  1.00  0.00    -0.228 C  
HETATM   14  C   UNL     1      -9.888   7.023  74.019  1.00  0.00    -0.345 C  
BRANCH  12  15
HETATM   15  C   UNL     1     -11.451   7.528  70.678  1.00  0.00    -0.269 C  
BRANCH  15  16
HETATM   16  N   UNL     1     -10.711   8.775  70.905  1.00  0.00    -0.214 NA 
HETATM   17  C   UNL     1      -9.814   9.195  69.811  1.00  0.00    -0.181 C  
HETATM   18  C   UNL     1     -10.512   9.958  68.674  1.00  0.00    -0.206 C  
HETATM   19  O   UNL     1     -11.288  11.056  69.164  1.00  0.00    -0.231 OA 
HETATM   20  C   UNL     1     -12.242  10.606  70.133  1.00  0.00    -0.320 C  
HETATM   21  C   UNL     1     -11.550   9.911  71.312  1.00  0.00    -0.379 C  
ENDBRANCH  15  16
ENDBRANCH  12  15
ENDBRANCH   2   3
TORSDOF 3
ENDMDL
MODEL      150
REMARK 921   NORMALIZED FREE ENERGY PREDICTED BY IDOCK:   -3.05 KCAL/MOL
REMARK 922        TOTAL FREE ENERGY PREDICTED BY IDOCK:   -4.12 KCAL/MOL
REMARK 923 INTER-LIGAND FREE ENERGY PREDICTED BY IDOCK:   -3.69 KCAL/MOL
REMARK 924 INTRA-LIGAND FREE ENERGY PREDICTED BY IDOCK:   -0.43 KCAL/MOL
REMARK 927      BINDING AFFINITY PREDICTED BY RF-SCORE:    0.00 PKD
ROOT
HETATM    1  C   UNL     1     -10.766   3.816  64.443  1.00  0.00    -0.180 C  
HETATM    2  C   UNL     1      -9.444   4.269  65.041  1.00  0.00    -0.171 C  
ENDROOT
BRANCH   2   3
HETATM    3  C   UNL     1      -9.310   3.915  66.494  1.00  0.00    -0.199 A  
HETATM    4  C   UNL     1      -8.658   2.816  67.037  1.00  0.00    -0.108 A  
HETATM    5  C   UNL     1      -7.890   1.718  66.392  1.00  0.00    -0.071 C  
HETATM    6  N   UNL     1      -8.819   2.855  68.399  1.00  0.00    -0.108 NA 
HETATM    7  C   UNL     1      -9.531   3.974  68.748  1.00  0.00    -0.158 A  
HETATM    8  H   UNL     1      -8.464   2.158  69.053  1.00  0.00     0.000 HD 
HETATM    9  C   UNL     1      -9.835   4.659  67.597  1.00  0.00    -0.194 A  
HETATM   10  C   UNL     1     -10.589   5.897  67.612  1.00  0.00    -0.262 C  
HETATM   11  O   UNL     1     -10.888   6.456  66.556  1.00  0.00    -0.215 OA 
HETATM   12  C   UNL     1     -11.047   6.442  68.972  1.00  0.00    -0.424 C  
HETATM   13  C   UNL     1     -10.811   5.546  70.219  1.00  0.00    -0.285 C  
HETATM   14  C   UNL     1      -9.875   4.333  70.136  1.00  0.00    -0.271 C  
BRANCH  12  15
HETATM   15  C   UNL     1     -10.513   7.879  69.200  1.00  0.00    -0.209 C  
BRANCH  15  16
HETATM   16  N   UNL     1      -9.206   7.943  69.863  1.00  0.00    -0.153 NA 
HETATM   17  C   UNL     1      -8.053   7.517  69.048  1.00  0.00    -0.127 C  
HETATM   18  C   UNL     1      -7.497   8.605  68.115  1.00  0.00    -0.096 C  
HETATM   19  O   UNL     1      -7.219   9.821  68.818  1.00  0.00    -0.070 OA 
HETATM   20  C   UNL     1      -8.389  10.286  69.501  1.00  0.00    -0.151 C  
HETATM   21  C   UNL     1      -8.908   9.237  70.492  1.00  0.00    -0.241 C  
ENDBRANCH  15  16
ENDBRANCH  12  15
ENDBRANCH   2   3
TORSDOF 3
ENDMDL
MODEL      151
REMARK 921   NORMALIZED FREE ENERGY PREDICTED BY IDOCK:   -3.04 KCAL/MOL
REMARK 922        TOTAL FREE ENERGY PREDICTED BY IDOCK:   -4.11 KCAL/MOL
REMARK 923 INTER-LIGAND FREE ENERGY PREDICTED BY IDOCK:   -3.51 KCAL/MOL
REMARK 924 INTRA-LIGAND FREE ENERGY PREDICTED BY IDOCK:   -0.60 KCAL/MOL
REMARK 927      BINDING AFFINITY PREDICTED BY RF-SCORE:    0.00 PKD
ROOT
HETATM    1  C   UNL     1      -6.554   5.522  68.720  1.00  0.00    -0.048 C  
HETATM    2  C   UNL     1      -7.986   5.982  68.503  1.00  0.00    -0.107 C  
ENDROOT
BRANCH   2   3
HETATM    3  C   UNL     1      -8.241   6.448  67.099  1.00  0.00    -0.113 A  
HETATM    4  C   UNL     1      -8.648   5.679  66.016  1.00  0.00    -0.137 A  
HETATM    5  C   UNL     1      -8.982   4.234  65.915  1.00  0.00    -0.124 C  
HETATM    6  N   UNL     1      -8.715   6.496  64.916  1.00  0.00    -0.348 NA 
HETATM    7  C   UNL     1      -8.395   7.780  65.273  1.00  0.00    -0.122 A  
HETATM    8  H   UNL     1      -8.966   6.193  63.974  1.00  0.00     0.000 HD 
HETATM    9  C   UNL     1      -8.113   7.789  66.617  1.00  0.00    -0.111 A  
HETATM   10  C   UNL     1      -7.733   8.999  67.319  1.00  0.00    -0.096 C  
HETATM   11  O   UNL     1      -7.438   8.959  68.513  1.00  0.00    -0.083 OA 
HETATM   12  C   UNL     1      -7.655  10.303  66.511  1.00  0.00    -0.113 C  
HETATM   13  C   UNL     1      -7.830  10.201  64.970  1.00  0.00    -0.140 C  
HETATM   14  C   UNL     1      -8.379   8.917  64.335  1.00  0.00    -0.176 C  
BRANCH  12  15
HETATM   15  C   UNL     1      -8.586  11.385  67.115  1.00  0.00    -0.151 C  
BRANCH  15  16
HETATM   16  N   UNL     1      -9.931  11.424  66.529  1.00  0.00    -0.206 NA 
HETATM   17  C   UNL     1     -10.904  10.471  67.096  1.00  0.00    -0.259 C  
HETATM   18  C   UNL     1     -11.584  10.950  68.388  1.00  0.00    -0.276 C  
HETATM   19  O   UNL     1     -12.156  12.254  68.240  1.00  0.00    -0.363 OA 
HETATM   20  C   UNL     1     -11.163  13.193  67.811  1.00  0.00    -0.277 C  
HETATM   21  C   UNL     1     -10.531  12.764  66.481  1.00  0.00    -0.263 C  
ENDBRANCH  15  16
ENDBRANCH  12  15
ENDBRANCH   2   3
TORSDOF 3
ENDMDL
MODEL      152
REMARK 921   NORMALIZED FREE ENERGY PREDICTED BY IDOCK:   -3.02 KCAL/MOL
REMARK 922        TOTAL FREE ENERGY PREDICTED BY IDOCK:   -4.09 KCAL/MOL
REMARK 923 INTER-LIGAND FREE ENERGY PREDICTED BY IDOCK:   -3.63 KCAL/MOL
REMARK 924 INTRA-LIGAND FREE ENERGY PREDICTED BY IDOCK:   -0.46 KCAL/MOL
REMARK 927      BINDING AFFINITY PREDICTED BY RF-SCORE:    0.00 PKD
ROOT
HETATM    1  C   UNL     1      -8.837   9.499  65.845  1.00  0.00    -0.193 C  
HETATM    2  C   UNL     1      -8.581   8.091  65.331  1.00  0.00    -0.138 C  
ENDROOT
BRANCH   2   3
HETATM    3  C   UNL     1      -7.924   7.209  66.353  1.00  0.00    -0.112 A  
HETATM    4  C   UNL     1      -6.562   7.002  66.537  1.00  0.00    -0.052 A  
HETATM    5  C   UNL     1      -5.383   7.586  65.845  1.00  0.00    -0.028 C  
HETATM    6  N   UNL     1      -6.404   6.088  67.548  1.00  0.00    -0.039 NA 
HETATM    7  C   UNL     1      -7.631   5.729  68.042  1.00  0.00    -0.085 A  
HETATM    8  H   UNL     1      -5.509   5.731  67.881  1.00  0.00     0.000 HD 
HETATM    9  C   UNL     1      -8.589   6.414  67.338  1.00  0.00    -0.107 A  
HETATM   10  C   UNL     1     -10.006   6.262  67.610  1.00  0.00    -0.131 C  
HETATM   11  O   UNL     1     -10.839   6.854  66.923  1.00  0.00    -0.351 OA 
HETATM   12  C   UNL     1     -10.421   5.298  68.731  1.00  0.00    -0.166 C  
HETATM   13  C   UNL     1      -9.305   4.435  69.382  1.00  0.00    -0.225 C  
HETATM   14  C   UNL     1      -7.827   4.771  69.146  1.00  0.00    -0.071 C  
BRANCH  12  15
HETATM   15  C   UNL     1     -11.268   6.028  69.803  1.00  0.00    -0.369 C  
BRANCH  15  16
HETATM   16  N   UNL     1     -10.672   7.272  70.304  1.00  0.00    -0.230 NA 
HETATM   17  C   UNL     1     -11.626   8.309  70.740  1.00  0.00    -0.236 C  
HETATM   18  C   UNL     1     -12.153   8.127  72.172  1.00  0.00    -0.357 C  
HETATM   19  O   UNL     1     -11.089   7.966  73.117  1.00  0.00    -0.382 OA 
HETATM   20  C   UNL     1     -10.246   6.870  72.743  1.00  0.00    -0.192 C  
HETATM   21  C   UNL     1      -9.652   7.078  71.344  1.00  0.00    -0.162 C  
ENDBRANCH  15  16
ENDBRANCH  12  15
ENDBRANCH   2   3
TORSDOF 3
ENDMDL
MODEL      153
REMARK 921   NORMALIZED FREE ENERGY PREDICTED BY IDOCK:   -2.96 KCAL/MOL
REMARK 922        TOTAL FREE ENERGY PREDICTED BY IDOCK:   -4.03 KCAL/MOL
REMARK 923 INTER-LIGAND FREE ENERGY PREDICTED BY IDOCK:   -3.84 KCAL/MOL
REMARK 924 INTRA-LIGAND FREE ENERGY PREDICTED BY IDOCK:   -0.19 KCAL/MOL
REMARK 927      BINDING AFFINITY PREDICTED BY RF-SCORE:    0.00 PKD
ROOT
HETATM    1  C   UNL     1     -11.025   8.702  72.281  1.00  0.00    -0.392 C  
HETATM    2  C   UNL     1     -10.069   9.440  71.357  1.00  0.00    -0.263 C  
ENDROOT
BRANCH   2   3
HETATM    3  C   UNL     1     -10.353   9.188  69.905  1.00  0.00    -0.229 A  
HETATM    4  C   UNL     1     -10.813  10.101  68.965  1.00  0.00    -0.224 A  
HETATM    5  C   UNL     1     -11.116  11.552  69.080  1.00  0.00    -0.302 C  
HETATM    6  N   UNL     1     -10.979   9.440  67.774  1.00  0.00    -0.499 NA 
HETATM    7  C   UNL     1     -10.603   8.129  67.918  1.00  0.00    -0.147 A  
HETATM    8  H   UNL     1     -11.328   9.860  66.913  1.00  0.00     0.000 HD 
HETATM    9  C   UNL     1     -10.197   7.944  69.216  1.00  0.00    -0.216 A  
HETATM   10  C   UNL     1      -9.734   6.660  69.705  1.00  0.00    -0.154 C  
HETATM   11  O   UNL     1      -9.426   6.519  70.888  1.00  0.00    -0.170 OA 
HETATM   12  C   UNL     1      -9.703   5.485  68.716  1.00  0.00    -0.190 C  
HETATM   13  C   UNL     1     -10.322   5.716  67.310  1.00  0.00    -0.295 C  
HETATM   14  C   UNL     1     -10.643   7.136  66.828  1.00  0.00    -0.291 C  
BRANCH  12  15
HETATM   15  C   UNL     1      -8.278   4.885  68.615  1.00  0.00    -0.084 C  
BRANCH  15  16
HETATM   16  N   UNL     1      -8.240   3.419  68.566  1.00  0.00    -0.072 NA 
HETATM   17  C   UNL     1      -6.912   2.806  68.762  1.00  0.00    -0.044 C  
HETATM   18  C   UNL     1      -6.496   2.647  70.233  1.00  0.00    -0.028 C  
HETATM   19  O   UNL     1      -7.498   1.976  71.003  1.00  0.00    -0.033 OA 
HETATM   20  C   UNL     1      -8.752   2.662  70.902  1.00  0.00    -0.068 C  
HETATM   21  C   UNL     1      -9.216   2.757  69.443  1.00  0.00    -0.139 C  
ENDBRANCH  15  16
ENDBRANCH  12  15
ENDBRANCH   2   3
TORSDOF 3
ENDMDL
MODEL      154
REMARK 921   NORMALIZED FREE ENERGY PREDICTED BY IDOCK:   -2.94 KCAL/MOL
REMARK 922        TOTAL FREE ENERGY PREDICTED BY IDOCK:   -4.00 KCAL/MOL
REMARK 923 INTER-LIGAND FREE ENERGY PREDICTED BY IDOCK:   -3.51 KCAL/MOL
REMARK 924 INTRA-LIGAND FREE ENERGY PREDICTED BY IDOCK:   -0.49 KCAL/MOL
REMARK 927      BINDING AFFINITY PREDICTED BY RF-SCORE:    0.00 PKD
ROOT
HETATM    1  C   UNL     1     -12.236   8.070  72.255  1.00  0.00    -0.366 C  
HETATM    2  C   UNL     1     -12.111   6.848  71.360  1.00  0.00    -0.408 C  
ENDROOT
BRANCH   2   3
HETATM    3  C   UNL     1     -10.738   6.243  71.389  1.00  0.00    -0.297 A  
HETATM    4  C   UNL     1     -10.265   5.269  72.259  1.00  0.00    -0.199 A  
HETATM    5  C   UNL     1     -10.941   4.524  73.354  1.00  0.00    -0.382 C  
HETATM    6  N   UNL     1      -8.944   5.040  71.965  1.00  0.00    -0.131 NA 
HETATM    7  C   UNL     1      -8.567   5.820  70.902  1.00  0.00    -0.130 A  
HETATM    8  H   UNL     1      -8.336   4.389  72.460  1.00  0.00     0.000 HD 
HETATM    9  C   UNL     1      -9.654   6.562  70.513  1.00  0.00    -0.180 A  
HETATM   10  C   UNL     1      -9.594   7.500  69.408  1.00  0.00    -0.155 C  
HETATM   11  O   UNL     1     -10.575   8.186  69.120  1.00  0.00    -0.219 OA 
HETATM   12  C   UNL     1      -8.259   7.645  68.662  1.00  0.00    -0.128 C  
HETATM   13  C   UNL     1      -7.028   6.900  69.247  1.00  0.00    -0.074 C  
HETATM   14  C   UNL     1      -7.213   5.816  70.316  1.00  0.00    -0.075 C  
BRANCH  12  15
HETATM   15  C   UNL     1      -8.435   7.349  67.152  1.00  0.00    -0.118 C  
BRANCH  15  16
HETATM   16  N   UNL     1      -8.711   8.532  66.329  1.00  0.00    -0.134 NA 
HETATM   17  C   UNL     1      -8.211   9.813  66.862  1.00  0.00    -0.117 C  
HETATM   18  C   UNL     1      -6.731  10.095  66.555  1.00  0.00    -0.085 C  
HETATM   19  O   UNL     1      -6.440   9.961  65.160  1.00  0.00    -0.089 OA 
HETATM   20  C   UNL     1      -6.816   8.661  64.691  1.00  0.00    -0.073 C  
HETATM   21  C   UNL     1      -8.310   8.399  64.922  1.00  0.00    -0.149 C  
ENDBRANCH  15  16
ENDBRANCH  12  15
ENDBRANCH   2   3
TORSDOF 3
ENDMDL
MODEL      155
REMARK 921   NORMALIZED FREE ENERGY PREDICTED BY IDOCK:   -2.92 KCAL/MOL
REMARK 922        TOTAL FREE ENERGY PREDICTED BY IDOCK:   -3.97 KCAL/MOL
REMARK 923 INTER-LIGAND FREE ENERGY PREDICTED BY IDOCK:   -3.43 KCAL/MOL
REMARK 924 INTRA-LIGAND FREE ENERGY PREDICTED BY IDOCK:   -0.54 KCAL/MOL
REMARK 927      BINDING AFFINITY PREDICTED BY RF-SCORE:    0.00 PKD
ROOT
HETATM    1  C   UNL     1      -6.974   2.727  67.855  1.00  0.00    -0.049 C  
HETATM    2  C   UNL     1      -6.387   4.072  67.459  1.00  0.00    -0.037 C  
ENDROOT
BRANCH   2   3
HETATM    3  C   UNL     1      -7.404   4.995  66.852  1.00  0.00    -0.086 A  
HETATM    4  C   UNL     1      -8.032   4.864  65.620  1.00  0.00    -0.103 A  
HETATM    5  C   UNL     1      -7.933   3.805  64.581  1.00  0.00    -0.086 C  
HETATM    6  N   UNL     1      -8.851   5.950  65.442  1.00  0.00    -0.304 NA 
HETATM    7  C   UNL     1      -8.792   6.759  66.548  1.00  0.00    -0.143 A  
HETATM    8  H   UNL     1      -9.419   6.128  64.614  1.00  0.00     0.000 HD 
HETATM    9  C   UNL     1      -7.920   6.190  67.443  1.00  0.00    -0.105 A  
HETATM   10  C   UNL     1      -7.626   6.798  68.727  1.00  0.00    -0.105 C  
HETATM   11  O   UNL     1      -6.800   6.285  69.483  1.00  0.00    -0.060 OA 
HETATM   12  C   UNL     1      -8.328   8.118  69.073  1.00  0.00    -0.128 C  
HETATM   13  C   UNL     1      -9.177   8.791  67.960  1.00  0.00    -0.147 C  
HETATM   14  C   UNL     1      -9.559   8.009  66.696  1.00  0.00    -0.297 C  
BRANCH  12  15
HETATM   15  C   UNL     1      -9.129   7.989  70.394  1.00  0.00    -0.150 C  
BRANCH  15  16
HETATM   16  N   UNL     1     -10.535   7.610  70.216  1.00  0.00    -0.219 NA 
HETATM   17  C   UNL     1     -10.853   6.192  70.472  1.00  0.00    -0.300 C  
HETATM   18  C   UNL     1     -11.074   5.848  71.954  1.00  0.00    -0.268 C  
HETATM   19  O   UNL     1     -12.031   6.716  72.568  1.00  0.00    -0.186 OA 
HETATM   20  C   UNL     1     -11.636   8.085  72.419  1.00  0.00    -0.390 C  
HETATM   21  C   UNL     1     -11.489   8.462  70.939  1.00  0.00    -0.267 C  
ENDBRANCH  15  16
ENDBRANCH  12  15
ENDBRANCH   2   3
TORSDOF 3
ENDMDL
MODEL      156
REMARK 921   NORMALIZED FREE ENERGY PREDICTED BY IDOCK:   -2.91 KCAL/MOL
REMARK 922        TOTAL FREE ENERGY PREDICTED BY IDOCK:   -3.97 KCAL/MOL
REMARK 923 INTER-LIGAND FREE ENERGY PREDICTED BY IDOCK:   -3.58 KCAL/MOL
REMARK 924 INTRA-LIGAND FREE ENERGY PREDICTED BY IDOCK:   -0.38 KCAL/MOL
REMARK 927      BINDING AFFINITY PREDICTED BY RF-SCORE:    0.00 PKD
ROOT
HETATM    1  C   UNL     1      -8.078   7.387  66.612  1.00  0.00    -0.123 C  
HETATM    2  C   UNL     1      -7.796   8.617  67.460  1.00  0.00    -0.102 C  
ENDROOT
BRANCH   2   3
HETATM    3  C   UNL     1      -8.974   9.031  68.293  1.00  0.00    -0.133 A  
HETATM    4  C   UNL     1     -10.029   9.851  67.913  1.00  0.00    -0.160 A  
HETATM    5  C   UNL     1     -10.334  10.512  66.617  1.00  0.00    -0.295 C  
HETATM    6  N   UNL     1     -10.860  10.005  68.994  1.00  0.00    -0.219 NA 
HETATM    7  C   UNL     1     -10.382   9.273  70.051  1.00  0.00    -0.217 A  
HETATM    8  H   UNL     1     -11.705  10.575  69.009  1.00  0.00     0.000 HD 
HETATM    9  C   UNL     1      -9.229   8.648  69.648  1.00  0.00    -0.157 A  
HETATM   10  C   UNL     1      -8.464   7.791  70.533  1.00  0.00    -0.127 C  
HETATM   11  O   UNL     1      -7.407   7.288  70.152  1.00  0.00    -0.076 OA 
HETATM   12  C   UNL     1      -8.986   7.590  71.963  1.00  0.00    -0.151 C  
HETATM   13  C   UNL     1     -10.203   8.446  72.408  1.00  0.00    -0.399 C  
HETATM   14  C   UNL     1     -11.040   9.204  71.369  1.00  0.00    -0.415 C  
BRANCH  12  15
HETATM   15  C   UNL     1      -9.212   6.087  72.263  1.00  0.00    -0.144 C  
BRANCH  15  16
HETATM   16  N   UNL     1      -9.213   5.746  73.690  1.00  0.00    -0.131 NA 
HETATM   17  C   UNL     1     -10.517   5.343  74.252  1.00  0.00    -0.262 C  
HETATM   18  C   UNL     1     -10.878   3.867  74.024  1.00  0.00    -0.202 C  
HETATM   19  O   UNL     1      -9.832   2.988  74.451  1.00  0.00    -0.099 OA 
HETATM   20  C   UNL     1      -8.601   3.317  73.796  1.00  0.00    -0.074 C  
HETATM   21  C   UNL     1      -8.190   4.766  74.081  1.00  0.00    -0.100 C  
ENDBRANCH  15  16
ENDBRANCH  12  15
ENDBRANCH   2   3
TORSDOF 3
ENDMDL
MODEL      157
REMARK 921   NORMALIZED FREE ENERGY PREDICTED BY IDOCK:   -2.82 KCAL/MOL
REMARK 922        TOTAL FREE ENERGY PREDICTED BY IDOCK:   -3.85 KCAL/MOL
REMARK 923 INTER-LIGAND FREE ENERGY PREDICTED BY IDOCK:   -3.52 KCAL/MOL
REMARK 924 INTRA-LIGAND FREE ENERGY PREDICTED BY IDOCK:   -0.34 KCAL/MOL
REMARK 927      BINDING AFFINITY PREDICTED BY RF-SCORE:    0.00 PKD
ROOT
HETATM    1  C   UNL     1     -11.953  12.524  68.273  1.00  0.00    -0.274 C  
HETATM    2  C   UNL     1     -11.336  12.670  66.891  1.00  0.00    -0.373 C  
ENDROOT
BRANCH   2   3
HETATM    3  C   UNL     1      -9.857  12.411  66.884  1.00  0.00    -0.219 A  
HETATM    4  C   UNL     1      -8.837  13.352  66.847  1.00  0.00    -0.176 A  
HETATM    5  C   UNL     1      -8.878  14.838  66.844  1.00  0.00    -0.274 C  
HETATM    6  N   UNL     1      -7.640  12.682  66.808  1.00  0.00    -0.371 NA 
HETATM    7  C   UNL     1      -7.867  11.330  66.855  1.00  0.00    -0.156 A  
HETATM    8  H   UNL     1      -6.722  13.122  66.754  1.00  0.00     0.000 HD 
HETATM    9  C   UNL     1      -9.223  11.129  66.918  1.00  0.00    -0.179 A  
HETATM   10  C   UNL     1      -9.806   9.802  66.977  1.00  0.00    -0.193 C  
HETATM   11  O   UNL     1     -11.028   9.659  66.982  1.00  0.00    -0.148 OA 
HETATM   12  C   UNL     1      -8.851   8.599  66.971  1.00  0.00    -0.143 C  
HETATM   13  C   UNL     1      -7.342   8.884  66.739  1.00  0.00    -0.082 C  
HETATM   14  C   UNL     1      -6.797  10.315  66.842  1.00  0.00    -0.086 C  
BRANCH  12  15
HETATM   15  C   UNL     1      -9.073   7.712  68.222  1.00  0.00    -0.136 C  
BRANCH  15  16
HETATM   16  N   UNL     1      -8.155   6.572  68.327  1.00  0.00    -0.110 NA 
HETATM   17  C   UNL     1      -7.837   6.129  69.698  1.00  0.00    -0.103 C  
HETATM   18  C   UNL     1      -8.882   5.190  70.321  1.00  0.00    -0.120 C  
HETATM   19  O   UNL     1      -9.178   4.078  69.471  1.00  0.00    -0.119 OA 
HETATM   20  C   UNL     1      -9.609   4.533  68.182  1.00  0.00    -0.146 C  
HETATM   21  C   UNL     1      -8.540   5.408  67.516  1.00  0.00    -0.108 C  
ENDBRANCH  15  16
ENDBRANCH  12  15
ENDBRANCH   2   3
TORSDOF 3
ENDMDL
MODEL      158
REMARK 921   NORMALIZED FREE ENERGY PREDICTED BY IDOCK:   -2.81 KCAL/MOL
REMARK 922        TOTAL FREE ENERGY PREDICTED BY IDOCK:   -3.84 KCAL/MOL
REMARK 923 INTER-LIGAND FREE ENERGY PREDICTED BY IDOCK:   -3.53 KCAL/MOL
REMARK 924 INTRA-LIGAND FREE ENERGY PREDICTED BY IDOCK:   -0.31 KCAL/MOL
REMARK 927      BINDING AFFINITY PREDICTED BY RF-SCORE:    0.00 PKD
ROOT
HETATM    1  C   UNL     1     -11.106   4.416  64.448  1.00  0.00     0.232 C  
HETATM    2  C   UNL     1      -9.636   4.451  64.834  1.00  0.00    -0.160 C  
ENDROOT
BRANCH   2   3
HETATM    3  C   UNL     1      -9.362   3.766  66.142  1.00  0.00    -0.183 A  
HETATM    4  C   UNL     1      -8.797   2.511  66.334  1.00  0.00    -0.131 A  
HETATM    5  C   UNL     1      -8.273   1.516  65.361  1.00  0.00    -0.078 C  
HETATM    6  N   UNL     1      -8.771   2.257  67.682  1.00  0.00    -0.103 NA 
HETATM    7  C   UNL     1      -9.275   3.335  68.364  1.00  0.00    -0.178 A  
HETATM    8  H   UNL     1      -8.429   1.398  68.111  1.00  0.00     0.000 HD 
HETATM    9  C   UNL     1      -9.634   4.289  67.444  1.00  0.00    -0.219 A  
HETATM   10  C   UNL     1     -10.207   5.563  67.836  1.00  0.00    -0.181 C  
HETATM   11  O   UNL     1     -10.564   6.373  66.981  1.00  0.00    -0.248 OA 
HETATM   12  C   UNL     1     -10.406   5.829  69.335  1.00  0.00    -0.332 C  
HETATM   13  C   UNL     1     -10.130   4.654  70.314  1.00  0.00    -0.276 C  
HETATM   14  C   UNL     1      -9.383   3.403  69.833  1.00  0.00    -0.238 C  
BRANCH  12  15
HETATM   15  C   UNL     1      -9.660   7.115  69.772  1.00  0.00    -0.155 C  
BRANCH  15  16
HETATM   16  N   UNL     1     -10.538   8.238  70.116  1.00  0.00    -0.230 NA 
HETATM   17  C   UNL     1     -11.950   7.893  70.372  1.00  0.00     0.149 C  
HETATM   18  C   UNL     1     -12.233   7.392  71.798  1.00  0.00    -0.326 C  
HETATM   19  O   UNL     1     -11.728   8.290  72.791  1.00  0.00    -0.397 OA 
HETATM   20  C   UNL     1     -10.325   8.512  72.600  1.00  0.00    -0.165 C  
HETATM   21  C   UNL     1     -10.038   9.086  71.208  1.00  0.00    -0.314 C  
ENDBRANCH  15  16
ENDBRANCH  12  15
ENDBRANCH   2   3
TORSDOF 3
ENDMDL
MODEL      159
REMARK 921   NORMALIZED FREE ENERGY PREDICTED BY IDOCK:   -2.79 KCAL/MOL
REMARK 922        TOTAL FREE ENERGY PREDICTED BY IDOCK:   -3.82 KCAL/MOL
REMARK 923 INTER-LIGAND FREE ENERGY PREDICTED BY IDOCK:   -3.68 KCAL/MOL
REMARK 924 INTRA-LIGAND FREE ENERGY PREDICTED BY IDOCK:   -0.14 KCAL/MOL
REMARK 927      BINDING AFFINITY PREDICTED BY RF-SCORE:    0.00 PKD
ROOT
HETATM    1  C   UNL     1      -8.851   8.199  65.602  1.00  0.00    -0.160 C  
HETATM    2  C   UNL     1      -7.818   7.850  66.661  1.00  0.00    -0.102 C  
ENDROOT
BRANCH   2   3
HETATM    3  C   UNL     1      -7.818   6.392  67.016  1.00  0.00    -0.104 A  
HETATM    4  C   UNL     1      -7.229   5.352  66.308  1.00  0.00    -0.077 A  
HETATM    5  C   UNL     1      -6.420   5.354  65.061  1.00  0.00    -0.039 C  
HETATM    6  N   UNL     1      -7.510   4.179  66.962  1.00  0.00    -0.076 NA 
HETATM    7  C   UNL     1      -8.236   4.444  68.094  1.00  0.00    -0.090 A  
HETATM    8  H   UNL     1      -7.222   3.251  66.653  1.00  0.00     0.000 HD 
HETATM    9  C   UNL     1      -8.430   5.801  68.166  1.00  0.00    -0.109 A  
HETATM   10  C   UNL     1      -9.168   6.420  69.250  1.00  0.00    -0.135 C  
HETATM   11  O   UNL     1      -9.365   7.635  69.254  1.00  0.00    -0.149 OA 
HETATM   12  C   UNL     1      -9.738   5.505  70.344  1.00  0.00    -0.242 C  
HETATM   13  C   UNL     1      -9.623   3.972  70.125  1.00  0.00    -0.270 C  
HETATM   14  C   UNL     1      -8.698   3.409  69.038  1.00  0.00    -0.142 C  
BRANCH  12  15
HETATM   15  C   UNL     1      -9.210   5.918  71.741  1.00  0.00    -0.148 C  
BRANCH  15  16
HETATM   16  N   UNL     1     -10.255   6.307  72.694  1.00  0.00    -0.182 NA 
HETATM   17  C   UNL     1     -10.265   7.728  73.089  1.00  0.00    -0.335 C  
HETATM   18  C   UNL     1     -10.989   8.658  72.102  1.00  0.00    -0.364 C  
HETATM   19  O   UNL     1     -12.307   8.192  71.797  1.00  0.00    -0.295 OA 
HETATM   20  C   UNL     1     -12.263   6.852  71.293  1.00  0.00    -0.380 C  
HETATM   21  C   UNL     1     -11.613   5.900  72.304  1.00  0.00    -0.282 C  
ENDBRANCH  15  16
ENDBRANCH  12  15
ENDBRANCH   2   3
TORSDOF 3
ENDMDL
MODEL      160
REMARK 921   NORMALIZED FREE ENERGY PREDICTED BY IDOCK:   -2.78 KCAL/MOL
REMARK 922        TOTAL FREE ENERGY PREDICTED BY IDOCK:   -3.81 KCAL/MOL
REMARK 923 INTER-LIGAND FREE ENERGY PREDICTED BY IDOCK:   -3.88 KCAL/MOL
REMARK 924 INTRA-LIGAND FREE ENERGY PREDICTED BY IDOCK:    0.07 KCAL/MOL
REMARK 927      BINDING AFFINITY PREDICTED BY RF-SCORE:    0.00 PKD
ROOT
HETATM    1  C   UNL     1     -10.951   5.437  73.355  1.00  0.00    -0.349 C  
HETATM    2  C   UNL     1      -9.973   6.306  72.581  1.00  0.00    -0.183 C  
ENDROOT
BRANCH   2   3
HETATM    3  C   UNL     1      -9.953   5.994  71.113  1.00  0.00    -0.227 A  
HETATM    4  C   UNL     1      -9.993   4.740  70.517  1.00  0.00    -0.236 A  
HETATM    5  C   UNL     1     -10.102   3.380  71.109  1.00  0.00     0.096 C  
HETATM    6  N   UNL     1      -9.909   4.911  69.158  1.00  0.00    -0.186 NA 
HETATM    7  C   UNL     1      -9.851   6.249  68.864  1.00  0.00    -0.134 A  
HETATM    8  H   UNL     1      -9.892   4.157  68.471  1.00  0.00     0.000 HD 
HETATM    9  C   UNL     1      -9.893   6.945  70.047  1.00  0.00    -0.180 A  
HETATM   10  C   UNL     1      -9.849   8.394  70.092  1.00  0.00    -0.181 C  
HETATM   11  O   UNL     1      -9.837   8.983  71.173  1.00  0.00    -0.248 OA 
HETATM   12  C   UNL     1      -9.756   9.151  68.759  1.00  0.00    -0.167 C  
HETATM   13  C   UNL     1      -9.553   8.308  67.470  1.00  0.00    -0.194 C  
HETATM   14  C   UNL     1      -9.767   6.789  67.495  1.00  0.00    -0.154 C  
BRANCH  12  15
HETATM   15  C   UNL     1     -10.935  10.145  68.604  1.00  0.00    -0.230 C  
BRANCH  15  16
HETATM   16  N   UNL     1     -10.776  11.109  67.510  1.00  0.00    -0.220 NA 
HETATM   17  C   UNL     1     -11.865  12.093  67.360  1.00  0.00    -0.227 C  
HETATM   18  C   UNL     1     -11.751  13.312  68.289  1.00  0.00    -0.353 C  
HETATM   19  O   UNL     1     -10.468  13.938  68.197  1.00  0.00    -0.233 OA 
HETATM   20  C   UNL     1      -9.427  12.992  68.473  1.00  0.00    -0.097 C  
HETATM   21  C   UNL     1      -9.482  11.807  67.501  1.00  0.00    -0.174 C  
ENDBRANCH  15  16
ENDBRANCH  12  15
ENDBRANCH   2   3
TORSDOF 3
ENDMDL
MODEL      161
REMARK 921   NORMALIZED FREE ENERGY PREDICTED BY IDOCK:   -2.61 KCAL/MOL
REMARK 922        TOTAL FREE ENERGY PREDICTED BY IDOCK:   -3.62 KCAL/MOL
REMARK 923 INTER-LIGAND FREE ENERGY PREDICTED BY IDOCK:   -3.24 KCAL/MOL
REMARK 924 INTRA-LIGAND FREE ENERGY PREDICTED BY IDOCK:   -0.38 KCAL/MOL
REMARK 927      BINDING AFFINITY PREDICTED BY RF-SCORE:    0.00 PKD
ROOT
HETATM    1  C   UNL     1     -10.421   4.679  74.255  1.00  0.00    -0.330 C  
HETATM    2  C   UNL     1      -9.124   4.342  73.536  1.00  0.00    -0.107 C  
ENDROOT
BRANCH   2   3
HETATM    3  C   UNL     1      -9.339   3.938  72.107  1.00  0.00    -0.180 A  
HETATM    4  C   UNL     1      -9.772   2.705  71.635  1.00  0.00    -0.156 A  
HETATM    5  C   UNL     1     -10.179   1.471  72.357  1.00  0.00    -0.217 C  
HETATM    6  N   UNL     1      -9.785   2.755  70.264  1.00  0.00    -0.049 NA 
HETATM    7  C   UNL     1      -9.404   4.003  69.843  1.00  0.00    -0.170 A  
HETATM    8  H   UNL     1     -10.041   1.981  69.651  1.00  0.00     0.000 HD 
HETATM    9  C   UNL     1      -9.137   4.762  70.955  1.00  0.00    -0.177 A  
HETATM   10  C   UNL     1      -8.703   6.143  70.862  1.00  0.00    -0.136 C  
HETATM   11  O   UNL     1      -8.423   6.777  71.879  1.00  0.00    -0.116 OA 
HETATM   12  C   UNL     1      -8.549   6.753  69.461  1.00  0.00    -0.133 C  
HETATM   13  C   UNL     1      -8.712   5.802  68.244  1.00  0.00    -0.111 C  
HETATM   14  C   UNL     1      -9.319   4.405  68.427  1.00  0.00    -0.203 C  
BRANCH  12  15
HETATM   15  C   UNL     1      -9.429   8.019  69.310  1.00  0.00    -0.155 C  
BRANCH  15  16
HETATM   16  N   UNL     1      -8.808   9.102  68.540  1.00  0.00    -0.129 NA 
HETATM   17  C   UNL     1      -9.254   9.230  67.139  1.00  0.00    -0.130 C  
HETATM   18  C   UNL     1     -10.562  10.017  66.959  1.00  0.00    -0.212 C  
HETATM   19  O   UNL     1     -10.515  11.290  67.609  1.00  0.00    -0.182 OA 
HETATM   20  C   UNL     1     -10.205  11.134  68.999  1.00  0.00    -0.176 C  
HETATM   21  C   UNL     1      -8.862  10.418  69.191  1.00  0.00    -0.172 C  
ENDBRANCH  15  16
ENDBRANCH  12  15
ENDBRANCH   2   3
TORSDOF 3
ENDMDL
MODEL      162
REMARK 921   NORMALIZED FREE ENERGY PREDICTED BY IDOCK:   -2.44 KCAL/MOL
REMARK 922        TOTAL FREE ENERGY PREDICTED BY IDOCK:   -3.41 KCAL/MOL
REMARK 923 INTER-LIGAND FREE ENERGY PREDICTED BY IDOCK:   -3.08 KCAL/MOL
REMARK 924 INTRA-LIGAND FREE ENERGY PREDICTED BY IDOCK:   -0.33 KCAL/MOL
REMARK 927      BINDING AFFINITY PREDICTED BY RF-SCORE:    0.00 PKD
ROOT
HETATM    1  C   UNL     1     -10.694  11.453  66.975  1.00  0.00    -0.304 C  
HETATM    2  C   UNL     1      -9.229  11.047  66.964  1.00  0.00    -0.164 C  
ENDROOT
BRANCH   2   3
HETATM    3  C   UNL     1      -8.970   9.824  66.134  1.00  0.00    -0.181 A  
HETATM    4  C   UNL     1      -8.864   9.750  64.751  1.00  0.00    -0.207 A  
HETATM    5  C   UNL     1      -8.931  10.808  63.708  1.00  0.00    -0.171 C  
HETATM    6  N   UNL     1      -8.670   8.436  64.408  1.00  0.00    -0.404 NA 
HETATM    7  C   UNL     1      -8.613   7.667  65.541  1.00  0.00    -0.092 A  
HETATM    8  H   UNL     1      -8.582   8.085  63.454  1.00  0.00     0.000 HD 
HETATM    9  C   UNL     1      -8.779   8.494  66.624  1.00  0.00    -0.139 A  
HETATM   10  C   UNL     1      -8.772   7.995  67.986  1.00  0.00    -0.125 C  
HETATM   11  O   UNL     1      -8.974   8.759  68.930  1.00  0.00    -0.133 OA 
HETATM   12  C   UNL     1      -8.567   6.488  68.196  1.00  0.00    -0.118 C  
HETATM   13  C   UNL     1      -8.545   5.585  66.932  1.00  0.00    -0.110 C  
HETATM   14  C   UNL     1      -8.403   6.207  65.537  1.00  0.00    -0.147 C  
BRANCH  12  15
HETATM   15  C   UNL     1      -7.342   6.217  69.105  1.00  0.00    -0.089 C  
BRANCH  15  16
HETATM   16  N   UNL     1      -7.634   5.406  70.292  1.00  0.00    -0.074 NA 
HETATM   17  C   UNL     1      -7.031   5.876  71.554  1.00  0.00    -0.076 C  
HETATM   18  C   UNL     1      -7.826   6.983  72.264  1.00  0.00    -0.091 C  
HETATM   19  O   UNL     1      -9.199   6.623  72.445  1.00  0.00    -0.137 OA 
HETATM   20  C   UNL     1      -9.802   6.293  71.188  1.00  0.00    -0.180 C  
HETATM   21  C   UNL     1      -9.063   5.136  70.505  1.00  0.00    -0.139 C  
ENDBRANCH  15  16
ENDBRANCH  12  15
ENDBRANCH   2   3
TORSDOF 3
ENDMDL
MODEL      163
REMARK 921   NORMALIZED FREE ENERGY PREDICTED BY IDOCK:   -2.43 KCAL/MOL
REMARK 922        TOTAL FREE ENERGY PREDICTED BY IDOCK:   -3.40 KCAL/MOL
REMARK 923 INTER-LIGAND FREE ENERGY PREDICTED BY IDOCK:   -2.88 KCAL/MOL
REMARK 924 INTRA-LIGAND FREE ENERGY PREDICTED BY IDOCK:   -0.52 KCAL/MOL
REMARK 927      BINDING AFFINITY PREDICTED BY RF-SCORE:    0.00 PKD
ROOT
HETATM    1  C   UNL     1      -7.504  14.933  68.113  1.00  0.00    -0.118 C  
HETATM    2  C   UNL     1      -8.157  14.093  67.027  1.00  0.00    -0.044 C  
ENDROOT
BRANCH   2   3
HETATM    3  C   UNL     1      -9.217  13.174  67.560  1.00  0.00    -0.206 A  
HETATM    4  C   UNL     1     -10.584  13.412  67.624  1.00  0.00    -0.243 A  
HETATM    5  C   UNL     1     -11.396  14.573  67.174  1.00  0.00    -0.361 C  
HETATM    6  N   UNL     1     -11.177  12.329  68.223  1.00  0.00    -0.245 NA 
HETATM    7  C   UNL     1     -10.227  11.384  68.514  1.00  0.00    -0.208 A  
HETATM    8  H   UNL     1     -12.174  12.240  68.422  1.00  0.00     0.000 HD 
HETATM    9  C   UNL     1      -9.009  11.867  68.103  1.00  0.00    -0.185 A  
HETATM   10  C   UNL     1      -7.783  11.111  68.266  1.00  0.00    -0.116 C  
HETATM   11  O   UNL     1      -6.702  11.597  67.932  1.00  0.00    -0.061 OA 
HETATM   12  C   UNL     1      -7.878   9.724  68.919  1.00  0.00    -0.087 C  
HETATM   13  C   UNL     1      -9.253   9.301  69.505  1.00  0.00    -0.168 C  
HETATM   14  C   UNL     1     -10.522  10.088  69.153  1.00  0.00    -0.238 C  
BRANCH  12  15
HETATM   15  C   UNL     1      -7.301   8.632  67.984  1.00  0.00    -0.092 C  
BRANCH  15  16
HETATM   16  N   UNL     1      -8.139   8.327  66.819  1.00  0.00    -0.102 NA 
HETATM   17  C   UNL     1      -7.737   8.972  65.554  1.00  0.00    -0.091 C  
HETATM   18  C   UNL     1      -6.623   8.238  64.792  1.00  0.00    -0.067 C  
HETATM   19  O   UNL     1      -6.930   6.854  64.596  1.00  0.00    -0.054 OA 
HETATM   20  C   UNL     1      -7.193   6.215  65.852  1.00  0.00    -0.075 C  
HETATM   21  C   UNL     1      -8.356   6.892  66.587  1.00  0.00    -0.118 C  
ENDBRANCH  15  16
ENDBRANCH  12  15
ENDBRANCH   2   3
TORSDOF 3
ENDMDL
MODEL      164
REMARK 921   NORMALIZED FREE ENERGY PREDICTED BY IDOCK:   -2.42 KCAL/MOL
REMARK 922        TOTAL FREE ENERGY PREDICTED BY IDOCK:   -3.39 KCAL/MOL
REMARK 923 INTER-LIGAND FREE ENERGY PREDICTED BY IDOCK:   -2.96 KCAL/MOL
REMARK 924 INTRA-LIGAND FREE ENERGY PREDICTED BY IDOCK:   -0.43 KCAL/MOL
REMARK 927      BINDING AFFINITY PREDICTED BY RF-SCORE:    0.00 PKD
ROOT
HETATM    1  C   UNL     1      -9.179   9.833  70.033  1.00  0.00    -0.266 C  
HETATM    2  C   UNL     1      -8.611   8.861  71.054  1.00  0.00    -0.255 C  
ENDROOT
BRANCH   2   3
HETATM    3  C   UNL     1      -9.273   7.514  71.006  1.00  0.00    -0.153 A  
HETATM    4  C   UNL     1     -10.322   7.062  71.798  1.00  0.00    -0.197 A  
HETATM    5  C   UNL     1     -11.107   7.742  72.861  1.00  0.00    -0.457 C  
HETATM    6  N   UNL     1     -10.585   5.761  71.452  1.00  0.00    -0.244 NA 
HETATM    7  C   UNL     1      -9.753   5.377  70.432  1.00  0.00    -0.192 A  
HETATM    8  H   UNL     1     -11.292   5.169  71.888  1.00  0.00     0.000 HD 
HETATM    9  C   UNL     1      -8.943   6.440  70.122  1.00  0.00    -0.154 A  
HETATM   10  C   UNL     1      -7.938   6.368  69.078  1.00  0.00    -0.111 C  
HETATM   11  O   UNL     1      -7.195   7.325  68.863  1.00  0.00    -0.084 OA 
HETATM   12  C   UNL     1      -7.800   5.047  68.307  1.00  0.00    -0.086 C  
HETATM   13  C   UNL     1      -8.632   3.835  68.807  1.00  0.00    -0.116 C  
HETATM   14  C   UNL     1      -9.776   4.040  69.810  1.00  0.00    -0.254 C  
BRANCH  12  15
HETATM   15  C   UNL     1      -7.989   5.273  66.786  1.00  0.00    -0.104 C  
BRANCH  15  16
HETATM   16  N   UNL     1      -6.785   5.035  65.982  1.00  0.00    -0.052 NA 
HETATM   17  C   UNL     1      -6.800   3.815  65.152  1.00  0.00    -0.053 C  
HETATM   18  C   UNL     1      -7.521   3.973  63.804  1.00  0.00    -0.055 C  
HETATM   19  O   UNL     1      -7.036   5.100  63.066  1.00  0.00    -0.040 OA 
HETATM   20  C   UNL     1      -7.149   6.297  63.846  1.00  0.00    -0.053 C  
HETATM   21  C   UNL     1      -6.368   6.180  65.160  1.00  0.00    -0.038 C  
ENDBRANCH  15  16
ENDBRANCH  12  15
ENDBRANCH   2   3
TORSDOF 3
ENDMDL
MODEL      165
REMARK 921   NORMALIZED FREE ENERGY PREDICTED BY IDOCK:   -2.25 KCAL/MOL
REMARK 922        TOTAL FREE ENERGY PREDICTED BY IDOCK:   -3.18 KCAL/MOL
REMARK 923 INTER-LIGAND FREE ENERGY PREDICTED BY IDOCK:   -2.93 KCAL/MOL
REMARK 924 INTRA-LIGAND FREE ENERGY PREDICTED BY IDOCK:   -0.25 KCAL/MOL
REMARK 927      BINDING AFFINITY PREDICTED BY RF-SCORE:    0.00 PKD
ROOT
HETATM    1  C   UNL     1     -12.115   7.712  70.910  1.00  0.00    -0.226 C  
HETATM    2  C   UNL     1     -11.864   6.309  71.439  1.00  0.00    -0.268 C  
ENDROOT
BRANCH   2   3
HETATM    3  C   UNL     1     -10.404   6.005  71.612  1.00  0.00    -0.260 A  
HETATM    4  C   UNL     1      -9.697   5.916  72.805  1.00  0.00    -0.156 A  
HETATM    5  C   UNL     1     -10.143   6.047  74.217  1.00  0.00    -0.307 C  
HETATM    6  N   UNL     1      -8.383   5.665  72.503  1.00  0.00    -0.114 NA 
HETATM    7  C   UNL     1      -8.234   5.556  71.144  1.00  0.00    -0.120 A  
HETATM    8  H   UNL     1      -7.630   5.574  73.185  1.00  0.00     0.000 HD 
HETATM    9  C   UNL     1      -9.465   5.744  70.566  1.00  0.00    -0.201 A  
HETATM   10  C   UNL     1      -9.660   5.693  69.130  1.00  0.00    -0.135 C  
HETATM   11  O   UNL     1     -10.769   5.918  68.644  1.00  0.00    -0.248 OA 
HETATM   12  C   UNL     1      -8.434   5.415  68.249  1.00  0.00    -0.097 C  
HETATM   13  C   UNL     1      -7.046   5.369  68.947  1.00  0.00    -0.061 C  
HETATM   14  C   UNL     1      -6.950   5.277  70.475  1.00  0.00    -0.052 C  
BRANCH  12  15
HETATM   15  C   UNL     1      -8.662   4.165  67.362  1.00  0.00    -0.107 C  
BRANCH  15  16
HETATM   16  N   UNL     1      -8.559   4.417  65.921  1.00  0.00    -0.113 NA 
HETATM   17  C   UNL     1      -7.271   4.060  65.298  1.00  0.00    -0.068 C  
HETATM   18  C   UNL     1      -7.135   2.575  64.925  1.00  0.00    -0.053 C  
HETATM   19  O   UNL     1      -8.239   2.118  64.137  1.00  0.00    -0.079 OA 
HETATM   20  C   UNL     1      -9.476   2.359  64.818  1.00  0.00    -0.085 C  
HETATM   21  C   UNL     1      -9.659   3.850  65.127  1.00  0.00    -0.181 C  
ENDBRANCH  15  16
ENDBRANCH  12  15
ENDBRANCH   2   3
TORSDOF 3
ENDMDL
MODEL      166
REMARK 921   NORMALIZED FREE ENERGY PREDICTED BY IDOCK:   -2.20 KCAL/MOL
REMARK 922        TOTAL FREE ENERGY PREDICTED BY IDOCK:   -3.13 KCAL/MOL
REMARK 923 INTER-LIGAND FREE ENERGY PREDICTED BY IDOCK:   -2.52 KCAL/MOL
REMARK 924 INTRA-LIGAND FREE ENERGY PREDICTED BY IDOCK:   -0.61 KCAL/MOL
REMARK 927      BINDING AFFINITY PREDICTED BY RF-SCORE:    0.00 PKD
ROOT
HETATM    1  C   UNL     1      -8.771   8.603  65.122  1.00  0.00    -0.179 C  
HETATM    2  C   UNL     1      -7.821   7.827  66.020  1.00  0.00    -0.100 C  
ENDROOT
BRANCH   2   3
HETATM    3  C   UNL     1      -8.480   6.660  66.695  1.00  0.00    -0.120 A  
HETATM    4  C   UNL     1      -8.764   5.417  66.143  1.00  0.00    -0.129 A  
HETATM    5  C   UNL     1      -8.484   4.861  64.793  1.00  0.00    -0.145 C  
HETATM    6  N   UNL     1      -9.410   4.666  67.093  1.00  0.00    -0.133 NA 
HETATM    7  C   UNL     1      -9.517   5.386  68.255  1.00  0.00    -0.119 A  
HETATM    8  H   UNL     1      -9.757   3.717  66.955  1.00  0.00     0.000 HD 
HETATM    9  C   UNL     1      -8.939   6.614  68.049  1.00  0.00    -0.117 A  
HETATM   10  C   UNL     1      -8.885   7.626  69.086  1.00  0.00    -0.139 C  
HETATM   11  O   UNL     1      -8.404   8.735  68.849  1.00  0.00    -0.123 OA 
HETATM   12  C   UNL     1      -9.497   7.286  70.453  1.00  0.00    -0.165 C  
HETATM   13  C   UNL     1     -10.274   5.947  70.576  1.00  0.00    -0.271 C  
HETATM   14  C   UNL     1     -10.149   4.875  69.485  1.00  0.00    -0.286 C  
BRANCH  12  15
HETATM   15  C   UNL     1      -8.447   7.437  71.582  1.00  0.00    -0.115 C  
BRANCH  15  16
HETATM   16  N   UNL     1      -7.746   6.195  71.928  1.00  0.00    -0.097 NA 
HETATM   17  C   UNL     1      -6.433   5.999  71.283  1.00  0.00    -0.049 C  
HETATM   18  C   UNL     1      -5.267   6.711  71.987  1.00  0.00    -0.028 C  
HETATM   19  O   UNL     1      -5.214   6.399  73.383  1.00  0.00    -0.035 OA 
HETATM   20  C   UNL     1      -6.459   6.717  74.016  1.00  0.00    -0.072 C  
HETATM   21  C   UNL     1      -7.621   5.951  73.372  1.00  0.00    -0.098 C  
ENDBRANCH  15  16
ENDBRANCH  12  15
ENDBRANCH   2   3
TORSDOF 3
ENDMDL
MODEL      167
REMARK 921   NORMALIZED FREE ENERGY PREDICTED BY IDOCK:   -2.08 KCAL/MOL
REMARK 922        TOTAL FREE ENERGY PREDICTED BY IDOCK:   -2.99 KCAL/MOL
REMARK 923 INTER-LIGAND FREE ENERGY PREDICTED BY IDOCK:   -2.64 KCAL/MOL
REMARK 924 INTRA-LIGAND FREE ENERGY PREDICTED BY IDOCK:   -0.35 KCAL/MOL
REMARK 927      BINDING AFFINITY PREDICTED BY RF-SCORE:    0.00 PKD
ROOT
HETATM    1  C   UNL     1     -10.694  11.453  66.975  1.00  0.00    -0.304 C  
HETATM    2  C   UNL     1      -9.229  11.047  66.964  1.00  0.00    -0.164 C  
ENDROOT
BRANCH   2   3
HETATM    3  C   UNL     1      -8.970   9.824  66.134  1.00  0.00    -0.181 A  
HETATM    4  C   UNL     1      -8.864   9.750  64.751  1.00  0.00    -0.207 A  
HETATM    5  C   UNL     1      -8.931  10.808  63.708  1.00  0.00    -0.171 C  
HETATM    6  N   UNL     1      -8.670   8.436  64.408  1.00  0.00    -0.404 NA 
HETATM    7  C   UNL     1      -8.613   7.667  65.541  1.00  0.00    -0.092 A  
HETATM    8  H   UNL     1      -8.582   8.085  63.454  1.00  0.00     0.000 HD 
HETATM    9  C   UNL     1      -8.779   8.494  66.624  1.00  0.00    -0.139 A  
HETATM   10  C   UNL     1      -8.772   7.995  67.986  1.00  0.00    -0.125 C  
HETATM   11  O   UNL     1      -8.974   8.759  68.930  1.00  0.00    -0.133 OA 
HETATM   12  C   UNL     1      -8.567   6.488  68.196  1.00  0.00    -0.118 C  
HETATM   13  C   UNL     1      -8.545   5.585  66.932  1.00  0.00    -0.110 C  
HETATM   14  C   UNL     1      -8.403   6.207  65.537  1.00  0.00    -0.147 C  
BRANCH  12  15
HETATM   15  C   UNL     1      -7.342   6.217  69.105  1.00  0.00    -0.089 C  
BRANCH  15  16
HETATM   16  N   UNL     1      -7.634   5.406  70.292  1.00  0.00    -0.074 NA 
HETATM   17  C   UNL     1      -8.537   4.259  70.077  1.00  0.00    -0.068 C  
HETATM   18  C   UNL     1      -7.844   2.998  69.535  1.00  0.00    -0.045 C  
HETATM   19  O   UNL     1      -6.710   2.628  70.326  1.00  0.00    -0.032 OA 
HETATM   20  C   UNL     1      -5.783   3.717  70.415  1.00  0.00    -0.013 C  
HETATM   21  C   UNL     1      -6.443   4.958  71.028  1.00  0.00    -0.023 C  
ENDBRANCH  15  16
ENDBRANCH  12  15
ENDBRANCH   2   3
TORSDOF 3
ENDMDL
MODEL      168
REMARK 921   NORMALIZED FREE ENERGY PREDICTED BY IDOCK:   -1.72 KCAL/MOL
REMARK 922        TOTAL FREE ENERGY PREDICTED BY IDOCK:   -2.56 KCAL/MOL
REMARK 923 INTER-LIGAND FREE ENERGY PREDICTED BY IDOCK:   -2.35 KCAL/MOL
REMARK 924 INTRA-LIGAND FREE ENERGY PREDICTED BY IDOCK:   -0.21 KCAL/MOL
REMARK 927      BINDING AFFINITY PREDICTED BY RF-SCORE:    0.00 PKD
ROOT
HETATM    1  C   UNL     1      -5.611  18.619  63.748  1.00  0.00     0.136 C  
HETATM    2  C   UNL     1      -5.142  17.904  65.006  1.00  0.00     0.030 C  
ENDROOT
BRANCH   2   3
HETATM    3  C   UNL     1      -5.622  18.566  66.264  1.00  0.00    -0.185 A  
HETATM    4  C   UNL     1      -5.601  19.922  66.564  1.00  0.00    -0.171 A  
HETATM    5  C   UNL     1      -5.158  21.094  65.763  1.00  0.00    -0.236 C  
HETATM    6  N   UNL     1      -6.092  20.085  67.835  1.00  0.00    -0.218 NA 
HETATM    7  C   UNL     1      -6.461  18.867  68.347  1.00  0.00    -0.230 A  
HETATM    8  H   UNL     1      -6.171  20.976  68.325  1.00  0.00     0.000 HD 
HETATM    9  C   UNL     1      -6.199  17.911  67.397  1.00  0.00    -0.167 A  
HETATM   10  C   UNL     1      -6.474  16.505  67.620  1.00  0.00    -0.147 C  
HETATM   11  O   UNL     1      -6.178  15.670  66.766  1.00  0.00    -0.140 OA 
HETATM   12  C   UNL     1      -7.081  16.098  68.971  1.00  0.00    -0.187 C  
HETATM   13  C   UNL     1      -7.206  17.199  70.060  1.00  0.00     1.045 C  
HETATM   14  C   UNL     1      -7.040  18.679  69.690  1.00  0.00     0.108 C  
BRANCH  12  15
HETATM   15  C   UNL     1      -8.421  15.346  68.771  1.00  0.00    -0.188 C  
BRANCH  15  16
HETATM   16  N   UNL     1      -9.397  16.057  67.938  1.00  0.00    -0.207 NA 
HETATM   17  C   UNL     1      -9.678  15.451  66.622  1.00  0.00    -0.253 C  
HETATM   18  C   UNL     1     -10.713  14.315  66.654  1.00  0.00    -0.290 C  
HETATM   19  O   UNL     1     -11.920  14.710  67.314  1.00  0.00    -0.391 OA 
HETATM   20  C   UNL     1     -11.638  15.176  68.639  1.00  0.00    -0.338 C  
HETATM   21  C   UNL     1     -10.665  16.361  68.615  1.00  0.00    -0.317 C  
ENDBRANCH  15  16
ENDBRANCH  12  15
ENDBRANCH   2   3
TORSDOF 3
ENDMDL
MODEL      169
REMARK 921   NORMALIZED FREE ENERGY PREDICTED BY IDOCK:   -1.55 KCAL/MOL
REMARK 922        TOTAL FREE ENERGY PREDICTED BY IDOCK:   -2.37 KCAL/MOL
REMARK 923 INTER-LIGAND FREE ENERGY PREDICTED BY IDOCK:   -2.64 KCAL/MOL
REMARK 924 INTRA-LIGAND FREE ENERGY PREDICTED BY IDOCK:    0.28 KCAL/MOL
REMARK 927      BINDING AFFINITY PREDICTED BY RF-SCORE:    0.00 PKD
ROOT
HETATM    1  C   UNL     1      -9.973   4.728  74.424  1.00  0.00    -0.225 C  
HETATM    2  C   UNL     1      -9.547   5.350  73.104  1.00  0.00    -0.156 C  
ENDROOT
BRANCH   2   3
HETATM    3  C   UNL     1      -9.479   4.352  71.985  1.00  0.00    -0.196 A  
HETATM    4  C   UNL     1      -9.750   2.991  72.052  1.00  0.00    -0.160 A  
HETATM    5  C   UNL     1     -10.209   2.141  73.182  1.00  0.00    -0.199 C  
HETATM    6  N   UNL     1      -9.520   2.450  70.813  1.00  0.00    -0.144 NA 
HETATM    7  C   UNL     1      -9.140   3.438  69.941  1.00  0.00    -0.127 A  
HETATM    8  H   UNL     1      -9.617   1.463  70.576  1.00  0.00     0.000 HD 
HETATM    9  C   UNL     1      -9.120   4.626  70.628  1.00  0.00    -0.181 A  
HETATM   10  C   UNL     1      -8.755   5.879  69.995  1.00  0.00    -0.133 C  
HETATM   11  O   UNL     1      -8.699   6.916  70.656  1.00  0.00    -0.146 OA 
HETATM   12  C   UNL     1      -8.387   5.849  68.505  1.00  0.00    -0.109 C  
HETATM   13  C   UNL     1      -8.275   4.457  67.823  1.00  0.00    -0.098 C  
HETATM   14  C   UNL     1      -8.825   3.205  68.519  1.00  0.00    -0.166 C  
BRANCH  12  15
HETATM   15  C   UNL     1      -9.296   6.804  67.691  1.00  0.00    -0.120 C  
BRANCH  15  16
HETATM   16  N   UNL     1      -8.706   8.121  67.423  1.00  0.00    -0.124 NA 
HETATM   17  C   UNL     1      -7.246   8.137  67.214  1.00  0.00    -0.084 C  
HETATM   18  C   UNL     1      -6.805   7.783  65.785  1.00  0.00    -0.053 C  
HETATM   19  O   UNL     1      -7.481   8.575  64.804  1.00  0.00    -0.088 OA 
HETATM   20  C   UNL     1      -8.901   8.444  64.943  1.00  0.00     0.067 C  
HETATM   21  C   UNL     1      -9.363   8.870  66.342  1.00  0.00    -0.204 C  
ENDBRANCH  15  16
ENDBRANCH  12  15
ENDBRANCH   2   3
TORSDOF 3
ENDMDL
MODEL      170
REMARK 921   NORMALIZED FREE ENERGY PREDICTED BY IDOCK:   15.84 KCAL/MOL
REMARK 922        TOTAL FREE ENERGY PREDICTED BY IDOCK:   18.08 KCAL/MOL
REMARK 923 INTER-LIGAND FREE ENERGY PREDICTED BY IDOCK:    1.35 KCAL/MOL
REMARK 924 INTRA-LIGAND FREE ENERGY PREDICTED BY IDOCK:   16.72 KCAL/MOL
REMARK 927      BINDING AFFINITY PREDICTED BY RF-SCORE:    0.00 PKD
ROOT
HETATM    1  C   UNL     1     -10.617  12.272  65.227  1.00  0.00    -0.322 C  
HETATM    2  C   UNL     1     -11.592  13.196  64.515  1.00  0.00    -0.406 C  
ENDROOT
BRANCH   2   3
HETATM    3  C   UNL     1     -11.167  14.635  64.560  1.00  0.00    -0.290 A  
HETATM    4  C   UNL     1     -11.785  15.716  63.944  1.00  0.00     0.281 A  
HETATM    5  C   UNL     1     -13.020  15.796  63.120  1.00  0.00     3.993 C  
HETATM    6  N   UNL     1     -11.042  16.839  64.208  1.00  0.00    -1.289 NA 
HETATM    7  C   UNL     1      -9.979  16.510  65.010  1.00  0.00     0.707 A  
HETATM    8  H   UNL     1     -11.249  17.775  63.861  1.00  0.00     0.000 HD 
HETATM    9  C   UNL     1     -10.036  15.162  65.259  1.00  0.00    -0.365 A  
HETATM   10  C   UNL     1      -9.050  14.485  66.080  1.00  0.00     0.061 C  
HETATM   11  O   UNL     1      -9.104  13.266  66.239  1.00  0.00    -0.126 OA 
HETATM   12  C   UNL     1      -7.918  15.329  66.682  1.00  0.00     0.007 C  
HETATM   13  C   UNL     1      -7.817  16.814  66.237  1.00  0.00    -0.334 C  
HETATM   14  C   UNL     1      -8.982  17.483  65.495  1.00  0.00     0.877 C  
BRANCH  12  15
HETATM   15  C   UNL     1      -7.892  15.199  68.226  1.00  0.00    -0.124 C  
BRANCH  15  16
HETATM   16  N   UNL     1      -9.184  15.440  68.877  1.00  0.00    -0.202 NA 
HETATM   17  C   UNL     1      -9.465  16.840  69.246  1.00  0.00    -0.091 C  
HETATM   18  C   UNL     1     -10.019  17.702  68.100  1.00  0.00    -0.330 C  
HETATM   19  O   UNL     1     -11.151  17.092  67.471  1.00  0.00    -0.183 OA 
HETATM   20  C   UNL     1     -10.819  15.778  67.005  1.00  0.00    -0.273 C  
HETATM   21  C   UNL     1     -10.339  14.885  68.155  1.00  0.00    -0.237 C  
ENDBRANCH  15  16
ENDBRANCH  12  15
ENDBRANCH   2   3
TORSDOF 3
ENDMDL
