MODEL        1
REMARK 921   NORMALIZED FREE ENERGY PREDICTED BY IDOCK:   -6.74 KCAL/MOL
REMARK 922        TOTAL FREE ENERGY PREDICTED BY IDOCK:   -8.59 KCAL/MOL
REMARK 923 INTER-LIGAND FREE ENERGY PREDICTED BY IDOCK:   -8.32 KCAL/MOL
REMARK 924 INTRA-LIGAND FREE ENERGY PREDICTED BY IDOCK:   -0.27 KCAL/MOL
REMARK 927      BINDING AFFINITY PREDICTED BY RF-SCORE:    0.00 PKD
ROOT
HETATM    1  C   UNL     1     -10.166  10.795  64.498  1.00  0.00    -0.428 C  
HETATM    2  C   UNL     1     -10.865  11.725  63.524  1.00  0.00    -0.426 C  
ENDROOT
BRANCH   2   3
HETATM    3  O   UNL     1     -12.134  12.125  64.060  1.00  0.00    -0.414 OA 
BRANCH   3   4
HETATM    4  C   UNL     1     -12.214  13.403  64.524  1.00  0.00    -0.398 C  
HETATM    5  O   UNL     1     -13.204  13.843  65.107  1.00  0.00    -0.768 OA 
HETATM    6  N   UNL     1     -11.065  14.039  64.259  1.00  0.00    -0.597 N  
HETATM    7  H   UNL     1     -10.273  13.570  63.819  1.00  0.00     0.000 HD 
BRANCH   6   8
HETATM    8  C   UNL     1     -11.026  15.334  64.612  1.00  0.00    -0.304 A  
HETATM    9  C   UNL     1     -10.356  15.893  65.674  1.00  0.00    -0.390 A  
HETATM   10  N   UNL     1     -10.493  17.247  65.500  1.00  0.00    -0.629 NA 
HETATM   11  O   UNL     1     -11.635  16.347  63.906  1.00  0.00    -1.100 OA 
HETATM   12  N   UNL     1     -11.270  17.576  64.481  1.00  0.00    -0.620 NA 
BRANCH  10  13
HETATM   13  N   UNL     1      -9.742  18.239  66.195  1.00  0.00    -0.507 NA 
HETATM   14  C   UNL     1     -10.139  19.637  66.201  1.00  0.00    -0.480 C  
HETATM   15  C   UNL     1      -9.739  20.240  67.554  1.00  0.00    -0.435 C  
HETATM   16  O   UNL     1      -8.343  20.046  67.808  1.00  0.00    -0.303 OA 
HETATM   17  C   UNL     1      -8.006  18.653  67.820  1.00  0.00    -0.250 C  
HETATM   18  C   UNL     1      -8.332  18.006  66.471  1.00  0.00    -0.268 C  
ENDBRANCH  10  13
ENDBRANCH   6   8
ENDBRANCH   3   4
ENDBRANCH   2   3
TORSDOF 4
ENDMDL
MODEL        2
REMARK 921   NORMALIZED FREE ENERGY PREDICTED BY IDOCK:   -6.58 KCAL/MOL
REMARK 922        TOTAL FREE ENERGY PREDICTED BY IDOCK:   -8.39 KCAL/MOL
REMARK 923 INTER-LIGAND FREE ENERGY PREDICTED BY IDOCK:   -8.13 KCAL/MOL
REMARK 924 INTRA-LIGAND FREE ENERGY PREDICTED BY IDOCK:   -0.27 KCAL/MOL
REMARK 927      BINDING AFFINITY PREDICTED BY RF-SCORE:    0.00 PKD
ROOT
HETATM    1  C   UNL     1     -10.099  10.724  64.526  1.00  0.00    -0.415 C  
HETATM    2  C   UNL     1     -10.828  11.673  63.592  1.00  0.00    -0.432 C  
ENDROOT
BRANCH   2   3
HETATM    3  O   UNL     1     -12.080  12.061  64.174  1.00  0.00    -0.383 OA 
BRANCH   3   4
HETATM    4  C   UNL     1     -12.157  13.339  64.639  1.00  0.00    -0.408 C  
HETATM    5  O   UNL     1     -13.146  13.781  65.222  1.00  0.00    -0.756 OA 
HETATM    6  N   UNL     1     -11.007  13.972  64.374  1.00  0.00    -0.586 N  
HETATM    7  H   UNL     1     -10.216  13.501  63.934  1.00  0.00     0.000 HD 
BRANCH   6   8
HETATM    8  C   UNL     1     -10.964  15.266  64.726  1.00  0.00    -0.386 A  
HETATM    9  C   UNL     1     -10.304  15.821  65.797  1.00  0.00    -0.369 A  
HETATM   10  N   UNL     1     -10.430  17.177  65.621  1.00  0.00    -0.575 NA 
HETATM   11  O   UNL     1     -11.557  16.283  64.013  1.00  0.00    -0.953 OA 
HETATM   12  N   UNL     1     -11.192  17.510  64.592  1.00  0.00    -0.707 NA 
BRANCH  10  13
HETATM   13  N   UNL     1      -9.682  18.164  66.325  1.00  0.00    -0.444 NA 
HETATM   14  C   UNL     1      -8.266  17.997  66.606  1.00  0.00    -0.261 C  
HETATM   15  C   UNL     1      -7.607  19.382  66.575  1.00  0.00    -0.260 C  
HETATM   16  O   UNL     1      -8.263  20.281  67.479  1.00  0.00    -0.319 OA 
HETATM   17  C   UNL     1      -9.648  20.434  67.144  1.00  0.00    -0.447 C  
HETATM   18  C   UNL     1     -10.373  19.087  67.213  1.00  0.00    -0.424 C  
ENDBRANCH  10  13
ENDBRANCH   6   8
ENDBRANCH   3   4
ENDBRANCH   2   3
TORSDOF 4
ENDMDL
MODEL        3
REMARK 921   NORMALIZED FREE ENERGY PREDICTED BY IDOCK:   -5.98 KCAL/MOL
REMARK 922        TOTAL FREE ENERGY PREDICTED BY IDOCK:   -7.65 KCAL/MOL
REMARK 923 INTER-LIGAND FREE ENERGY PREDICTED BY IDOCK:   -7.31 KCAL/MOL
REMARK 924 INTRA-LIGAND FREE ENERGY PREDICTED BY IDOCK:   -0.34 KCAL/MOL
REMARK 927      BINDING AFFINITY PREDICTED BY RF-SCORE:    0.00 PKD
ROOT
HETATM    1  C   UNL     1      -6.375  20.289  68.914  1.00  0.00    -0.351 C  
HETATM    2  C   UNL     1      -7.547  19.354  68.682  1.00  0.00    -0.363 C  
ENDROOT
BRANCH   2   3
HETATM    3  O   UNL     1      -8.336  19.826  67.580  1.00  0.00    -0.301 OA 
BRANCH   3   4
HETATM    4  C   UNL     1      -8.615  18.916  66.607  1.00  0.00    -0.307 C  
HETATM    5  O   UNL     1      -7.867  18.704  65.654  1.00  0.00    -0.478 OA 
HETATM    6  N   UNL     1      -9.780  18.317  66.888  1.00  0.00    -0.301 N  
HETATM    7  H   UNL     1     -10.305  18.521  67.738  1.00  0.00     0.000 HD 
BRANCH   6   8
HETATM    8  C   UNL     1     -10.211  17.432  65.975  1.00  0.00    -0.300 A  
HETATM    9  C   UNL     1      -9.987  16.076  65.954  1.00  0.00    -0.352 A  
HETATM   10  N   UNL     1     -10.769  15.609  64.927  1.00  0.00    -0.469 NA 
HETATM   11  O   UNL     1     -11.015  17.752  64.905  1.00  0.00    -0.866 OA 
HETATM   12  N   UNL     1     -11.380  16.565  64.247  1.00  0.00    -1.032 NA 
BRANCH  10  13
HETATM   13  N   UNL     1     -11.079  14.237  64.696  1.00  0.00    -0.379 NA 
HETATM   14  C   UNL     1     -12.392  13.814  64.239  1.00  0.00    -0.337 C  
HETATM   15  C   UNL     1     -12.211  12.584  63.341  1.00  0.00    -0.517 C  
HETATM   16  O   UNL     1     -11.490  11.553  64.025  1.00  0.00    -0.350 OA 
HETATM   17  C   UNL     1     -10.193  12.008  64.430  1.00  0.00    -0.302 C  
HETATM   18  C   UNL     1     -10.311  13.206  65.377  1.00  0.00    -0.301 C  
ENDBRANCH  10  13
ENDBRANCH   6   8
ENDBRANCH   3   4
ENDBRANCH   2   3
TORSDOF 4
ENDMDL
MODEL        4
REMARK 921   NORMALIZED FREE ENERGY PREDICTED BY IDOCK:   -5.78 KCAL/MOL
REMARK 922        TOTAL FREE ENERGY PREDICTED BY IDOCK:   -7.40 KCAL/MOL
REMARK 923 INTER-LIGAND FREE ENERGY PREDICTED BY IDOCK:   -7.11 KCAL/MOL
REMARK 924 INTRA-LIGAND FREE ENERGY PREDICTED BY IDOCK:   -0.30 KCAL/MOL
REMARK 927      BINDING AFFINITY PREDICTED BY RF-SCORE:    0.00 PKD
ROOT
HETATM    1  C   UNL     1     -12.446  16.056  74.431  1.00  0.00    -0.712 C  
HETATM    2  C   UNL     1     -13.059  15.230  73.316  1.00  0.00    -0.513 C  
ENDROOT
BRANCH   2   3
HETATM    3  O   UNL     1     -12.043  14.856  72.374  1.00  0.00    -0.341 OA 
BRANCH   3   4
HETATM    4  C   UNL     1     -12.471  14.216  71.251  1.00  0.00    -0.370 C  
HETATM    5  O   UNL     1     -13.660  14.103  70.956  1.00  0.00    -0.266 OA 
HETATM    6  N   UNL     1     -11.408  13.782  70.561  1.00  0.00    -0.463 N  
HETATM    7  H   UNL     1     -10.451  13.975  70.859  1.00  0.00     0.000 HD 
BRANCH   6   8
HETATM    8  C   UNL     1     -11.685  13.077  69.453  1.00  0.00    -0.326 A  
HETATM    9  C   UNL     1     -11.646  13.515  68.151  1.00  0.00    -0.333 A  
HETATM   10  N   UNL     1     -11.844  12.386  67.396  1.00  0.00    -0.505 NA 
HETATM   11  O   UNL     1     -12.016  11.741  69.448  1.00  0.00    -0.306 OA 
HETATM   12  N   UNL     1     -12.100  11.305  68.114  1.00  0.00    -0.631 NA 
BRANCH  10  13
HETATM   13  N   UNL     1     -11.617  12.293  65.992  1.00  0.00    -0.386 NA 
HETATM   14  C   UNL     1     -10.301  12.000  65.447  1.00  0.00    -0.266 C  
HETATM   15  C   UNL     1     -10.490  11.185  64.161  1.00  0.00    -0.377 C  
HETATM   16  O   UNL     1     -11.345  11.872  63.240  1.00  0.00    -0.360 OA 
HETATM   17  C   UNL     1     -12.637  12.112  63.813  1.00  0.00    -0.475 C  
HETATM   18  C   UNL     1     -12.518  12.972  65.074  1.00  0.00    -0.477 C  
ENDBRANCH  10  13
ENDBRANCH   6   8
ENDBRANCH   3   4
ENDBRANCH   2   3
TORSDOF 4
ENDMDL
MODEL        5
REMARK 921   NORMALIZED FREE ENERGY PREDICTED BY IDOCK:   -5.75 KCAL/MOL
REMARK 922        TOTAL FREE ENERGY PREDICTED BY IDOCK:   -7.36 KCAL/MOL
REMARK 923 INTER-LIGAND FREE ENERGY PREDICTED BY IDOCK:   -7.16 KCAL/MOL
REMARK 924 INTRA-LIGAND FREE ENERGY PREDICTED BY IDOCK:   -0.20 KCAL/MOL
REMARK 927      BINDING AFFINITY PREDICTED BY RF-SCORE:    0.00 PKD
ROOT
HETATM    1  C   UNL     1     -11.307  10.836  67.699  1.00  0.00    -0.328 C  
HETATM    2  C   UNL     1     -11.002  11.472  66.356  1.00  0.00    -0.284 C  
ENDROOT
BRANCH   2   3
HETATM    3  O   UNL     1     -12.211  11.975  65.771  1.00  0.00    -0.520 OA 
BRANCH   3   4
HETATM    4  C   UNL     1     -12.305  13.329  65.655  1.00  0.00    -0.465 C  
HETATM    5  O   UNL     1     -13.379  13.918  65.538  1.00  0.00    -0.662 OA 
HETATM    6  N   UNL     1     -11.078  13.861  65.716  1.00  0.00    -0.292 N  
HETATM    7  H   UNL     1     -10.246  13.292  65.873  1.00  0.00     0.000 HD 
BRANCH   6   8
HETATM    8  C   UNL     1     -11.015  15.192  65.555  1.00  0.00    -0.365 A  
HETATM    9  C   UNL     1     -10.468  16.114  66.415  1.00  0.00    -0.301 A  
HETATM   10  N   UNL     1     -10.504  17.300  65.725  1.00  0.00    -0.540 NA 
HETATM   11  O   UNL     1     -11.463  15.859  64.438  1.00  0.00    -0.428 OA 
HETATM   12  N   UNL     1     -11.113  17.215  64.554  1.00  0.00    -0.979 NA 
BRANCH  10  13
HETATM   13  N   UNL     1      -9.802  18.483  66.099  1.00  0.00    -0.502 NA 
HETATM   14  C   UNL     1     -10.435  19.791  66.072  1.00  0.00    -0.506 C  
HETATM   15  C   UNL     1      -9.838  20.633  67.207  1.00  0.00    -0.388 C  
HETATM   16  O   UNL     1      -8.410  20.692  67.104  1.00  0.00    -0.313 OA 
HETATM   17  C   UNL     1      -7.832  19.382  67.164  1.00  0.00    -0.254 C  
HETATM   18  C   UNL     1      -8.349  18.509  66.018  1.00  0.00    -0.029 C  
ENDBRANCH  10  13
ENDBRANCH   6   8
ENDBRANCH   3   4
ENDBRANCH   2   3
TORSDOF 4
ENDMDL
MODEL        6
REMARK 921   NORMALIZED FREE ENERGY PREDICTED BY IDOCK:   -5.72 KCAL/MOL
REMARK 922        TOTAL FREE ENERGY PREDICTED BY IDOCK:   -7.33 KCAL/MOL
REMARK 923 INTER-LIGAND FREE ENERGY PREDICTED BY IDOCK:   -7.01 KCAL/MOL
REMARK 924 INTRA-LIGAND FREE ENERGY PREDICTED BY IDOCK:   -0.32 KCAL/MOL
REMARK 927      BINDING AFFINITY PREDICTED BY RF-SCORE:    0.00 PKD
ROOT
HETATM    1  C   UNL     1     -10.808  11.437  63.583  1.00  0.00    -0.459 C  
HETATM    2  C   UNL     1     -12.132  12.177  63.553  1.00  0.00    -0.550 C  
ENDROOT
BRANCH   2   3
HETATM    3  O   UNL     1     -12.678  12.251  64.878  1.00  0.00    -0.575 OA 
BRANCH   3   4
HETATM    4  C   UNL     1     -12.560  13.452  65.510  1.00  0.00    -0.465 C  
HETATM    5  O   UNL     1     -13.242  14.433  65.217  1.00  0.00    -0.619 OA 
HETATM    6  N   UNL     1     -11.631  13.353  66.470  1.00  0.00    -0.341 N  
HETATM    7  H   UNL     1     -11.156  12.474  66.678  1.00  0.00     0.000 HD 
BRANCH   6   8
HETATM    8  C   UNL     1     -11.367  14.486  67.140  1.00  0.00    -0.350 A  
HETATM    9  C   UNL     1     -10.517  15.500  66.768  1.00  0.00    -0.295 A  
HETATM   10  N   UNL     1     -10.728  16.490  67.695  1.00  0.00    -0.329 NA 
HETATM   11  O   UNL     1     -11.970  14.842  68.325  1.00  0.00    -0.299 OA 
HETATM   12  N   UNL     1     -11.561  16.143  68.663  1.00  0.00    -0.348 NA 
BRANCH  10  13
HETATM   13  N   UNL     1     -10.277  17.836  67.568  1.00  0.00    -0.340 NA 
HETATM   14  C   UNL     1     -10.041  18.446  66.270  1.00  0.00    -0.392 C  
HETATM   15  C   UNL     1     -10.384  19.938  66.375  1.00  0.00    -0.495 C  
HETATM   16  O   UNL     1      -9.647  20.558  67.436  1.00  0.00    -0.425 OA 
HETATM   17  C   UNL     1      -9.934  19.941  68.697  1.00  0.00    -0.384 C  
HETATM   18  C   UNL     1      -9.558  18.456  68.671  1.00  0.00    -0.340 C  
ENDBRANCH  10  13
ENDBRANCH   6   8
ENDBRANCH   3   4
ENDBRANCH   2   3
TORSDOF 4
ENDMDL
MODEL        7
REMARK 921   NORMALIZED FREE ENERGY PREDICTED BY IDOCK:   -5.71 KCAL/MOL
REMARK 922        TOTAL FREE ENERGY PREDICTED BY IDOCK:   -7.31 KCAL/MOL
REMARK 923 INTER-LIGAND FREE ENERGY PREDICTED BY IDOCK:   -6.94 KCAL/MOL
REMARK 924 INTRA-LIGAND FREE ENERGY PREDICTED BY IDOCK:   -0.37 KCAL/MOL
REMARK 927      BINDING AFFINITY PREDICTED BY RF-SCORE:    0.00 PKD
ROOT
HETATM    1  C   UNL     1      -9.814  11.231  63.255  1.00  0.00    -0.418 C  
HETATM    2  C   UNL     1     -10.968  11.634  64.155  1.00  0.00    -0.376 C  
ENDROOT
BRANCH   2   3
HETATM    3  O   UNL     1     -11.292  13.015  63.939  1.00  0.00    -0.392 OA 
BRANCH   3   4
HETATM    4  C   UNL     1     -11.864  13.668  64.988  1.00  0.00    -0.360 C  
HETATM    5  O   UNL     1     -12.972  14.199  64.922  1.00  0.00    -0.705 OA 
HETATM    6  N   UNL     1     -11.046  13.601  66.046  1.00  0.00    -0.293 N  
HETATM    7  H   UNL     1     -10.166  13.084  66.021  1.00  0.00     0.000 HD 
BRANCH   6   8
HETATM    8  C   UNL     1     -11.460  14.258  67.141  1.00  0.00    -0.359 A  
HETATM    9  C   UNL     1     -12.095  13.734  68.242  1.00  0.00    -0.279 A  
HETATM   10  N   UNL     1     -12.151  14.771  69.140  1.00  0.00    -0.276 NA 
HETATM   11  O   UNL     1     -11.260  15.602  67.359  1.00  0.00    -0.306 OA 
HETATM   12  N   UNL     1     -11.696  15.916  68.658  1.00  0.00    -0.380 NA 
BRANCH  10  13
HETATM   13  N   UNL     1     -12.473  14.637  70.521  1.00  0.00    -0.329 NA 
HETATM   14  C   UNL     1     -12.266  15.723  71.466  1.00  0.00    -0.453 C  
HETATM   15  C   UNL     1     -13.367  15.643  72.532  1.00  0.00    -0.516 C  
HETATM   16  O   UNL     1     -13.389  14.351  73.150  1.00  0.00    -0.626 OA 
HETATM   17  C   UNL     1     -13.623  13.319  72.184  1.00  0.00    -0.562 C  
HETATM   18  C   UNL     1     -12.522  13.311  71.120  1.00  0.00    -0.308 C  
ENDBRANCH  10  13
ENDBRANCH   6   8
ENDBRANCH   3   4
ENDBRANCH   2   3
TORSDOF 4
ENDMDL
MODEL        8
REMARK 921   NORMALIZED FREE ENERGY PREDICTED BY IDOCK:   -5.53 KCAL/MOL
REMARK 922        TOTAL FREE ENERGY PREDICTED BY IDOCK:   -7.10 KCAL/MOL
REMARK 923 INTER-LIGAND FREE ENERGY PREDICTED BY IDOCK:   -6.80 KCAL/MOL
REMARK 924 INTRA-LIGAND FREE ENERGY PREDICTED BY IDOCK:   -0.30 KCAL/MOL
REMARK 927      BINDING AFFINITY PREDICTED BY RF-SCORE:    0.00 PKD
ROOT
HETATM    1  C   UNL     1     -12.621  15.403  74.072  1.00  0.00    -0.741 C  
HETATM    2  C   UNL     1     -12.078  16.275  72.956  1.00  0.00    -0.530 C  
ENDROOT
BRANCH   2   3
HETATM    3  O   UNL     1     -12.743  15.960  71.724  1.00  0.00    -0.447 OA 
BRANCH   3   4
HETATM    4  C   UNL     1     -11.946  15.546  70.700  1.00  0.00    -0.378 C  
HETATM    5  O   UNL     1     -10.739  15.348  70.829  1.00  0.00    -0.306 OA 
HETATM    6  N   UNL     1     -12.694  15.383  69.601  1.00  0.00    -0.610 N  
HETATM    7  H   UNL     1     -13.706  15.517  69.607  1.00  0.00     0.000 HD 
BRANCH   6   8
HETATM    8  C   UNL     1     -12.025  15.031  68.492  1.00  0.00    -0.225 A  
HETATM    9  C   UNL     1     -12.030  13.809  67.863  1.00  0.00    -0.356 A  
HETATM   10  N   UNL     1     -11.332  14.012  66.699  1.00  0.00    -0.324 NA 
HETATM   11  O   UNL     1     -11.237  15.888  67.759  1.00  0.00    -0.326 OA 
HETATM   12  N   UNL     1     -10.809  15.223  66.597  1.00  0.00    -0.311 NA 
BRANCH  10  13
HETATM   13  N   UNL     1     -11.305  13.110  65.596  1.00  0.00    -0.298 NA 
HETATM   14  C   UNL     1     -12.524  12.665  64.940  1.00  0.00    -0.494 C  
HETATM   15  C   UNL     1     -12.215  12.456  63.452  1.00  0.00    -0.523 C  
HETATM   16  O   UNL     1     -11.116  11.553  63.279  1.00  0.00    -0.341 OA 
HETATM   17  C   UNL     1      -9.933  12.049  63.918  1.00  0.00    -0.318 C  
HETATM   18  C   UNL     1     -10.163  12.225  65.422  1.00  0.00    -0.270 C  
ENDBRANCH  10  13
ENDBRANCH   6   8
ENDBRANCH   3   4
ENDBRANCH   2   3
TORSDOF 4
ENDMDL
MODEL        9
REMARK 921   NORMALIZED FREE ENERGY PREDICTED BY IDOCK:   -5.40 KCAL/MOL
REMARK 922        TOTAL FREE ENERGY PREDICTED BY IDOCK:   -6.93 KCAL/MOL
REMARK 923 INTER-LIGAND FREE ENERGY PREDICTED BY IDOCK:   -6.63 KCAL/MOL
REMARK 924 INTRA-LIGAND FREE ENERGY PREDICTED BY IDOCK:   -0.30 KCAL/MOL
REMARK 927      BINDING AFFINITY PREDICTED BY RF-SCORE:    0.00 PKD
ROOT
HETATM    1  C   UNL     1     -10.655  11.363  63.687  1.00  0.00    -0.476 C  
HETATM    2  C   UNL     1     -11.967  12.108  63.528  1.00  0.00    -0.524 C  
ENDROOT
BRANCH   2   3
HETATM    3  O   UNL     1     -12.601  12.255  64.807  1.00  0.00    -0.507 OA 
BRANCH   3   4
HETATM    4  C   UNL     1     -12.444  13.461  65.420  1.00  0.00    -0.494 C  
HETATM    5  O   UNL     1     -13.107  14.453  65.125  1.00  0.00    -0.633 OA 
HETATM    6  N   UNL     1     -11.501  13.353  66.365  1.00  0.00    -0.317 N  
HETATM    7  H   UNL     1     -11.042  12.466  66.577  1.00  0.00     0.000 HD 
BRANCH   6   8
HETATM    8  C   UNL     1     -11.199  14.488  67.015  1.00  0.00    -0.337 A  
HETATM    9  C   UNL     1     -10.242  15.416  66.679  1.00  0.00    -0.277 A  
HETATM   10  N   UNL     1     -10.444  16.457  67.550  1.00  0.00    -0.300 NA 
HETATM   11  O   UNL     1     -11.861  14.939  68.134  1.00  0.00    -0.330 OA 
HETATM   12  N   UNL     1     -11.375  16.217  68.459  1.00  0.00    -0.373 NA 
BRANCH  10  13
HETATM   13  N   UNL     1      -9.875  17.757  67.413  1.00  0.00    -0.301 NA 
HETATM   14  C   UNL     1      -8.564  18.080  67.950  1.00  0.00    -0.257 C  
HETATM   15  C   UNL     1      -7.910  19.111  67.022  1.00  0.00    -0.250 C  
HETATM   16  O   UNL     1      -8.753  20.258  66.856  1.00  0.00    -0.325 OA 
HETATM   17  C   UNL     1     -10.021  19.892  66.298  1.00  0.00    -0.486 C  
HETATM   18  C   UNL     1     -10.749  18.903  67.213  1.00  0.00    -0.449 C  
ENDBRANCH  10  13
ENDBRANCH   6   8
ENDBRANCH   3   4
ENDBRANCH   2   3
TORSDOF 4
ENDMDL
MODEL       10
REMARK 921   NORMALIZED FREE ENERGY PREDICTED BY IDOCK:   -5.35 KCAL/MOL
REMARK 922        TOTAL FREE ENERGY PREDICTED BY IDOCK:   -6.87 KCAL/MOL
REMARK 923 INTER-LIGAND FREE ENERGY PREDICTED BY IDOCK:   -6.56 KCAL/MOL
REMARK 924 INTRA-LIGAND FREE ENERGY PREDICTED BY IDOCK:   -0.31 KCAL/MOL
REMARK 927      BINDING AFFINITY PREDICTED BY RF-SCORE:    0.00 PKD
ROOT
HETATM    1  C   UNL     1     -12.526  15.583  74.284  1.00  0.00    -0.792 C  
HETATM    2  C   UNL     1     -13.364  15.524  73.020  1.00  0.00    -0.548 C  
ENDROOT
BRANCH   2   3
HETATM    3  O   UNL     1     -13.070  14.320  72.298  1.00  0.00    -0.351 OA 
BRANCH   3   4
HETATM    4  C   UNL     1     -12.584  14.480  71.036  1.00  0.00    -0.340 C  
HETATM    5  O   UNL     1     -12.788  15.490  70.363  1.00  0.00    -0.410 OA 
HETATM    6  N   UNL     1     -11.866  13.400  70.702  1.00  0.00    -0.528 N  
HETATM    7  H   UNL     1     -11.705  12.631  71.353  1.00  0.00     0.000 HD 
BRANCH   6   8
HETATM    8  C   UNL     1     -11.373  13.396  69.453  1.00  0.00    -0.226 A  
HETATM    9  C   UNL     1     -11.863  12.720  68.361  1.00  0.00    -0.310 A  
HETATM   10  N   UNL     1     -11.115  13.174  67.304  1.00  0.00    -0.271 NA 
HETATM   11  O   UNL     1     -10.286  14.137  69.048  1.00  0.00    -0.223 OA 
HETATM   12  N   UNL     1     -10.140  13.997  67.657  1.00  0.00    -0.239 NA 
BRANCH  10  13
HETATM   13  N   UNL     1     -11.433  12.967  65.931  1.00  0.00    -0.323 NA 
HETATM   14  C   UNL     1     -12.610  13.561  65.318  1.00  0.00    -0.468 C  
HETATM   15  C   UNL     1     -12.277  13.878  63.855  1.00  0.00    -0.328 C  
HETATM   16  O   UNL     1     -11.811  12.709  63.171  1.00  0.00    -0.470 OA 
HETATM   17  C   UNL     1     -10.635  12.178  63.794  1.00  0.00    -0.439 C  
HETATM   18  C   UNL     1     -10.921  11.789  65.247  1.00  0.00    -0.295 C  
ENDBRANCH  10  13
ENDBRANCH   6   8
ENDBRANCH   3   4
ENDBRANCH   2   3
TORSDOF 4
ENDMDL
MODEL       11
REMARK 921   NORMALIZED FREE ENERGY PREDICTED BY IDOCK:   -5.32 KCAL/MOL
REMARK 922        TOTAL FREE ENERGY PREDICTED BY IDOCK:   -6.84 KCAL/MOL
REMARK 923 INTER-LIGAND FREE ENERGY PREDICTED BY IDOCK:   -6.56 KCAL/MOL
REMARK 924 INTRA-LIGAND FREE ENERGY PREDICTED BY IDOCK:   -0.28 KCAL/MOL
REMARK 927      BINDING AFFINITY PREDICTED BY RF-SCORE:    0.00 PKD
ROOT
HETATM    1  C   UNL     1     -11.036   7.500  72.988  1.00  0.00    -0.443 C  
HETATM    2  C   UNL     1     -11.995   8.430  72.269  1.00  0.00    -0.389 C  
ENDROOT
BRANCH   2   3
HETATM    3  O   UNL     1     -11.289   9.589  71.802  1.00  0.00    -0.370 OA 
BRANCH   3   4
HETATM    4  C   UNL     1     -11.841  10.242  70.743  1.00  0.00    -0.365 C  
HETATM    5  O   UNL     1     -13.055  10.314  70.558  1.00  0.00    -0.320 OA 
HETATM    6  N   UNL     1     -10.863  10.780  70.001  1.00  0.00    -0.457 N  
HETATM    7  H   UNL     1      -9.880  10.715  70.268  1.00  0.00     0.000 HD 
BRANCH   6   8
HETATM    8  C   UNL     1     -11.262  11.408  68.884  1.00  0.00    -0.248 A  
HETATM    9  C   UNL     1     -11.252  12.759  68.634  1.00  0.00    -0.282 A  
HETATM   10  N   UNL     1     -11.593  12.873  67.310  1.00  0.00    -0.339 NA 
HETATM   11  O   UNL     1     -11.715  10.765  67.754  1.00  0.00    -0.547 OA 
HETATM   12  N   UNL     1     -11.910  11.720  66.742  1.00  0.00    -0.568 NA 
BRANCH  10  13
HETATM   13  N   UNL     1     -11.449  14.056  66.529  1.00  0.00    -0.342 NA 
HETATM   14  C   UNL     1     -10.784  15.240  67.046  1.00  0.00    -0.313 C  
HETATM   15  C   UNL     1     -10.074  15.937  65.878  1.00  0.00    -0.352 C  
HETATM   16  O   UNL     1     -10.993  16.221  64.817  1.00  0.00    -0.631 OA 
HETATM   17  C   UNL     1     -11.600  15.021  64.322  1.00  0.00    -0.181 C  
HETATM   18  C   UNL     1     -12.374  14.308  65.434  1.00  0.00    -0.415 C  
ENDBRANCH  10  13
ENDBRANCH   6   8
ENDBRANCH   3   4
ENDBRANCH   2   3
TORSDOF 4
ENDMDL
MODEL       12
REMARK 921   NORMALIZED FREE ENERGY PREDICTED BY IDOCK:   -5.28 KCAL/MOL
REMARK 922        TOTAL FREE ENERGY PREDICTED BY IDOCK:   -6.78 KCAL/MOL
REMARK 923 INTER-LIGAND FREE ENERGY PREDICTED BY IDOCK:   -6.51 KCAL/MOL
REMARK 924 INTRA-LIGAND FREE ENERGY PREDICTED BY IDOCK:   -0.27 KCAL/MOL
REMARK 927      BINDING AFFINITY PREDICTED BY RF-SCORE:    0.00 PKD
ROOT
HETATM    1  C   UNL     1      -6.368  20.690  68.159  1.00  0.00    -0.353 C  
HETATM    2  C   UNL     1      -6.919  19.968  69.375  1.00  0.00    -0.194 C  
ENDROOT
BRANCH   2   3
HETATM    3  O   UNL     1      -7.082  18.573  69.079  1.00  0.00    -0.288 OA 
BRANCH   3   4
HETATM    4  C   UNL     1      -8.197  18.235  68.374  1.00  0.00    -0.311 C  
HETATM    5  O   UNL     1      -9.337  18.487  68.762  1.00  0.00    -0.330 OA 
HETATM    6  N   UNL     1      -7.831  17.634  67.234  1.00  0.00    -0.202 N  
HETATM    7  H   UNL     1      -6.852  17.521  66.970  1.00  0.00     0.000 HD 
BRANCH   6   8
HETATM    8  C   UNL     1      -8.837  17.192  66.463  1.00  0.00    -0.262 A  
HETATM    9  C   UNL     1      -9.224  15.889  66.258  1.00  0.00    -0.337 A  
HETATM   10  N   UNL     1     -10.388  15.981  65.536  1.00  0.00    -0.428 NA 
HETATM   11  O   UNL     1      -9.699  18.011  65.771  1.00  0.00    -0.521 OA 
HETATM   12  N   UNL     1     -10.703  17.218  65.190  1.00  0.00    -0.651 NA 
BRANCH  10  13
HETATM   13  N   UNL     1     -11.301  14.908  65.321  1.00  0.00    -0.354 NA 
HETATM   14  C   UNL     1     -12.050  14.775  64.082  1.00  0.00    -0.299 C  
HETATM   15  C   UNL     1     -12.240  13.280  63.798  1.00  0.00    -0.439 C  
HETATM   16  O   UNL     1     -12.860  12.621  64.909  1.00  0.00    -0.763 OA 
HETATM   17  C   UNL     1     -12.071  12.756  66.098  1.00  0.00    -0.364 C  
HETATM   18  C   UNL     1     -11.893  14.232  66.466  1.00  0.00    -0.415 C  
ENDBRANCH  10  13
ENDBRANCH   6   8
ENDBRANCH   3   4
ENDBRANCH   2   3
TORSDOF 4
ENDMDL
MODEL       13
REMARK 921   NORMALIZED FREE ENERGY PREDICTED BY IDOCK:   -5.27 KCAL/MOL
REMARK 922        TOTAL FREE ENERGY PREDICTED BY IDOCK:   -6.78 KCAL/MOL
REMARK 923 INTER-LIGAND FREE ENERGY PREDICTED BY IDOCK:   -6.40 KCAL/MOL
REMARK 924 INTRA-LIGAND FREE ENERGY PREDICTED BY IDOCK:   -0.37 KCAL/MOL
REMARK 927      BINDING AFFINITY PREDICTED BY RF-SCORE:    0.00 PKD
ROOT
HETATM    1  C   UNL     1     -10.975   6.340  69.715  1.00  0.00    -0.444 C  
HETATM    2  C   UNL     1     -12.173   6.502  70.632  1.00  0.00    -0.097 C  
ENDROOT
BRANCH   2   3
HETATM    3  O   UNL     1     -11.808   7.290  71.774  1.00  0.00    -0.273 OA 
BRANCH   3   4
HETATM    4  C   UNL     1     -11.574   8.611  71.542  1.00  0.00    -0.302 C  
HETATM    5  O   UNL     1     -10.505   9.158  71.806  1.00  0.00    -0.352 OA 
HETATM    6  N   UNL     1     -12.662   9.157  70.982  1.00  0.00    -0.502 N  
HETATM    7  H   UNL     1     -13.487   8.606  70.746  1.00  0.00     0.000 HD 
BRANCH   6   8
HETATM    8  C   UNL     1     -12.593  10.478  70.751  1.00  0.00    -0.382 A  
HETATM    9  C   UNL     1     -13.093  11.492  71.533  1.00  0.00    -0.326 A  
HETATM   10  N   UNL     1     -12.620  12.643  70.956  1.00  0.00    -0.330 NA 
HETATM   11  O   UNL     1     -11.942  11.043  69.678  1.00  0.00    -0.303 OA 
HETATM   12  N   UNL     1     -11.954  12.440  69.831  1.00  0.00    -0.324 NA 
BRANCH  10  13
HETATM   13  N   UNL     1     -12.647  13.932  71.566  1.00  0.00    -0.347 NA 
HETATM   14  C   UNL     1     -13.364  14.178  72.806  1.00  0.00    -0.519 C  
HETATM   15  C   UNL     1     -12.599  15.249  73.594  1.00  0.00    -0.580 C  
HETATM   16  O   UNL     1     -12.411  16.429  72.803  1.00  0.00    -0.465 OA 
HETATM   17  C   UNL     1     -11.676  16.140  71.608  1.00  0.00    -0.484 C  
HETATM   18  C   UNL     1     -12.421  15.114  70.749  1.00  0.00    -0.372 C  
ENDBRANCH  10  13
ENDBRANCH   6   8
ENDBRANCH   3   4
ENDBRANCH   2   3
TORSDOF 4
ENDMDL
MODEL       14
REMARK 921   NORMALIZED FREE ENERGY PREDICTED BY IDOCK:   -5.23 KCAL/MOL
REMARK 922        TOTAL FREE ENERGY PREDICTED BY IDOCK:   -6.72 KCAL/MOL
REMARK 923 INTER-LIGAND FREE ENERGY PREDICTED BY IDOCK:   -6.44 KCAL/MOL
REMARK 924 INTRA-LIGAND FREE ENERGY PREDICTED BY IDOCK:   -0.29 KCAL/MOL
REMARK 927      BINDING AFFINITY PREDICTED BY RF-SCORE:    0.00 PKD
ROOT
HETATM    1  C   UNL     1     -10.602  18.974  67.388  1.00  0.00    -0.559 C  
HETATM    2  C   UNL     1     -10.338  17.673  68.121  1.00  0.00    -0.386 C  
ENDROOT
BRANCH   2   3
HETATM    3  O   UNL     1     -11.296  16.684  67.718  1.00  0.00    -0.144 OA 
BRANCH   3   4
HETATM    4  C   UNL     1     -11.007  15.396  68.051  1.00  0.00    -0.307 C  
HETATM    5  O   UNL     1      -9.858  14.960  68.105  1.00  0.00    -0.212 OA 
HETATM    6  N   UNL     1     -12.147  14.745  68.316  1.00  0.00    -0.573 N  
HETATM    7  H   UNL     1     -13.055  15.210  68.300  1.00  0.00     0.000 HD 
BRANCH   6   8
HETATM    8  C   UNL     1     -12.016  13.440  68.603  1.00  0.00    -0.327 A  
HETATM    9  C   UNL     1     -11.838  12.869  69.841  1.00  0.00    -0.303 A  
HETATM   10  N   UNL     1     -11.930  11.518  69.619  1.00  0.00    -0.332 NA 
HETATM   11  O   UNL     1     -12.091  12.430  67.671  1.00  0.00    -0.470 OA 
HETATM   12  N   UNL     1     -12.049  11.196  68.341  1.00  0.00    -0.603 NA 
BRANCH  10  13
HETATM   13  N   UNL     1     -12.082  10.532  70.637  1.00  0.00    -0.325 NA 
HETATM   14  C   UNL     1     -12.964  10.735  71.775  1.00  0.00    -0.463 C  
HETATM   15  C   UNL     1     -13.545   9.373  72.176  1.00  0.00    -0.457 C  
HETATM   16  O   UNL     1     -12.500   8.425  72.429  1.00  0.00    -0.359 OA 
HETATM   17  C   UNL     1     -11.677   8.239  71.272  1.00  0.00    -0.283 C  
HETATM   18  C   UNL     1     -11.022   9.559  70.855  1.00  0.00    -0.337 C  
ENDBRANCH  10  13
ENDBRANCH   6   8
ENDBRANCH   3   4
ENDBRANCH   2   3
TORSDOF 4
ENDMDL
MODEL       15
REMARK 921   NORMALIZED FREE ENERGY PREDICTED BY IDOCK:   -5.21 KCAL/MOL
REMARK 922        TOTAL FREE ENERGY PREDICTED BY IDOCK:   -6.71 KCAL/MOL
REMARK 923 INTER-LIGAND FREE ENERGY PREDICTED BY IDOCK:   -6.40 KCAL/MOL
REMARK 924 INTRA-LIGAND FREE ENERGY PREDICTED BY IDOCK:   -0.31 KCAL/MOL
REMARK 927      BINDING AFFINITY PREDICTED BY RF-SCORE:    0.00 PKD
ROOT
HETATM    1  C   UNL     1     -12.201   7.396  71.438  1.00  0.00    -0.374 C  
HETATM    2  C   UNL     1     -12.096   8.704  72.200  1.00  0.00    -0.381 C  
ENDROOT
BRANCH   2   3
HETATM    3  O   UNL     1     -11.153   9.569  71.552  1.00  0.00    -0.367 OA 
BRANCH   3   4
HETATM    4  C   UNL     1     -11.654  10.392  70.590  1.00  0.00    -0.349 C  
HETATM    5  O   UNL     1     -12.830  10.754  70.565  1.00  0.00    -0.326 OA 
HETATM    6  N   UNL     1     -10.672  10.729  69.744  1.00  0.00    -0.405 N  
HETATM    7  H   UNL     1      -9.708  10.423  69.881  1.00  0.00     0.000 HD 
BRANCH   6   8
HETATM    8  C   UNL     1     -11.039  11.496  68.706  1.00  0.00    -0.233 A  
HETATM    9  C   UNL     1     -10.715  12.812  68.480  1.00  0.00    -0.253 A  
HETATM   10  N   UNL     1     -11.187  13.078  67.219  1.00  0.00    -0.277 NA 
HETATM   11  O   UNL     1     -11.787  11.049  67.640  1.00  0.00    -0.599 OA 
HETATM   12  N   UNL     1     -11.861  12.074  66.682  1.00  0.00    -0.610 NA 
BRANCH  10  13
HETATM   13  N   UNL     1     -10.847  14.226  66.446  1.00  0.00    -0.303 NA 
HETATM   14  C   UNL     1     -10.909  14.218  64.994  1.00  0.00    -0.403 C  
HETATM   15  C   UNL     1     -11.310  15.623  64.526  1.00  0.00    -0.320 C  
HETATM   16  O   UNL     1     -10.415  16.612  65.050  1.00  0.00    -0.664 OA 
HETATM   17  C   UNL     1     -10.411  16.599  66.483  1.00  0.00    -0.299 C  
HETATM   18  C   UNL     1      -9.963  15.233  67.012  1.00  0.00    -0.234 C  
ENDBRANCH  10  13
ENDBRANCH   6   8
ENDBRANCH   3   4
ENDBRANCH   2   3
TORSDOF 4
ENDMDL
MODEL       16
REMARK 921   NORMALIZED FREE ENERGY PREDICTED BY IDOCK:   -5.19 KCAL/MOL
REMARK 922        TOTAL FREE ENERGY PREDICTED BY IDOCK:   -6.68 KCAL/MOL
REMARK 923 INTER-LIGAND FREE ENERGY PREDICTED BY IDOCK:   -6.44 KCAL/MOL
REMARK 924 INTRA-LIGAND FREE ENERGY PREDICTED BY IDOCK:   -0.24 KCAL/MOL
REMARK 927      BINDING AFFINITY PREDICTED BY RF-SCORE:    0.00 PKD
ROOT
HETATM    1  C   UNL     1     -10.334  19.570  67.798  1.00  0.00    -0.575 C  
HETATM    2  C   UNL     1      -9.779  18.495  66.883  1.00  0.00    -0.322 C  
ENDROOT
BRANCH   2   3
HETATM    3  O   UNL     1     -10.563  18.425  65.684  1.00  0.00    -0.622 OA 
BRANCH   3   4
HETATM    4  C   UNL     1     -10.898  17.176  65.257  1.00  0.00    -0.036 C  
HETATM    5  O   UNL     1     -11.408  16.959  64.159  1.00  0.00    -1.208 OA 
HETATM    6  N   UNL     1     -10.561  16.285  66.198  1.00  0.00    -0.298 N  
HETATM    7  H   UNL     1     -10.086  16.557  67.059  1.00  0.00     0.000 HD 
BRANCH   6   8
HETATM    8  C   UNL     1     -10.889  15.011  65.934  1.00  0.00    -0.337 A  
HETATM    9  C   UNL     1     -10.236  14.133  65.102  1.00  0.00    -0.384 A  
HETATM   10  N   UNL     1     -10.861  12.928  65.305  1.00  0.00    -0.287 NA 
HETATM   11  O   UNL     1     -11.944  14.346  66.517  1.00  0.00    -0.404 OA 
HETATM   12  N   UNL     1     -11.905  13.000  66.115  1.00  0.00    -0.390 NA 
BRANCH  10  13
HETATM   13  N   UNL     1     -10.361  11.666  64.870  1.00  0.00    -0.269 NA 
HETATM   14  C   UNL     1     -10.401  11.266  63.473  1.00  0.00    -0.408 C  
HETATM   15  C   UNL     1      -9.171  10.393  63.192  1.00  0.00    -0.294 C  
HETATM   16  O   UNL     1      -9.113   9.284  64.098  1.00  0.00    -0.166 OA 
HETATM   17  C   UNL     1      -9.046   9.730  65.459  1.00  0.00    -0.196 C  
HETATM   18  C   UNL     1     -10.280  10.564  65.816  1.00  0.00    -0.243 C  
ENDBRANCH  10  13
ENDBRANCH   6   8
ENDBRANCH   3   4
ENDBRANCH   2   3
TORSDOF 4
ENDMDL
MODEL       17
REMARK 921   NORMALIZED FREE ENERGY PREDICTED BY IDOCK:   -5.15 KCAL/MOL
REMARK 922        TOTAL FREE ENERGY PREDICTED BY IDOCK:   -6.63 KCAL/MOL
REMARK 923 INTER-LIGAND FREE ENERGY PREDICTED BY IDOCK:   -6.34 KCAL/MOL
REMARK 924 INTRA-LIGAND FREE ENERGY PREDICTED BY IDOCK:   -0.29 KCAL/MOL
REMARK 927      BINDING AFFINITY PREDICTED BY RF-SCORE:    0.00 PKD
ROOT
HETATM    1  C   UNL     1     -12.532  12.097  63.983  1.00  0.00    -0.541 C  
HETATM    2  C   UNL     1     -12.426  13.331  64.860  1.00  0.00    -0.409 C  
ENDROOT
BRANCH   2   3
HETATM    3  O   UNL     1     -12.324  14.503  64.040  1.00  0.00    -0.697 OA 
BRANCH   3   4
HETATM    4  C   UNL     1     -11.648  15.556  64.578  1.00  0.00    -0.283 C  
HETATM    5  O   UNL     1     -11.533  16.640  64.008  1.00  0.00    -1.192 OA 
HETATM    6  N   UNL     1     -11.184  15.208  65.786  1.00  0.00    -0.321 N  
HETATM    7  H   UNL     1     -11.381  14.298  66.202  1.00  0.00     0.000 HD 
BRANCH   6   8
HETATM    8  C   UNL     1     -10.443  16.137  66.411  1.00  0.00    -0.301 A  
HETATM    9  C   UNL     1      -9.141  16.486  66.147  1.00  0.00    -0.306 A  
HETATM   10  N   UNL     1      -8.906  17.583  66.937  1.00  0.00    -0.243 NA 
HETATM   11  O   UNL     1     -10.910  16.948  67.421  1.00  0.00    -0.278 OA 
HETATM   12  N   UNL     1      -9.913  17.886  67.739  1.00  0.00    -0.316 NA 
BRANCH  10  13
HETATM   13  N   UNL     1      -7.788  18.458  66.806  1.00  0.00    -0.227 NA 
HETATM   14  C   UNL     1      -6.866  18.363  65.686  1.00  0.00    -0.243 C  
HETATM   15  C   UNL     1      -6.365  19.776  65.360  1.00  0.00    -0.251 C  
HETATM   16  O   UNL     1      -5.789  20.394  66.517  1.00  0.00    -0.173 OA 
HETATM   17  C   UNL     1      -6.744  20.491  67.582  1.00  0.00    -0.306 C  
HETATM   18  C   UNL     1      -7.241  19.101  67.991  1.00  0.00    -0.256 C  
ENDBRANCH  10  13
ENDBRANCH   6   8
ENDBRANCH   3   4
ENDBRANCH   2   3
TORSDOF 4
ENDMDL
MODEL       18
REMARK 921   NORMALIZED FREE ENERGY PREDICTED BY IDOCK:   -5.13 KCAL/MOL
REMARK 922        TOTAL FREE ENERGY PREDICTED BY IDOCK:   -6.60 KCAL/MOL
REMARK 923 INTER-LIGAND FREE ENERGY PREDICTED BY IDOCK:   -6.27 KCAL/MOL
REMARK 924 INTRA-LIGAND FREE ENERGY PREDICTED BY IDOCK:   -0.34 KCAL/MOL
REMARK 927      BINDING AFFINITY PREDICTED BY RF-SCORE:    0.00 PKD
ROOT
HETATM    1  C   UNL     1     -10.996  10.169  69.646  1.00  0.00    -0.305 C  
HETATM    2  C   UNL     1     -11.902  11.277  69.143  1.00  0.00    -0.355 C  
ENDROOT
BRANCH   2   3
HETATM    3  O   UNL     1     -11.972  11.235  67.711  1.00  0.00    -0.637 OA 
BRANCH   3   4
HETATM    4  C   UNL     1     -11.781  12.418  67.064  1.00  0.00    -0.353 C  
HETATM    5  O   UNL     1     -12.359  12.711  66.019  1.00  0.00    -0.587 OA 
HETATM    6  N   UNL     1     -10.912  13.163  67.761  1.00  0.00    -0.245 N  
HETATM    7  H   UNL     1     -10.527  12.856  68.654  1.00  0.00     0.000 HD 
BRANCH   6   8
HETATM    8  C   UNL     1     -10.584  14.340  67.206  1.00  0.00    -0.278 A  
HETATM    9  C   UNL     1     -11.020  15.590  67.573  1.00  0.00    -0.316 A  
HETATM   10  N   UNL     1     -10.273  16.458  66.817  1.00  0.00    -0.279 NA 
HETATM   11  O   UNL     1      -9.685  14.485  66.174  1.00  0.00    -0.294 OA 
HETATM   12  N   UNL     1      -9.482  15.856  65.944  1.00  0.00    -0.343 NA 
BRANCH  10  13
HETATM   13  N   UNL     1     -10.176  17.862  67.044  1.00  0.00    -0.343 NA 
HETATM   14  C   UNL     1     -10.129  18.421  68.385  1.00  0.00    -0.390 C  
HETATM   15  C   UNL     1      -9.247  19.676  68.347  1.00  0.00    -0.339 C  
HETATM   16  O   UNL     1      -9.719  20.604  67.363  1.00  0.00    -0.457 OA 
HETATM   17  C   UNL     1      -9.720  20.016  66.056  1.00  0.00    -0.362 C  
HETATM   18  C   UNL     1     -10.631  18.786  66.016  1.00  0.00    -0.386 C  
ENDBRANCH  10  13
ENDBRANCH   6   8
ENDBRANCH   3   4
ENDBRANCH   2   3
TORSDOF 4
ENDMDL
MODEL       19
REMARK 921   NORMALIZED FREE ENERGY PREDICTED BY IDOCK:   -5.10 KCAL/MOL
REMARK 922        TOTAL FREE ENERGY PREDICTED BY IDOCK:   -6.56 KCAL/MOL
REMARK 923 INTER-LIGAND FREE ENERGY PREDICTED BY IDOCK:   -6.26 KCAL/MOL
REMARK 924 INTRA-LIGAND FREE ENERGY PREDICTED BY IDOCK:   -0.30 KCAL/MOL
REMARK 927      BINDING AFFINITY PREDICTED BY RF-SCORE:    0.00 PKD
ROOT
HETATM    1  C   UNL     1     -12.164  13.015  63.340  1.00  0.00    -0.552 C  
HETATM    2  C   UNL     1     -11.354  12.380  64.455  1.00  0.00    -0.340 C  
ENDROOT
BRANCH   2   3
HETATM    3  O   UNL     1     -10.462  13.351  65.021  1.00  0.00    -0.327 OA 
BRANCH   3   4
HETATM    4  C   UNL     1     -10.410  13.397  66.381  1.00  0.00    -0.288 C  
HETATM    5  O   UNL     1      -9.359  13.530  67.006  1.00  0.00    -0.230 OA 
HETATM    6  N   UNL     1     -11.652  13.301  66.872  1.00  0.00    -0.345 N  
HETATM    7  H   UNL     1     -12.473  13.252  66.268  1.00  0.00     0.000 HD 
BRANCH   6   8
HETATM    8  C   UNL     1     -11.745  13.273  68.211  1.00  0.00    -0.353 A  
HETATM    9  C   UNL     1     -11.839  14.345  69.066  1.00  0.00    -0.323 A  
HETATM   10  N   UNL     1     -12.078  13.790  70.298  1.00  0.00    -0.339 NA 
HETATM   11  O   UNL     1     -11.814  12.120  68.958  1.00  0.00    -0.303 OA 
HETATM   12  N   UNL     1     -12.044  12.467  70.300  1.00  0.00    -0.341 NA 
BRANCH  10  13
HETATM   13  N   UNL     1     -12.517  14.511  71.446  1.00  0.00    -0.334 NA 
HETATM   14  C   UNL     1     -11.578  15.095  72.390  1.00  0.00    -0.360 C  
HETATM   15  C   UNL     1     -12.199  16.383  72.945  1.00  0.00    -0.443 C  
HETATM   16  O   UNL     1     -13.488  16.125  73.514  1.00  0.00    -0.638 OA 
HETATM   17  C   UNL     1     -14.385  15.577  72.540  1.00  0.00    -0.276 C  
HETATM   18  C   UNL     1     -13.843  14.256  71.988  1.00  0.00    -0.472 C  
ENDBRANCH  10  13
ENDBRANCH   6   8
ENDBRANCH   3   4
ENDBRANCH   2   3
TORSDOF 4
ENDMDL
MODEL       20
REMARK 921   NORMALIZED FREE ENERGY PREDICTED BY IDOCK:   -5.08 KCAL/MOL
REMARK 922        TOTAL FREE ENERGY PREDICTED BY IDOCK:   -6.54 KCAL/MOL
REMARK 923 INTER-LIGAND FREE ENERGY PREDICTED BY IDOCK:   -6.38 KCAL/MOL
REMARK 924 INTRA-LIGAND FREE ENERGY PREDICTED BY IDOCK:   -0.16 KCAL/MOL
REMARK 927      BINDING AFFINITY PREDICTED BY RF-SCORE:    0.00 PKD
ROOT
HETATM    1  C   UNL     1     -10.698  20.082  65.719  1.00  0.00    -0.357 C  
HETATM    2  C   UNL     1     -10.287  18.654  66.028  1.00  0.00    -0.399 C  
ENDROOT
BRANCH   2   3
HETATM    3  O   UNL     1     -10.857  17.764  65.058  1.00  0.00    -0.774 OA 
BRANCH   3   4
HETATM    4  C   UNL     1     -10.986  16.463  65.439  1.00  0.00    -0.160 C  
HETATM    5  O   UNL     1     -10.765  16.076  66.586  1.00  0.00    -0.311 OA 
HETATM    6  N   UNL     1     -11.398  15.737  64.391  1.00  0.00    -0.742 N  
HETATM    7  H   UNL     1     -11.612  16.160  63.488  1.00  0.00     0.000 HD 
BRANCH   6   8
HETATM    8  C   UNL     1     -11.511  14.418  64.609  1.00  0.00    -0.387 A  
HETATM    9  C   UNL     1     -10.497  13.512  64.813  1.00  0.00    -0.413 A  
HETATM   10  N   UNL     1     -11.134  12.345  65.152  1.00  0.00    -0.300 NA 
HETATM   11  O   UNL     1     -12.711  13.751  64.715  1.00  0.00    -0.647 OA 
HETATM   12  N   UNL     1     -12.453  12.419  65.081  1.00  0.00    -0.601 NA 
BRANCH  10  13
HETATM   13  N   UNL     1     -10.496  11.202  65.718  1.00  0.00    -0.254 NA 
HETATM   14  C   UNL     1     -10.674  10.837  67.113  1.00  0.00    -0.272 C  
HETATM   15  C   UNL     1     -10.622   9.307  67.216  1.00  0.00    -0.233 C  
HETATM   16  O   UNL     1      -9.411   8.797  66.647  1.00  0.00    -0.162 OA 
HETATM   17  C   UNL     1      -9.295   9.159  65.265  1.00  0.00    -0.156 C  
HETATM   18  C   UNL     1      -9.284  10.682  65.103  1.00  0.00    -0.207 C  
ENDBRANCH  10  13
ENDBRANCH   6   8
ENDBRANCH   3   4
ENDBRANCH   2   3
TORSDOF 4
ENDMDL
MODEL       21
REMARK 921   NORMALIZED FREE ENERGY PREDICTED BY IDOCK:   -5.04 KCAL/MOL
REMARK 922        TOTAL FREE ENERGY PREDICTED BY IDOCK:   -6.49 KCAL/MOL
REMARK 923 INTER-LIGAND FREE ENERGY PREDICTED BY IDOCK:   -6.19 KCAL/MOL
REMARK 924 INTRA-LIGAND FREE ENERGY PREDICTED BY IDOCK:   -0.30 KCAL/MOL
REMARK 927      BINDING AFFINITY PREDICTED BY RF-SCORE:    0.00 PKD
ROOT
HETATM    1  C   UNL     1     -14.409   7.278  71.570  1.00  0.00    -0.558 C  
HETATM    2  C   UNL     1     -14.225   8.656  72.177  1.00  0.00    -0.439 C  
ENDROOT
BRANCH   2   3
HETATM    3  O   UNL     1     -12.840   8.872  72.482  1.00  0.00    -0.407 OA 
BRANCH   3   4
HETATM    4  C   UNL     1     -12.144   9.645  71.603  1.00  0.00    -0.402 C  
HETATM    5  O   UNL     1     -10.952   9.471  71.356  1.00  0.00    -0.351 OA 
HETATM    6  N   UNL     1     -12.969  10.560  71.076  1.00  0.00    -0.385 N  
HETATM    7  H   UNL     1     -13.963  10.590  71.302  1.00  0.00     0.000 HD 
BRANCH   6   8
HETATM    8  C   UNL     1     -12.399  11.434  70.231  1.00  0.00    -0.297 A  
HETATM    9  C   UNL     1     -12.137  11.256  68.894  1.00  0.00    -0.224 A  
HETATM   10  N   UNL     1     -11.712  12.485  68.454  1.00  0.00    -0.313 NA 
HETATM   11  O   UNL     1     -12.021  12.711  70.578  1.00  0.00    -0.325 OA 
HETATM   12  N   UNL     1     -11.594  13.383  69.419  1.00  0.00    -0.296 NA 
BRANCH  10  13
HETATM   13  N   UNL     1     -11.586  12.864  67.086  1.00  0.00    -0.343 NA 
HETATM   14  C   UNL     1     -10.732  12.132  66.164  1.00  0.00    -0.272 C  
HETATM   15  C   UNL     1     -11.379  12.182  64.774  1.00  0.00    -0.325 C  
HETATM   16  O   UNL     1     -11.622  13.536  64.371  1.00  0.00    -0.366 OA 
HETATM   17  C   UNL     1     -12.489  14.204  65.294  1.00  0.00    -0.461 C  
HETATM   18  C   UNL     1     -11.869  14.236  66.694  1.00  0.00    -0.421 C  
ENDBRANCH  10  13
ENDBRANCH   6   8
ENDBRANCH   3   4
ENDBRANCH   2   3
TORSDOF 4
ENDMDL
MODEL       22
REMARK 921   NORMALIZED FREE ENERGY PREDICTED BY IDOCK:   -5.04 KCAL/MOL
REMARK 922        TOTAL FREE ENERGY PREDICTED BY IDOCK:   -6.49 KCAL/MOL
REMARK 923 INTER-LIGAND FREE ENERGY PREDICTED BY IDOCK:   -6.20 KCAL/MOL
REMARK 924 INTRA-LIGAND FREE ENERGY PREDICTED BY IDOCK:   -0.29 KCAL/MOL
REMARK 927      BINDING AFFINITY PREDICTED BY RF-SCORE:    0.00 PKD
ROOT
HETATM    1  C   UNL     1     -13.110  15.829  73.282  1.00  0.00    -0.692 C  
HETATM    2  C   UNL     1     -12.032  15.748  72.218  1.00  0.00    -0.493 C  
ENDROOT
BRANCH   2   3
HETATM    3  O   UNL     1     -12.636  15.645  70.921  1.00  0.00    -0.432 OA 
BRANCH   3   4
HETATM    4  C   UNL     1     -11.800  15.341  69.890  1.00  0.00    -0.335 C  
HETATM    5  O   UNL     1     -10.614  15.667  69.872  1.00  0.00    -0.278 OA 
HETATM    6  N   UNL     1     -12.474  14.640  68.970  1.00  0.00    -0.577 N  
HETATM    7  H   UNL     1     -13.449  14.366  69.101  1.00  0.00     0.000 HD 
BRANCH   6   8
HETATM    8  C   UNL     1     -11.784  14.321  67.864  1.00  0.00    -0.359 A  
HETATM    9  C   UNL     1     -11.310  13.083  67.500  1.00  0.00    -0.305 A  
HETATM   10  N   UNL     1     -10.829  13.254  66.226  1.00  0.00    -0.283 NA 
HETATM   11  O   UNL     1     -11.474  15.212  66.861  1.00  0.00    -0.314 OA 
HETATM   12  N   UNL     1     -10.873  14.507  65.804  1.00  0.00    -0.304 NA 
BRANCH  10  13
HETATM   13  N   UNL     1     -10.489  12.195  65.334  1.00  0.00    -0.261 NA 
HETATM   14  C   UNL     1     -10.806  12.255  63.917  1.00  0.00    -0.412 C  
HETATM   15  C   UNL     1      -9.699  11.520  63.149  1.00  0.00    -0.390 C  
HETATM   16  O   UNL     1      -9.538  10.183  63.638  1.00  0.00    -0.294 OA 
HETATM   17  C   UNL     1      -9.198  10.178  65.031  1.00  0.00    -0.217 C  
HETATM   18  C   UNL     1     -10.297  10.851  65.858  1.00  0.00    -0.250 C  
ENDBRANCH  10  13
ENDBRANCH   6   8
ENDBRANCH   3   4
ENDBRANCH   2   3
TORSDOF 4
ENDMDL
MODEL       23
REMARK 921   NORMALIZED FREE ENERGY PREDICTED BY IDOCK:   -5.03 KCAL/MOL
REMARK 922        TOTAL FREE ENERGY PREDICTED BY IDOCK:   -6.48 KCAL/MOL
REMARK 923 INTER-LIGAND FREE ENERGY PREDICTED BY IDOCK:   -6.10 KCAL/MOL
REMARK 924 INTRA-LIGAND FREE ENERGY PREDICTED BY IDOCK:   -0.38 KCAL/MOL
REMARK 927      BINDING AFFINITY PREDICTED BY RF-SCORE:    0.00 PKD
ROOT
HETATM    1  C   UNL     1     -12.574   7.156  71.613  1.00  0.00    -0.410 C  
HETATM    2  C   UNL     1     -12.519   8.615  72.026  1.00  0.00    -0.373 C  
ENDROOT
BRANCH   2   3
HETATM    3  O   UNL     1     -11.190   9.123  71.839  1.00  0.00    -0.364 OA 
BRANCH   3   4
HETATM    4  C   UNL     1     -11.011   9.960  70.780  1.00  0.00    -0.337 C  
HETATM    5  O   UNL     1      -9.934  10.080  70.197  1.00  0.00    -0.252 OA 
HETATM    6  N   UNL     1     -12.171  10.569  70.500  1.00  0.00    -0.318 N  
HETATM    7  H   UNL     1     -13.031  10.360  71.007  1.00  0.00     0.000 HD 
BRANCH   6   8
HETATM    8  C   UNL     1     -12.126  11.472  69.508  1.00  0.00    -0.284 A  
HETATM    9  C   UNL     1     -12.023  12.838  69.624  1.00  0.00    -0.288 A  
HETATM   10  N   UNL     1     -11.848  13.285  68.338  1.00  0.00    -0.354 NA 
HETATM   11  O   UNL     1     -12.126  11.152  68.170  1.00  0.00    -0.633 OA 
HETATM   12  N   UNL     1     -11.931  12.329  67.427  1.00  0.00    -0.544 NA 
BRANCH  10  13
HETATM   13  N   UNL     1     -11.423  14.598  67.982  1.00  0.00    -0.310 NA 
HETATM   14  C   UNL     1     -11.630  15.736  68.862  1.00  0.00    -0.394 C  
HETATM   15  C   UNL     1     -10.457  16.706  68.672  1.00  0.00    -0.323 C  
HETATM   16  O   UNL     1     -10.315  17.073  67.294  1.00  0.00    -0.301 OA 
HETATM   17  C   UNL     1     -10.085  15.922  66.472  1.00  0.00    -0.282 C  
HETATM   18  C   UNL     1     -11.254  14.939  66.577  1.00  0.00    -0.335 C  
ENDBRANCH  10  13
ENDBRANCH   6   8
ENDBRANCH   3   4
ENDBRANCH   2   3
TORSDOF 4
ENDMDL
MODEL       24
REMARK 921   NORMALIZED FREE ENERGY PREDICTED BY IDOCK:   -5.03 KCAL/MOL
REMARK 922        TOTAL FREE ENERGY PREDICTED BY IDOCK:   -6.47 KCAL/MOL
REMARK 923 INTER-LIGAND FREE ENERGY PREDICTED BY IDOCK:   -6.18 KCAL/MOL
REMARK 924 INTRA-LIGAND FREE ENERGY PREDICTED BY IDOCK:   -0.29 KCAL/MOL
REMARK 927      BINDING AFFINITY PREDICTED BY RF-SCORE:    0.00 PKD
ROOT
HETATM    1  C   UNL     1     -10.110  20.212  66.018  1.00  0.00    -0.497 C  
HETATM    2  C   UNL     1      -8.810  19.454  66.213  1.00  0.00    -0.351 C  
ENDROOT
BRANCH   2   3
HETATM    3  O   UNL     1      -8.990  18.079  65.845  1.00  0.00    -0.506 OA 
BRANCH   3   4
HETATM    4  C   UNL     1      -9.112  17.193  66.872  1.00  0.00    -0.238 C  
HETATM    5  O   UNL     1      -8.166  16.860  67.584  1.00  0.00    -0.182 OA 
HETATM    6  N   UNL     1     -10.389  16.800  66.964  1.00  0.00    -0.302 N  
HETATM    7  H   UNL     1     -11.119  17.178  66.360  1.00  0.00     0.000 HD 
BRANCH   6   8
HETATM    8  C   UNL     1     -10.644  15.875  67.903  1.00  0.00    -0.300 A  
HETATM    9  C   UNL     1     -10.933  16.087  69.230  1.00  0.00    -0.306 A  
HETATM   10  N   UNL     1     -11.275  14.850  69.715  1.00  0.00    -0.269 NA 
HETATM   11  O   UNL     1     -10.707  14.522  67.660  1.00  0.00    -0.250 OA 
HETATM   12  N   UNL     1     -11.130  13.874  68.833  1.00  0.00    -0.257 NA 
BRANCH  10  13
HETATM   13  N   UNL     1     -11.912  14.612  70.968  1.00  0.00    -0.325 NA 
HETATM   14  C   UNL     1     -11.553  15.356  72.164  1.00  0.00    -0.462 C  
HETATM   15  C   UNL     1     -12.815  15.518  73.021  1.00  0.00    -0.472 C  
HETATM   16  O   UNL     1     -13.409  14.245  73.303  1.00  0.00    -0.596 OA 
HETATM   17  C   UNL     1     -13.771  13.564  72.095  1.00  0.00    -0.559 C  
HETATM   18  C   UNL     1     -12.538  13.322  71.219  1.00  0.00    -0.308 C  
ENDBRANCH  10  13
ENDBRANCH   6   8
ENDBRANCH   3   4
ENDBRANCH   2   3
TORSDOF 4
ENDMDL
MODEL       25
REMARK 921   NORMALIZED FREE ENERGY PREDICTED BY IDOCK:   -5.03 KCAL/MOL
REMARK 922        TOTAL FREE ENERGY PREDICTED BY IDOCK:   -6.47 KCAL/MOL
REMARK 923 INTER-LIGAND FREE ENERGY PREDICTED BY IDOCK:   -6.14 KCAL/MOL
REMARK 924 INTRA-LIGAND FREE ENERGY PREDICTED BY IDOCK:   -0.33 KCAL/MOL
REMARK 927      BINDING AFFINITY PREDICTED BY RF-SCORE:    0.00 PKD
ROOT
HETATM    1  C   UNL     1     -11.400   5.388  72.719  1.00  0.00    -0.358 C  
HETATM    2  C   UNL     1     -11.490   6.227  71.458  1.00  0.00    -0.293 C  
ENDROOT
BRANCH   2   3
HETATM    3  O   UNL     1     -12.543   7.192  71.591  1.00  0.00    -0.343 OA 
BRANCH   3   4
HETATM    4  C   UNL     1     -12.156   8.495  71.680  1.00  0.00    -0.321 C  
HETATM    5  O   UNL     1     -11.129   8.850  72.256  1.00  0.00    -0.339 OA 
HETATM    6  N   UNL     1     -13.046   9.262  71.036  1.00  0.00    -0.541 N  
HETATM    7  H   UNL     1     -13.842   8.867  70.536  1.00  0.00     0.000 HD 
BRANCH   6   8
HETATM    8  C   UNL     1     -12.820  10.584  71.094  1.00  0.00    -0.416 A  
HETATM    9  C   UNL     1     -12.147  11.359  70.179  1.00  0.00    -0.357 A  
HETATM   10  N   UNL     1     -12.337  12.648  70.608  1.00  0.00    -0.342 NA 
HETATM   11  O   UNL     1     -13.288  11.406  72.093  1.00  0.00    -0.469 OA 
HETATM   12  N   UNL     1     -12.983  12.737  71.759  1.00  0.00    -0.351 NA 
BRANCH  10  13
HETATM   13  N   UNL     1     -12.060  13.814  69.835  1.00  0.00    -0.337 NA 
HETATM   14  C   UNL     1     -12.337  15.150  70.337  1.00  0.00    -0.363 C  
HETATM   15  C   UNL     1     -11.273  16.101  69.772  1.00  0.00    -0.343 C  
HETATM   16  O   UNL     1     -11.230  16.029  68.342  1.00  0.00    -0.339 OA 
HETATM   17  C   UNL     1     -10.926  14.701  67.898  1.00  0.00    -0.277 C  
HETATM   18  C   UNL     1     -11.988  13.711  68.385  1.00  0.00    -0.356 C  
ENDBRANCH  10  13
ENDBRANCH   6   8
ENDBRANCH   3   4
ENDBRANCH   2   3
TORSDOF 4
ENDMDL
MODEL       26
REMARK 921   NORMALIZED FREE ENERGY PREDICTED BY IDOCK:   -5.01 KCAL/MOL
REMARK 922        TOTAL FREE ENERGY PREDICTED BY IDOCK:   -6.45 KCAL/MOL
REMARK 923 INTER-LIGAND FREE ENERGY PREDICTED BY IDOCK:   -6.19 KCAL/MOL
REMARK 924 INTRA-LIGAND FREE ENERGY PREDICTED BY IDOCK:   -0.26 KCAL/MOL
REMARK 927      BINDING AFFINITY PREDICTED BY RF-SCORE:    0.00 PKD
ROOT
HETATM    1  C   UNL     1     -12.637  11.940  63.380  1.00  0.00    -0.555 C  
HETATM    2  C   UNL     1     -11.255  12.486  63.688  1.00  0.00    -0.483 C  
ENDROOT
BRANCH   2   3
HETATM    3  O   UNL     1     -11.368  13.673  64.486  1.00  0.00    -0.351 OA 
BRANCH   3   4
HETATM    4  C   UNL     1     -11.919  13.515  65.722  1.00  0.00    -0.403 C  
HETATM    5  O   UNL     1     -13.007  13.995  66.036  1.00  0.00    -0.381 OA 
HETATM    6  N   UNL     1     -11.104  12.762  66.472  1.00  0.00    -0.277 N  
HETATM    7  H   UNL     1     -10.243  12.358  66.103  1.00  0.00     0.000 HD 
BRANCH   6   8
HETATM    8  C   UNL     1     -11.497  12.573  67.742  1.00  0.00    -0.321 A  
HETATM    9  C   UNL     1     -11.879  11.393  68.334  1.00  0.00    -0.274 A  
HETATM   10  N   UNL     1     -12.019  11.699  69.664  1.00  0.00    -0.322 NA 
HETATM   11  O   UNL     1     -11.531  13.564  68.697  1.00  0.00    -0.264 OA 
HETATM   12  N   UNL     1     -11.854  12.983  69.935  1.00  0.00    -0.325 NA 
BRANCH  10  13
HETATM   13  N   UNL     1     -12.137  10.741  70.713  1.00  0.00    -0.344 NA 
HETATM   14  C   UNL     1     -13.054  10.931  71.826  1.00  0.00    -0.459 C  
HETATM   15  C   UNL     1     -13.565   9.552  72.263  1.00  0.00    -0.418 C  
HETATM   16  O   UNL     1     -12.474   8.676  72.570  1.00  0.00    -0.391 OA 
HETATM   17  C   UNL     1     -11.616   8.498  71.436  1.00  0.00    -0.289 C  
HETATM   18  C   UNL     1     -11.029   9.839  70.986  1.00  0.00    -0.332 C  
ENDBRANCH  10  13
ENDBRANCH   6   8
ENDBRANCH   3   4
ENDBRANCH   2   3
TORSDOF 4
ENDMDL
MODEL       27
REMARK 921   NORMALIZED FREE ENERGY PREDICTED BY IDOCK:   -5.01 KCAL/MOL
REMARK 922        TOTAL FREE ENERGY PREDICTED BY IDOCK:   -6.45 KCAL/MOL
REMARK 923 INTER-LIGAND FREE ENERGY PREDICTED BY IDOCK:   -6.08 KCAL/MOL
REMARK 924 INTRA-LIGAND FREE ENERGY PREDICTED BY IDOCK:   -0.37 KCAL/MOL
REMARK 927      BINDING AFFINITY PREDICTED BY RF-SCORE:    0.00 PKD
ROOT
HETATM    1  C   UNL     1      -6.770  20.853  67.455  1.00  0.00    -0.427 C  
HETATM    2  C   UNL     1      -7.736  20.055  66.600  1.00  0.00    -0.297 C  
ENDROOT
BRANCH   2   3
HETATM    3  O   UNL     1      -9.046  20.091  67.184  1.00  0.00    -0.331 OA 
BRANCH   3   4
HETATM    4  C   UNL     1      -9.849  19.022  66.926  1.00  0.00    -0.331 C  
HETATM    5  O   UNL     1     -11.038  18.988  67.237  1.00  0.00    -0.382 OA 
HETATM    6  N   UNL     1      -9.139  18.085  66.284  1.00  0.00    -0.227 N  
HETATM    7  H   UNL     1      -8.165  18.229  66.017  1.00  0.00     0.000 HD 
BRANCH   6   8
HETATM    8  C   UNL     1      -9.794  16.944  66.017  1.00  0.00    -0.258 A  
HETATM    9  C   UNL     1      -9.784  15.781  66.750  1.00  0.00    -0.238 A  
HETATM   10  N   UNL     1     -10.732  14.986  66.156  1.00  0.00    -0.318 NA 
HETATM   11  O   UNL     1     -10.648  16.774  64.951  1.00  0.00    -0.702 OA 
HETATM   12  N   UNL     1     -11.258  15.513  65.062  1.00  0.00    -0.376 NA 
BRANCH  10  13
HETATM   13  N   UNL     1     -11.271  13.796  66.725  1.00  0.00    -0.309 NA 
HETATM   14  C   UNL     1     -11.659  12.661  65.904  1.00  0.00    -0.396 C  
HETATM   15  C   UNL     1     -11.396  11.380  66.705  1.00  0.00    -0.179 C  
HETATM   16  O   UNL     1     -12.067  11.420  67.971  1.00  0.00    -0.629 OA 
HETATM   17  C   UNL     1     -11.630  12.538  68.753  1.00  0.00    -0.322 C  
HETATM   18  C   UNL     1     -11.919  13.855  68.026  1.00  0.00    -0.355 C  
ENDBRANCH  10  13
ENDBRANCH   6   8
ENDBRANCH   3   4
ENDBRANCH   2   3
TORSDOF 4
ENDMDL
MODEL       28
REMARK 921   NORMALIZED FREE ENERGY PREDICTED BY IDOCK:   -5.00 KCAL/MOL
REMARK 922        TOTAL FREE ENERGY PREDICTED BY IDOCK:   -6.44 KCAL/MOL
REMARK 923 INTER-LIGAND FREE ENERGY PREDICTED BY IDOCK:   -6.08 KCAL/MOL
REMARK 924 INTRA-LIGAND FREE ENERGY PREDICTED BY IDOCK:   -0.36 KCAL/MOL
REMARK 927      BINDING AFFINITY PREDICTED BY RF-SCORE:    0.00 PKD
ROOT
HETATM    1  C   UNL     1     -11.710   6.723  70.533  1.00  0.00    -0.430 C  
HETATM    2  C   UNL     1     -12.177   7.877  71.400  1.00  0.00    -0.313 C  
ENDROOT
BRANCH   2   3
HETATM    3  O   UNL     1     -11.280   8.987  71.256  1.00  0.00    -0.265 OA 
BRANCH   3   4
HETATM    4  C   UNL     1     -11.719  10.019  70.484  1.00  0.00    -0.318 C  
HETATM    5  O   UNL     1     -12.910  10.292  70.346  1.00  0.00    -0.273 OA 
HETATM    6  N   UNL     1     -10.663  10.654  69.958  1.00  0.00    -0.448 N  
HETATM    7  H   UNL     1      -9.703  10.387  70.178  1.00  0.00     0.000 HD 
BRANCH   6   8
HETATM    8  C   UNL     1     -10.952  11.663  69.122  1.00  0.00    -0.219 A  
HETATM    9  C   UNL     1     -10.946  11.641  67.748  1.00  0.00    -0.233 A  
HETATM   10  N   UNL     1     -11.470  12.854  67.376  1.00  0.00    -0.315 NA 
HETATM   11  O   UNL     1     -11.363  12.912  69.530  1.00  0.00    -0.230 OA 
HETATM   12  N   UNL     1     -11.708  13.664  68.394  1.00  0.00    -0.338 NA 
BRANCH  10  13
HETATM   13  N   UNL     1     -11.913  13.183  66.062  1.00  0.00    -0.412 NA 
HETATM   14  C   UNL     1     -12.768  14.330  65.806  1.00  0.00    -0.340 C  
HETATM   15  C   UNL     1     -12.407  14.896  64.427  1.00  0.00    -0.323 C  
HETATM   16  O   UNL     1     -12.500  13.883  63.418  1.00  0.00    -0.833 OA 
HETATM   17  C   UNL     1     -11.618  12.788  63.700  1.00  0.00    -0.506 C  
HETATM   18  C   UNL     1     -11.967  12.144  65.044  1.00  0.00    -0.281 C  
ENDBRANCH  10  13
ENDBRANCH   6   8
ENDBRANCH   3   4
ENDBRANCH   2   3
TORSDOF 4
ENDMDL
MODEL       29
REMARK 921   NORMALIZED FREE ENERGY PREDICTED BY IDOCK:   -4.91 KCAL/MOL
REMARK 922        TOTAL FREE ENERGY PREDICTED BY IDOCK:   -6.33 KCAL/MOL
REMARK 923 INTER-LIGAND FREE ENERGY PREDICTED BY IDOCK:   -6.08 KCAL/MOL
REMARK 924 INTRA-LIGAND FREE ENERGY PREDICTED BY IDOCK:   -0.25 KCAL/MOL
REMARK 927      BINDING AFFINITY PREDICTED BY RF-SCORE:    0.00 PKD
ROOT
HETATM    1  C   UNL     1     -10.417   5.025  72.162  1.00  0.00    -0.274 C  
HETATM    2  C   UNL     1     -11.154   6.269  72.623  1.00  0.00    -0.263 C  
ENDROOT
BRANCH   2   3
HETATM    3  O   UNL     1     -12.452   6.317  72.014  1.00  0.00    -0.306 OA 
BRANCH   3   4
HETATM    4  C   UNL     1     -12.852   7.533  71.548  1.00  0.00    -0.360 C  
HETATM    5  O   UNL     1     -14.011   7.773  71.212  1.00  0.00    -0.319 OA 
HETATM    6  N   UNL     1     -11.806   8.369  71.550  1.00  0.00    -0.284 N  
HETATM    7  H   UNL     1     -10.890   8.093  71.904  1.00  0.00     0.000 HD 
BRANCH   6   8
HETATM    8  C   UNL     1     -12.044   9.595  71.057  1.00  0.00    -0.337 A  
HETATM    9  C   UNL     1     -12.683  10.639  71.681  1.00  0.00    -0.426 A  
HETATM   10  N   UNL     1     -12.520  11.706  70.833  1.00  0.00    -0.377 NA 
HETATM   11  O   UNL     1     -11.623  10.026  69.819  1.00  0.00    -0.216 OA 
HETATM   12  N   UNL     1     -11.923  11.393  69.694  1.00  0.00    -0.334 NA 
BRANCH  10  13
HETATM   13  N   UNL     1     -12.774  13.066  71.174  1.00  0.00    -0.336 NA 
HETATM   14  C   UNL     1     -13.726  13.432  72.210  1.00  0.00    -0.607 C  
HETATM   15  C   UNL     1     -13.217  14.706  72.896  1.00  0.00    -0.512 C  
HETATM   16  O   UNL     1     -12.992  15.748  71.939  1.00  0.00    -0.444 OA 
HETATM   17  C   UNL     1     -12.027  15.351  70.956  1.00  0.00    -0.359 C  
HETATM   18  C   UNL     1     -12.507  14.111  70.197  1.00  0.00    -0.331 C  
ENDBRANCH  10  13
ENDBRANCH   6   8
ENDBRANCH   3   4
ENDBRANCH   2   3
TORSDOF 4
ENDMDL
MODEL       30
REMARK 921   NORMALIZED FREE ENERGY PREDICTED BY IDOCK:   -4.78 KCAL/MOL
REMARK 922        TOTAL FREE ENERGY PREDICTED BY IDOCK:   -6.16 KCAL/MOL
REMARK 923 INTER-LIGAND FREE ENERGY PREDICTED BY IDOCK:   -5.87 KCAL/MOL
REMARK 924 INTRA-LIGAND FREE ENERGY PREDICTED BY IDOCK:   -0.29 KCAL/MOL
REMARK 927      BINDING AFFINITY PREDICTED BY RF-SCORE:    0.00 PKD
ROOT
HETATM    1  C   UNL     1      -9.936  19.810  66.630  1.00  0.00    -0.556 C  
HETATM    2  C   UNL     1     -10.359  19.589  68.070  1.00  0.00    -0.445 C  
ENDROOT
BRANCH   2   3
HETATM    3  O   UNL     1      -9.485  18.636  68.693  1.00  0.00    -0.342 OA 
BRANCH   3   4
HETATM    4  C   UNL     1      -9.592  17.350  68.258  1.00  0.00    -0.292 C  
HETATM    5  O   UNL     1      -8.688  16.769  67.658  1.00  0.00    -0.200 OA 
HETATM    6  N   UNL     1     -10.789  16.864  68.612  1.00  0.00    -0.338 N  
HETATM    7  H   UNL     1     -11.454  17.407  69.162  1.00  0.00     0.000 HD 
BRANCH   6   8
HETATM    8  C   UNL     1     -11.055  15.617  68.194  1.00  0.00    -0.330 A  
HETATM    9  C   UNL     1     -11.396  15.213  66.925  1.00  0.00    -0.264 A  
HETATM   10  N   UNL     1     -11.396  13.842  66.982  1.00  0.00    -0.313 NA 
HETATM   11  O   UNL     1     -10.974  14.499  68.993  1.00  0.00    -0.240 OA 
HETATM   12  N   UNL     1     -11.181  13.361  68.196  1.00  0.00    -0.259 NA 
BRANCH  10  13
HETATM   13  N   UNL     1     -11.424  12.979  65.849  1.00  0.00    -0.323 NA 
HETATM   14  C   UNL     1     -12.587  12.891  64.980  1.00  0.00    -0.472 C  
HETATM   15  C   UNL     1     -12.095  12.619  63.553  1.00  0.00    -0.561 C  
HETATM   16  O   UNL     1     -11.267  11.451  63.510  1.00  0.00    -0.391 OA 
HETATM   17  C   UNL     1     -10.122  11.597  64.360  1.00  0.00    -0.279 C  
HETATM   18  C   UNL     1     -10.550  11.816  65.813  1.00  0.00    -0.268 C  
ENDBRANCH  10  13
ENDBRANCH   6   8
ENDBRANCH   3   4
ENDBRANCH   2   3
TORSDOF 4
ENDMDL
MODEL       31
REMARK 921   NORMALIZED FREE ENERGY PREDICTED BY IDOCK:   -4.76 KCAL/MOL
REMARK 922        TOTAL FREE ENERGY PREDICTED BY IDOCK:   -6.15 KCAL/MOL
REMARK 923 INTER-LIGAND FREE ENERGY PREDICTED BY IDOCK:   -5.79 KCAL/MOL
REMARK 924 INTRA-LIGAND FREE ENERGY PREDICTED BY IDOCK:   -0.36 KCAL/MOL
REMARK 927      BINDING AFFINITY PREDICTED BY RF-SCORE:    0.00 PKD
ROOT
HETATM    1  C   UNL     1     -10.621  15.570  65.377  1.00  0.00    -0.428 C  
HETATM    2  C   UNL     1     -11.712  14.588  64.990  1.00  0.00    -0.392 C  
ENDROOT
BRANCH   2   3
HETATM    3  O   UNL     1     -12.435  14.179  66.160  1.00  0.00    -0.466 OA 
BRANCH   3   4
HETATM    4  C   UNL     1     -12.017  13.025  66.750  1.00  0.00    -0.369 C  
HETATM    5  O   UNL     1     -12.029  11.937  66.177  1.00  0.00    -0.537 OA 
HETATM    6  N   UNL     1     -11.595  13.295  67.993  1.00  0.00    -0.314 N  
HETATM    7  H   UNL     1     -11.570  14.245  68.363  1.00  0.00     0.000 HD 
BRANCH   6   8
HETATM    8  C   UNL     1     -11.208  12.233  68.716  1.00  0.00    -0.265 A  
HETATM    9  C   UNL     1     -11.955  11.519  69.622  1.00  0.00    -0.339 A  
HETATM   10  N   UNL     1     -11.168  10.446  69.956  1.00  0.00    -0.295 NA 
HETATM   11  O   UNL     1      -9.967  11.644  68.623  1.00  0.00    -0.209 OA 
HETATM   12  N   UNL     1      -9.961  10.484  69.416  1.00  0.00    -0.219 NA 
BRANCH  10  13
HETATM   13  N   UNL     1     -11.620   9.287  70.652  1.00  0.00    -0.267 NA 
HETATM   14  C   UNL     1     -12.570   9.374  71.749  1.00  0.00    -0.387 C  
HETATM   15  C   UNL     1     -13.443   8.112  71.724  1.00  0.00    -0.350 C  
HETATM   16  O   UNL     1     -12.635   6.930  71.765  1.00  0.00    -0.350 OA 
HETATM   17  C   UNL     1     -11.737   6.877  70.650  1.00  0.00    -0.367 C  
HETATM   18  C   UNL     1     -10.798   8.087  70.653  1.00  0.00    -0.234 C  
ENDBRANCH  10  13
ENDBRANCH   6   8
ENDBRANCH   3   4
ENDBRANCH   2   3
TORSDOF 4
ENDMDL
MODEL       32
REMARK 921   NORMALIZED FREE ENERGY PREDICTED BY IDOCK:   -4.76 KCAL/MOL
REMARK 922        TOTAL FREE ENERGY PREDICTED BY IDOCK:   -6.14 KCAL/MOL
REMARK 923 INTER-LIGAND FREE ENERGY PREDICTED BY IDOCK:   -5.80 KCAL/MOL
REMARK 924 INTRA-LIGAND FREE ENERGY PREDICTED BY IDOCK:   -0.34 KCAL/MOL
REMARK 927      BINDING AFFINITY PREDICTED BY RF-SCORE:    0.00 PKD
ROOT
HETATM    1  C   UNL     1     -11.778  10.298  70.117  1.00  0.00    -0.364 C  
HETATM    2  C   UNL     1     -12.082  11.564  69.338  1.00  0.00    -0.279 C  
ENDROOT
BRANCH   2   3
HETATM    3  O   UNL     1     -11.845  11.343  67.940  1.00  0.00    -0.588 OA 
BRANCH   3   4
HETATM    4  C   UNL     1     -11.202  12.341  67.275  1.00  0.00    -0.300 C  
HETATM    5  O   UNL     1     -10.033  12.252  66.901  1.00  0.00    -0.208 OA 
HETATM    6  N   UNL     1     -12.046  13.366  67.097  1.00  0.00    -0.352 N  
HETATM    7  H   UNL     1     -13.021  13.324  67.395  1.00  0.00     0.000 HD 
BRANCH   6   8
HETATM    8  C   UNL     1     -11.525  14.450  66.502  1.00  0.00    -0.362 A  
HETATM    9  C   UNL     1     -11.027  15.579  67.107  1.00  0.00    -0.295 A  
HETATM   10  N   UNL     1     -10.467  16.305  66.086  1.00  0.00    -0.329 NA 
HETATM   11  O   UNL     1     -11.357  14.581  65.142  1.00  0.00    -0.335 OA 
HETATM   12  N   UNL     1     -10.660  15.775  64.889  1.00  0.00    -0.534 NA 
BRANCH  10  13
HETATM   13  N   UNL     1      -9.592  17.417  66.259  1.00  0.00    -0.391 NA 
HETATM   14  C   UNL     1      -8.179  17.242  66.549  1.00  0.00    -0.276 C  
HETATM   15  C   UNL     1      -7.411  18.395  65.889  1.00  0.00    -0.203 C  
HETATM   16  O   UNL     1      -7.925  19.663  66.315  1.00  0.00    -0.300 OA 
HETATM   17  C   UNL     1      -9.312  19.798  65.983  1.00  0.00    -0.298 C  
HETATM   18  C   UNL     1     -10.141  18.703  66.661  1.00  0.00    -0.385 C  
ENDBRANCH  10  13
ENDBRANCH   6   8
ENDBRANCH   3   4
ENDBRANCH   2   3
TORSDOF 4
ENDMDL
MODEL       33
REMARK 921   NORMALIZED FREE ENERGY PREDICTED BY IDOCK:   -4.74 KCAL/MOL
REMARK 922        TOTAL FREE ENERGY PREDICTED BY IDOCK:   -6.12 KCAL/MOL
REMARK 923 INTER-LIGAND FREE ENERGY PREDICTED BY IDOCK:   -6.02 KCAL/MOL
REMARK 924 INTRA-LIGAND FREE ENERGY PREDICTED BY IDOCK:   -0.10 KCAL/MOL
REMARK 927      BINDING AFFINITY PREDICTED BY RF-SCORE:    0.00 PKD
ROOT
HETATM    1  C   UNL     1     -11.093  14.952  65.947  1.00  0.00    -0.338 C  
HETATM    2  C   UNL     1     -12.084  14.090  66.707  1.00  0.00    -0.447 C  
ENDROOT
BRANCH   2   3
HETATM    3  O   UNL     1     -11.568  13.793  68.012  1.00  0.00    -0.293 OA 
BRANCH   3   4
HETATM    4  C   UNL     1     -11.864  12.560  68.509  1.00  0.00    -0.295 C  
HETATM    5  O   UNL     1     -12.194  11.613  67.798  1.00  0.00    -0.560 OA 
HETATM    6  N   UNL     1     -11.712  12.575  69.840  1.00  0.00    -0.477 N  
HETATM    7  H   UNL     1     -11.376  13.399  70.340  1.00  0.00     0.000 HD 
BRANCH   6   8
HETATM    8  C   UNL     1     -12.029  11.435  70.472  1.00  0.00    -0.356 A  
HETATM    9  C   UNL     1     -11.354  10.238  70.431  1.00  0.00    -0.332 A  
HETATM   10  N   UNL     1     -11.979   9.452  71.366  1.00  0.00    -0.344 NA 
HETATM   11  O   UNL     1     -13.095  11.297  71.332  1.00  0.00    -0.388 OA 
HETATM   12  N   UNL     1     -13.041  10.019  71.913  1.00  0.00    -0.442 NA 
BRANCH  10  13
HETATM   13  N   UNL     1     -11.464   8.224  71.874  1.00  0.00    -0.288 NA 
HETATM   14  C   UNL     1     -10.262   8.175  72.690  1.00  0.00    -0.318 C  
HETATM   15  C   UNL     1     -10.417   7.030  73.699  1.00  0.00    -0.376 C  
HETATM   16  O   UNL     1     -10.700   5.794  73.032  1.00  0.00    -0.225 OA 
HETATM   17  C   UNL     1     -11.907   5.884  72.266  1.00  0.00    -0.208 C  
HETATM   18  C   UNL     1     -11.792   6.977  71.199  1.00  0.00    -0.338 C  
ENDBRANCH  10  13
ENDBRANCH   6   8
ENDBRANCH   3   4
ENDBRANCH   2   3
TORSDOF 4
ENDMDL
MODEL       34
REMARK 921   NORMALIZED FREE ENERGY PREDICTED BY IDOCK:   -4.71 KCAL/MOL
REMARK 922        TOTAL FREE ENERGY PREDICTED BY IDOCK:   -6.08 KCAL/MOL
REMARK 923 INTER-LIGAND FREE ENERGY PREDICTED BY IDOCK:   -5.77 KCAL/MOL
REMARK 924 INTRA-LIGAND FREE ENERGY PREDICTED BY IDOCK:   -0.31 KCAL/MOL
REMARK 927      BINDING AFFINITY PREDICTED BY RF-SCORE:    0.00 PKD
ROOT
HETATM    1  C   UNL     1     -10.651  19.285  67.445  1.00  0.00    -0.594 C  
HETATM    2  C   UNL     1     -10.220  18.125  68.324  1.00  0.00    -0.389 C  
ENDROOT
BRANCH   2   3
HETATM    3  O   UNL     1     -10.774  16.902  67.820  1.00  0.00    -0.339 OA 
BRANCH   3   4
HETATM    4  C   UNL     1     -10.851  15.868  68.703  1.00  0.00    -0.291 C  
HETATM    5  O   UNL     1     -10.043  15.706  69.616  1.00  0.00    -0.262 OA 
HETATM    6  N   UNL     1     -11.927  15.124  68.415  1.00  0.00    -0.549 N  
HETATM    7  H   UNL     1     -12.576  15.373  67.668  1.00  0.00     0.000 HD 
BRANCH   6   8
HETATM    8  C   UNL     1     -12.095  14.031  69.175  1.00  0.00    -0.337 A  
HETATM    9  C   UNL     1     -11.770  12.733  68.858  1.00  0.00    -0.326 A  
HETATM   10  N   UNL     1     -11.979  12.028  70.017  1.00  0.00    -0.339 NA 
HETATM   11  O   UNL     1     -12.594  14.048  70.458  1.00  0.00    -0.335 OA 
HETATM   12  N   UNL     1     -12.499  12.753  70.994  1.00  0.00    -0.347 NA 
BRANCH  10  13
HETATM   13  N   UNL     1     -11.521  10.700  70.257  1.00  0.00    -0.318 NA 
HETATM   14  C   UNL     1     -10.960   9.878  69.197  1.00  0.00    -0.200 C  
HETATM   15  C   UNL     1      -9.883   8.977  69.813  1.00  0.00    -0.180 C  
HETATM   16  O   UNL     1     -10.416   8.212  70.901  1.00  0.00    -0.200 OA 
HETATM   17  C   UNL     1     -10.930   9.065  71.931  1.00  0.00    -0.353 C  
HETATM   18  C   UNL     1     -12.053   9.953  71.388  1.00  0.00    -0.413 C  
ENDBRANCH  10  13
ENDBRANCH   6   8
ENDBRANCH   3   4
ENDBRANCH   2   3
TORSDOF 4
ENDMDL
MODEL       35
REMARK 921   NORMALIZED FREE ENERGY PREDICTED BY IDOCK:   -4.68 KCAL/MOL
REMARK 922        TOTAL FREE ENERGY PREDICTED BY IDOCK:   -6.05 KCAL/MOL
REMARK 923 INTER-LIGAND FREE ENERGY PREDICTED BY IDOCK:   -5.73 KCAL/MOL
REMARK 924 INTRA-LIGAND FREE ENERGY PREDICTED BY IDOCK:   -0.33 KCAL/MOL
REMARK 927      BINDING AFFINITY PREDICTED BY RF-SCORE:    0.00 PKD
ROOT
HETATM    1  C   UNL     1      -6.719  20.507  67.944  1.00  0.00    -0.346 C  
HETATM    2  C   UNL     1      -7.825  20.110  66.983  1.00  0.00    -0.319 C  
ENDROOT
BRANCH   2   3
HETATM    3  O   UNL     1      -9.092  20.159  67.654  1.00  0.00    -0.336 OA 
BRANCH   3   4
HETATM    4  C   UNL     1      -9.962  19.151  67.370  1.00  0.00    -0.351 C  
HETATM    5  O   UNL     1     -11.141  19.346  67.080  1.00  0.00    -0.445 OA 
HETATM    6  N   UNL     1      -9.315  17.980  67.440  1.00  0.00    -0.252 N  
HETATM    7  H   UNL     1      -8.315  17.922  67.634  1.00  0.00     0.000 HD 
BRANCH   6   8
HETATM    8  C   UNL     1     -10.069  16.888  67.239  1.00  0.00    -0.286 A  
HETATM    9  C   UNL     1     -10.348  16.271  66.043  1.00  0.00    -0.349 A  
HETATM   10  N   UNL     1     -11.009  15.120  66.389  1.00  0.00    -0.334 NA 
HETATM   11  O   UNL     1     -10.663  16.162  68.246  1.00  0.00    -0.279 OA 
HETATM   12  N   UNL     1     -11.253  15.016  67.686  1.00  0.00    -0.317 NA 
BRANCH  10  13
HETATM   13  N   UNL     1     -11.258  14.026  65.510  1.00  0.00    -0.306 NA 
HETATM   14  C   UNL     1     -12.404  14.008  64.615  1.00  0.00    -0.397 C  
HETATM   15  C   UNL     1     -11.998  13.260  63.338  1.00  0.00    -0.427 C  
HETATM   16  O   UNL     1     -11.498  11.954  63.646  1.00  0.00    -0.418 OA 
HETATM   17  C   UNL     1     -10.355  12.026  64.507  1.00  0.00    -0.296 C  
HETATM   18  C   UNL     1     -10.713  12.715  65.827  1.00  0.00    -0.268 C  
ENDBRANCH  10  13
ENDBRANCH   6   8
ENDBRANCH   3   4
ENDBRANCH   2   3
TORSDOF 4
ENDMDL
MODEL       36
REMARK 921   NORMALIZED FREE ENERGY PREDICTED BY IDOCK:   -4.67 KCAL/MOL
REMARK 922        TOTAL FREE ENERGY PREDICTED BY IDOCK:   -6.04 KCAL/MOL
REMARK 923 INTER-LIGAND FREE ENERGY PREDICTED BY IDOCK:   -5.72 KCAL/MOL
REMARK 924 INTRA-LIGAND FREE ENERGY PREDICTED BY IDOCK:   -0.32 KCAL/MOL
REMARK 927      BINDING AFFINITY PREDICTED BY RF-SCORE:    0.00 PKD
ROOT
HETATM    1  C   UNL     1     -10.353  10.190  66.166  1.00  0.00    -0.237 C  
HETATM    2  C   UNL     1     -11.129   9.939  67.446  1.00  0.00    -0.030 C  
ENDROOT
BRANCH   2   3
HETATM    3  O   UNL     1     -12.033  11.026  67.687  1.00  0.00    -0.583 OA 
BRANCH   3   4
HETATM    4  C   UNL     1     -11.478  12.173  68.167  1.00  0.00    -0.317 C  
HETATM    5  O   UNL     1     -10.583  12.182  69.011  1.00  0.00    -0.181 OA 
HETATM    6  N   UNL     1     -12.045  13.223  67.559  1.00  0.00    -0.314 N  
HETATM    7  H   UNL     1     -12.744  13.113  66.824  1.00  0.00     0.000 HD 
BRANCH   6   8
HETATM    8  C   UNL     1     -11.632  14.429  67.980  1.00  0.00    -0.327 A  
HETATM    9  C   UNL     1     -10.876  15.345  67.287  1.00  0.00    -0.316 A  
HETATM   10  N   UNL     1     -10.872  16.465  68.080  1.00  0.00    -0.342 NA 
HETATM   11  O   UNL     1     -11.957  14.976  69.201  1.00  0.00    -0.305 OA 
HETATM   12  N   UNL     1     -11.474  16.294  69.245  1.00  0.00    -0.292 NA 
BRANCH  10  13
HETATM   13  N   UNL     1     -10.449  17.760  67.660  1.00  0.00    -0.378 NA 
HETATM   14  C   UNL     1     -10.116  18.045  66.274  1.00  0.00    -0.363 C  
HETATM   15  C   UNL     1     -10.508  19.499  65.979  1.00  0.00    -0.516 C  
HETATM   16  O   UNL     1      -9.887  20.395  66.908  1.00  0.00    -0.441 OA 
HETATM   17  C   UNL     1     -10.268  20.091  68.255  1.00  0.00    -0.392 C  
HETATM   18  C   UNL     1      -9.850  18.666  68.628  1.00  0.00    -0.385 C  
ENDBRANCH  10  13
ENDBRANCH   6   8
ENDBRANCH   3   4
ENDBRANCH   2   3
TORSDOF 4
ENDMDL
MODEL       37
REMARK 921   NORMALIZED FREE ENERGY PREDICTED BY IDOCK:   -4.67 KCAL/MOL
REMARK 922        TOTAL FREE ENERGY PREDICTED BY IDOCK:   -6.03 KCAL/MOL
REMARK 923 INTER-LIGAND FREE ENERGY PREDICTED BY IDOCK:   -5.71 KCAL/MOL
REMARK 924 INTRA-LIGAND FREE ENERGY PREDICTED BY IDOCK:   -0.32 KCAL/MOL
REMARK 927      BINDING AFFINITY PREDICTED BY RF-SCORE:    0.00 PKD
ROOT
HETATM    1  C   UNL     1     -11.249   7.482  72.827  1.00  0.00    -0.403 C  
HETATM    2  C   UNL     1     -11.574   8.487  71.738  1.00  0.00    -0.312 C  
ENDROOT
BRANCH   2   3
HETATM    3  O   UNL     1     -10.437   9.331  71.502  1.00  0.00    -0.334 OA 
BRANCH   3   4
HETATM    4  C   UNL     1     -10.172   9.632  70.201  1.00  0.00    -0.264 C  
HETATM    5  O   UNL     1      -9.678   8.826  69.414  1.00  0.00    -0.168 OA 
HETATM    6  N   UNL     1     -10.556  10.892  69.955  1.00  0.00    -0.451 N  
HETATM    7  H   UNL     1     -11.013  11.468  70.661  1.00  0.00     0.000 HD 
BRANCH   6   8
HETATM    8  C   UNL     1     -10.299  11.345  68.718  1.00  0.00    -0.204 A  
HETATM    9  C   UNL     1     -11.168  11.420  67.656  1.00  0.00    -0.283 A  
HETATM   10  N   UNL     1     -10.476  12.100  66.685  1.00  0.00    -0.217 NA 
HETATM   11  O   UNL     1      -9.089  11.870  68.322  1.00  0.00    -0.178 OA 
HETATM   12  N   UNL     1      -9.223  12.367  67.014  1.00  0.00    -0.201 NA 
BRANCH  10  13
HETATM   13  N   UNL     1     -11.056  12.656  65.508  1.00  0.00    -0.286 NA 
HETATM   14  C   UNL     1     -11.065  11.938  64.244  1.00  0.00    -0.356 C  
HETATM   15  C   UNL     1     -12.348  12.313  63.492  1.00  0.00    -0.565 C  
HETATM   16  O   UNL     1     -12.454  13.734  63.337  1.00  0.00    -0.817 OA 
HETATM   17  C   UNL     1     -12.470  14.393  64.609  1.00  0.00    -0.345 C  
HETATM   18  C   UNL     1     -11.184  14.101  65.388  1.00  0.00    -0.325 C  
ENDBRANCH  10  13
ENDBRANCH   6   8
ENDBRANCH   3   4
ENDBRANCH   2   3
TORSDOF 4
ENDMDL
MODEL       38
REMARK 921   NORMALIZED FREE ENERGY PREDICTED BY IDOCK:   -4.66 KCAL/MOL
REMARK 922        TOTAL FREE ENERGY PREDICTED BY IDOCK:   -6.02 KCAL/MOL
REMARK 923 INTER-LIGAND FREE ENERGY PREDICTED BY IDOCK:   -5.77 KCAL/MOL
REMARK 924 INTRA-LIGAND FREE ENERGY PREDICTED BY IDOCK:   -0.26 KCAL/MOL
REMARK 927      BINDING AFFINITY PREDICTED BY RF-SCORE:    0.00 PKD
ROOT
HETATM    1  C   UNL     1     -13.085  10.811  71.638  1.00  0.00    -0.551 C  
HETATM    2  C   UNL     1     -12.397  11.983  70.962  1.00  0.00    -0.238 C  
ENDROOT
BRANCH   2   3
HETATM    3  O   UNL     1     -11.577  11.508  69.884  1.00  0.00    -0.297 OA 
BRANCH   3   4
HETATM    4  C   UNL     1     -11.081  12.458  69.044  1.00  0.00    -0.235 C  
HETATM    5  O   UNL     1      -9.945  12.408  68.574  1.00  0.00    -0.219 OA 
HETATM    6  N   UNL     1     -12.023  13.384  68.824  1.00  0.00    -0.343 N  
HETATM    7  H   UNL     1     -12.962  13.309  69.215  1.00  0.00     0.000 HD 
BRANCH   6   8
HETATM    8  C   UNL     1     -11.649  14.418  68.054  1.00  0.00    -0.327 A  
HETATM    9  C   UNL     1     -11.493  15.731  68.432  1.00  0.00    -0.365 A  
HETATM   10  N   UNL     1     -10.943  16.347  67.337  1.00  0.00    -0.211 NA 
HETATM   11  O   UNL     1     -11.302  14.310  66.726  1.00  0.00    -0.324 OA 
HETATM   12  N   UNL     1     -10.834  15.558  66.281  1.00  0.00    -0.307 NA 
BRANCH  10  13
HETATM   13  N   UNL     1     -10.353  17.645  67.341  1.00  0.00    -0.349 NA 
HETATM   14  C   UNL     1     -10.163  18.405  66.117  1.00  0.00    -0.389 C  
HETATM   15  C   UNL     1     -10.323  19.894  66.451  1.00  0.00    -0.495 C  
HETATM   16  O   UNL     1      -9.430  20.281  67.503  1.00  0.00    -0.375 OA 
HETATM   17  C   UNL     1      -9.675  19.524  68.695  1.00  0.00    -0.433 C  
HETATM   18  C   UNL     1      -9.475  18.028  68.437  1.00  0.00    -0.308 C  
ENDBRANCH  10  13
ENDBRANCH   6   8
ENDBRANCH   3   4
ENDBRANCH   2   3
TORSDOF 4
ENDMDL
MODEL       39
REMARK 921   NORMALIZED FREE ENERGY PREDICTED BY IDOCK:   -4.64 KCAL/MOL
REMARK 922        TOTAL FREE ENERGY PREDICTED BY IDOCK:   -6.00 KCAL/MOL
REMARK 923 INTER-LIGAND FREE ENERGY PREDICTED BY IDOCK:   -5.79 KCAL/MOL
REMARK 924 INTRA-LIGAND FREE ENERGY PREDICTED BY IDOCK:   -0.21 KCAL/MOL
REMARK 927      BINDING AFFINITY PREDICTED BY RF-SCORE:    0.00 PKD
ROOT
HETATM    1  C   UNL     1     -13.053   7.668  71.639  1.00  0.00    -0.392 C  
HETATM    2  C   UNL     1     -11.649   8.004  71.171  1.00  0.00    -0.282 C  
ENDROOT
BRANCH   2   3
HETATM    3  O   UNL     1     -11.324   9.352  71.538  1.00  0.00    -0.354 OA 
BRANCH   3   4
HETATM    4  C   UNL     1     -10.973  10.184  70.518  1.00  0.00    -0.310 C  
HETATM    5  O   UNL     1      -9.842  10.212  70.037  1.00  0.00    -0.228 OA 
HETATM    6  N   UNL     1     -12.042  10.902  70.150  1.00  0.00    -0.320 N  
HETATM    7  H   UNL     1     -12.960  10.767  70.574  1.00  0.00     0.000 HD 
BRANCH   6   8
HETATM    8  C   UNL     1     -11.824  11.812  69.188  1.00  0.00    -0.326 A  
HETATM    9  C   UNL     1     -11.663  11.585  67.842  1.00  0.00    -0.247 A  
HETATM   10  N   UNL     1     -11.640  12.835  67.276  1.00  0.00    -0.340 NA 
HETATM   11  O   UNL     1     -11.776  13.171  69.403  1.00  0.00    -0.294 OA 
HETATM   12  N   UNL     1     -11.673  13.819  68.160  1.00  0.00    -0.338 NA 
BRANCH  10  13
HETATM   13  N   UNL     1     -11.764  13.102  65.882  1.00  0.00    -0.364 NA 
HETATM   14  C   UNL     1     -11.513  12.080  64.880  1.00  0.00    -0.294 C  
HETATM   15  C   UNL     1     -12.451  12.334  63.693  1.00  0.00    -0.541 C  
HETATM   16  O   UNL     1     -12.296  13.668  63.194  1.00  0.00    -0.729 OA 
HETATM   17  C   UNL     1     -12.581  14.638  64.209  1.00  0.00    -0.076 C  
HETATM   18  C   UNL     1     -11.634  14.470  65.401  1.00  0.00    -0.355 C  
ENDBRANCH  10  13
ENDBRANCH   6   8
ENDBRANCH   3   4
ENDBRANCH   2   3
TORSDOF 4
ENDMDL
MODEL       40
REMARK 921   NORMALIZED FREE ENERGY PREDICTED BY IDOCK:   -4.64 KCAL/MOL
REMARK 922        TOTAL FREE ENERGY PREDICTED BY IDOCK:   -6.00 KCAL/MOL
REMARK 923 INTER-LIGAND FREE ENERGY PREDICTED BY IDOCK:   -5.92 KCAL/MOL
REMARK 924 INTRA-LIGAND FREE ENERGY PREDICTED BY IDOCK:   -0.08 KCAL/MOL
REMARK 927      BINDING AFFINITY PREDICTED BY RF-SCORE:    0.00 PKD
ROOT
HETATM    1  C   UNL     1      -8.813  10.955  62.344  1.00  0.00    -0.358 C  
HETATM    2  C   UNL     1      -9.525  10.347  63.538  1.00  0.00    -0.312 C  
ENDROOT
BRANCH   2   3
HETATM    3  O   UNL     1     -10.329  11.344  64.185  1.00  0.00    -0.285 OA 
BRANCH   3   4
HETATM    4  C   UNL     1     -10.423  11.254  65.540  1.00  0.00    -0.265 C  
HETATM    5  O   UNL     1      -9.726  10.494  66.211  1.00  0.00    -0.189 OA 
HETATM    6  N   UNL     1     -11.349  12.120  65.974  1.00  0.00    -0.344 N  
HETATM    7  H   UNL     1     -11.838  12.754  65.342  1.00  0.00     0.000 HD 
BRANCH   6   8
HETATM    8  C   UNL     1     -11.589  12.097  67.294  1.00  0.00    -0.334 A  
HETATM    9  C   UNL     1     -11.619  13.165  68.159  1.00  0.00    -0.339 A  
HETATM   10  N   UNL     1     -12.068  12.642  69.345  1.00  0.00    -0.230 NA 
HETATM   11  O   UNL     1     -11.904  10.960  68.004  1.00  0.00    -0.585 OA 
HETATM   12  N   UNL     1     -12.225  11.329  69.322  1.00  0.00    -0.361 NA 
BRANCH  10  13
HETATM   13  N   UNL     1     -12.519  13.411  70.457  1.00  0.00    -0.309 NA 
HETATM   14  C   UNL     1     -12.063  14.773  70.683  1.00  0.00    -0.310 C  
HETATM   15  C   UNL     1     -13.213  15.560  71.326  1.00  0.00    -0.515 C  
HETATM   16  O   UNL     1     -13.674  14.911  72.517  1.00  0.00    -0.418 OA 
HETATM   17  C   UNL     1     -14.139  13.584  72.238  1.00  0.00    -0.465 C  
HETATM   18  C   UNL     1     -13.015  12.731  71.644  1.00  0.00    -0.303 C  
ENDBRANCH  10  13
ENDBRANCH   6   8
ENDBRANCH   3   4
ENDBRANCH   2   3
TORSDOF 4
ENDMDL
MODEL       41
REMARK 921   NORMALIZED FREE ENERGY PREDICTED BY IDOCK:   -4.64 KCAL/MOL
REMARK 922        TOTAL FREE ENERGY PREDICTED BY IDOCK:   -5.99 KCAL/MOL
REMARK 923 INTER-LIGAND FREE ENERGY PREDICTED BY IDOCK:   -5.69 KCAL/MOL
REMARK 924 INTRA-LIGAND FREE ENERGY PREDICTED BY IDOCK:   -0.30 KCAL/MOL
REMARK 927      BINDING AFFINITY PREDICTED BY RF-SCORE:    0.00 PKD
ROOT
HETATM    1  C   UNL     1     -10.005   9.253  65.858  1.00  0.00    -0.289 C  
HETATM    2  C   UNL     1     -10.606  10.645  65.794  1.00  0.00    -0.098 C  
ENDROOT
BRANCH   2   3
HETATM    3  O   UNL     1     -10.637  11.098  64.433  1.00  0.00    -0.335 OA 
BRANCH   3   4
HETATM    4  C   UNL     1     -10.478  12.437  64.241  1.00  0.00    -0.363 C  
HETATM    5  O   UNL     1      -9.792  12.906  63.334  1.00  0.00     0.007 OA 
HETATM    6  N   UNL     1     -11.192  13.099  65.161  1.00  0.00    -0.289 N  
HETATM    7  H   UNL     1     -11.781  12.619  65.842  1.00  0.00     0.000 HD 
BRANCH   6   8
HETATM    8  C   UNL     1     -11.080  14.437  65.127  1.00  0.00    -0.362 A  
HETATM    9  C   UNL     1     -10.391  15.242  66.001  1.00  0.00    -0.312 A  
HETATM   10  N   UNL     1     -10.446  16.494  65.441  1.00  0.00    -0.602 NA 
HETATM   11  O   UNL     1     -11.622  15.234  64.143  1.00  0.00    -0.236 OA 
HETATM   12  N   UNL     1     -11.192  16.555  64.349  1.00  0.00    -0.980 NA 
BRANCH  10  13
HETATM   13  N   UNL     1      -9.646  17.603  65.841  1.00  0.00    -0.528 NA 
HETATM   14  C   UNL     1      -8.261  17.441  66.254  1.00  0.00    -0.253 C  
HETATM   15  C   UNL     1      -7.486  18.694  65.827  1.00  0.00    -0.104 C  
HETATM   16  O   UNL     1      -8.099  19.878  66.351  1.00  0.00    -0.310 OA 
HETATM   17  C   UNL     1      -9.451  20.008  65.894  1.00  0.00    -0.197 C  
HETATM   18  C   UNL     1     -10.291  18.808  66.340  1.00  0.00    -0.439 C  
ENDBRANCH  10  13
ENDBRANCH   6   8
ENDBRANCH   3   4
ENDBRANCH   2   3
TORSDOF 4
ENDMDL
MODEL       42
REMARK 921   NORMALIZED FREE ENERGY PREDICTED BY IDOCK:   -4.63 KCAL/MOL
REMARK 922        TOTAL FREE ENERGY PREDICTED BY IDOCK:   -5.99 KCAL/MOL
REMARK 923 INTER-LIGAND FREE ENERGY PREDICTED BY IDOCK:   -5.67 KCAL/MOL
REMARK 924 INTRA-LIGAND FREE ENERGY PREDICTED BY IDOCK:   -0.31 KCAL/MOL
REMARK 927      BINDING AFFINITY PREDICTED BY RF-SCORE:    0.00 PKD
ROOT
HETATM    1  C   UNL     1     -14.278  15.004  71.927  1.00  0.00    -0.649 C  
HETATM    2  C   UNL     1     -12.975  14.244  72.086  1.00  0.00    -0.373 C  
ENDROOT
BRANCH   2   3
HETATM    3  O   UNL     1     -13.246  12.844  72.244  1.00  0.00    -0.476 OA 
BRANCH   3   4
HETATM    4  C   UNL     1     -12.819  12.032  71.237  1.00  0.00    -0.265 C  
HETATM    5  O   UNL     1     -13.156  10.853  71.140  1.00  0.00    -0.355 OA 
HETATM    6  N   UNL     1     -12.030  12.734  70.412  1.00  0.00    -0.523 N  
HETATM    7  H   UNL     1     -11.854  13.730  70.545  1.00  0.00     0.000 HD 
BRANCH   6   8
HETATM    8  C   UNL     1     -11.488  12.039  69.400  1.00  0.00    -0.296 A  
HETATM    9  C   UNL     1     -11.783  12.140  68.062  1.00  0.00    -0.344 A  
HETATM   10  N   UNL     1     -10.850  11.352  67.437  1.00  0.00    -0.238 NA 
HETATM   11  O   UNL     1     -10.477  11.116  69.548  1.00  0.00    -0.164 OA 
HETATM   12  N   UNL     1     -10.065  10.693  68.273  1.00  0.00    -0.153 NA 
BRANCH  10  13
HETATM   13  N   UNL     1     -10.584  11.356  66.037  1.00  0.00    -0.261 NA 
HETATM   14  C   UNL     1     -11.336  12.192  65.116  1.00  0.00    -0.327 C  
HETATM   15  C   UNL     1     -10.395  12.620  63.983  1.00  0.00    -0.389 C  
HETATM   16  O   UNL     1      -9.798  11.479  63.354  1.00  0.00    -0.335 OA 
HETATM   17  C   UNL     1      -9.045  10.704  64.295  1.00  0.00    -0.220 C  
HETATM   18  C   UNL     1      -9.947  10.199  65.426  1.00  0.00    -0.307 C  
ENDBRANCH  10  13
ENDBRANCH   6   8
ENDBRANCH   3   4
ENDBRANCH   2   3
TORSDOF 4
ENDMDL
MODEL       43
REMARK 921   NORMALIZED FREE ENERGY PREDICTED BY IDOCK:   -4.63 KCAL/MOL
REMARK 922        TOTAL FREE ENERGY PREDICTED BY IDOCK:   -5.99 KCAL/MOL
REMARK 923 INTER-LIGAND FREE ENERGY PREDICTED BY IDOCK:   -5.88 KCAL/MOL
REMARK 924 INTRA-LIGAND FREE ENERGY PREDICTED BY IDOCK:   -0.11 KCAL/MOL
REMARK 927      BINDING AFFINITY PREDICTED BY RF-SCORE:    0.00 PKD
ROOT
HETATM    1  C   UNL     1     -10.760  16.625  67.976  1.00  0.00    -0.350 C  
HETATM    2  C   UNL     1     -10.167  16.189  69.303  1.00  0.00    -0.257 C  
ENDROOT
BRANCH   2   3
HETATM    3  O   UNL     1     -11.120  16.403  70.355  1.00  0.00    -0.356 OA 
BRANCH   3   4
HETATM    4  C   UNL     1     -11.525  15.294  71.033  1.00  0.00    -0.356 C  
HETATM    5  O   UNL     1     -11.363  15.154  72.245  1.00  0.00    -0.416 OA 
HETATM    6  N   UNL     1     -12.118  14.449  70.180  1.00  0.00    -0.314 N  
HETATM    7  H   UNL     1     -12.258  14.680  69.196  1.00  0.00     0.000 HD 
BRANCH   6   8
HETATM    8  C   UNL     1     -12.517  13.280  70.705  1.00  0.00    -0.324 A  
HETATM    9  C   UNL     1     -12.086  12.020  70.367  1.00  0.00    -0.321 A  
HETATM   10  N   UNL     1     -12.664  11.192  71.296  1.00  0.00    -0.422 NA 
HETATM   11  O   UNL     1     -13.418  13.164  71.739  1.00  0.00    -0.396 OA 
HETATM   12  N   UNL     1     -13.492  11.813  72.120  1.00  0.00    -0.349 NA 
BRANCH  10  13
HETATM   13  N   UNL     1     -12.295   9.833  71.519  1.00  0.00    -0.378 NA 
HETATM   14  C   UNL     1     -13.132   8.929  72.291  1.00  0.00    -0.436 C  
HETATM   15  C   UNL     1     -12.980   7.520  71.703  1.00  0.00    -0.358 C  
HETATM   16  O   UNL     1     -11.603   7.126  71.667  1.00  0.00    -0.256 OA 
HETATM   17  C   UNL     1     -10.826   8.031  70.872  1.00  0.00    -0.230 C  
HETATM   18  C   UNL     1     -10.894   9.450  71.445  1.00  0.00    -0.360 C  
ENDBRANCH  10  13
ENDBRANCH   6   8
ENDBRANCH   3   4
ENDBRANCH   2   3
TORSDOF 4
ENDMDL
MODEL       44
REMARK 921   NORMALIZED FREE ENERGY PREDICTED BY IDOCK:   -4.51 KCAL/MOL
REMARK 922        TOTAL FREE ENERGY PREDICTED BY IDOCK:   -5.84 KCAL/MOL
REMARK 923 INTER-LIGAND FREE ENERGY PREDICTED BY IDOCK:   -5.50 KCAL/MOL
REMARK 924 INTRA-LIGAND FREE ENERGY PREDICTED BY IDOCK:   -0.34 KCAL/MOL
REMARK 927      BINDING AFFINITY PREDICTED BY RF-SCORE:    0.00 PKD
ROOT
HETATM    1  C   UNL     1     -10.259  14.951  65.266  1.00  0.00    -0.404 C  
HETATM    2  C   UNL     1      -9.618  15.867  66.292  1.00  0.00    -0.316 C  
ENDROOT
BRANCH   2   3
HETATM    3  O   UNL     1     -10.559  16.165  67.333  1.00  0.00    -0.306 OA 
BRANCH   3   4
HETATM    4  C   UNL     1     -10.667  15.241  68.328  1.00  0.00    -0.254 C  
HETATM    5  O   UNL     1      -9.732  14.946  69.071  1.00  0.00    -0.216 OA 
HETATM    6  N   UNL     1     -11.919  14.766  68.352  1.00  0.00    -0.531 N  
HETATM    7  H   UNL     1     -12.646  15.117  67.728  1.00  0.00     0.000 HD 
BRANCH   6   8
HETATM    8  C   UNL     1     -12.153  13.798  69.253  1.00  0.00    -0.329 A  
HETATM    9  C   UNL     1     -11.970  12.445  69.095  1.00  0.00    -0.240 A  
HETATM   10  N   UNL     1     -12.189  11.915  70.341  1.00  0.00    -0.338 NA 
HETATM   11  O   UNL     1     -12.584  14.026  70.540  1.00  0.00    -0.335 OA 
HETATM   12  N   UNL     1     -12.587  12.805  71.235  1.00  0.00    -0.319 NA 
BRANCH  10  13
HETATM   13  N   UNL     1     -11.849  10.588  70.734  1.00  0.00    -0.343 NA 
HETATM   14  C   UNL     1     -10.618   9.950  70.299  1.00  0.00    -0.301 C  
HETATM   15  C   UNL     1     -10.141   9.019  71.421  1.00  0.00    -0.329 C  
HETATM   16  O   UNL     1     -11.166   8.085  71.781  1.00  0.00    -0.247 OA 
HETATM   17  C   UNL     1     -12.347   8.760  72.230  1.00  0.00    -0.378 C  
HETATM   18  C   UNL     1     -12.905   9.666  71.128  1.00  0.00    -0.316 C  
ENDBRANCH  10  13
ENDBRANCH   6   8
ENDBRANCH   3   4
ENDBRANCH   2   3
TORSDOF 4
ENDMDL
MODEL       45
REMARK 921   NORMALIZED FREE ENERGY PREDICTED BY IDOCK:   -4.50 KCAL/MOL
REMARK 922        TOTAL FREE ENERGY PREDICTED BY IDOCK:   -5.82 KCAL/MOL
REMARK 923 INTER-LIGAND FREE ENERGY PREDICTED BY IDOCK:   -5.47 KCAL/MOL
REMARK 924 INTRA-LIGAND FREE ENERGY PREDICTED BY IDOCK:   -0.35 KCAL/MOL
REMARK 927      BINDING AFFINITY PREDICTED BY RF-SCORE:    0.00 PKD
ROOT
HETATM    1  C   UNL     1      -7.919  19.948  67.096  1.00  0.00    -0.337 C  
HETATM    2  C   UNL     1      -7.844  19.226  68.428  1.00  0.00    -0.341 C  
ENDROOT
BRANCH   2   3
HETATM    3  O   UNL     1      -9.154  18.790  68.818  1.00  0.00    -0.337 OA 
BRANCH   3   4
HETATM    4  C   UNL     1      -9.471  17.499  68.520  1.00  0.00    -0.296 C  
HETATM    5  O   UNL     1      -8.761  16.546  68.835  1.00  0.00    -0.245 OA 
HETATM    6  N   UNL     1     -10.647  17.473  67.879  1.00  0.00    -0.391 N  
HETATM    7  H   UNL     1     -11.194  18.317  67.713  1.00  0.00     0.000 HD 
BRANCH   6   8
HETATM    8  C   UNL     1     -11.056  16.262  67.471  1.00  0.00    -0.140 A  
HETATM    9  C   UNL     1     -10.729  15.617  66.301  1.00  0.00    -0.295 A  
HETATM   10  N   UNL     1     -11.259  14.359  66.436  1.00  0.00    -0.337 NA 
HETATM   11  O   UNL     1     -11.860  15.425  68.212  1.00  0.00    -0.339 OA 
HETATM   12  N   UNL     1     -11.970  14.196  67.540  1.00  0.00    -0.396 NA 
BRANCH  10  13
HETATM   13  N   UNL     1     -10.946  13.248  65.599  1.00  0.00    -0.276 NA 
HETATM   14  C   UNL     1      -9.866  12.328  65.918  1.00  0.00    -0.251 C  
HETATM   15  C   UNL     1     -10.267  10.933  65.423  1.00  0.00    -0.277 C  
HETATM   16  O   UNL     1     -10.596  10.959  64.029  1.00  0.00    -0.372 OA 
HETATM   17  C   UNL     1     -11.682  11.857  63.770  1.00  0.00    -0.457 C  
HETATM   18  C   UNL     1     -11.319  13.283  64.193  1.00  0.00    -0.386 C  
ENDBRANCH  10  13
ENDBRANCH   6   8
ENDBRANCH   3   4
ENDBRANCH   2   3
TORSDOF 4
ENDMDL
MODEL       46
REMARK 921   NORMALIZED FREE ENERGY PREDICTED BY IDOCK:   -4.49 KCAL/MOL
REMARK 922        TOTAL FREE ENERGY PREDICTED BY IDOCK:   -5.81 KCAL/MOL
REMARK 923 INTER-LIGAND FREE ENERGY PREDICTED BY IDOCK:   -5.54 KCAL/MOL
REMARK 924 INTRA-LIGAND FREE ENERGY PREDICTED BY IDOCK:   -0.27 KCAL/MOL
REMARK 927      BINDING AFFINITY PREDICTED BY RF-SCORE:    0.00 PKD
ROOT
HETATM    1  C   UNL     1      -9.811  20.230  66.888  1.00  0.00    -0.597 C  
HETATM    2  C   UNL     1     -10.495  19.004  66.313  1.00  0.00    -0.457 C  
ENDROOT
BRANCH   2   3
HETATM    3  O   UNL     1     -10.249  17.870  67.157  1.00  0.00    -0.325 OA 
BRANCH   3   4
HETATM    4  C   UNL     1     -10.391  16.647  66.576  1.00  0.00    -0.299 C  
HETATM    5  O   UNL     1     -10.299  16.467  65.362  1.00  0.00    -0.558 OA 
HETATM    6  N   UNL     1     -10.612  15.731  67.528  1.00  0.00    -0.303 N  
HETATM    7  H   UNL     1     -10.614  15.969  68.520  1.00  0.00     0.000 HD 
BRANCH   6   8
HETATM    8  C   UNL     1     -10.830  14.481  67.091  1.00  0.00    -0.296 A  
HETATM    9  C   UNL     1      -9.896  13.502  66.854  1.00  0.00    -0.257 A  
HETATM   10  N   UNL     1     -10.631  12.374  66.587  1.00  0.00    -0.228 NA 
HETATM   11  O   UNL     1     -12.078  13.953  66.849  1.00  0.00    -0.424 OA 
HETATM   12  N   UNL     1     -11.936  12.589  66.541  1.00  0.00    -0.576 NA 
BRANCH  10  13
HETATM   13  N   UNL     1     -10.108  11.049  66.550  1.00  0.00    -0.218 NA 
HETATM   14  C   UNL     1     -10.083  10.201  67.730  1.00  0.00    -0.180 C  
HETATM   15  C   UNL     1     -10.280   8.748  67.278  1.00  0.00    -0.263 C  
HETATM   16  O   UNL     1      -9.304   8.381  66.295  1.00  0.00    -0.196 OA 
HETATM   17  C   UNL     1      -9.387   9.227  65.141  1.00  0.00    -0.171 C  
HETATM   18  C   UNL     1      -9.142  10.690  65.523  1.00  0.00    -0.190 C  
ENDBRANCH  10  13
ENDBRANCH   6   8
ENDBRANCH   3   4
ENDBRANCH   2   3
TORSDOF 4
ENDMDL
MODEL       47
REMARK 921   NORMALIZED FREE ENERGY PREDICTED BY IDOCK:   -4.48 KCAL/MOL
REMARK 922        TOTAL FREE ENERGY PREDICTED BY IDOCK:   -5.80 KCAL/MOL
REMARK 923 INTER-LIGAND FREE ENERGY PREDICTED BY IDOCK:   -5.58 KCAL/MOL
REMARK 924 INTRA-LIGAND FREE ENERGY PREDICTED BY IDOCK:   -0.22 KCAL/MOL
REMARK 927      BINDING AFFINITY PREDICTED BY RF-SCORE:    0.00 PKD
ROOT
HETATM    1  C   UNL     1     -10.124   8.292  66.984  1.00  0.00    -0.353 C  
HETATM    2  C   UNL     1     -10.148   9.518  66.090  1.00  0.00    -0.256 C  
ENDROOT
BRANCH   2   3
HETATM    3  O   UNL     1     -11.006  10.517  66.659  1.00  0.00    -0.160 OA 
BRANCH   3   4
HETATM    4  C   UNL     1     -10.603  11.809  66.511  1.00  0.00    -0.253 C  
HETATM    5  O   UNL     1      -9.479  12.200  66.820  1.00  0.00    -0.200 OA 
HETATM    6  N   UNL     1     -11.603  12.521  65.972  1.00  0.00    -0.384 N  
HETATM    7  H   UNL     1     -12.486  12.093  65.694  1.00  0.00     0.000 HD 
BRANCH   6   8
HETATM    8  C   UNL     1     -11.364  13.833  65.823  1.00  0.00    -0.304 A  
HETATM    9  C   UNL     1     -11.314  14.793  66.806  1.00  0.00    -0.346 A  
HETATM   10  N   UNL     1     -10.876  15.925  66.167  1.00  0.00    -0.260 NA 
HETATM   11  O   UNL     1     -11.073  14.435  64.620  1.00  0.00    -0.381 OA 
HETATM   12  N   UNL     1     -10.745  15.781  64.858  1.00  0.00    -0.529 NA 
BRANCH  10  13
HETATM   13  N   UNL     1     -10.410  17.103  66.821  1.00  0.00    -0.314 NA 
HETATM   14  C   UNL     1     -10.287  18.371  66.121  1.00  0.00    -0.407 C  
HETATM   15  C   UNL     1     -10.586  19.497  67.119  1.00  0.00    -0.487 C  
HETATM   16  O   UNL     1      -9.739  19.400  68.270  1.00  0.00    -0.347 OA 
HETATM   17  C   UNL     1      -9.918  18.146  68.941  1.00  0.00    -0.338 C  
HETATM   18  C   UNL     1      -9.578  16.980  68.008  1.00  0.00    -0.260 C  
ENDBRANCH  10  13
ENDBRANCH   6   8
ENDBRANCH   3   4
ENDBRANCH   2   3
TORSDOF 4
ENDMDL
MODEL       48
REMARK 921   NORMALIZED FREE ENERGY PREDICTED BY IDOCK:   -4.48 KCAL/MOL
REMARK 922        TOTAL FREE ENERGY PREDICTED BY IDOCK:   -5.79 KCAL/MOL
REMARK 923 INTER-LIGAND FREE ENERGY PREDICTED BY IDOCK:   -5.57 KCAL/MOL
REMARK 924 INTRA-LIGAND FREE ENERGY PREDICTED BY IDOCK:   -0.22 KCAL/MOL
REMARK 927      BINDING AFFINITY PREDICTED BY RF-SCORE:    0.00 PKD
ROOT
HETATM    1  C   UNL     1      -7.114  19.579  68.694  1.00  0.00    -0.373 C  
HETATM    2  C   UNL     1      -7.348  18.854  67.381  1.00  0.00    -0.225 C  
ENDROOT
BRANCH   2   3
HETATM    3  O   UNL     1      -8.665  19.147  66.893  1.00  0.00    -0.282 OA 
BRANCH   3   4
HETATM    4  C   UNL     1      -9.680  18.412  67.424  1.00  0.00    -0.299 C  
HETATM    5  O   UNL     1     -10.837  18.824  67.499  1.00  0.00    -0.435 OA 
HETATM    6  N   UNL     1      -9.206  17.218  67.803  1.00  0.00    -0.236 N  
HETATM    7  H   UNL     1      -8.236  16.944  67.646  1.00  0.00     0.000 HD 
BRANCH   6   8
HETATM    8  C   UNL     1     -10.092  16.407  68.402  1.00  0.00    -0.245 A  
HETATM    9  C   UNL     1     -10.452  16.394  69.728  1.00  0.00    -0.246 A  
HETATM   10  N   UNL     1     -11.498  15.508  69.798  1.00  0.00    -0.303 NA 
HETATM   11  O   UNL     1     -10.841  15.458  67.744  1.00  0.00    -0.285 OA 
HETATM   12  N   UNL     1     -11.754  14.897  68.653  1.00  0.00    -0.331 NA 
BRANCH  10  13
HETATM   13  N   UNL     1     -12.376  15.368  70.912  1.00  0.00    -0.363 NA 
HETATM   14  C   UNL     1     -13.820  15.323  70.750  1.00  0.00    -0.103 C  
HETATM   15  C   UNL     1     -14.393  14.400  71.833  1.00  0.00    -0.545 C  
HETATM   16  O   UNL     1     -13.982  14.825  73.138  1.00  0.00    -0.368 OA 
HETATM   17  C   UNL     1     -12.554  14.825  73.257  1.00  0.00    -0.441 C  
HETATM   18  C   UNL     1     -11.925  15.776  72.234  1.00  0.00    -0.493 C  
ENDBRANCH  10  13
ENDBRANCH   6   8
ENDBRANCH   3   4
ENDBRANCH   2   3
TORSDOF 4
ENDMDL
MODEL       49
REMARK 921   NORMALIZED FREE ENERGY PREDICTED BY IDOCK:   -4.47 KCAL/MOL
REMARK 922        TOTAL FREE ENERGY PREDICTED BY IDOCK:   -5.79 KCAL/MOL
REMARK 923 INTER-LIGAND FREE ENERGY PREDICTED BY IDOCK:   -5.50 KCAL/MOL
REMARK 924 INTRA-LIGAND FREE ENERGY PREDICTED BY IDOCK:   -0.29 KCAL/MOL
REMARK 927      BINDING AFFINITY PREDICTED BY RF-SCORE:    0.00 PKD
ROOT
HETATM    1  C   UNL     1      -7.898  17.886  67.567  1.00  0.00    -0.217 C  
HETATM    2  C   UNL     1      -7.804  16.983  66.351  1.00  0.00    -0.308 C  
ENDROOT
BRANCH   2   3
HETATM    3  O   UNL     1      -9.093  16.869  65.731  1.00  0.00    -0.523 OA 
BRANCH   3   4
HETATM    4  C   UNL     1      -9.893  15.866  66.186  1.00  0.00    -0.317 C  
HETATM    5  O   UNL     1     -10.725  16.026  67.078  1.00  0.00    -0.319 OA 
HETATM    6  N   UNL     1      -9.628  14.747  65.499  1.00  0.00    -0.498 N  
HETATM    7  H   UNL     1      -8.955  14.726  64.733  1.00  0.00     0.000 HD 
BRANCH   6   8
HETATM    8  C   UNL     1     -10.307  13.655  65.886  1.00  0.00    -0.301 A  
HETATM    9  C   UNL     1      -9.830  12.582  66.601  1.00  0.00    -0.241 A  
HETATM   10  N   UNL     1     -10.941  11.827  66.880  1.00  0.00    -0.270 NA 
HETATM   11  O   UNL     1     -11.650  13.458  65.659  1.00  0.00    -0.313 OA 
HETATM   12  N   UNL     1     -12.049  12.284  66.319  1.00  0.00    -0.620 NA 
BRANCH  10  13
HETATM   13  N   UNL     1     -10.988  10.764  67.829  1.00  0.00    -0.275 NA 
HETATM   14  C   UNL     1     -10.647   9.398  67.467  1.00  0.00    -0.267 C  
HETATM   15  C   UNL     1     -10.003   8.729  68.688  1.00  0.00    -0.182 C  
HETATM   16  O   UNL     1     -10.862   8.815  69.832  1.00  0.00    -0.229 OA 
HETATM   17  C   UNL     1     -11.146  10.180  70.165  1.00  0.00    -0.315 C  
HETATM   18  C   UNL     1     -11.843  10.888  69.000  1.00  0.00    -0.299 C  
ENDBRANCH  10  13
ENDBRANCH   6   8
ENDBRANCH   3   4
ENDBRANCH   2   3
TORSDOF 4
ENDMDL
MODEL       50
REMARK 921   NORMALIZED FREE ENERGY PREDICTED BY IDOCK:   -4.46 KCAL/MOL
REMARK 922        TOTAL FREE ENERGY PREDICTED BY IDOCK:   -5.78 KCAL/MOL
REMARK 923 INTER-LIGAND FREE ENERGY PREDICTED BY IDOCK:   -5.39 KCAL/MOL
REMARK 924 INTRA-LIGAND FREE ENERGY PREDICTED BY IDOCK:   -0.39 KCAL/MOL
REMARK 927      BINDING AFFINITY PREDICTED BY RF-SCORE:    0.00 PKD
ROOT
HETATM    1  C   UNL     1     -11.000  16.333  64.969  1.00  0.00    -0.311 C  
HETATM    2  C   UNL     1     -10.373  14.951  64.956  1.00  0.00    -0.370 C  
ENDROOT
BRANCH   2   3
HETATM    3  O   UNL     1     -11.339  13.984  64.520  1.00  0.00    -0.368 OA 
BRANCH   3   4
HETATM    4  C   UNL     1     -11.560  12.935  65.360  1.00  0.00    -0.350 C  
HETATM    5  O   UNL     1     -12.652  12.378  65.462  1.00  0.00    -0.616 OA 
HETATM    6  N   UNL     1     -10.419  12.634  65.994  1.00  0.00    -0.263 N  
HETATM    7  H   UNL     1      -9.544  13.120  65.799  1.00  0.00     0.000 HD 
BRANCH   6   8
HETATM    8  C   UNL     1     -10.505  11.649  66.903  1.00  0.00    -0.227 A  
HETATM    9  C   UNL     1     -10.759  11.771  68.248  1.00  0.00    -0.214 A  
HETATM   10  N   UNL     1     -10.910  10.482  68.694  1.00  0.00    -0.220 NA 
HETATM   11  O   UNL     1     -10.396  10.310  66.606  1.00  0.00    -0.227 OA 
HETATM   12  N   UNL     1     -10.675   9.568  67.767  1.00  0.00    -0.262 NA 
BRANCH  10  13
HETATM   13  N   UNL     1     -11.451  10.115  69.960  1.00  0.00    -0.270 NA 
HETATM   14  C   UNL     1     -12.101  11.084  70.827  1.00  0.00    -0.366 C  
HETATM   15  C   UNL     1     -13.219  10.366  71.592  1.00  0.00    -0.400 C  
HETATM   16  O   UNL     1     -12.708   9.228  72.297  1.00  0.00    -0.382 OA 
HETATM   17  C   UNL     1     -12.104   8.290  71.398  1.00  0.00    -0.300 C  
HETATM   18  C   UNL     1     -10.939   8.936  70.642  1.00  0.00    -0.241 C  
ENDBRANCH  10  13
ENDBRANCH   6   8
ENDBRANCH   3   4
ENDBRANCH   2   3
TORSDOF 4
ENDMDL
MODEL       51
REMARK 921   NORMALIZED FREE ENERGY PREDICTED BY IDOCK:   -4.46 KCAL/MOL
REMARK 922        TOTAL FREE ENERGY PREDICTED BY IDOCK:   -5.78 KCAL/MOL
REMARK 923 INTER-LIGAND FREE ENERGY PREDICTED BY IDOCK:   -5.53 KCAL/MOL
REMARK 924 INTRA-LIGAND FREE ENERGY PREDICTED BY IDOCK:   -0.24 KCAL/MOL
REMARK 927      BINDING AFFINITY PREDICTED BY RF-SCORE:    0.00 PKD
ROOT
HETATM    1  C   UNL     1      -8.582  10.123  64.405  1.00  0.00    -0.199 C  
HETATM    2  C   UNL     1     -10.015  10.283  64.878  1.00  0.00    -0.323 C  
ENDROOT
BRANCH   2   3
HETATM    3  O   UNL     1     -10.038  10.978  66.133  1.00  0.00    -0.221 OA 
BRANCH   3   4
HETATM    4  C   UNL     1     -10.544  12.242  66.110  1.00  0.00    -0.249 C  
HETATM    5  O   UNL     1     -11.750  12.480  66.080  1.00  0.00    -0.377 OA 
HETATM    6  N   UNL     1      -9.533  13.120  66.149  1.00  0.00    -0.442 N  
HETATM    7  H   UNL     1      -8.560  12.826  66.232  1.00  0.00     0.000 HD 
BRANCH   6   8
HETATM    8  C   UNL     1      -9.886  14.413  66.073  1.00  0.00    -0.319 A  
HETATM    9  C   UNL     1      -9.699  15.390  67.021  1.00  0.00    -0.224 A  
HETATM   10  N   UNL     1     -10.075  16.555  66.402  1.00  0.00    -0.298 NA 
HETATM   11  O   UNL     1     -10.469  14.993  64.968  1.00  0.00    -0.388 OA 
HETATM   12  N   UNL     1     -10.571  16.377  65.188  1.00  0.00    -0.663 NA 
BRANCH  10  13
HETATM   13  N   UNL     1      -9.800  17.865  66.892  1.00  0.00    -0.306 NA 
HETATM   14  C   UNL     1      -9.367  18.938  66.013  1.00  0.00    -0.047 C  
HETATM   15  C   UNL     1      -9.931  20.257  66.556  1.00  0.00    -0.397 C  
HETATM   16  O   UNL     1      -9.547  20.454  67.922  1.00  0.00    -0.336 OA 
HETATM   17  C   UNL     1     -10.021  19.387  68.752  1.00  0.00    -0.444 C  
HETATM   18  C   UNL     1      -9.444  18.045  68.292  1.00  0.00    -0.302 C  
ENDBRANCH  10  13
ENDBRANCH   6   8
ENDBRANCH   3   4
ENDBRANCH   2   3
TORSDOF 4
ENDMDL
MODEL       52
REMARK 921   NORMALIZED FREE ENERGY PREDICTED BY IDOCK:   -4.45 KCAL/MOL
REMARK 922        TOTAL FREE ENERGY PREDICTED BY IDOCK:   -5.76 KCAL/MOL
REMARK 923 INTER-LIGAND FREE ENERGY PREDICTED BY IDOCK:   -5.45 KCAL/MOL
REMARK 924 INTRA-LIGAND FREE ENERGY PREDICTED BY IDOCK:   -0.31 KCAL/MOL
REMARK 927      BINDING AFFINITY PREDICTED BY RF-SCORE:    0.00 PKD
ROOT
HETATM    1  C   UNL     1     -10.948  15.437  67.298  1.00  0.00    -0.317 C  
HETATM    2  C   UNL     1     -11.628  14.081  67.356  1.00  0.00    -0.368 C  
ENDROOT
BRANCH   2   3
HETATM    3  O   UNL     1     -11.791  13.678  68.723  1.00  0.00    -0.323 OA 
BRANCH   3   4
HETATM    4  C   UNL     1     -11.960  12.344  68.940  1.00  0.00    -0.241 C  
HETATM    5  O   UNL     1     -12.126  11.534  68.030  1.00  0.00    -0.617 OA 
HETATM    6  N   UNL     1     -11.888  12.101  70.255  1.00  0.00    -0.515 N  
HETATM    7  H   UNL     1     -11.688  12.836  70.934  1.00  0.00     0.000 HD 
BRANCH   6   8
HETATM    8  C   UNL     1     -12.097  10.826  70.621  1.00  0.00    -0.370 A  
HETATM    9  C   UNL     1     -11.152   9.856  70.852  1.00  0.00    -0.348 A  
HETATM   10  N   UNL     1     -11.858   8.793  71.356  1.00  0.00    -0.292 NA 
HETATM   11  O   UNL     1     -13.338  10.288  70.878  1.00  0.00    -0.370 OA 
HETATM   12  N   UNL     1     -13.168   8.981  71.366  1.00  0.00    -0.310 NA 
BRANCH  10  13
HETATM   13  N   UNL     1     -11.280   7.658  71.996  1.00  0.00    -0.259 NA 
HETATM   14  C   UNL     1     -11.934   6.360  71.995  1.00  0.00    -0.326 C  
HETATM   15  C   UNL     1     -10.847   5.279  71.968  1.00  0.00    -0.163 C  
HETATM   16  O   UNL     1      -9.928   5.449  73.054  1.00  0.00    -0.163 OA 
HETATM   17  C   UNL     1      -9.288   6.730  72.995  1.00  0.00    -0.135 C  
HETATM   18  C   UNL     1     -10.324   7.856  73.075  1.00  0.00    -0.334 C  
ENDBRANCH  10  13
ENDBRANCH   6   8
ENDBRANCH   3   4
ENDBRANCH   2   3
TORSDOF 4
ENDMDL
MODEL       53
REMARK 921   NORMALIZED FREE ENERGY PREDICTED BY IDOCK:   -4.43 KCAL/MOL
REMARK 922        TOTAL FREE ENERGY PREDICTED BY IDOCK:   -5.73 KCAL/MOL
REMARK 923 INTER-LIGAND FREE ENERGY PREDICTED BY IDOCK:   -5.39 KCAL/MOL
REMARK 924 INTRA-LIGAND FREE ENERGY PREDICTED BY IDOCK:   -0.34 KCAL/MOL
REMARK 927      BINDING AFFINITY PREDICTED BY RF-SCORE:    0.00 PKD
ROOT
HETATM    1  C   UNL     1     -10.681   6.965  67.139  1.00  0.00    -0.436 C  
HETATM    2  C   UNL     1     -10.428   8.449  67.327  1.00  0.00    -0.303 C  
ENDROOT
BRANCH   2   3
HETATM    3  O   UNL     1      -9.865   9.002  66.128  1.00  0.00    -0.271 OA 
BRANCH   3   4
HETATM    4  C   UNL     1     -10.118  10.319  65.897  1.00  0.00    -0.251 C  
HETATM    5  O   UNL     1      -9.619  10.943  64.962  1.00  0.00    -0.220 OA 
HETATM    6  N   UNL     1     -10.982  10.768  66.817  1.00  0.00    -0.200 N  
HETATM    7  H   UNL     1     -11.389  10.156  67.525  1.00  0.00     0.000 HD 
BRANCH   6   8
HETATM    8  C   UNL     1     -11.278  12.075  66.745  1.00  0.00    -0.322 A  
HETATM    9  C   UNL     1     -10.571  13.125  67.282  1.00  0.00    -0.246 A  
HETATM   10  N   UNL     1     -11.187  14.248  66.791  1.00  0.00    -0.322 NA 
HETATM   11  O   UNL     1     -12.351  12.589  66.052  1.00  0.00    -0.615 OA 
HETATM   12  N   UNL     1     -12.271  13.992  66.077  1.00  0.00    -0.436 NA 
BRANCH  10  13
HETATM   13  N   UNL     1     -10.646  15.566  66.849  1.00  0.00    -0.304 NA 
HETATM   14  C   UNL     1     -10.309  16.311  65.647  1.00  0.00    -0.363 C  
HETATM   15  C   UNL     1     -10.563  17.798  65.921  1.00  0.00    -0.205 C  
HETATM   16  O   UNL     1      -9.844  18.236  67.080  1.00  0.00    -0.301 OA 
HETATM   17  C   UNL     1     -10.232  17.493  68.242  1.00  0.00    -0.365 C  
HETATM   18  C   UNL     1      -9.948  16.000  68.050  1.00  0.00    -0.229 C  
ENDBRANCH  10  13
ENDBRANCH   6   8
ENDBRANCH   3   4
ENDBRANCH   2   3
TORSDOF 4
ENDMDL
MODEL       54
REMARK 921   NORMALIZED FREE ENERGY PREDICTED BY IDOCK:   -4.42 KCAL/MOL
REMARK 922        TOTAL FREE ENERGY PREDICTED BY IDOCK:   -5.73 KCAL/MOL
REMARK 923 INTER-LIGAND FREE ENERGY PREDICTED BY IDOCK:   -5.36 KCAL/MOL
REMARK 924 INTRA-LIGAND FREE ENERGY PREDICTED BY IDOCK:   -0.37 KCAL/MOL
REMARK 927      BINDING AFFINITY PREDICTED BY RF-SCORE:    0.00 PKD
ROOT
HETATM    1  C   UNL     1      -9.694   5.461  68.133  1.00  0.00    -0.174 C  
HETATM    2  C   UNL     1     -10.502   6.646  68.629  1.00  0.00    -0.211 C  
ENDROOT
BRANCH   2   3
HETATM    3  O   UNL     1      -9.650   7.550  69.345  1.00  0.00    -0.156 OA 
BRANCH   3   4
HETATM    4  C   UNL     1      -9.860   8.877  69.124  1.00  0.00    -0.180 C  
HETATM    5  O   UNL     1      -9.138   9.756  69.591  1.00  0.00    -0.189 OA 
HETATM    6  N   UNL     1     -10.926   9.025  68.326  1.00  0.00    -0.475 N  
HETATM    7  H   UNL     1     -11.430   8.228  67.939  1.00  0.00     0.000 HD 
BRANCH   6   8
HETATM    8  C   UNL     1     -11.286  10.293  68.071  1.00  0.00    -0.235 A  
HETATM    9  C   UNL     1     -10.990  11.039  66.955  1.00  0.00    -0.249 A  
HETATM   10  N   UNL     1     -11.719  12.192  67.101  1.00  0.00    -0.538 NA 
HETATM   11  O   UNL     1     -12.079  11.054  68.898  1.00  0.00    -0.479 OA 
HETATM   12  N   UNL     1     -12.364  12.270  68.254  1.00  0.00    -0.078 NA 
BRANCH  10  13
HETATM   13  N   UNL     1     -11.950  13.148  66.070  1.00  0.00    -0.412 NA 
HETATM   14  C   UNL     1     -11.924  14.578  66.330  1.00  0.00    -0.334 C  
HETATM   15  C   UNL     1     -11.384  15.281  65.078  1.00  0.00    -0.358 C  
HETATM   16  O   UNL     1     -12.153  14.929  63.922  1.00  0.00    -0.483 OA 
HETATM   17  C   UNL     1     -12.124  13.515  63.691  1.00  0.00    -0.400 C  
HETATM   18  C   UNL     1     -12.705  12.759  64.889  1.00  0.00    -0.404 C  
ENDBRANCH  10  13
ENDBRANCH   6   8
ENDBRANCH   3   4
ENDBRANCH   2   3
TORSDOF 4
ENDMDL
MODEL       55
REMARK 921   NORMALIZED FREE ENERGY PREDICTED BY IDOCK:   -4.42 KCAL/MOL
REMARK 922        TOTAL FREE ENERGY PREDICTED BY IDOCK:   -5.72 KCAL/MOL
REMARK 923 INTER-LIGAND FREE ENERGY PREDICTED BY IDOCK:   -5.36 KCAL/MOL
REMARK 924 INTRA-LIGAND FREE ENERGY PREDICTED BY IDOCK:   -0.36 KCAL/MOL
REMARK 927      BINDING AFFINITY PREDICTED BY RF-SCORE:    0.00 PKD
ROOT
HETATM    1  C   UNL     1      -7.973   6.290  68.987  1.00  0.00    -0.110 C  
HETATM    2  C   UNL     1      -9.052   7.300  68.644  1.00  0.00    -0.133 C  
ENDROOT
BRANCH   2   3
HETATM    3  O   UNL     1     -10.209   7.072  69.461  1.00  0.00    -0.188 OA 
BRANCH   3   4
HETATM    4  C   UNL     1     -10.539   8.070  70.326  1.00  0.00    -0.231 C  
HETATM    5  O   UNL     1      -9.925   8.282  71.370  1.00  0.00    -0.176 OA 
HETATM    6  N   UNL     1     -11.585   8.748  69.835  1.00  0.00    -0.433 N  
HETATM    7  H   UNL     1     -11.995   8.532  68.926  1.00  0.00     0.000 HD 
BRANCH   6   8
HETATM    8  C   UNL     1     -12.058   9.730  70.619  1.00  0.00    -0.230 A  
HETATM    9  C   UNL     1     -11.798  11.076  70.523  1.00  0.00    -0.367 A  
HETATM   10  N   UNL     1     -12.641  11.661  71.434  1.00  0.00    -0.327 NA 
HETATM   11  O   UNL     1     -12.950   9.537  71.648  1.00  0.00    -0.342 OA 
HETATM   12  N   UNL     1     -13.330  10.791  72.155  1.00  0.00    -0.356 NA 
BRANCH  10  13
HETATM   13  N   UNL     1     -12.928  13.055  71.503  1.00  0.00    -0.352 NA 
HETATM   14  C   UNL     1     -13.916  13.590  72.425  1.00  0.00    -0.536 C  
HETATM   15  C   UNL     1     -13.450  14.983  72.868  1.00  0.00    -0.465 C  
HETATM   16  O   UNL     1     -13.215  15.828  71.735  1.00  0.00    -0.477 OA 
HETATM   17  C   UNL     1     -12.215  15.273  70.872  1.00  0.00    -0.355 C  
HETATM   18  C   UNL     1     -12.650  13.900  70.351  1.00  0.00    -0.282 C  
ENDBRANCH  10  13
ENDBRANCH   6   8
ENDBRANCH   3   4
ENDBRANCH   2   3
TORSDOF 4
ENDMDL
MODEL       56
REMARK 921   NORMALIZED FREE ENERGY PREDICTED BY IDOCK:   -4.42 KCAL/MOL
REMARK 922        TOTAL FREE ENERGY PREDICTED BY IDOCK:   -5.72 KCAL/MOL
REMARK 923 INTER-LIGAND FREE ENERGY PREDICTED BY IDOCK:   -5.57 KCAL/MOL
REMARK 924 INTRA-LIGAND FREE ENERGY PREDICTED BY IDOCK:   -0.15 KCAL/MOL
REMARK 927      BINDING AFFINITY PREDICTED BY RF-SCORE:    0.00 PKD
ROOT
HETATM    1  C   UNL     1     -10.568   5.656  69.982  1.00  0.00    -0.388 C  
HETATM    2  C   UNL     1     -10.822   7.147  70.108  1.00  0.00    -0.257 C  
ENDROOT
BRANCH   2   3
HETATM    3  O   UNL     1     -10.039   7.857  69.138  1.00  0.00    -0.186 OA 
BRANCH   3   4
HETATM    4  C   UNL     1     -10.269   9.195  69.042  1.00  0.00    -0.207 C  
HETATM    5  O   UNL     1      -9.425   9.992  68.635  1.00  0.00    -0.147 OA 
HETATM    6  N   UNL     1     -11.525   9.453  69.432  1.00  0.00    -0.430 N  
HETATM    7  H   UNL     1     -12.173   8.713  69.700  1.00  0.00     0.000 HD 
BRANCH   6   8
HETATM    8  C   UNL     1     -11.872  10.750  69.445  1.00  0.00    -0.298 A  
HETATM    9  C   UNL     1     -12.330  11.483  70.513  1.00  0.00    -0.342 A  
HETATM   10  N   UNL     1     -12.379  12.776  70.054  1.00  0.00    -0.174 NA 
HETATM   11  O   UNL     1     -11.771  11.589  68.358  1.00  0.00    -0.327 OA 
HETATM   12  N   UNL     1     -12.087  12.895  68.769  1.00  0.00    -0.226 NA 
BRANCH  10  13
HETATM   13  N   UNL     1     -12.533  13.929  70.878  1.00  0.00    -0.356 NA 
HETATM   14  C   UNL     1     -13.458  13.952  71.998  1.00  0.00    -0.455 C  
HETATM   15  C   UNL     1     -12.859  14.846  73.092  1.00  0.00    -0.512 C  
HETATM   16  O   UNL     1     -12.556  16.149  72.580  1.00  0.00    -0.448 OA 
HETATM   17  C   UNL     1     -11.620  16.075  71.497  1.00  0.00    -0.456 C  
HETATM   18  C   UNL     1     -12.187  15.239  70.347  1.00  0.00    -0.363 C  
ENDBRANCH  10  13
ENDBRANCH   6   8
ENDBRANCH   3   4
ENDBRANCH   2   3
TORSDOF 4
ENDMDL
MODEL       57
REMARK 921   NORMALIZED FREE ENERGY PREDICTED BY IDOCK:   -4.42 KCAL/MOL
REMARK 922        TOTAL FREE ENERGY PREDICTED BY IDOCK:   -5.72 KCAL/MOL
REMARK 923 INTER-LIGAND FREE ENERGY PREDICTED BY IDOCK:   -5.40 KCAL/MOL
REMARK 924 INTRA-LIGAND FREE ENERGY PREDICTED BY IDOCK:   -0.32 KCAL/MOL
REMARK 927      BINDING AFFINITY PREDICTED BY RF-SCORE:    0.00 PKD
ROOT
HETATM    1  C   UNL     1     -10.470   5.425  66.734  1.00  0.00    -0.347 C  
HETATM    2  C   UNL     1      -9.837   6.772  67.030  1.00  0.00    -0.167 C  
ENDROOT
BRANCH   2   3
HETATM    3  O   UNL     1     -10.340   7.282  68.274  1.00  0.00    -0.182 OA 
BRANCH   3   4
HETATM    4  C   UNL     1     -10.391   8.638  68.391  1.00  0.00    -0.201 C  
HETATM    5  O   UNL     1     -10.054   9.234  69.412  1.00  0.00    -0.183 OA 
HETATM    6  N   UNL     1     -10.829   9.161  67.239  1.00  0.00    -0.381 N  
HETATM    7  H   UNL     1     -11.031   8.585  66.421  1.00  0.00     0.000 HD 
BRANCH   6   8
HETATM    8  C   UNL     1     -10.986  10.494  67.231  1.00  0.00    -0.260 A  
HETATM    9  C   UNL     1     -10.243  11.421  66.538  1.00  0.00    -0.221 A  
HETATM   10  N   UNL     1     -10.900  12.610  66.730  1.00  0.00    -0.246 NA 
HETATM   11  O   UNL     1     -11.984  11.161  67.904  1.00  0.00    -0.624 OA 
HETATM   12  N   UNL     1     -11.927  12.522  67.560  1.00  0.00    -0.472 NA 
BRANCH  10  13
HETATM   13  N   UNL     1     -10.663  13.803  65.987  1.00  0.00    -0.281 NA 
HETATM   14  C   UNL     1     -11.214  14.000  64.657  1.00  0.00    -0.374 C  
HETATM   15  C   UNL     1     -11.518  15.493  64.483  1.00  0.00    -0.308 C  
HETATM   16  O   UNL     1     -10.351  16.286  64.736  1.00  0.00    -0.527 OA 
HETATM   17  C   UNL     1      -9.863  16.078  66.067  1.00  0.00    -0.337 C  
HETATM   18  C   UNL     1      -9.489  14.609  66.284  1.00  0.00    -0.293 C  
ENDBRANCH  10  13
ENDBRANCH   6   8
ENDBRANCH   3   4
ENDBRANCH   2   3
TORSDOF 4
ENDMDL
MODEL       58
REMARK 921   NORMALIZED FREE ENERGY PREDICTED BY IDOCK:   -4.33 KCAL/MOL
REMARK 922        TOTAL FREE ENERGY PREDICTED BY IDOCK:   -5.61 KCAL/MOL
REMARK 923 INTER-LIGAND FREE ENERGY PREDICTED BY IDOCK:   -5.25 KCAL/MOL
REMARK 924 INTRA-LIGAND FREE ENERGY PREDICTED BY IDOCK:   -0.36 KCAL/MOL
REMARK 927      BINDING AFFINITY PREDICTED BY RF-SCORE:    0.00 PKD
ROOT
HETATM    1  C   UNL     1     -10.528   6.201  73.801  1.00  0.00    -0.295 C  
HETATM    2  C   UNL     1     -10.439   7.597  73.213  1.00  0.00    -0.355 C  
ENDROOT
BRANCH   2   3
HETATM    3  O   UNL     1     -11.753   8.165  73.109  1.00  0.00    -0.245 OA 
BRANCH   3   4
HETATM    4  C   UNL     1     -12.096   8.666  71.890  1.00  0.00    -0.356 C  
HETATM    5  O   UNL     1     -13.161   8.403  71.334  1.00  0.00    -0.299 OA 
HETATM    6  N   UNL     1     -11.117   9.470  71.455  1.00  0.00    -0.371 N  
HETATM    7  H   UNL     1     -10.290   9.673  72.017  1.00  0.00     0.000 HD 
BRANCH   6   8
HETATM    8  C   UNL     1     -11.296   9.991  70.231  1.00  0.00    -0.308 A  
HETATM    9  C   UNL     1     -11.693  11.268  69.914  1.00  0.00    -0.352 A  
HETATM   10  N   UNL     1     -11.562  11.346  68.550  1.00  0.00    -0.303 NA 
HETATM   11  O   UNL     1     -11.054   9.312  69.058  1.00  0.00    -0.102 OA 
HETATM   12  N   UNL     1     -11.214  10.203  67.983  1.00  0.00    -0.240 NA 
BRANCH  10  13
HETATM   13  N   UNL     1     -11.594  12.555  67.795  1.00  0.00    -0.324 NA 
HETATM   14  C   UNL     1     -11.895  13.836  68.412  1.00  0.00    -0.376 C  
HETATM   15  C   UNL     1     -11.096  14.919  67.675  1.00  0.00    -0.311 C  
HETATM   16  O   UNL     1     -11.370  14.889  66.269  1.00  0.00    -0.343 OA 
HETATM   17  C   UNL     1     -11.032  13.617  65.702  1.00  0.00    -0.290 C  
HETATM   18  C   UNL     1     -11.842  12.497  66.362  1.00  0.00    -0.381 C  
ENDBRANCH  10  13
ENDBRANCH   6   8
ENDBRANCH   3   4
ENDBRANCH   2   3
TORSDOF 4
ENDMDL
MODEL       59
REMARK 921   NORMALIZED FREE ENERGY PREDICTED BY IDOCK:   -4.31 KCAL/MOL
REMARK 922        TOTAL FREE ENERGY PREDICTED BY IDOCK:   -5.59 KCAL/MOL
REMARK 923 INTER-LIGAND FREE ENERGY PREDICTED BY IDOCK:   -5.36 KCAL/MOL
REMARK 924 INTRA-LIGAND FREE ENERGY PREDICTED BY IDOCK:   -0.23 KCAL/MOL
REMARK 927      BINDING AFFINITY PREDICTED BY RF-SCORE:    0.00 PKD
ROOT
HETATM    1  C   UNL     1     -10.368  20.012  65.860  1.00  0.00    -0.529 C  
HETATM    2  C   UNL     1     -10.119  18.870  66.827  1.00  0.00    -0.375 C  
ENDROOT
BRANCH   2   3
HETATM    3  O   UNL     1     -10.020  17.634  66.105  1.00  0.00    -0.398 OA 
BRANCH   3   4
HETATM    4  C   UNL     1     -10.535  16.534  66.722  1.00  0.00    -0.269 C  
HETATM    5  O   UNL     1     -11.017  16.565  67.853  1.00  0.00    -0.343 OA 
HETATM    6  N   UNL     1     -10.442  15.484  65.896  1.00  0.00    -0.322 N  
HETATM    7  H   UNL     1     -10.077  15.569  64.947  1.00  0.00     0.000 HD 
BRANCH   6   8
HETATM    8  C   UNL     1     -10.861  14.313  66.399  1.00  0.00    -0.307 A  
HETATM    9  C   UNL     1     -10.208  13.507  67.301  1.00  0.00    -0.242 A  
HETATM   10  N   UNL     1     -11.117  12.528  67.617  1.00  0.00    -0.245 NA 
HETATM   11  O   UNL     1     -12.080  13.740  66.115  1.00  0.00    -0.391 OA 
HETATM   12  N   UNL     1     -12.238  12.598  66.919  1.00  0.00    -0.454 NA 
BRANCH  10  13
HETATM   13  N   UNL     1     -10.995  11.625  68.713  1.00  0.00    -0.213 NA 
HETATM   14  C   UNL     1     -11.873  11.699  69.869  1.00  0.00    -0.358 C  
HETATM   15  C   UNL     1     -12.087  10.274  70.397  1.00  0.00    -0.286 C  
HETATM   16  O   UNL     1     -10.834   9.638  70.676  1.00  0.00    -0.270 OA 
HETATM   17  C   UNL     1     -10.017   9.564  69.501  1.00  0.00    -0.194 C  
HETATM   18  C   UNL     1      -9.721  10.965  68.958  1.00  0.00    -0.166 C  
ENDBRANCH  10  13
ENDBRANCH   6   8
ENDBRANCH   3   4
ENDBRANCH   2   3
TORSDOF 4
ENDMDL
MODEL       60
REMARK 921   NORMALIZED FREE ENERGY PREDICTED BY IDOCK:   -4.31 KCAL/MOL
REMARK 922        TOTAL FREE ENERGY PREDICTED BY IDOCK:   -5.59 KCAL/MOL
REMARK 923 INTER-LIGAND FREE ENERGY PREDICTED BY IDOCK:   -5.26 KCAL/MOL
REMARK 924 INTRA-LIGAND FREE ENERGY PREDICTED BY IDOCK:   -0.33 KCAL/MOL
REMARK 927      BINDING AFFINITY PREDICTED BY RF-SCORE:    0.00 PKD
ROOT
HETATM    1  C   UNL     1     -10.152  20.289  67.339  1.00  0.00    -0.534 C  
HETATM    2  C   UNL     1      -9.956  18.982  68.085  1.00  0.00    -0.382 C  
ENDROOT
BRANCH   2   3
HETATM    3  O   UNL     1      -8.726  18.368  67.674  1.00  0.00    -0.256 OA 
BRANCH   3   4
HETATM    4  C   UNL     1      -8.821  17.437  66.684  1.00  0.00    -0.254 C  
HETATM    5  O   UNL     1      -8.022  17.368  65.752  1.00  0.00    -0.538 OA 
HETATM    6  N   UNL     1      -9.876  16.647  66.925  1.00  0.00    -0.254 N  
HETATM    7  H   UNL     1     -10.450  16.747  67.762  1.00  0.00     0.000 HD 
BRANCH   6   8
HETATM    8  C   UNL     1     -10.126  15.715  65.992  1.00  0.00    -0.333 A  
HETATM    9  C   UNL     1      -9.560  14.467  65.883  1.00  0.00    -0.220 A  
HETATM   10  N   UNL     1     -10.265  13.851  64.879  1.00  0.00    -0.389 NA 
HETATM   11  O   UNL     1     -11.060  15.853  64.990  1.00  0.00    -0.396 OA 
HETATM   12  N   UNL     1     -11.150  14.638  64.290  1.00  0.00    -0.104 NA 
BRANCH  10  13
HETATM   13  N   UNL     1     -10.224  12.455  64.591  1.00  0.00    -0.296 NA 
HETATM   14  C   UNL     1     -10.434  11.943  63.247  1.00  0.00    -0.379 C  
HETATM   15  C   UNL     1      -9.572  10.685  63.077  1.00  0.00    -0.348 C  
HETATM   16  O   UNL     1      -9.859   9.725  64.101  1.00  0.00    -0.058 OA 
HETATM   17  C   UNL     1      -9.610  10.267  65.404  1.00  0.00    -0.251 C  
HETATM   18  C   UNL     1     -10.486  11.498  65.655  1.00  0.00    -0.266 C  
ENDBRANCH  10  13
ENDBRANCH   6   8
ENDBRANCH   3   4
ENDBRANCH   2   3
TORSDOF 4
ENDMDL
MODEL       61
REMARK 921   NORMALIZED FREE ENERGY PREDICTED BY IDOCK:   -4.31 KCAL/MOL
REMARK 922        TOTAL FREE ENERGY PREDICTED BY IDOCK:   -5.58 KCAL/MOL
REMARK 923 INTER-LIGAND FREE ENERGY PREDICTED BY IDOCK:   -5.34 KCAL/MOL
REMARK 924 INTRA-LIGAND FREE ENERGY PREDICTED BY IDOCK:   -0.24 KCAL/MOL
REMARK 927      BINDING AFFINITY PREDICTED BY RF-SCORE:    0.00 PKD
ROOT
HETATM    1  C   UNL     1     -12.527   7.352  71.431  1.00  0.00    -0.402 C  
HETATM    2  C   UNL     1     -13.354   8.620  71.540  1.00  0.00    -0.305 C  
ENDROOT
BRANCH   2   3
HETATM    3  O   UNL     1     -12.494   9.739  71.800  1.00  0.00    -0.371 OA 
BRANCH   3   4
HETATM    4  C   UNL     1     -11.667  10.110  70.784  1.00  0.00    -0.357 C  
HETATM    5  O   UNL     1     -10.447   9.959  70.824  1.00  0.00    -0.290 OA 
HETATM    6  N   UNL     1     -12.401  10.618  69.785  1.00  0.00    -0.517 N  
HETATM    7  H   UNL     1     -13.420  10.650  69.820  1.00  0.00     0.000 HD 
BRANCH   6   8
HETATM    8  C   UNL     1     -11.706  11.082  68.734  1.00  0.00    -0.314 A  
HETATM    9  C   UNL     1     -11.141  10.353  67.716  1.00  0.00    -0.299 A  
HETATM   10  N   UNL     1     -10.698  11.291  66.818  1.00  0.00    -0.264 NA 
HETATM   11  O   UNL     1     -11.486  12.417  68.480  1.00  0.00    -0.257 OA 
HETATM   12  N   UNL     1     -10.849  12.538  67.234  1.00  0.00    -0.239 NA 
BRANCH  10  13
HETATM   13  N   UNL     1     -10.289  11.012  65.481  1.00  0.00    -0.263 NA 
HETATM   14  C   UNL     1     -10.968  11.593  64.335  1.00  0.00    -0.337 C  
HETATM   15  C   UNL     1      -9.929  11.820  63.229  1.00  0.00    -0.410 C  
HETATM   16  O   UNL     1      -9.235  10.605  62.922  1.00  0.00    -0.237 OA 
HETATM   17  C   UNL     1      -8.559  10.088  64.075  1.00  0.00    -0.190 C  
HETATM   18  C   UNL     1      -9.556   9.787  65.198  1.00  0.00    -0.287 C  
ENDBRANCH  10  13
ENDBRANCH   6   8
ENDBRANCH   3   4
ENDBRANCH   2   3
TORSDOF 4
ENDMDL
MODEL       62
REMARK 921   NORMALIZED FREE ENERGY PREDICTED BY IDOCK:   -4.29 KCAL/MOL
REMARK 922        TOTAL FREE ENERGY PREDICTED BY IDOCK:   -5.57 KCAL/MOL
REMARK 923 INTER-LIGAND FREE ENERGY PREDICTED BY IDOCK:   -5.26 KCAL/MOL
REMARK 924 INTRA-LIGAND FREE ENERGY PREDICTED BY IDOCK:   -0.30 KCAL/MOL
REMARK 927      BINDING AFFINITY PREDICTED BY RF-SCORE:    0.00 PKD
ROOT
HETATM    1  C   UNL     1      -9.357   7.857  66.571  1.00  0.00    -0.255 C  
HETATM    2  C   UNL     1     -10.183   8.827  67.396  1.00  0.00    -0.252 C  
ENDROOT
BRANCH   2   3
HETATM    3  O   UNL     1     -10.281  10.085  66.713  1.00  0.00    -0.217 OA 
BRANCH   3   4
HETATM    4  C   UNL     1     -10.378  11.191  67.502  1.00  0.00    -0.196 C  
HETATM    5  O   UNL     1      -9.543  11.478  68.358  1.00  0.00    -0.186 OA 
HETATM    6  N   UNL     1     -11.480  11.874  67.166  1.00  0.00    -0.327 N  
HETATM    7  H   UNL     1     -12.086  11.585  66.397  1.00  0.00     0.000 HD 
BRANCH   6   8
HETATM    8  C   UNL     1     -11.734  12.964  67.907  1.00  0.00    -0.357 A  
HETATM    9  C   UNL     1     -12.381  13.020  69.119  1.00  0.00     0.100 A  
HETATM   10  N   UNL     1     -12.235  14.320  69.532  1.00  0.00    -0.320 NA 
HETATM   11  O   UNL     1     -11.327  14.236  67.577  1.00  0.00    -0.297 OA 
HETATM   12  N   UNL     1     -11.643  15.099  68.641  1.00  0.00    -0.325 NA 
BRANCH  10  13
HETATM   13  N   UNL     1     -12.501  14.792  70.851  1.00  0.00    -0.304 NA 
HETATM   14  C   UNL     1     -11.438  15.252  71.729  1.00  0.00    -0.421 C  
HETATM   15  C   UNL     1     -11.999  16.376  72.609  1.00  0.00    -0.502 C  
HETATM   16  O   UNL     1     -13.168  15.940  73.313  1.00  0.00    -0.540 OA 
HETATM   17  C   UNL     1     -14.196  15.524  72.405  1.00  0.00    -0.481 C  
HETATM   18  C   UNL     1     -13.711  14.361  71.535  1.00  0.00    -0.382 C  
ENDBRANCH  10  13
ENDBRANCH   6   8
ENDBRANCH   3   4
ENDBRANCH   2   3
TORSDOF 4
ENDMDL
MODEL       63
REMARK 921   NORMALIZED FREE ENERGY PREDICTED BY IDOCK:   -4.28 KCAL/MOL
REMARK 922        TOTAL FREE ENERGY PREDICTED BY IDOCK:   -5.55 KCAL/MOL
REMARK 923 INTER-LIGAND FREE ENERGY PREDICTED BY IDOCK:   -5.55 KCAL/MOL
REMARK 924 INTRA-LIGAND FREE ENERGY PREDICTED BY IDOCK:   -0.00 KCAL/MOL
REMARK 927      BINDING AFFINITY PREDICTED BY RF-SCORE:    0.00 PKD
ROOT
HETATM    1  C   UNL     1      -9.882  16.441  69.097  1.00  0.00    -0.272 C  
HETATM    2  C   UNL     1     -10.706  15.309  69.682  1.00  0.00    -0.281 C  
ENDROOT
BRANCH   2   3
HETATM    3  O   UNL     1     -11.457  14.666  68.642  1.00  0.00    -0.272 OA 
BRANCH   3   4
HETATM    4  C   UNL     1     -11.809  13.370  68.869  1.00  0.00    -0.334 C  
HETATM    5  O   UNL     1     -12.150  12.602  67.970  1.00  0.00    -0.305 OA 
HETATM    6  N   UNL     1     -11.695  13.107  70.177  1.00  0.00    -0.527 N  
HETATM    7  H   UNL     1     -11.347  13.797  70.842  1.00  0.00     0.000 HD 
BRANCH   6   8
HETATM    8  C   UNL     1     -12.070  11.874  70.554  1.00  0.00    -0.331 A  
HETATM    9  C   UNL     1     -11.566  10.674  70.112  1.00  0.00    -0.330 A  
HETATM   10  N   UNL     1     -12.156   9.731  70.916  1.00  0.00    -0.310 NA 
HETATM   11  O   UNL     1     -13.019  11.614  71.516  1.00  0.00    -0.424 OA 
HETATM   12  N   UNL     1     -13.053  10.229  71.751  1.00  0.00    -0.446 NA 
BRANCH  10  13
HETATM   13  N   UNL     1     -11.741   8.371  71.017  1.00  0.00    -0.277 NA 
HETATM   14  C   UNL     1     -11.682   7.680  72.295  1.00  0.00    -0.324 C  
HETATM   15  C   UNL     1     -12.027   6.205  72.056  1.00  0.00    -0.253 C  
HETATM   16  O   UNL     1     -11.167   5.633  71.063  1.00  0.00    -0.200 OA 
HETATM   17  C   UNL     1     -11.282   6.329  69.815  1.00  0.00    -0.430 C  
HETATM   18  C   UNL     1     -10.895   7.802  69.979  1.00  0.00    -0.241 C  
ENDBRANCH  10  13
ENDBRANCH   6   8
ENDBRANCH   3   4
ENDBRANCH   2   3
TORSDOF 4
ENDMDL
MODEL       64
REMARK 921   NORMALIZED FREE ENERGY PREDICTED BY IDOCK:   -4.28 KCAL/MOL
REMARK 922        TOTAL FREE ENERGY PREDICTED BY IDOCK:   -5.55 KCAL/MOL
REMARK 923 INTER-LIGAND FREE ENERGY PREDICTED BY IDOCK:   -5.18 KCAL/MOL
REMARK 924 INTRA-LIGAND FREE ENERGY PREDICTED BY IDOCK:   -0.37 KCAL/MOL
REMARK 927      BINDING AFFINITY PREDICTED BY RF-SCORE:    0.00 PKD
ROOT
HETATM    1  C   UNL     1      -7.747   5.184  66.115  1.00  0.00    -0.091 C  
HETATM    2  C   UNL     1      -9.130   5.117  66.735  1.00  0.00    -0.118 C  
ENDROOT
BRANCH   2   3
HETATM    3  O   UNL     1      -9.245   6.100  67.773  1.00  0.00    -0.114 OA 
BRANCH   3   4
HETATM    4  C   UNL     1     -10.051   7.165  67.505  1.00  0.00    -0.188 C  
HETATM    5  O   UNL     1     -11.152   7.054  66.969  1.00  0.00    -0.373 OA 
HETATM    6  N   UNL     1      -9.456   8.285  67.937  1.00  0.00    -0.144 N  
HETATM    7  H   UNL     1      -8.560   8.271  68.426  1.00  0.00     0.000 HD 
BRANCH   6   8
HETATM    8  C   UNL     1     -10.116   9.426  67.684  1.00  0.00    -0.211 A  
HETATM    9  C   UNL     1      -9.985  10.244  66.587  1.00  0.00    -0.216 A  
HETATM   10  N   UNL     1     -10.985  11.173  66.722  1.00  0.00    -0.271 NA 
HETATM   11  O   UNL     1     -11.100   9.947  68.493  1.00  0.00    -0.207 OA 
HETATM   12  N   UNL     1     -11.663  11.064  67.853  1.00  0.00    -0.592 NA 
BRANCH  10  13
HETATM   13  N   UNL     1     -11.419  12.060  65.694  1.00  0.00    -0.339 NA 
HETATM   14  C   UNL     1     -11.152  11.796  64.290  1.00  0.00    -0.355 C  
HETATM   15  C   UNL     1     -12.326  12.344  63.470  1.00  0.00    -0.546 C  
HETATM   16  O   UNL     1     -12.546  13.731  63.754  1.00  0.00    -0.712 OA 
HETATM   17  C   UNL     1     -12.833  13.936  65.143  1.00  0.00    -0.342 C  
HETATM   18  C   UNL     1     -11.668  13.458  66.013  1.00  0.00    -0.362 C  
ENDBRANCH  10  13
ENDBRANCH   6   8
ENDBRANCH   3   4
ENDBRANCH   2   3
TORSDOF 4
ENDMDL
MODEL       65
REMARK 921   NORMALIZED FREE ENERGY PREDICTED BY IDOCK:   -4.24 KCAL/MOL
REMARK 922        TOTAL FREE ENERGY PREDICTED BY IDOCK:   -5.50 KCAL/MOL
REMARK 923 INTER-LIGAND FREE ENERGY PREDICTED BY IDOCK:   -5.16 KCAL/MOL
REMARK 924 INTRA-LIGAND FREE ENERGY PREDICTED BY IDOCK:   -0.34 KCAL/MOL
REMARK 927      BINDING AFFINITY PREDICTED BY RF-SCORE:    0.00 PKD
ROOT
HETATM    1  C   UNL     1     -11.467  12.782  65.753  1.00  0.00    -0.388 C  
HETATM    2  C   UNL     1     -11.047  11.723  66.756  1.00  0.00    -0.306 C  
ENDROOT
BRANCH   2   3
HETATM    3  O   UNL     1     -12.131  11.450  67.656  1.00  0.00    -0.630 OA 
BRANCH   3   4
HETATM    4  C   UNL     1     -11.784  11.031  68.904  1.00  0.00    -0.330 C  
HETATM    5  O   UNL     1     -11.949  11.718  69.911  1.00  0.00    -0.312 OA 
HETATM    6  N   UNL     1     -11.282   9.791  68.827  1.00  0.00    -0.469 N  
HETATM    7  H   UNL     1     -11.238   9.277  67.947  1.00  0.00     0.000 HD 
BRANCH   6   8
HETATM    8  C   UNL     1     -10.842   9.272  69.984  1.00  0.00    -0.238 A  
HETATM    9  C   UNL     1     -11.486   8.369  70.795  1.00  0.00    -0.255 A  
HETATM   10  N   UNL     1     -10.559   8.034  71.750  1.00  0.00    -0.228 NA 
HETATM   11  O   UNL     1      -9.607   9.538  70.531  1.00  0.00    -0.249 OA 
HETATM   12  N   UNL     1      -9.432   8.721  71.661  1.00  0.00    -0.270 NA 
BRANCH  10  13
HETATM   13  N   UNL     1     -10.673   6.931  72.646  1.00  0.00    -0.230 NA 
HETATM   14  C   UNL     1     -11.610   5.844  72.409  1.00  0.00    -0.288 C  
HETATM   15  C   UNL     1     -10.986   4.551  72.949  1.00  0.00    -0.180 C  
HETATM   16  O   UNL     1     -10.621   4.695  74.327  1.00  0.00    -0.263 OA 
HETATM   17  C   UNL     1      -9.676   5.758  74.504  1.00  0.00    -0.221 C  
HETATM   18  C   UNL     1     -10.265   7.091  74.033  1.00  0.00    -0.308 C  
ENDBRANCH  10  13
ENDBRANCH   6   8
ENDBRANCH   3   4
ENDBRANCH   2   3
TORSDOF 4
ENDMDL
MODEL       66
REMARK 921   NORMALIZED FREE ENERGY PREDICTED BY IDOCK:   -4.15 KCAL/MOL
REMARK 922        TOTAL FREE ENERGY PREDICTED BY IDOCK:   -5.39 KCAL/MOL
REMARK 923 INTER-LIGAND FREE ENERGY PREDICTED BY IDOCK:   -5.11 KCAL/MOL
REMARK 924 INTRA-LIGAND FREE ENERGY PREDICTED BY IDOCK:   -0.28 KCAL/MOL
REMARK 927      BINDING AFFINITY PREDICTED BY RF-SCORE:    0.00 PKD
ROOT
HETATM    1  C   UNL     1     -10.456  20.087  66.198  1.00  0.00    -0.526 C  
HETATM    2  C   UNL     1      -9.397  20.521  67.194  1.00  0.00    -0.376 C  
ENDROOT
BRANCH   2   3
HETATM    3  O   UNL     1      -8.188  19.781  66.970  1.00  0.00    -0.280 OA 
BRANCH   3   4
HETATM    4  C   UNL     1      -8.302  18.424  66.986  1.00  0.00    -0.252 C  
HETATM    5  O   UNL     1      -8.128  17.726  65.988  1.00  0.00    -0.484 OA 
HETATM    6  N   UNL     1      -8.598  18.023  68.229  1.00  0.00    -0.280 N  
HETATM    7  H   UNL     1      -8.666  18.677  69.010  1.00  0.00     0.000 HD 
BRANCH   6   8
HETATM    8  C   UNL     1      -8.799  16.705  68.380  1.00  0.00    -0.226 A  
HETATM    9  C   UNL     1      -9.969  16.008  68.189  1.00  0.00    -0.228 A  
HETATM   10  N   UNL     1      -9.612  14.688  68.304  1.00  0.00    -0.202 NA 
HETATM   11  O   UNL     1      -7.813  15.805  68.714  1.00  0.00    -0.155 OA 
HETATM   12  N   UNL     1      -8.347  14.507  68.646  1.00  0.00    -0.162 NA 
BRANCH  10  13
HETATM   13  N   UNL     1     -10.428  13.586  67.916  1.00  0.00    -0.245 NA 
HETATM   14  C   UNL     1     -11.733  13.776  67.303  1.00  0.00    -0.382 C  
HETATM   15  C   UNL     1     -11.966  12.629  66.312  1.00  0.00    -0.374 C  
HETATM   16  O   UNL     1     -11.822  11.358  66.957  1.00  0.00    -0.530 OA 
HETATM   17  C   UNL     1     -10.512  11.207  67.519  1.00  0.00    -0.204 C  
HETATM   18  C   UNL     1     -10.242  12.295  68.562  1.00  0.00    -0.206 C  
ENDBRANCH  10  13
ENDBRANCH   6   8
ENDBRANCH   3   4
ENDBRANCH   2   3
TORSDOF 4
ENDMDL
MODEL       67
REMARK 921   NORMALIZED FREE ENERGY PREDICTED BY IDOCK:   -4.10 KCAL/MOL
REMARK 922        TOTAL FREE ENERGY PREDICTED BY IDOCK:   -5.33 KCAL/MOL
REMARK 923 INTER-LIGAND FREE ENERGY PREDICTED BY IDOCK:   -4.98 KCAL/MOL
REMARK 924 INTRA-LIGAND FREE ENERGY PREDICTED BY IDOCK:   -0.35 KCAL/MOL
REMARK 927      BINDING AFFINITY PREDICTED BY RF-SCORE:    0.00 PKD
ROOT
HETATM    1  C   UNL     1      -8.485  20.082  66.633  1.00  0.00    -0.370 C  
HETATM    2  C   UNL     1      -7.741  19.750  67.913  1.00  0.00    -0.295 C  
ENDROOT
BRANCH   2   3
HETATM    3  O   UNL     1      -8.671  19.322  68.918  1.00  0.00    -0.362 OA 
BRANCH   3   4
HETATM    4  C   UNL     1      -8.985  17.997  68.922  1.00  0.00    -0.127 C  
HETATM    5  O   UNL     1      -8.137  17.108  68.867  1.00  0.00    -0.259 OA 
HETATM    6  N   UNL     1     -10.315  17.862  69.017  1.00  0.00    -0.420 N  
HETATM    7  H   UNL     1     -10.937  18.664  69.116  1.00  0.00     0.000 HD 
BRANCH   6   8
HETATM    8  C   UNL     1     -10.773  16.601  68.973  1.00  0.00    -0.343 A  
HETATM    9  C   UNL     1     -10.995  15.829  67.857  1.00  0.00    -0.324 A  
HETATM   10  N   UNL     1     -11.295  14.584  68.348  1.00  0.00    -0.275 NA 
HETATM   11  O   UNL     1     -11.055  15.841  70.085  1.00  0.00    -0.290 OA 
HETATM   12  N   UNL     1     -11.376  14.537  69.668  1.00  0.00    -0.265 NA 
BRANCH  10  13
HETATM   13  N   UNL     1     -11.333  13.388  67.572  1.00  0.00    -0.284 NA 
HETATM   14  C   UNL     1     -11.841  13.374  66.210  1.00  0.00    -0.394 C  
HETATM   15  C   UNL     1     -11.051  12.324  65.418  1.00  0.00    -0.311 C  
HETATM   16  O   UNL     1     -11.113  11.045  66.060  1.00  0.00    -0.136 OA 
HETATM   17  C   UNL     1     -10.576  11.104  67.387  1.00  0.00    -0.234 C  
HETATM   18  C   UNL     1     -11.362  12.099  68.246  1.00  0.00    -0.289 C  
ENDBRANCH  10  13
ENDBRANCH   6   8
ENDBRANCH   3   4
ENDBRANCH   2   3
TORSDOF 4
ENDMDL
MODEL       68
REMARK 921   NORMALIZED FREE ENERGY PREDICTED BY IDOCK:   -4.09 KCAL/MOL
REMARK 922        TOTAL FREE ENERGY PREDICTED BY IDOCK:   -5.31 KCAL/MOL
REMARK 923 INTER-LIGAND FREE ENERGY PREDICTED BY IDOCK:   -5.05 KCAL/MOL
REMARK 924 INTRA-LIGAND FREE ENERGY PREDICTED BY IDOCK:   -0.26 KCAL/MOL
REMARK 927      BINDING AFFINITY PREDICTED BY RF-SCORE:    0.00 PKD
ROOT
HETATM    1  C   UNL     1     -11.819  13.200  63.826  1.00  0.00    -0.546 C  
HETATM    2  C   UNL     1     -11.747  13.697  65.258  1.00  0.00    -0.334 C  
ENDROOT
BRANCH   2   3
HETATM    3  O   UNL     1     -10.650  13.068  65.936  1.00  0.00    -0.268 OA 
BRANCH   3   4
HETATM    4  C   UNL     1     -10.940  11.924  66.615  1.00  0.00    -0.291 C  
HETATM    5  O   UNL     1     -11.999  11.753  67.218  1.00  0.00    -0.618 OA 
HETATM    6  N   UNL     1      -9.920  11.066  66.485  1.00  0.00    -0.206 N  
HETATM    7  H   UNL     1      -9.102  11.276  65.913  1.00  0.00     0.000 HD 
BRANCH   6   8
HETATM    8  C   UNL     1     -10.046   9.910  67.157  1.00  0.00    -0.215 A  
HETATM    9  C   UNL     1      -9.932   9.713  68.512  1.00  0.00    -0.165 A  
HETATM   10  N   UNL     1     -10.309   8.408  68.709  1.00  0.00    -0.211 NA 
HETATM   11  O   UNL     1     -10.370   8.707  66.573  1.00  0.00    -0.282 OA 
HETATM   12  N   UNL     1     -10.551   7.750  67.587  1.00  0.00    -0.234 NA 
BRANCH  10  13
HETATM   13  N   UNL     1     -10.612   7.828  69.975  1.00  0.00    -0.235 NA 
HETATM   14  C   UNL     1      -9.747   8.011  71.129  1.00  0.00    -0.160 C  
HETATM   15  C   UNL     1     -10.627   8.042  72.385  1.00  0.00    -0.307 C  
HETATM   16  O   UNL     1     -11.443   6.867  72.467  1.00  0.00    -0.264 OA 
HETATM   17  C   UNL     1     -12.296   6.747  71.323  1.00  0.00    -0.344 C  
HETATM   18  C   UNL     1     -11.469   6.654  70.037  1.00  0.00    -0.375 C  
ENDBRANCH  10  13
ENDBRANCH   6   8
ENDBRANCH   3   4
ENDBRANCH   2   3
TORSDOF 4
ENDMDL
MODEL       69
REMARK 921   NORMALIZED FREE ENERGY PREDICTED BY IDOCK:   -4.07 KCAL/MOL
REMARK 922        TOTAL FREE ENERGY PREDICTED BY IDOCK:   -5.30 KCAL/MOL
REMARK 923 INTER-LIGAND FREE ENERGY PREDICTED BY IDOCK:   -4.95 KCAL/MOL
REMARK 924 INTRA-LIGAND FREE ENERGY PREDICTED BY IDOCK:   -0.34 KCAL/MOL
REMARK 927      BINDING AFFINITY PREDICTED BY RF-SCORE:    0.00 PKD
ROOT
HETATM    1  C   UNL     1     -10.681   9.475  67.586  1.00  0.00    -0.314 C  
HETATM    2  C   UNL     1     -11.251  10.799  68.061  1.00  0.00    -0.307 C  
ENDROOT
BRANCH   2   3
HETATM    3  O   UNL     1     -10.185  11.662  68.484  1.00  0.00    -0.200 OA 
BRANCH   3   4
HETATM    4  C   UNL     1     -10.294  12.971  68.126  1.00  0.00    -0.240 C  
HETATM    5  O   UNL     1     -10.317  13.345  66.955  1.00  0.00    -0.253 OA 
HETATM    6  N   UNL     1     -10.390  13.722  69.232  1.00  0.00    -0.433 N  
HETATM    7  H   UNL     1     -10.420  13.312  70.166  1.00  0.00     0.000 HD 
BRANCH   6   8
HETATM    8  C   UNL     1     -10.445  15.047  69.028  1.00  0.00    -0.245 A  
HETATM    9  C   UNL     1      -9.397  15.937  69.017  1.00  0.00    -0.243 A  
HETATM   10  N   UNL     1      -9.950  17.123  68.604  1.00  0.00    -0.295 NA 
HETATM   11  O   UNL     1     -11.599  15.739  68.740  1.00  0.00    -0.363 OA 
HETATM   12  N   UNL     1     -11.263  17.073  68.453  1.00  0.00    -0.168 NA 
BRANCH  10  13
HETATM   13  N   UNL     1      -9.209  18.264  68.179  1.00  0.00    -0.293 NA 
HETATM   14  C   UNL     1      -7.762  18.232  68.045  1.00  0.00    -0.260 C  
HETATM   15  C   UNL     1      -7.370  19.158  66.886  1.00  0.00    -0.209 C  
HETATM   16  O   UNL     1      -7.892  20.477  67.086  1.00  0.00    -0.324 OA 
HETATM   17  C   UNL     1      -9.322  20.460  67.184  1.00  0.00    -0.403 C  
HETATM   18  C   UNL     1      -9.773  19.592  68.363  1.00  0.00    -0.403 C  
ENDBRANCH  10  13
ENDBRANCH   6   8
ENDBRANCH   3   4
ENDBRANCH   2   3
TORSDOF 4
ENDMDL
MODEL       70
REMARK 921   NORMALIZED FREE ENERGY PREDICTED BY IDOCK:   -4.07 KCAL/MOL
REMARK 922        TOTAL FREE ENERGY PREDICTED BY IDOCK:   -5.29 KCAL/MOL
REMARK 923 INTER-LIGAND FREE ENERGY PREDICTED BY IDOCK:   -4.96 KCAL/MOL
REMARK 924 INTRA-LIGAND FREE ENERGY PREDICTED BY IDOCK:   -0.33 KCAL/MOL
REMARK 927      BINDING AFFINITY PREDICTED BY RF-SCORE:    0.00 PKD
ROOT
HETATM    1  C   UNL     1     -11.079   9.940  70.100  1.00  0.00    -0.353 C  
HETATM    2  C   UNL     1     -11.274  10.661  68.779  1.00  0.00    -0.279 C  
ENDROOT
BRANCH   2   3
HETATM    3  O   UNL     1     -12.100  11.818  68.974  1.00  0.00    -0.305 OA 
BRANCH   3   4
HETATM    4  C   UNL     1     -11.580  13.004  68.555  1.00  0.00    -0.328 C  
HETATM    5  O   UNL     1     -11.199  13.198  67.401  1.00  0.00    -0.266 OA 
HETATM    6  N   UNL     1     -11.589  13.872  69.575  1.00  0.00    -0.285 N  
HETATM    7  H   UNL     1     -11.981  13.636  70.486  1.00  0.00     0.000 HD 
BRANCH   6   8
HETATM    8  C   UNL     1     -11.047  15.073  69.318  1.00  0.00    -0.272 A  
HETATM    9  C   UNL     1      -9.798  15.523  69.676  1.00  0.00    -0.278 A  
HETATM   10  N   UNL     1      -9.666  16.731  69.040  1.00  0.00    -0.260 NA 
HETATM   11  O   UNL     1     -11.665  16.061  68.585  1.00  0.00    -0.382 OA 
HETATM   12  N   UNL     1     -10.758  17.117  68.400  1.00  0.00    -0.365 NA 
BRANCH  10  13
HETATM   13  N   UNL     1      -8.441  17.444  68.889  1.00  0.00    -0.211 NA 
HETATM   14  C   UNL     1      -8.389  18.753  68.259  1.00  0.00    -0.330 C  
HETATM   15  C   UNL     1      -7.276  19.564  68.936  1.00  0.00    -0.362 C  
HETATM   16  O   UNL     1      -6.029  18.861  68.888  1.00  0.00    -0.210 OA 
HETATM   17  C   UNL     1      -6.124  17.591  69.546  1.00  0.00    -0.252 C  
HETATM   18  C   UNL     1      -7.184  16.712  68.876  1.00  0.00    -0.219 C  
ENDBRANCH  10  13
ENDBRANCH   6   8
ENDBRANCH   3   4
ENDBRANCH   2   3
TORSDOF 4
ENDMDL
MODEL       71
REMARK 921   NORMALIZED FREE ENERGY PREDICTED BY IDOCK:   -4.05 KCAL/MOL
REMARK 922        TOTAL FREE ENERGY PREDICTED BY IDOCK:   -5.27 KCAL/MOL
REMARK 923 INTER-LIGAND FREE ENERGY PREDICTED BY IDOCK:   -5.07 KCAL/MOL
REMARK 924 INTRA-LIGAND FREE ENERGY PREDICTED BY IDOCK:   -0.20 KCAL/MOL
REMARK 927      BINDING AFFINITY PREDICTED BY RF-SCORE:    0.00 PKD
ROOT
HETATM    1  C   UNL     1     -12.007  14.917  64.384  1.00  0.00    -0.408 C  
HETATM    2  C   UNL     1     -12.607  13.898  65.335  1.00  0.00    -0.507 C  
ENDROOT
BRANCH   2   3
HETATM    3  O   UNL     1     -11.857  13.873  66.558  1.00  0.00    -0.370 OA 
BRANCH   3   4
HETATM    4  C   UNL     1     -11.857  12.694  67.239  1.00  0.00    -0.328 C  
HETATM    5  O   UNL     1     -12.153  11.620  66.717  1.00  0.00    -0.472 OA 
HETATM    6  N   UNL     1     -11.471  12.917  68.502  1.00  0.00    -0.286 N  
HETATM    7  H   UNL     1     -11.188  13.841  68.829  1.00  0.00     0.000 HD 
BRANCH   6   8
HETATM    8  C   UNL     1     -11.481  11.844  69.308  1.00  0.00    -0.306 A  
HETATM    9  C   UNL     1     -10.547  10.838  69.376  1.00  0.00    -0.221 A  
HETATM   10  N   UNL     1     -10.924  10.083  70.458  1.00  0.00    -0.310 NA 
HETATM   11  O   UNL     1     -12.442  11.603  70.263  1.00  0.00    -0.255 OA 
HETATM   12  N   UNL     1     -12.062  10.473  71.008  1.00  0.00    -0.369 NA 
BRANCH  10  13
HETATM   13  N   UNL     1     -10.112   9.094  71.086  1.00  0.00    -0.294 NA 
HETATM   14  C   UNL     1      -9.006   8.456  70.391  1.00  0.00    -0.148 C  
HETATM   15  C   UNL     1      -7.910   8.150  71.419  1.00  0.00    -0.101 C  
HETATM   16  O   UNL     1      -8.428   7.365  72.501  1.00  0.00    -0.105 OA 
HETATM   17  C   UNL     1      -9.495   8.048  73.171  1.00  0.00    -0.280 C  
HETATM   18  C   UNL     1     -10.647   8.333  72.204  1.00  0.00    -0.310 C  
ENDBRANCH  10  13
ENDBRANCH   6   8
ENDBRANCH   3   4
ENDBRANCH   2   3
TORSDOF 4
ENDMDL
MODEL       72
REMARK 921   NORMALIZED FREE ENERGY PREDICTED BY IDOCK:   -4.03 KCAL/MOL
REMARK 922        TOTAL FREE ENERGY PREDICTED BY IDOCK:   -5.24 KCAL/MOL
REMARK 923 INTER-LIGAND FREE ENERGY PREDICTED BY IDOCK:   -4.88 KCAL/MOL
REMARK 924 INTRA-LIGAND FREE ENERGY PREDICTED BY IDOCK:   -0.37 KCAL/MOL
REMARK 927      BINDING AFFINITY PREDICTED BY RF-SCORE:    0.00 PKD
ROOT
HETATM    1  C   UNL     1      -8.714   6.332  65.825  1.00  0.00    -0.145 C  
HETATM    2  C   UNL     1      -9.545   7.305  66.640  1.00  0.00    -0.178 C  
ENDROOT
BRANCH   2   3
HETATM    3  O   UNL     1      -8.687   8.263  67.275  1.00  0.00    -0.122 OA 
BRANCH   3   4
HETATM    4  C   UNL     1      -9.254   9.460  67.593  1.00  0.00    -0.127 C  
HETATM    5  O   UNL     1      -8.606  10.500  67.702  1.00  0.00    -0.118 OA 
HETATM    6  N   UNL     1     -10.576   9.296  67.732  1.00  0.00    -0.343 N  
HETATM    7  H   UNL     1     -11.033   8.399  67.564  1.00  0.00     0.000 HD 
BRANCH   6   8
HETATM    8  C   UNL     1     -11.259  10.389  68.105  1.00  0.00    -0.268 A  
HETATM    9  C   UNL     1     -11.621  10.756  69.379  1.00  0.00    -0.308 A  
HETATM   10  N   UNL     1     -12.145  12.017  69.244  1.00  0.00    -0.239 NA 
HETATM   11  O   UNL     1     -11.675  11.375  67.239  1.00  0.00    -0.577 OA 
HETATM   12  N   UNL     1     -12.231  12.426  67.989  1.00  0.00    -0.277 NA 
BRANCH  10  13
HETATM   13  N   UNL     1     -12.404  12.913  70.322  1.00  0.00    -0.269 NA 
HETATM   14  C   UNL     1     -11.819  14.243  70.372  1.00  0.00    -0.305 C  
HETATM   15  C   UNL     1     -12.821  15.179  71.059  1.00  0.00    -0.412 C  
HETATM   16  O   UNL     1     -13.193  14.675  72.348  1.00  0.00    -0.346 OA 
HETATM   17  C   UNL     1     -13.790  13.376  72.243  1.00  0.00    -0.573 C  
HETATM   18  C   UNL     1     -12.812  12.380  71.613  1.00  0.00    -0.270 C  
ENDBRANCH  10  13
ENDBRANCH   6   8
ENDBRANCH   3   4
ENDBRANCH   2   3
TORSDOF 4
ENDMDL
MODEL       73
REMARK 921   NORMALIZED FREE ENERGY PREDICTED BY IDOCK:   -4.03 KCAL/MOL
REMARK 922        TOTAL FREE ENERGY PREDICTED BY IDOCK:   -5.24 KCAL/MOL
REMARK 923 INTER-LIGAND FREE ENERGY PREDICTED BY IDOCK:   -5.20 KCAL/MOL
REMARK 924 INTRA-LIGAND FREE ENERGY PREDICTED BY IDOCK:   -0.03 KCAL/MOL
REMARK 927      BINDING AFFINITY PREDICTED BY RF-SCORE:    0.00 PKD
ROOT
HETATM    1  C   UNL     1     -13.683  15.874  72.920  1.00  0.00    -0.588 C  
HETATM    2  C   UNL     1     -13.110  14.478  73.075  1.00  0.00    -0.510 C  
ENDROOT
BRANCH   2   3
HETATM    3  O   UNL     1     -13.672  13.609  72.081  1.00  0.00    -0.467 OA 
BRANCH   3   4
HETATM    4  C   UNL     1     -12.784  12.950  71.287  1.00  0.00    -0.278 C  
HETATM    5  O   UNL     1     -11.947  13.527  70.596  1.00  0.00    -0.316 OA 
HETATM    6  N   UNL     1     -12.973  11.630  71.420  1.00  0.00    -0.387 N  
HETATM    7  H   UNL     1     -13.659  11.241  72.067  1.00  0.00     0.000 HD 
BRANCH   6   8
HETATM    8  C   UNL     1     -12.199  10.854  70.644  1.00  0.00    -0.376 A  
HETATM    9  C   UNL     1     -11.502   9.729  71.016  1.00  0.00    -0.383 A  
HETATM   10  N   UNL     1     -11.016   9.215  69.840  1.00  0.00    -0.229 NA 
HETATM   11  O   UNL     1     -12.018  11.046  69.293  1.00  0.00    -0.321 OA 
HETATM   12  N   UNL     1     -11.266   9.973  68.785  1.00  0.00    -0.170 NA 
BRANCH  10  13
HETATM   13  N   UNL     1     -10.464   7.910  69.687  1.00  0.00    -0.224 NA 
HETATM   14  C   UNL     1     -11.284   6.713  69.789  1.00  0.00    -0.356 C  
HETATM   15  C   UNL     1     -10.710   5.659  68.834  1.00  0.00    -0.209 C  
HETATM   16  O   UNL     1      -9.323   5.422  69.107  1.00  0.00    -0.113 OA 
HETATM   17  C   UNL     1      -8.554   6.623  68.965  1.00  0.00    -0.130 C  
HETATM   18  C   UNL     1      -9.046   7.699  69.938  1.00  0.00    -0.147 C  
ENDBRANCH  10  13
ENDBRANCH   6   8
ENDBRANCH   3   4
ENDBRANCH   2   3
TORSDOF 4
ENDMDL
MODEL       74
REMARK 921   NORMALIZED FREE ENERGY PREDICTED BY IDOCK:   -3.99 KCAL/MOL
REMARK 922        TOTAL FREE ENERGY PREDICTED BY IDOCK:   -5.19 KCAL/MOL
REMARK 923 INTER-LIGAND FREE ENERGY PREDICTED BY IDOCK:   -4.84 KCAL/MOL
REMARK 924 INTRA-LIGAND FREE ENERGY PREDICTED BY IDOCK:   -0.35 KCAL/MOL
REMARK 927      BINDING AFFINITY PREDICTED BY RF-SCORE:    0.00 PKD
ROOT
HETATM    1  C   UNL     1     -10.347  16.055  65.529  1.00  0.00    -0.415 C  
HETATM    2  C   UNL     1     -11.215  14.832  65.763  1.00  0.00    -0.337 C  
ENDROOT
BRANCH   2   3
HETATM    3  O   UNL     1     -11.393  14.625  67.172  1.00  0.00    -0.332 OA 
BRANCH   3   4
HETATM    4  C   UNL     1     -10.831  13.497  67.689  1.00  0.00    -0.260 C  
HETATM    5  O   UNL     1      -9.655  13.437  68.042  1.00  0.00    -0.205 OA 
HETATM    6  N   UNL     1     -11.761  12.535  67.755  1.00  0.00    -0.354 N  
HETATM    7  H   UNL     1     -12.732  12.699  67.490  1.00  0.00     0.000 HD 
BRANCH   6   8
HETATM    8  C   UNL     1     -11.329  11.343  68.194  1.00  0.00    -0.304 A  
HETATM    9  C   UNL     1     -11.500  10.799  69.445  1.00  0.00    -0.295 A  
HETATM   10  N   UNL     1     -11.030   9.514  69.335  1.00  0.00    -0.208 NA 
HETATM   11  O   UNL     1     -10.665  10.424  67.413  1.00  0.00    -0.250 OA 
HETATM   12  N   UNL     1     -10.492   9.244  68.156  1.00  0.00    -0.216 NA 
BRANCH  10  13
HETATM   13  N   UNL     1     -11.248   8.480  70.291  1.00  0.00    -0.223 NA 
HETATM   14  C   UNL     1     -11.951   8.727  71.540  1.00  0.00    -0.324 C  
HETATM   15  C   UNL     1     -12.724   7.455  71.911  1.00  0.00    -0.278 C  
HETATM   16  O   UNL     1     -11.848   6.322  71.967  1.00  0.00    -0.320 OA 
HETATM   17  C   UNL     1     -11.202   6.104  70.707  1.00  0.00    -0.306 C  
HETATM   18  C   UNL     1     -10.366   7.323  70.308  1.00  0.00    -0.210 C  
ENDBRANCH  10  13
ENDBRANCH   6   8
ENDBRANCH   3   4
ENDBRANCH   2   3
TORSDOF 4
ENDMDL
MODEL       75
REMARK 921   NORMALIZED FREE ENERGY PREDICTED BY IDOCK:   -3.95 KCAL/MOL
REMARK 922        TOTAL FREE ENERGY PREDICTED BY IDOCK:   -5.14 KCAL/MOL
REMARK 923 INTER-LIGAND FREE ENERGY PREDICTED BY IDOCK:   -4.79 KCAL/MOL
REMARK 924 INTRA-LIGAND FREE ENERGY PREDICTED BY IDOCK:   -0.36 KCAL/MOL
REMARK 927      BINDING AFFINITY PREDICTED BY RF-SCORE:    0.00 PKD
ROOT
HETATM    1  C   UNL     1     -10.376  16.417  65.612  1.00  0.00    -0.371 C  
HETATM    2  C   UNL     1     -10.931  15.212  64.875  1.00  0.00    -0.419 C  
ENDROOT
BRANCH   2   3
HETATM    3  O   UNL     1     -12.122  14.750  65.528  1.00  0.00    -0.264 OA 
BRANCH   3   4
HETATM    4  C   UNL     1     -12.178  13.418  65.804  1.00  0.00    -0.458 C  
HETATM    5  O   UNL     1     -12.877  12.631  65.168  1.00  0.00    -0.721 OA 
HETATM    6  N   UNL     1     -11.353  13.146  66.823  1.00  0.00    -0.303 N  
HETATM    7  H   UNL     1     -10.765  13.861  67.253  1.00  0.00     0.000 HD 
BRANCH   6   8
HETATM    8  C   UNL     1     -11.351  11.871  67.243  1.00  0.00    -0.329 A  
HETATM    9  C   UNL     1     -10.437  10.890  66.938  1.00  0.00    -0.249 A  
HETATM   10  N   UNL     1     -10.783   9.830  67.738  1.00  0.00    -0.271 NA 
HETATM   11  O   UNL     1     -12.274  11.342  68.116  1.00  0.00    -0.622 OA 
HETATM   12  N   UNL     1     -11.887  10.030  68.439  1.00  0.00     0.137 NA 
BRANCH  10  13
HETATM   13  N   UNL     1      -9.966   8.686  67.975  1.00  0.00    -0.174 NA 
HETATM   14  C   UNL     1      -8.515   8.754  67.911  1.00  0.00    -0.126 C  
HETATM   15  C   UNL     1      -7.946   7.764  68.936  1.00  0.00    -0.124 C  
HETATM   16  O   UNL     1      -8.462   6.446  68.715  1.00  0.00    -0.120 OA 
HETATM   17  C   UNL     1      -9.892   6.426  68.816  1.00  0.00    -0.139 C  
HETATM   18  C   UNL     1     -10.521   7.356  67.776  1.00  0.00    -0.232 C  
ENDBRANCH  10  13
ENDBRANCH   6   8
ENDBRANCH   3   4
ENDBRANCH   2   3
TORSDOF 4
ENDMDL
MODEL       76
REMARK 921   NORMALIZED FREE ENERGY PREDICTED BY IDOCK:   -3.92 KCAL/MOL
REMARK 922        TOTAL FREE ENERGY PREDICTED BY IDOCK:   -5.11 KCAL/MOL
REMARK 923 INTER-LIGAND FREE ENERGY PREDICTED BY IDOCK:   -4.76 KCAL/MOL
REMARK 924 INTRA-LIGAND FREE ENERGY PREDICTED BY IDOCK:   -0.34 KCAL/MOL
REMARK 927      BINDING AFFINITY PREDICTED BY RF-SCORE:    0.00 PKD
ROOT
HETATM    1  C   UNL     1      -9.586  20.333  66.937  1.00  0.00    -0.564 C  
HETATM    2  C   UNL     1     -10.770  19.507  66.468  1.00  0.00    -0.432 C  
ENDROOT
BRANCH   2   3
HETATM    3  O   UNL     1     -10.304  18.352  65.755  1.00  0.00    -0.588 OA 
BRANCH   3   4
HETATM    4  C   UNL     1     -10.196  17.203  66.477  1.00  0.00    -0.322 C  
HETATM    5  O   UNL     1     -10.736  17.047  67.572  1.00  0.00    -0.330 OA 
HETATM    6  N   UNL     1      -9.453  16.323  65.793  1.00  0.00    -0.267 N  
HETATM    7  H   UNL     1      -9.093  16.525  64.860  1.00  0.00     0.000 HD 
BRANCH   6   8
HETATM    8  C   UNL     1      -9.213  15.159  66.417  1.00  0.00    -0.300 A  
HETATM    9  C   UNL     1      -9.825  13.949  66.196  1.00  0.00    -0.302 A  
HETATM   10  N   UNL     1      -9.116  13.054  66.957  1.00  0.00    -0.224 NA 
HETATM   11  O   UNL     1      -8.245  14.982  67.379  1.00  0.00    -0.164 OA 
HETATM   12  N   UNL     1      -8.182  13.617  67.707  1.00  0.00    -0.163 NA 
BRANCH  10  13
HETATM   13  N   UNL     1      -9.205  11.636  66.844  1.00  0.00    -0.179 NA 
HETATM   14  C   UNL     1     -10.421  10.977  66.396  1.00  0.00    -0.258 C  
HETATM   15  C   UNL     1     -10.021   9.717  65.617  1.00  0.00    -0.282 C  
HETATM   16  O   UNL     1      -9.177   8.872  66.409  1.00  0.00    -0.161 OA 
HETATM   17  C   UNL     1      -7.981   9.557  66.802  1.00  0.00    -0.109 C  
HETATM   18  C   UNL     1      -8.315  10.798  67.634  1.00  0.00    -0.119 C  
ENDBRANCH  10  13
ENDBRANCH   6   8
ENDBRANCH   3   4
ENDBRANCH   2   3
TORSDOF 4
ENDMDL
MODEL       77
REMARK 921   NORMALIZED FREE ENERGY PREDICTED BY IDOCK:   -3.91 KCAL/MOL
REMARK 922        TOTAL FREE ENERGY PREDICTED BY IDOCK:   -5.10 KCAL/MOL
REMARK 923 INTER-LIGAND FREE ENERGY PREDICTED BY IDOCK:   -4.77 KCAL/MOL
REMARK 924 INTRA-LIGAND FREE ENERGY PREDICTED BY IDOCK:   -0.33 KCAL/MOL
REMARK 927      BINDING AFFINITY PREDICTED BY RF-SCORE:    0.00 PKD
ROOT
HETATM    1  C   UNL     1     -10.148   5.165  69.628  1.00  0.00    -0.332 C  
HETATM    2  C   UNL     1      -9.088   6.251  69.642  1.00  0.00    -0.142 C  
ENDROOT
BRANCH   2   3
HETATM    3  O   UNL     1      -9.686   7.509  69.989  1.00  0.00    -0.171 OA 
BRANCH   3   4
HETATM    4  C   UNL     1      -9.563   8.506  69.070  1.00  0.00    -0.167 C  
HETATM    5  O   UNL     1      -8.612   9.286  69.052  1.00  0.00    -0.128 OA 
HETATM    6  N   UNL     1     -10.603   8.457  68.227  1.00  0.00    -0.391 N  
HETATM    7  H   UNL     1     -11.318   7.732  68.288  1.00  0.00     0.000 HD 
BRANCH   6   8
HETATM    8  C   UNL     1     -10.642   9.425  67.299  1.00  0.00    -0.244 A  
HETATM    9  C   UNL     1     -11.216  10.669  67.409  1.00  0.00    -0.205 A  
HETATM   10  N   UNL     1     -10.841  11.330  66.266  1.00  0.00    -0.264 NA 
HETATM   11  O   UNL     1     -10.046   9.335  66.061  1.00  0.00    -0.297 OA 
HETATM   12  N   UNL     1     -10.168  10.576  65.412  1.00  0.00    -0.286 NA 
BRANCH  10  13
HETATM   13  N   UNL     1     -10.966  12.734  66.057  1.00  0.00    -0.274 NA 
HETATM   14  C   UNL     1     -10.120  13.692  66.751  1.00  0.00    -0.269 C  
HETATM   15  C   UNL     1      -9.882  14.883  65.814  1.00  0.00    -0.348 C  
HETATM   16  O   UNL     1     -11.125  15.442  65.371  1.00  0.00    -0.343 OA 
HETATM   17  C   UNL     1     -11.909  14.469  64.670  1.00  0.00    -0.453 C  
HETATM   18  C   UNL     1     -12.228  13.276  65.575  1.00  0.00    -0.457 C  
ENDBRANCH  10  13
ENDBRANCH   6   8
ENDBRANCH   3   4
ENDBRANCH   2   3
TORSDOF 4
ENDMDL
MODEL       78
REMARK 921   NORMALIZED FREE ENERGY PREDICTED BY IDOCK:   -3.90 KCAL/MOL
REMARK 922        TOTAL FREE ENERGY PREDICTED BY IDOCK:   -5.08 KCAL/MOL
REMARK 923 INTER-LIGAND FREE ENERGY PREDICTED BY IDOCK:   -4.84 KCAL/MOL
REMARK 924 INTRA-LIGAND FREE ENERGY PREDICTED BY IDOCK:   -0.24 KCAL/MOL
REMARK 927      BINDING AFFINITY PREDICTED BY RF-SCORE:    0.00 PKD
ROOT
HETATM    1  C   UNL     1     -12.754   8.867  71.484  1.00  0.00    -0.386 C  
HETATM    2  C   UNL     1     -12.068   9.612  70.355  1.00  0.00    -0.051 C  
ENDROOT
BRANCH   2   3
HETATM    3  O   UNL     1     -11.817  10.969  70.749  1.00  0.00    -0.329 OA 
BRANCH   3   4
HETATM    4  C   UNL     1     -11.453  11.826  69.756  1.00  0.00    -0.245 C  
HETATM    5  O   UNL     1     -10.515  11.606  68.992  1.00  0.00    -0.201 OA 
HETATM    6  N   UNL     1     -12.282  12.879  69.760  1.00  0.00    -0.216 N  
HETATM    7  H   UNL     1     -13.073  12.946  70.400  1.00  0.00     0.000 HD 
BRANCH   6   8
HETATM    8  C   UNL     1     -12.003  13.839  68.864  1.00  0.00    -0.359 A  
HETATM    9  C   UNL     1     -11.509  15.097  69.112  1.00  0.00    -0.306 A  
HETATM   10  N   UNL     1     -11.243  15.619  67.871  1.00  0.00    -0.341 NA 
HETATM   11  O   UNL     1     -12.126  13.686  67.502  1.00  0.00    -0.369 OA 
HETATM   12  N   UNL     1     -11.618  14.835  66.873  1.00  0.00    -0.353 NA 
BRANCH  10  13
HETATM   13  N   UNL     1     -10.468  16.790  67.627  1.00  0.00    -0.320 NA 
HETATM   14  C   UNL     1     -10.334  17.842  68.622  1.00  0.00    -0.350 C  
HETATM   15  C   UNL     1      -8.936  18.457  68.480  1.00  0.00    -0.315 C  
HETATM   16  O   UNL     1      -8.710  18.912  67.140  1.00  0.00    -0.276 OA 
HETATM   17  C   UNL     1      -8.825  17.835  66.201  1.00  0.00    -0.091 C  
HETATM   18  C   UNL     1     -10.224  17.214  66.257  1.00  0.00    -0.334 C  
ENDBRANCH  10  13
ENDBRANCH   6   8
ENDBRANCH   3   4
ENDBRANCH   2   3
TORSDOF 4
ENDMDL
MODEL       79
REMARK 921   NORMALIZED FREE ENERGY PREDICTED BY IDOCK:   -3.90 KCAL/MOL
REMARK 922        TOTAL FREE ENERGY PREDICTED BY IDOCK:   -5.08 KCAL/MOL
REMARK 923 INTER-LIGAND FREE ENERGY PREDICTED BY IDOCK:   -4.77 KCAL/MOL
REMARK 924 INTRA-LIGAND FREE ENERGY PREDICTED BY IDOCK:   -0.32 KCAL/MOL
REMARK 927      BINDING AFFINITY PREDICTED BY RF-SCORE:    0.00 PKD
ROOT
HETATM    1  C   UNL     1     -10.359   5.672  66.630  1.00  0.00    -0.311 C  
HETATM    2  C   UNL     1      -9.671   7.023  66.695  1.00  0.00    -0.166 C  
ENDROOT
BRANCH   2   3
HETATM    3  O   UNL     1     -10.341   7.864  67.644  1.00  0.00    -0.210 OA 
BRANCH   3   4
HETATM    4  C   UNL     1     -10.292   9.203  67.400  1.00  0.00    -0.264 C  
HETATM    5  O   UNL     1      -9.382   9.735  66.766  1.00  0.00    -0.145 OA 
HETATM    6  N   UNL     1     -11.375   9.786  67.931  1.00  0.00    -0.467 N  
HETATM    7  H   UNL     1     -12.110   9.249  68.393  1.00  0.00     0.000 HD 
BRANCH   6   8
HETATM    8  C   UNL     1     -11.429  11.122  67.816  1.00  0.00    -0.272 A  
HETATM    9  C   UNL     1     -10.967  12.059  68.709  1.00  0.00    -0.239 A  
HETATM   10  N   UNL     1     -11.105  13.260  68.059  1.00  0.00    -0.246 NA 
HETATM   11  O   UNL     1     -11.930  11.785  66.719  1.00  0.00    -0.584 OA 
HETATM   12  N   UNL     1     -11.701  13.162  66.882  1.00  0.00    -0.367 NA 
BRANCH  10  13
HETATM   13  N   UNL     1     -10.510  14.486  68.476  1.00  0.00    -0.243 NA 
HETATM   14  C   UNL     1      -9.102  14.575  68.828  1.00  0.00    -0.158 C  
HETATM   15  C   UNL     1      -8.597  15.967  68.425  1.00  0.00    -0.178 C  
HETATM   16  O   UNL     1      -9.397  16.994  69.023  1.00  0.00    -0.248 OA 
HETATM   17  C   UNL     1     -10.769  16.881  68.624  1.00  0.00    -0.345 C  
HETATM   18  C   UNL     1     -11.347  15.528  69.050  1.00  0.00    -0.326 C  
ENDBRANCH  10  13
ENDBRANCH   6   8
ENDBRANCH   3   4
ENDBRANCH   2   3
TORSDOF 4
ENDMDL
MODEL       80
REMARK 921   NORMALIZED FREE ENERGY PREDICTED BY IDOCK:   -3.88 KCAL/MOL
REMARK 922        TOTAL FREE ENERGY PREDICTED BY IDOCK:   -5.06 KCAL/MOL
REMARK 923 INTER-LIGAND FREE ENERGY PREDICTED BY IDOCK:   -4.69 KCAL/MOL
REMARK 924 INTRA-LIGAND FREE ENERGY PREDICTED BY IDOCK:   -0.37 KCAL/MOL
REMARK 927      BINDING AFFINITY PREDICTED BY RF-SCORE:    0.00 PKD
ROOT
HETATM    1  C   UNL     1      -9.374  20.178  67.159  1.00  0.00    -0.521 C  
HETATM    2  C   UNL     1      -9.289  19.697  68.595  1.00  0.00    -0.321 C  
ENDROOT
BRANCH   2   3
HETATM    3  O   UNL     1      -8.505  18.497  68.661  1.00  0.00    -0.326 OA 
BRANCH   3   4
HETATM    4  C   UNL     1      -9.164  17.334  68.402  1.00  0.00    -0.268 C  
HETATM    5  O   UNL     1     -10.346  17.155  68.692  1.00  0.00    -0.315 OA 
HETATM    6  N   UNL     1      -8.331  16.485  67.786  1.00  0.00    -0.169 N  
HETATM    7  H   UNL     1      -7.377  16.746  67.534  1.00  0.00     0.000 HD 
BRANCH   6   8
HETATM    8  C   UNL     1      -8.834  15.269  67.522  1.00  0.00    -0.179 A  
HETATM    9  C   UNL     1      -9.351  14.817  66.332  1.00  0.00    -0.291 A  
HETATM   10  N   UNL     1      -9.569  13.477  66.532  1.00  0.00    -0.276 NA 
HETATM   11  O   UNL     1      -8.865  14.231  68.426  1.00  0.00    -0.178 OA 
HETATM   12  N   UNL     1      -9.327  13.078  67.770  1.00  0.00    -0.192 NA 
BRANCH  10  13
HETATM   13  N   UNL     1      -9.842  12.531  65.501  1.00  0.00    -0.225 NA 
HETATM   14  C   UNL     1      -9.090  11.293  65.378  1.00  0.00    -0.147 C  
HETATM   15  C   UNL     1     -10.035  10.214  64.833  1.00  0.00    -0.288 C  
HETATM   16  O   UNL     1     -10.639  10.636  63.604  1.00  0.00    -0.146 OA 
HETATM   17  C   UNL     1     -11.390  11.843  63.782  1.00  0.00    -0.448 C  
HETATM   18  C   UNL     1     -10.485  12.976  64.274  1.00  0.00    -0.402 C  
ENDBRANCH  10  13
ENDBRANCH   6   8
ENDBRANCH   3   4
ENDBRANCH   2   3
TORSDOF 4
ENDMDL
MODEL       81
REMARK 921   NORMALIZED FREE ENERGY PREDICTED BY IDOCK:   -3.88 KCAL/MOL
REMARK 922        TOTAL FREE ENERGY PREDICTED BY IDOCK:   -5.06 KCAL/MOL
REMARK 923 INTER-LIGAND FREE ENERGY PREDICTED BY IDOCK:   -4.91 KCAL/MOL
REMARK 924 INTRA-LIGAND FREE ENERGY PREDICTED BY IDOCK:   -0.15 KCAL/MOL
REMARK 927      BINDING AFFINITY PREDICTED BY RF-SCORE:    0.00 PKD
ROOT
HETATM    1  C   UNL     1     -10.104   9.569  67.164  1.00  0.00    -0.290 C  
HETATM    2  C   UNL     1     -10.038  10.768  66.235  1.00  0.00    -0.232 C  
ENDROOT
BRANCH   2   3
HETATM    3  O   UNL     1     -11.275  11.492  66.289  1.00  0.00    -0.297 OA 
BRANCH   3   4
HETATM    4  C   UNL     1     -11.186  12.809  66.622  1.00  0.00    -0.301 C  
HETATM    5  O   UNL     1     -11.979  13.363  67.382  1.00  0.00    -0.365 OA 
HETATM    6  N   UNL     1     -10.118  13.344  66.016  1.00  0.00    -0.299 N  
HETATM    7  H   UNL     1      -9.482  12.787  65.445  1.00  0.00     0.000 HD 
BRANCH   6   8
HETATM    8  C   UNL     1      -9.941  14.660  66.209  1.00  0.00    -0.290 A  
HETATM    9  C   UNL     1      -9.587  15.295  67.376  1.00  0.00    -0.207 A  
HETATM   10  N   UNL     1      -9.374  16.601  67.013  1.00  0.00    -0.219 NA 
HETATM   11  O   UNL     1     -10.044  15.609  65.218  1.00  0.00    -0.343 OA 
HETATM   12  N   UNL     1      -9.660  16.854  65.746  1.00  0.00    -0.540 NA 
BRANCH  10  13
HETATM   13  N   UNL     1      -8.728  17.579  67.824  1.00  0.00    -0.227 NA 
HETATM   14  C   UNL     1      -7.978  17.213  69.014  1.00  0.00    -0.136 C  
HETATM   15  C   UNL     1      -6.813  18.200  69.165  1.00  0.00    -0.232 C  
HETATM   16  O   UNL     1      -7.286  19.552  69.186  1.00  0.00    -0.361 OA 
HETATM   17  C   UNL     1      -7.994  19.872  67.982  1.00  0.00    -0.279 C  
HETATM   18  C   UNL     1      -9.206  18.953  67.805  1.00  0.00    -0.293 C  
ENDBRANCH  10  13
ENDBRANCH   6   8
ENDBRANCH   3   4
ENDBRANCH   2   3
TORSDOF 4
ENDMDL
MODEL       82
REMARK 921   NORMALIZED FREE ENERGY PREDICTED BY IDOCK:   -3.88 KCAL/MOL
REMARK 922        TOTAL FREE ENERGY PREDICTED BY IDOCK:   -5.06 KCAL/MOL
REMARK 923 INTER-LIGAND FREE ENERGY PREDICTED BY IDOCK:   -4.70 KCAL/MOL
REMARK 924 INTRA-LIGAND FREE ENERGY PREDICTED BY IDOCK:   -0.36 KCAL/MOL
REMARK 927      BINDING AFFINITY PREDICTED BY RF-SCORE:    0.00 PKD
ROOT
HETATM    1  C   UNL     1      -9.245   5.119  74.211  1.00  0.00    -0.114 C  
HETATM    2  C   UNL     1     -10.357   6.138  74.045  1.00  0.00    -0.300 C  
ENDROOT
BRANCH   2   3
HETATM    3  O   UNL     1     -11.172   5.789  72.917  1.00  0.00    -0.275 OA 
BRANCH   3   4
HETATM    4  C   UNL     1     -11.444   6.794  72.039  1.00  0.00    -0.282 C  
HETATM    5  O   UNL     1     -12.018   6.608  70.967  1.00  0.00    -0.362 OA 
HETATM    6  N   UNL     1     -11.014   7.954  72.552  1.00  0.00    -0.321 N  
HETATM    7  H   UNL     1     -10.598   8.016  73.482  1.00  0.00     0.000 HD 
BRANCH   6   8
HETATM    8  C   UNL     1     -11.166   9.028  71.762  1.00  0.00    -0.378 A  
HETATM    9  C   UNL     1     -10.302   9.487  70.796  1.00  0.00    -0.306 A  
HETATM   10  N   UNL     1     -10.984  10.498  70.168  1.00  0.00    -0.290 NA 
HETATM   11  O   UNL     1     -12.278   9.839  71.764  1.00  0.00    -0.382 OA 
HETATM   12  N   UNL     1     -12.154  10.773  70.721  1.00  0.00    -0.344 NA 
BRANCH  10  13
HETATM   13  N   UNL     1     -10.605  11.090  68.929  1.00  0.00    -0.197 NA 
HETATM   14  C   UNL     1     -11.476  11.057  67.765  1.00  0.00    -0.261 C  
HETATM   15  C   UNL     1     -11.254  12.348  66.967  1.00  0.00    -0.303 C  
HETATM   16  O   UNL     1      -9.870  12.513  66.635  1.00  0.00    -0.229 OA 
HETATM   17  C   UNL     1      -9.057  12.568  67.814  1.00  0.00    -0.191 C  
HETATM   18  C   UNL     1      -9.194  11.278  68.627  1.00  0.00    -0.161 C  
ENDBRANCH  10  13
ENDBRANCH   6   8
ENDBRANCH   3   4
ENDBRANCH   2   3
TORSDOF 4
ENDMDL
MODEL       83
REMARK 921   NORMALIZED FREE ENERGY PREDICTED BY IDOCK:   -3.87 KCAL/MOL
REMARK 922        TOTAL FREE ENERGY PREDICTED BY IDOCK:   -5.05 KCAL/MOL
REMARK 923 INTER-LIGAND FREE ENERGY PREDICTED BY IDOCK:   -4.65 KCAL/MOL
REMARK 924 INTRA-LIGAND FREE ENERGY PREDICTED BY IDOCK:   -0.40 KCAL/MOL
REMARK 927      BINDING AFFINITY PREDICTED BY RF-SCORE:    0.00 PKD
ROOT
HETATM    1  C   UNL     1     -11.677  15.555  68.925  1.00  0.00    -0.385 C  
HETATM    2  C   UNL     1     -10.608  15.453  67.853  1.00  0.00    -0.267 C  
ENDROOT
BRANCH   2   3
HETATM    3  O   UNL     1     -11.115  14.715  66.731  1.00  0.00    -0.320 OA 
BRANCH   3   4
HETATM    4  C   UNL     1     -11.254  13.372  66.908  1.00  0.00    -0.308 C  
HETATM    5  O   UNL     1     -12.315  12.778  66.721  1.00  0.00    -0.431 OA 
HETATM    6  N   UNL     1     -10.076  12.854  67.280  1.00  0.00    -0.229 N  
HETATM    7  H   UNL     1      -9.232  13.422  67.354  1.00  0.00     0.000 HD 
BRANCH   6   8
HETATM    8  C   UNL     1     -10.080  11.539  67.548  1.00  0.00    -0.183 A  
HETATM    9  C   UNL     1     -10.159  10.936  68.781  1.00  0.00    -0.194 A  
HETATM   10  N   UNL     1     -10.295   9.598  68.507  1.00  0.00    -0.197 NA 
HETATM   11  O   UNL     1     -10.054  10.553  66.588  1.00  0.00    -0.206 OA 
HETATM   12  N   UNL     1     -10.209   9.308  67.219  1.00  0.00    -0.233 NA 
BRANCH  10  13
HETATM   13  N   UNL     1     -10.686   8.607  69.454  1.00  0.00    -0.198 NA 
HETATM   14  C   UNL     1     -11.120   8.958  70.796  1.00  0.00    -0.261 C  
HETATM   15  C   UNL     1     -12.180   7.940  71.235  1.00  0.00    -0.294 C  
HETATM   16  O   UNL     1     -11.678   6.602  71.134  1.00  0.00    -0.314 OA 
HETATM   17  C   UNL     1     -11.290   6.295  69.789  1.00  0.00    -0.436 C  
HETATM   18  C   UNL     1     -10.189   7.247  69.312  1.00  0.00    -0.193 C  
ENDBRANCH  10  13
ENDBRANCH   6   8
ENDBRANCH   3   4
ENDBRANCH   2   3
TORSDOF 4
ENDMDL
MODEL       84
REMARK 921   NORMALIZED FREE ENERGY PREDICTED BY IDOCK:   -3.87 KCAL/MOL
REMARK 922        TOTAL FREE ENERGY PREDICTED BY IDOCK:   -5.04 KCAL/MOL
REMARK 923 INTER-LIGAND FREE ENERGY PREDICTED BY IDOCK:   -4.75 KCAL/MOL
REMARK 924 INTRA-LIGAND FREE ENERGY PREDICTED BY IDOCK:   -0.30 KCAL/MOL
REMARK 927      BINDING AFFINITY PREDICTED BY RF-SCORE:    0.00 PKD
ROOT
HETATM    1  C   UNL     1     -12.598  16.158  73.286  1.00  0.00    -0.623 C  
HETATM    2  C   UNL     1     -11.728  15.157  72.548  1.00  0.00    -0.375 C  
ENDROOT
BRANCH   2   3
HETATM    3  O   UNL     1     -12.553  14.270  71.779  1.00  0.00    -0.332 OA 
BRANCH   3   4
HETATM    4  C   UNL     1     -12.117  13.982  70.522  1.00  0.00    -0.353 C  
HETATM    5  O   UNL     1     -11.968  14.839  69.652  1.00  0.00    -0.290 OA 
HETATM    6  N   UNL     1     -11.873  12.668  70.432  1.00  0.00    -0.549 N  
HETATM    7  H   UNL     1     -11.973  12.041  71.231  1.00  0.00     0.000 HD 
BRANCH   6   8
HETATM    8  C   UNL     1     -11.490  12.231  69.222  1.00  0.00    -0.292 A  
HETATM    9  C   UNL     1     -10.247  11.780  68.850  1.00  0.00    -0.100 A  
HETATM   10  N   UNL     1     -10.416  11.299  67.576  1.00  0.00    -0.193 NA 
HETATM   11  O   UNL     1     -12.331  12.117  68.139  1.00  0.00    -0.265 OA 
HETATM   12  N   UNL     1     -11.630  11.500  67.089  1.00  0.00    -0.557 NA 
BRANCH  10  13
HETATM   13  N   UNL     1      -9.476  10.485  66.879  1.00  0.00    -0.163 NA 
HETATM   14  C   UNL     1      -8.262  10.000  67.515  1.00  0.00    -0.114 C  
HETATM   15  C   UNL     1      -7.935   8.621  66.927  1.00  0.00    -0.095 C  
HETATM   16  O   UNL     1      -7.841   8.683  65.499  1.00  0.00    -0.092 OA 
HETATM   17  C   UNL     1      -9.069   9.140  64.918  1.00  0.00    -0.132 C  
HETATM   18  C   UNL     1      -9.421  10.541  65.426  1.00  0.00    -0.223 C  
ENDBRANCH  10  13
ENDBRANCH   6   8
ENDBRANCH   3   4
ENDBRANCH   2   3
TORSDOF 4
ENDMDL
MODEL       85
REMARK 921   NORMALIZED FREE ENERGY PREDICTED BY IDOCK:   -3.85 KCAL/MOL
REMARK 922        TOTAL FREE ENERGY PREDICTED BY IDOCK:   -5.02 KCAL/MOL
REMARK 923 INTER-LIGAND FREE ENERGY PREDICTED BY IDOCK:   -4.69 KCAL/MOL
REMARK 924 INTRA-LIGAND FREE ENERGY PREDICTED BY IDOCK:   -0.33 KCAL/MOL
REMARK 927      BINDING AFFINITY PREDICTED BY RF-SCORE:    0.00 PKD
ROOT
HETATM    1  C   UNL     1      -9.663  15.938  66.043  1.00  0.00    -0.375 C  
HETATM    2  C   UNL     1     -10.879  15.468  65.267  1.00  0.00    -0.411 C  
ENDROOT
BRANCH   2   3
HETATM    3  O   UNL     1     -10.569  14.258  64.562  1.00  0.00    -0.388 OA 
BRANCH   3   4
HETATM    4  C   UNL     1     -10.944  13.097  65.167  1.00  0.00    -0.298 C  
HETATM    5  O   UNL     1     -12.118  12.812  65.399  1.00  0.00    -0.413 OA 
HETATM    6  N   UNL     1      -9.853  12.363  65.422  1.00  0.00    -0.389 N  
HETATM    7  H   UNL     1      -8.919  12.660  65.138  1.00  0.00     0.000 HD 
BRANCH   6   8
HETATM    8  C   UNL     1     -10.070  11.210  66.074  1.00  0.00    -0.244 A  
HETATM    9  C   UNL     1     -10.013   9.935  65.564  1.00  0.00    -0.292 A  
HETATM   10  N   UNL     1     -10.144   9.115  66.656  1.00  0.00    -0.265 NA 
HETATM   11  O   UNL     1     -10.347  11.122  67.420  1.00  0.00    -0.184 OA 
HETATM   12  N   UNL     1     -10.377   9.765  67.784  1.00  0.00    -0.209 NA 
BRANCH  10  13
HETATM   13  N   UNL     1      -9.874   7.716  66.663  1.00  0.00    -0.223 NA 
HETATM   14  C   UNL     1     -10.786   6.761  67.272  1.00  0.00    -0.353 C  
HETATM   15  C   UNL     1     -10.717   5.456  66.468  1.00  0.00    -0.240 C  
HETATM   16  O   UNL     1      -9.369   4.978  66.383  1.00  0.00    -0.132 OA 
HETATM   17  C   UNL     1      -8.516   5.941  65.751  1.00  0.00    -0.148 C  
HETATM   18  C   UNL     1      -8.500   7.252  66.543  1.00  0.00    -0.125 C  
ENDBRANCH  10  13
ENDBRANCH   6   8
ENDBRANCH   3   4
ENDBRANCH   2   3
TORSDOF 4
ENDMDL
MODEL       86
REMARK 921   NORMALIZED FREE ENERGY PREDICTED BY IDOCK:   -3.82 KCAL/MOL
REMARK 922        TOTAL FREE ENERGY PREDICTED BY IDOCK:   -4.98 KCAL/MOL
REMARK 923 INTER-LIGAND FREE ENERGY PREDICTED BY IDOCK:   -4.82 KCAL/MOL
REMARK 924 INTRA-LIGAND FREE ENERGY PREDICTED BY IDOCK:   -0.17 KCAL/MOL
REMARK 927      BINDING AFFINITY PREDICTED BY RF-SCORE:    0.00 PKD
ROOT
HETATM    1  C   UNL     1     -10.812  11.219  66.258  1.00  0.00    -0.296 C  
HETATM    2  C   UNL     1     -10.082  10.395  67.301  1.00  0.00    -0.200 C  
ENDROOT
BRANCH   2   3
HETATM    3  O   UNL     1      -9.782  11.212  68.443  1.00  0.00    -0.177 OA 
BRANCH   3   4
HETATM    4  C   UNL     1      -9.180  12.406  68.186  1.00  0.00    -0.205 C  
HETATM    5  O   UNL     1      -8.162  12.509  67.503  1.00  0.00    -0.154 OA 
HETATM    6  N   UNL     1      -9.885  13.386  68.766  1.00  0.00    -0.418 N  
HETATM    7  H   UNL     1     -10.756  13.207  69.267  1.00  0.00     0.000 HD 
BRANCH   6   8
HETATM    8  C   UNL     1      -9.371  14.620  68.643  1.00  0.00    -0.206 A  
HETATM    9  C   UNL     1      -9.814  15.634  67.828  1.00  0.00    -0.220 A  
HETATM   10  N   UNL     1      -9.067  16.726  68.192  1.00  0.00    -0.221 NA 
HETATM   11  O   UNL     1      -8.309  15.092  69.379  1.00  0.00    -0.223 OA 
HETATM   12  N   UNL     1      -8.133  16.456  69.090  1.00  0.00    -0.231 NA 
BRANCH  10  13
HETATM   13  N   UNL     1      -9.353  18.072  67.819  1.00  0.00    -0.260 NA 
HETATM   14  C   UNL     1      -8.637  19.197  68.398  1.00  0.00    -0.352 C  
HETATM   15  C   UNL     1      -8.523  20.291  67.328  1.00  0.00    -0.347 C  
HETATM   16  O   UNL     1      -9.815  20.643  66.817  1.00  0.00    -0.392 OA 
HETATM   17  C   UNL     1     -10.467  19.509  66.232  1.00  0.00    -0.512 C  
HETATM   18  C   UNL     1     -10.660  18.400  67.271  1.00  0.00    -0.402 C  
ENDBRANCH  10  13
ENDBRANCH   6   8
ENDBRANCH   3   4
ENDBRANCH   2   3
TORSDOF 4
ENDMDL
MODEL       87
REMARK 921   NORMALIZED FREE ENERGY PREDICTED BY IDOCK:   -3.77 KCAL/MOL
REMARK 922        TOTAL FREE ENERGY PREDICTED BY IDOCK:   -4.92 KCAL/MOL
REMARK 923 INTER-LIGAND FREE ENERGY PREDICTED BY IDOCK:   -4.57 KCAL/MOL
REMARK 924 INTRA-LIGAND FREE ENERGY PREDICTED BY IDOCK:   -0.35 KCAL/MOL
REMARK 927      BINDING AFFINITY PREDICTED BY RF-SCORE:    0.00 PKD
ROOT
HETATM    1  C   UNL     1     -10.021   5.584  66.651  1.00  0.00    -0.213 C  
HETATM    2  C   UNL     1     -10.511   6.752  67.487  1.00  0.00    -0.239 C  
ENDROOT
BRANCH   2   3
HETATM    3  O   UNL     1      -9.396   7.552  67.905  1.00  0.00    -0.138 OA 
BRANCH   3   4
HETATM    4  C   UNL     1      -9.595   8.899  67.918  1.00  0.00    -0.148 C  
HETATM    5  O   UNL     1      -8.675   9.712  67.848  1.00  0.00    -0.119 OA 
HETATM    6  N   UNL     1     -10.909   9.148  67.994  1.00  0.00    -0.473 N  
HETATM    7  H   UNL     1     -11.605   8.402  67.990  1.00  0.00     0.000 HD 
BRANCH   6   8
HETATM    8  C   UNL     1     -11.249  10.444  68.075  1.00  0.00    -0.272 A  
HETATM    9  C   UNL     1     -11.629  11.142  69.196  1.00  0.00    -0.324 A  
HETATM   10  N   UNL     1     -11.704  12.449  68.786  1.00  0.00    -0.317 NA 
HETATM   11  O   UNL     1     -11.220  11.320  67.013  1.00  0.00    -0.298 OA 
HETATM   12  N   UNL     1     -11.500  12.612  67.489  1.00  0.00    -0.318 NA 
BRANCH  10  13
HETATM   13  N   UNL     1     -11.795  13.573  69.657  1.00  0.00    -0.319 NA 
HETATM   14  C   UNL     1     -12.755  13.623  70.748  1.00  0.00    -0.268 C  
HETATM   15  C   UNL     1     -12.127  14.416  71.901  1.00  0.00    -0.161 C  
HETATM   16  O   UNL     1     -11.703  15.712  71.459  1.00  0.00    -0.350 OA 
HETATM   17  C   UNL     1     -10.738  15.610  70.405  1.00  0.00    -0.317 C  
HETATM   18  C   UNL     1     -11.328  14.873  69.199  1.00  0.00    -0.292 C  
ENDBRANCH  10  13
ENDBRANCH   6   8
ENDBRANCH   3   4
ENDBRANCH   2   3
TORSDOF 4
ENDMDL
MODEL       88
REMARK 921   NORMALIZED FREE ENERGY PREDICTED BY IDOCK:   -3.76 KCAL/MOL
REMARK 922        TOTAL FREE ENERGY PREDICTED BY IDOCK:   -4.91 KCAL/MOL
REMARK 923 INTER-LIGAND FREE ENERGY PREDICTED BY IDOCK:   -4.69 KCAL/MOL
REMARK 924 INTRA-LIGAND FREE ENERGY PREDICTED BY IDOCK:   -0.22 KCAL/MOL
REMARK 927      BINDING AFFINITY PREDICTED BY RF-SCORE:    0.00 PKD
ROOT
HETATM    1  C   UNL     1      -8.657   4.866  70.983  1.00  0.00    -0.131 C  
HETATM    2  C   UNL     1      -8.948   6.355  70.952  1.00  0.00    -0.144 C  
ENDROOT
BRANCH   2   3
HETATM    3  O   UNL     1      -9.589   6.699  69.715  1.00  0.00    -0.150 OA 
BRANCH   3   4
HETATM    4  C   UNL     1     -10.476   7.730  69.765  1.00  0.00    -0.233 C  
HETATM    5  O   UNL     1     -11.543   7.667  70.373  1.00  0.00    -0.231 OA 
HETATM    6  N   UNL     1      -9.978   8.771  69.084  1.00  0.00    -0.185 N  
HETATM    7  H   UNL     1      -9.051   8.748  68.657  1.00  0.00     0.000 HD 
BRANCH   6   8
HETATM    8  C   UNL     1     -10.778   9.844  68.999  1.00  0.00    -0.222 A  
HETATM    9  C   UNL     1     -10.969  10.823  69.946  1.00  0.00    -0.239 A  
HETATM   10  N   UNL     1     -11.740  11.770  69.319  1.00  0.00    -0.309 NA 
HETATM   11  O   UNL     1     -11.524  10.169  67.889  1.00  0.00    -0.283 OA 
HETATM   12  N   UNL     1     -12.126  11.421  68.102  1.00  0.00    -0.617 NA 
BRANCH  10  13
HETATM   13  N   UNL     1     -11.968  13.090  69.806  1.00  0.00    -0.322 NA 
HETATM   14  C   UNL     1     -11.184  14.223  69.344  1.00  0.00    -0.273 C  
HETATM   15  C   UNL     1     -12.090  15.461  69.342  1.00  0.00    -0.280 C  
HETATM   16  O   UNL     1     -12.678  15.666  70.632  1.00  0.00    -0.454 OA 
HETATM   17  C   UNL     1     -13.463  14.535  71.031  1.00  0.00    -0.289 C  
HETATM   18  C   UNL     1     -12.596  13.275  71.105  1.00  0.00    -0.325 C  
ENDBRANCH  10  13
ENDBRANCH   6   8
ENDBRANCH   3   4
ENDBRANCH   2   3
TORSDOF 4
ENDMDL
MODEL       89
REMARK 921   NORMALIZED FREE ENERGY PREDICTED BY IDOCK:   -3.76 KCAL/MOL
REMARK 922        TOTAL FREE ENERGY PREDICTED BY IDOCK:   -4.91 KCAL/MOL
REMARK 923 INTER-LIGAND FREE ENERGY PREDICTED BY IDOCK:   -4.71 KCAL/MOL
REMARK 924 INTRA-LIGAND FREE ENERGY PREDICTED BY IDOCK:   -0.19 KCAL/MOL
REMARK 927      BINDING AFFINITY PREDICTED BY RF-SCORE:    0.00 PKD
ROOT
HETATM    1  C   UNL     1     -13.871  16.068  72.935  1.00  0.00    -0.409 C  
HETATM    2  C   UNL     1     -14.304  15.526  71.586  1.00  0.00    -0.396 C  
ENDROOT
BRANCH   2   3
HETATM    3  O   UNL     1     -13.238  15.677  70.637  1.00  0.00    -0.487 OA 
BRANCH   3   4
HETATM    4  C   UNL     1     -12.332  14.663  70.584  1.00  0.00    -0.331 C  
HETATM    5  O   UNL     1     -11.119  14.843  70.683  1.00  0.00    -0.222 OA 
HETATM    6  N   UNL     1     -12.982  13.501  70.437  1.00  0.00     0.008 N  
HETATM    7  H   UNL     1     -14.000  13.446  70.421  1.00  0.00     0.000 HD 
BRANCH   6   8
HETATM    8  C   UNL     1     -12.203  12.414  70.310  1.00  0.00    -0.267 A  
HETATM    9  C   UNL     1     -12.271  11.247  71.033  1.00  0.00    -0.311 A  
HETATM   10  N   UNL     1     -11.385  10.401  70.415  1.00  0.00    -0.319 NA 
HETATM   11  O   UNL     1     -11.211  12.278  69.366  1.00  0.00    -0.239 OA 
HETATM   12  N   UNL     1     -10.702  10.970  69.435  1.00  0.00    -0.226 NA 
BRANCH  10  13
HETATM   13  N   UNL     1     -11.308   8.996  70.638  1.00  0.00    -0.264 NA 
HETATM   14  C   UNL     1     -10.533   8.123  69.771  1.00  0.00    -0.227 C  
HETATM   15  C   UNL     1      -9.969   6.981  70.626  1.00  0.00    -0.186 C  
HETATM   16  O   UNL     1     -11.017   6.299  71.325  1.00  0.00    -0.253 OA 
HETATM   17  C   UNL     1     -11.733   7.194  72.186  1.00  0.00    -0.284 C  
HETATM   18  C   UNL     1     -12.368   8.330  71.379  1.00  0.00    -0.299 C  
ENDBRANCH  10  13
ENDBRANCH   6   8
ENDBRANCH   3   4
ENDBRANCH   2   3
TORSDOF 4
ENDMDL
MODEL       90
REMARK 921   NORMALIZED FREE ENERGY PREDICTED BY IDOCK:   -3.75 KCAL/MOL
REMARK 922        TOTAL FREE ENERGY PREDICTED BY IDOCK:   -4.90 KCAL/MOL
REMARK 923 INTER-LIGAND FREE ENERGY PREDICTED BY IDOCK:   -4.55 KCAL/MOL
REMARK 924 INTRA-LIGAND FREE ENERGY PREDICTED BY IDOCK:   -0.35 KCAL/MOL
REMARK 927      BINDING AFFINITY PREDICTED BY RF-SCORE:    0.00 PKD
ROOT
HETATM    1  C   UNL     1     -12.209  14.700  64.339  1.00  0.00    -0.473 C  
HETATM    2  C   UNL     1     -12.152  13.191  64.190  1.00  0.00    -0.430 C  
ENDROOT
BRANCH   2   3
HETATM    3  O   UNL     1     -10.787  12.765  64.078  1.00  0.00    -0.376 OA 
BRANCH   3   4
HETATM    4  C   UNL     1     -10.349  11.896  65.030  1.00  0.00    -0.289 C  
HETATM    5  O   UNL     1     -10.305  10.679  64.857  1.00  0.00    -0.321 OA 
HETATM    6  N   UNL     1      -9.975  12.586  66.116  1.00  0.00    -0.251 N  
HETATM    7  H   UNL     1      -9.994  13.606  66.145  1.00  0.00     0.000 HD 
BRANCH   6   8
HETATM    8  C   UNL     1      -9.573  11.847  67.162  1.00  0.00    -0.186 A  
HETATM    9  C   UNL     1     -10.317  11.468  68.254  1.00  0.00    -0.197 A  
HETATM   10  N   UNL     1      -9.510  10.595  68.940  1.00  0.00    -0.186 NA 
HETATM   11  O   UNL     1      -8.319  11.293  67.282  1.00  0.00    -0.136 OA 
HETATM   12  N   UNL     1      -8.297  10.475  68.425  1.00  0.00    -0.121 NA 
BRANCH  10  13
HETATM   13  N   UNL     1      -9.946   9.735  69.989  1.00  0.00    -0.242 NA 
HETATM   14  C   UNL     1      -9.091   8.690  70.529  1.00  0.00    -0.165 C  
HETATM   15  C   UNL     1      -9.412   8.534  72.021  1.00  0.00    -0.294 C  
HETATM   16  O   UNL     1     -10.808   8.284  72.221  1.00  0.00    -0.289 OA 
HETATM   17  C   UNL     1     -11.606   9.354  71.698  1.00  0.00    -0.396 C  
HETATM   18  C   UNL     1     -11.370   9.521  70.195  1.00  0.00    -0.199 C  
ENDBRANCH  10  13
ENDBRANCH   6   8
ENDBRANCH   3   4
ENDBRANCH   2   3
TORSDOF 4
ENDMDL
MODEL       91
REMARK 921   NORMALIZED FREE ENERGY PREDICTED BY IDOCK:   -3.75 KCAL/MOL
REMARK 922        TOTAL FREE ENERGY PREDICTED BY IDOCK:   -4.89 KCAL/MOL
REMARK 923 INTER-LIGAND FREE ENERGY PREDICTED BY IDOCK:   -5.23 KCAL/MOL
REMARK 924 INTRA-LIGAND FREE ENERGY PREDICTED BY IDOCK:    0.33 KCAL/MOL
REMARK 927      BINDING AFFINITY PREDICTED BY RF-SCORE:    0.00 PKD
ROOT
HETATM    1  C   UNL     1     -13.241  16.080  73.630  1.00  0.00    -0.506 C  
HETATM    2  C   UNL     1     -13.119  15.560  72.210  1.00  0.00    -0.430 C  
ENDROOT
BRANCH   2   3
HETATM    3  O   UNL     1     -13.785  14.294  72.097  1.00  0.00    -0.390 OA 
BRANCH   3   4
HETATM    4  C   UNL     1     -13.031  13.259  71.634  1.00  0.00    -0.349 C  
HETATM    5  O   UNL     1     -12.067  13.414  70.887  1.00  0.00    -0.326 OA 
HETATM    6  N   UNL     1     -13.504  12.112  72.141  1.00  0.00    -0.510 N  
HETATM    7  H   UNL     1     -14.279  12.089  72.803  1.00  0.00     0.000 HD 
BRANCH   6   8
HETATM    8  C   UNL     1     -12.888  10.996  71.719  1.00  0.00    -0.391 A  
HETATM    9  C   UNL     1     -12.335  10.760  70.483  1.00  0.00    -0.369 A  
HETATM   10  N   UNL     1     -11.692   9.555  70.612  1.00  0.00    -0.273 NA 
HETATM   11  O   UNL     1     -12.665   9.890  72.508  1.00  0.00    -0.196 OA 
HETATM   12  N   UNL     1     -11.879   8.976  71.787  1.00  0.00    -0.348 NA 
BRANCH  10  13
HETATM   13  N   UNL     1     -10.749   9.030  69.681  1.00  0.00    -0.230 NA 
HETATM   14  C   UNL     1      -9.540   8.350  70.115  1.00  0.00    -0.165 C  
HETATM   15  C   UNL     1      -9.211   7.259  69.088  1.00  0.00    -0.139 C  
HETATM   16  O   UNL     1      -9.110   7.811  67.770  1.00  0.00    -0.134 OA 
HETATM   17  C   UNL     1     -10.334   8.444  67.377  1.00  0.00    -0.285 C  
HETATM   18  C   UNL     1     -10.686   9.584  68.337  1.00  0.00    -0.186 C  
ENDBRANCH  10  13
ENDBRANCH   6   8
ENDBRANCH   3   4
ENDBRANCH   2   3
TORSDOF 4
ENDMDL
MODEL       92
REMARK 921   NORMALIZED FREE ENERGY PREDICTED BY IDOCK:   -3.74 KCAL/MOL
REMARK 922        TOTAL FREE ENERGY PREDICTED BY IDOCK:   -4.89 KCAL/MOL
REMARK 923 INTER-LIGAND FREE ENERGY PREDICTED BY IDOCK:   -5.61 KCAL/MOL
REMARK 924 INTRA-LIGAND FREE ENERGY PREDICTED BY IDOCK:    0.73 KCAL/MOL
REMARK 927      BINDING AFFINITY PREDICTED BY RF-SCORE:    0.00 PKD
ROOT
HETATM    1  C   UNL     1     -11.978  17.213  74.088  1.00  0.00     0.013 C  
HETATM    2  C   UNL     1     -12.507  15.807  74.300  1.00  0.00    -0.654 C  
ENDROOT
BRANCH   2   3
HETATM    3  O   UNL     1     -13.404  15.459  73.235  1.00  0.00    -0.486 OA 
BRANCH   3   4
HETATM    4  C   UNL     1     -12.829  15.186  72.031  1.00  0.00    -0.345 C  
HETATM    5  O   UNL     1     -12.237  16.033  71.364  1.00  0.00    -0.432 OA 
HETATM    6  N   UNL     1     -13.002  13.888  71.747  1.00  0.00    -0.345 N  
HETATM    7  H   UNL     1     -13.460  13.246  72.394  1.00  0.00     0.000 HD 
BRANCH   6   8
HETATM    8  C   UNL     1     -12.534  13.489  70.554  1.00  0.00    -0.302 A  
HETATM    9  C   UNL     1     -12.387  14.246  69.416  1.00  0.00    -0.199 A  
HETATM   10  N   UNL     1     -11.721  13.430  68.537  1.00  0.00    -0.336 NA 
HETATM   11  O   UNL     1     -12.064  12.222  70.291  1.00  0.00    -0.341 OA 
HETATM   12  N   UNL     1     -11.529  12.203  68.992  1.00  0.00    -0.274 NA 
BRANCH  10  13
HETATM   13  N   UNL     1     -11.106  13.864  67.327  1.00  0.00    -0.293 NA 
HETATM   14  C   UNL     1     -10.305  12.968  66.509  1.00  0.00    -0.274 C  
HETATM   15  C   UNL     1     -10.490  13.370  65.040  1.00  0.00    -0.365 C  
HETATM   16  O   UNL     1     -10.171  14.753  64.844  1.00  0.00    -0.388 OA 
HETATM   17  C   UNL     1     -11.005  15.596  65.649  1.00  0.00    -0.272 C  
HETATM   18  C   UNL     1     -10.822  15.278  67.136  1.00  0.00    -0.322 C  
ENDBRANCH  10  13
ENDBRANCH   6   8
ENDBRANCH   3   4
ENDBRANCH   2   3
TORSDOF 4
ENDMDL
MODEL       93
REMARK 921   NORMALIZED FREE ENERGY PREDICTED BY IDOCK:   -3.73 KCAL/MOL
REMARK 922        TOTAL FREE ENERGY PREDICTED BY IDOCK:   -4.87 KCAL/MOL
REMARK 923 INTER-LIGAND FREE ENERGY PREDICTED BY IDOCK:   -4.52 KCAL/MOL
REMARK 924 INTRA-LIGAND FREE ENERGY PREDICTED BY IDOCK:   -0.35 KCAL/MOL
REMARK 927      BINDING AFFINITY PREDICTED BY RF-SCORE:    0.00 PKD
ROOT
HETATM    1  C   UNL     1     -10.490   4.713  65.985  1.00  0.00    -0.303 C  
HETATM    2  C   UNL     1      -9.855   6.024  66.409  1.00  0.00    -0.110 C  
ENDROOT
BRANCH   2   3
HETATM    3  O   UNL     1     -10.857   6.898  66.949  1.00  0.00    -0.351 OA 
BRANCH   3   4
HETATM    4  C   UNL     1     -10.487   8.195  67.134  1.00  0.00    -0.326 C  
HETATM    5  O   UNL     1     -10.588   8.772  68.216  1.00  0.00    -0.210 OA 
HETATM    6  N   UNL     1      -9.998   8.680  65.985  1.00  0.00    -0.460 N  
HETATM    7  H   UNL     1      -9.899   8.103  65.150  1.00  0.00     0.000 HD 
BRANCH   6   8
HETATM    8  C   UNL     1      -9.646   9.975  66.007  1.00  0.00    -0.222 A  
HETATM    9  C   UNL     1     -10.421  11.059  65.672  1.00  0.00    -0.230 A  
HETATM   10  N   UNL     1      -9.666  12.151  66.022  1.00  0.00    -0.243 NA 
HETATM   11  O   UNL     1      -8.421  10.438  66.432  1.00  0.00    -0.131 OA 
HETATM   12  N   UNL     1      -8.453  11.842  66.451  1.00  0.00    -0.100 NA 
BRANCH  10  13
HETATM   13  N   UNL     1     -10.156  13.486  66.116  1.00  0.00    -0.298 NA 
HETATM   14  C   UNL     1     -10.527  14.078  67.391  1.00  0.00    -0.263 C  
HETATM   15  C   UNL     1     -10.207  15.577  67.331  1.00  0.00    -0.255 C  
HETATM   16  O   UNL     1     -10.852  16.194  66.210  1.00  0.00    -0.257 OA 
HETATM   17  C   UNL     1     -10.433  15.595  64.977  1.00  0.00    -0.333 C  
HETATM   18  C   UNL     1     -10.778  14.104  64.955  1.00  0.00    -0.428 C  
ENDBRANCH  10  13
ENDBRANCH   6   8
ENDBRANCH   3   4
ENDBRANCH   2   3
TORSDOF 4
ENDMDL
MODEL       94
REMARK 921   NORMALIZED FREE ENERGY PREDICTED BY IDOCK:   -3.72 KCAL/MOL
REMARK 922        TOTAL FREE ENERGY PREDICTED BY IDOCK:   -4.86 KCAL/MOL
REMARK 923 INTER-LIGAND FREE ENERGY PREDICTED BY IDOCK:   -4.53 KCAL/MOL
REMARK 924 INTRA-LIGAND FREE ENERGY PREDICTED BY IDOCK:   -0.33 KCAL/MOL
REMARK 927      BINDING AFFINITY PREDICTED BY RF-SCORE:    0.00 PKD
ROOT
HETATM    1  C   UNL     1     -10.754  11.553  66.407  1.00  0.00    -0.320 C  
HETATM    2  C   UNL     1     -10.548  11.614  67.909  1.00  0.00    -0.193 C  
ENDROOT
BRANCH   2   3
HETATM    3  O   UNL     1     -11.544  10.819  68.569  1.00  0.00    -0.295 OA 
BRANCH   3   4
HETATM    4  C   UNL     1     -11.098   9.998  69.560  1.00  0.00    -0.238 C  
HETATM    5  O   UNL     1      -9.909   9.889  69.854  1.00  0.00    -0.229 OA 
HETATM    6  N   UNL     1     -12.147   9.389  70.130  1.00  0.00    -0.445 N  
HETATM    7  H   UNL     1     -13.108   9.589  69.853  1.00  0.00     0.000 HD 
BRANCH   6   8
HETATM    8  C   UNL     1     -11.848   8.500  71.090  1.00  0.00    -0.284 A  
HETATM    9  C   UNL     1     -11.730   7.137  70.961  1.00  0.00    -0.320 A  
HETATM   10  N   UNL     1     -11.252   6.711  72.175  1.00  0.00    -0.253 NA 
HETATM   11  O   UNL     1     -11.555   8.836  72.392  1.00  0.00    -0.352 OA 
HETATM   12  N   UNL     1     -11.157   7.675  73.076  1.00  0.00    -0.405 NA 
BRANCH  10  13
HETATM   13  N   UNL     1     -10.715   5.416  72.432  1.00  0.00    -0.223 NA 
HETATM   14  C   UNL     1     -10.848   4.775  73.730  1.00  0.00    -0.310 C  
HETATM   15  C   UNL     1     -10.964   3.262  73.504  1.00  0.00    -0.227 C  
HETATM   16  O   UNL     1      -9.856   2.771  72.740  1.00  0.00    -0.113 OA 
HETATM   17  C   UNL     1      -9.786   3.412  71.460  1.00  0.00    -0.163 C  
HETATM   18  C   UNL     1      -9.611   4.925  71.621  1.00  0.00    -0.159 C  
ENDBRANCH  10  13
ENDBRANCH   6   8
ENDBRANCH   3   4
ENDBRANCH   2   3
TORSDOF 4
ENDMDL
MODEL       95
REMARK 921   NORMALIZED FREE ENERGY PREDICTED BY IDOCK:   -3.71 KCAL/MOL
REMARK 922        TOTAL FREE ENERGY PREDICTED BY IDOCK:   -4.85 KCAL/MOL
REMARK 923 INTER-LIGAND FREE ENERGY PREDICTED BY IDOCK:   -4.55 KCAL/MOL
REMARK 924 INTRA-LIGAND FREE ENERGY PREDICTED BY IDOCK:   -0.30 KCAL/MOL
REMARK 927      BINDING AFFINITY PREDICTED BY RF-SCORE:    0.00 PKD
ROOT
HETATM    1  C   UNL     1      -7.819   9.801  65.187  1.00  0.00    -0.126 C  
HETATM    2  C   UNL     1      -8.840  10.010  64.085  1.00  0.00    -0.221 C  
ENDROOT
BRANCH   2   3
HETATM    3  O   UNL     1     -10.156  10.092  64.651  1.00  0.00    -0.321 OA 
BRANCH   3   4
HETATM    4  C   UNL     1     -10.352  11.072  65.576  1.00  0.00    -0.260 C  
HETATM    5  O   UNL     1     -10.609  10.838  66.756  1.00  0.00    -0.246 OA 
HETATM    6  N   UNL     1     -10.195  12.267  64.989  1.00  0.00    -0.283 N  
HETATM    7  H   UNL     1      -9.924  12.360  64.011  1.00  0.00     0.000 HD 
BRANCH   6   8
HETATM    8  C   UNL     1     -10.418  13.331  65.776  1.00  0.00    -0.284 A  
HETATM    9  C   UNL     1      -9.486  14.100  66.430  1.00  0.00    -0.269 A  
HETATM   10  N   UNL     1     -10.200  15.149  66.952  1.00  0.00    -0.256 NA 
HETATM   11  O   UNL     1     -11.663  13.868  66.017  1.00  0.00    -0.338 OA 
HETATM   12  N   UNL     1     -11.506  15.048  66.763  1.00  0.00    -0.300 NA 
BRANCH  10  13
HETATM   13  N   UNL     1      -9.629  16.343  67.479  1.00  0.00    -0.226 NA 
HETATM   14  C   UNL     1     -10.409  17.559  67.644  1.00  0.00    -0.360 C  
HETATM   15  C   UNL     1      -9.881  18.300  68.878  1.00  0.00    -0.320 C  
HETATM   16  O   UNL     1      -8.473  18.541  68.767  1.00  0.00    -0.313 OA 
HETATM   17  C   UNL     1      -7.746  17.314  68.635  1.00  0.00    -0.265 C  
HETATM   18  C   UNL     1      -8.192  16.552  67.384  1.00  0.00    -0.163 C  
ENDBRANCH  10  13
ENDBRANCH   6   8
ENDBRANCH   3   4
ENDBRANCH   2   3
TORSDOF 4
ENDMDL
MODEL       96
REMARK 921   NORMALIZED FREE ENERGY PREDICTED BY IDOCK:   -3.69 KCAL/MOL
REMARK 922        TOTAL FREE ENERGY PREDICTED BY IDOCK:   -4.82 KCAL/MOL
REMARK 923 INTER-LIGAND FREE ENERGY PREDICTED BY IDOCK:   -4.79 KCAL/MOL
REMARK 924 INTRA-LIGAND FREE ENERGY PREDICTED BY IDOCK:   -0.03 KCAL/MOL
REMARK 927      BINDING AFFINITY PREDICTED BY RF-SCORE:    0.00 PKD
ROOT
HETATM    1  C   UNL     1     -10.775   6.434  67.646  1.00  0.00    -0.387 C  
HETATM    2  C   UNL     1     -11.179   6.654  69.092  1.00  0.00    -0.242 C  
ENDROOT
BRANCH   2   3
HETATM    3  O   UNL     1     -10.072   7.192  69.829  1.00  0.00    -0.188 OA 
BRANCH   3   4
HETATM    4  C   UNL     1     -10.083   8.538  70.033  1.00  0.00    -0.192 C  
HETATM    5  O   UNL     1      -9.180   9.134  70.618  1.00  0.00    -0.216 OA 
HETATM    6  N   UNL     1     -11.188   9.057  69.482  1.00  0.00    -0.440 N  
HETATM    7  H   UNL     1     -11.856   8.486  68.963  1.00  0.00     0.000 HD 
BRANCH   6   8
HETATM    8  C   UNL     1     -11.359  10.376  69.659  1.00  0.00    -0.272 A  
HETATM    9  C   UNL     1     -10.709  11.399  69.011  1.00  0.00    -0.205 A  
HETATM   10  N   UNL     1     -11.354  12.539  69.421  1.00  0.00    -0.238 NA 
HETATM   11  O   UNL     1     -12.285  10.929  70.515  1.00  0.00    -0.305 OA 
HETATM   12  N   UNL     1     -12.281  12.323  70.340  1.00  0.00    -0.329 NA 
BRANCH  10  13
HETATM   13  N   UNL     1     -11.214  13.820  68.812  1.00  0.00    -0.256 NA 
HETATM   14  C   UNL     1     -11.058  15.031  69.601  1.00  0.00    -0.273 C  
HETATM   15  C   UNL     1     -10.158  15.996  68.819  1.00  0.00    -0.225 C  
HETATM   16  O   UNL     1     -10.683  16.237  67.508  1.00  0.00    -0.316 OA 
HETATM   17  C   UNL     1     -10.792  15.019  66.761  1.00  0.00    -0.318 C  
HETATM   18  C   UNL     1     -11.726  14.032  67.467  1.00  0.00    -0.387 C  
ENDBRANCH  10  13
ENDBRANCH   6   8
ENDBRANCH   3   4
ENDBRANCH   2   3
TORSDOF 4
ENDMDL
MODEL       97
REMARK 921   NORMALIZED FREE ENERGY PREDICTED BY IDOCK:   -3.66 KCAL/MOL
REMARK 922        TOTAL FREE ENERGY PREDICTED BY IDOCK:   -4.79 KCAL/MOL
REMARK 923 INTER-LIGAND FREE ENERGY PREDICTED BY IDOCK:   -4.48 KCAL/MOL
REMARK 924 INTRA-LIGAND FREE ENERGY PREDICTED BY IDOCK:   -0.31 KCAL/MOL
REMARK 927      BINDING AFFINITY PREDICTED BY RF-SCORE:    0.00 PKD
ROOT
HETATM    1  C   UNL     1     -10.343  17.567  68.686  1.00  0.00    -0.369 C  
HETATM    2  C   UNL     1     -10.684  16.353  69.530  1.00  0.00    -0.325 C  
ENDROOT
BRANCH   2   3
HETATM    3  O   UNL     1     -11.911  15.770  69.068  1.00  0.00    -0.385 OA 
BRANCH   3   4
HETATM    4  C   UNL     1     -11.792  14.676  68.266  1.00  0.00    -0.298 C  
HETATM    5  O   UNL     1     -12.087  14.687  67.072  1.00  0.00    -0.357 OA 
HETATM    6  N   UNL     1     -11.297  13.658  68.982  1.00  0.00    -0.271 N  
HETATM    7  H   UNL     1     -11.026  13.763  69.960  1.00  0.00     0.000 HD 
BRANCH   6   8
HETATM    8  C   UNL     1     -11.181  12.492  68.327  1.00  0.00    -0.266 A  
HETATM    9  C   UNL     1     -10.157  12.093  67.502  1.00  0.00    -0.196 A  
HETATM   10  N   UNL     1     -10.425  10.776  67.224  1.00  0.00    -0.223 NA 
HETATM   11  O   UNL     1     -12.082  11.456  68.425  1.00  0.00    -0.575 OA 
HETATM   12  N   UNL     1     -11.575  10.351  67.721  1.00  0.00    -0.319 NA 
BRANCH  10  13
HETATM   13  N   UNL     1      -9.504   9.864  66.631  1.00  0.00    -0.166 NA 
HETATM   14  C   UNL     1      -8.525  10.294  65.646  1.00  0.00    -0.160 C  
HETATM   15  C   UNL     1      -7.265   9.436  65.821  1.00  0.00    -0.095 C  
HETATM   16  O   UNL     1      -7.580   8.041  65.736  1.00  0.00    -0.078 OA 
HETATM   17  C   UNL     1      -8.526   7.661  66.743  1.00  0.00    -0.127 C  
HETATM   18  C   UNL     1      -9.831   8.447  66.585  1.00  0.00    -0.273 C  
ENDBRANCH  10  13
ENDBRANCH   6   8
ENDBRANCH   3   4
ENDBRANCH   2   3
TORSDOF 4
ENDMDL
MODEL       98
REMARK 921   NORMALIZED FREE ENERGY PREDICTED BY IDOCK:   -3.66 KCAL/MOL
REMARK 922        TOTAL FREE ENERGY PREDICTED BY IDOCK:   -4.78 KCAL/MOL
REMARK 923 INTER-LIGAND FREE ENERGY PREDICTED BY IDOCK:   -4.62 KCAL/MOL
REMARK 924 INTRA-LIGAND FREE ENERGY PREDICTED BY IDOCK:   -0.16 KCAL/MOL
REMARK 927      BINDING AFFINITY PREDICTED BY RF-SCORE:    0.00 PKD
ROOT
HETATM    1  C   UNL     1      -8.896  11.340  62.520  1.00  0.00    -0.273 C  
HETATM    2  C   UNL     1      -9.744  10.478  63.436  1.00  0.00    -0.316 C  
ENDROOT
BRANCH   2   3
HETATM    3  O   UNL     1      -8.935   9.964  64.505  1.00  0.00    -0.199 OA 
BRANCH   3   4
HETATM    4  C   UNL     1      -9.606   9.477  65.585  1.00  0.00    -0.277 C  
HETATM    5  O   UNL     1     -10.454  10.126  66.195  1.00  0.00    -0.192 OA 
HETATM    6  N   UNL     1      -9.203   8.222  65.822  1.00  0.00    -0.387 N  
HETATM    7  H   UNL     1      -8.531   7.744  65.222  1.00  0.00     0.000 HD 
BRANCH   6   8
HETATM    8  C   UNL     1      -9.743   7.635  66.902  1.00  0.00    -0.213 A  
HETATM    9  C   UNL     1      -9.527   7.950  68.222  1.00  0.00    -0.144 A  
HETATM   10  N   UNL     1     -10.428   7.182  68.917  1.00  0.00    -0.203 NA 
HETATM   11  O   UNL     1     -10.670   6.619  66.848  1.00  0.00    -0.306 OA 
HETATM   12  N   UNL     1     -11.115   6.348  68.153  1.00  0.00    -0.306 NA 
BRANCH  10  13
HETATM   13  N   UNL     1     -10.767   7.363  70.289  1.00  0.00    -0.232 NA 
HETATM   14  C   UNL     1     -11.875   6.652  70.905  1.00  0.00    -0.377 C  
HETATM   15  C   UNL     1     -11.511   6.380  72.371  1.00  0.00    -0.282 C  
HETATM   16  O   UNL     1     -11.171   7.596  73.048  1.00  0.00    -0.384 OA 
HETATM   17  C   UNL     1     -10.057   8.244  72.421  1.00  0.00    -0.312 C  
HETATM   18  C   UNL     1     -10.382   8.592  70.965  1.00  0.00    -0.217 C  
ENDBRANCH  10  13
ENDBRANCH   6   8
ENDBRANCH   3   4
ENDBRANCH   2   3
TORSDOF 4
ENDMDL
MODEL       99
REMARK 921   NORMALIZED FREE ENERGY PREDICTED BY IDOCK:   -3.60 KCAL/MOL
REMARK 922        TOTAL FREE ENERGY PREDICTED BY IDOCK:   -4.71 KCAL/MOL
REMARK 923 INTER-LIGAND FREE ENERGY PREDICTED BY IDOCK:   -4.41 KCAL/MOL
REMARK 924 INTRA-LIGAND FREE ENERGY PREDICTED BY IDOCK:   -0.30 KCAL/MOL
REMARK 927      BINDING AFFINITY PREDICTED BY RF-SCORE:    0.00 PKD
ROOT
HETATM    1  C   UNL     1      -6.341   8.831  65.188  1.00  0.00    -0.060 C  
HETATM    2  C   UNL     1      -7.470   9.828  65.004  1.00  0.00    -0.127 C  
ENDROOT
BRANCH   2   3
HETATM    3  O   UNL     1      -8.407   9.706  66.084  1.00  0.00    -0.117 OA 
BRANCH   3   4
HETATM    4  C   UNL     1      -8.977  10.864  66.518  1.00  0.00    -0.168 C  
HETATM    5  O   UNL     1      -8.343  11.907  66.671  1.00  0.00    -0.176 OA 
HETATM    6  N   UNL     1     -10.288  10.662  66.710  1.00  0.00    -0.236 N  
HETATM    7  H   UNL     1     -10.737   9.771  66.500  1.00  0.00     0.000 HD 
BRANCH   6   8
HETATM    8  C   UNL     1     -10.970  11.711  67.197  1.00  0.00    -0.280 A  
HETATM    9  C   UNL     1     -11.098  12.088  68.512  1.00  0.00    -0.244 A  
HETATM   10  N   UNL     1     -11.741  13.300  68.467  1.00  0.00    -0.332 NA 
HETATM   11  O   UNL     1     -11.631  12.633  66.418  1.00  0.00    -0.341 OA 
HETATM   12  N   UNL     1     -12.110  13.661  67.249  1.00  0.00    -0.371 NA 
BRANCH  10  13
HETATM   13  N   UNL     1     -11.851  14.206  69.561  1.00  0.00    -0.302 NA 
HETATM   14  C   UNL     1     -10.772  15.113  69.918  1.00  0.00    -0.257 C  
HETATM   15  C   UNL     1     -11.395  16.402  70.468  1.00  0.00    -0.191 C  
HETATM   16  O   UNL     1     -12.282  16.119  71.557  1.00  0.00    -0.433 OA 
HETATM   17  C   UNL     1     -13.342  15.246  71.149  1.00  0.00    -0.498 C  
HETATM   18  C   UNL     1     -12.782  13.914  70.641  1.00  0.00    -0.281 C  
ENDBRANCH  10  13
ENDBRANCH   6   8
ENDBRANCH   3   4
ENDBRANCH   2   3
TORSDOF 4
ENDMDL
MODEL      100
REMARK 921   NORMALIZED FREE ENERGY PREDICTED BY IDOCK:   -3.60 KCAL/MOL
REMARK 922        TOTAL FREE ENERGY PREDICTED BY IDOCK:   -4.71 KCAL/MOL
REMARK 923 INTER-LIGAND FREE ENERGY PREDICTED BY IDOCK:   -4.45 KCAL/MOL
REMARK 924 INTRA-LIGAND FREE ENERGY PREDICTED BY IDOCK:   -0.26 KCAL/MOL
REMARK 927      BINDING AFFINITY PREDICTED BY RF-SCORE:    0.00 PKD
ROOT
HETATM    1  C   UNL     1     -11.281  15.449  70.462  1.00  0.00    -0.358 C  
HETATM    2  C   UNL     1     -11.921  14.074  70.482  1.00  0.00    -0.320 C  
ENDROOT
BRANCH   2   3
HETATM    3  O   UNL     1     -11.791  13.458  69.193  1.00  0.00    -0.301 OA 
BRANCH   3   4
HETATM    4  C   UNL     1     -11.714  12.099  69.181  1.00  0.00    -0.328 C  
HETATM    5  O   UNL     1     -11.943  11.424  68.179  1.00  0.00    -0.594 OA 
HETATM    6  N   UNL     1     -11.338  11.670  70.393  1.00  0.00    -0.408 N  
HETATM    7  H   UNL     1     -11.113  12.314  71.152  1.00  0.00     0.000 HD 
BRANCH   6   8
HETATM    8  C   UNL     1     -11.277  10.338  70.543  1.00  0.00    -0.330 A  
HETATM    9  C   UNL     1     -10.268   9.495  70.143  1.00  0.00    -0.246 A  
HETATM   10  N   UNL     1     -10.602   8.273  70.672  1.00  0.00    -0.211 NA 
HETATM   11  O   UNL     1     -12.232   9.587  71.191  1.00  0.00    -0.308 OA 
HETATM   12  N   UNL     1     -11.777   8.261  71.280  1.00  0.00    -0.279 NA 
BRANCH  10  13
HETATM   13  N   UNL     1      -9.725   7.153  70.755  1.00  0.00    -0.172 NA 
HETATM   14  C   UNL     1      -9.138   6.731  72.016  1.00  0.00    -0.138 C  
HETATM   15  C   UNL     1      -8.988   5.204  71.985  1.00  0.00    -0.133 C  
HETATM   16  O   UNL     1      -8.234   4.787  70.840  1.00  0.00    -0.084 OA 
HETATM   17  C   UNL     1      -8.867   5.202  69.623  1.00  0.00    -0.102 C  
HETATM   18  C   UNL     1      -8.994   6.727  69.571  1.00  0.00    -0.139 C  
ENDBRANCH  10  13
ENDBRANCH   6   8
ENDBRANCH   3   4
ENDBRANCH   2   3
TORSDOF 4
ENDMDL
MODEL      101
REMARK 921   NORMALIZED FREE ENERGY PREDICTED BY IDOCK:   -3.57 KCAL/MOL
REMARK 922        TOTAL FREE ENERGY PREDICTED BY IDOCK:   -4.68 KCAL/MOL
REMARK 923 INTER-LIGAND FREE ENERGY PREDICTED BY IDOCK:   -5.06 KCAL/MOL
REMARK 924 INTRA-LIGAND FREE ENERGY PREDICTED BY IDOCK:    0.38 KCAL/MOL
REMARK 927      BINDING AFFINITY PREDICTED BY RF-SCORE:    0.00 PKD
ROOT
HETATM    1  C   UNL     1     -10.677  10.898  68.136  1.00  0.00    -0.256 C  
HETATM    2  C   UNL     1     -12.034  11.144  68.770  1.00  0.00    -0.268 C  
ENDROOT
BRANCH   2   3
HETATM    3  O   UNL     1     -11.875  11.906  69.975  1.00  0.00    -0.323 OA 
BRANCH   3   4
HETATM    4  C   UNL     1     -11.811  13.258  69.827  1.00  0.00    -0.325 C  
HETATM    5  O   UNL     1     -12.783  13.996  69.980  1.00  0.00    -0.276 OA 
HETATM    6  N   UNL     1     -10.553  13.607  69.526  1.00  0.00    -0.421 N  
HETATM    7  H   UNL     1      -9.796  12.924  69.478  1.00  0.00     0.000 HD 
BRANCH   6   8
HETATM    8  C   UNL     1     -10.354  14.914  69.293  1.00  0.00    -0.234 A  
HETATM    9  C   UNL     1      -9.639  15.482  68.267  1.00  0.00    -0.201 A  
HETATM   10  N   UNL     1      -9.878  16.829  68.378  1.00  0.00    -0.242 NA 
HETATM   11  O   UNL     1     -10.900  15.927  70.049  1.00  0.00    -0.298 OA 
HETATM   12  N   UNL     1     -10.598  17.156  69.438  1.00  0.00    -0.268 NA 
BRANCH  10  13
HETATM   13  N   UNL     1      -9.573  17.797  67.377  1.00  0.00    -0.260 NA 
HETATM   14  C   UNL     1     -10.581  18.707  66.857  1.00  0.00    -0.385 C  
HETATM   15  C   UNL     1      -9.893  20.034  66.513  1.00  0.00    -0.459 C  
HETATM   16  O   UNL     1      -8.799  19.825  65.612  1.00  0.00    -0.330 OA 
HETATM   17  C   UNL     1      -7.820  18.945  66.180  1.00  0.00    -0.250 C  
HETATM   18  C   UNL     1      -8.437  17.579  66.494  1.00  0.00    -0.268 C  
ENDBRANCH  10  13
ENDBRANCH   6   8
ENDBRANCH   3   4
ENDBRANCH   2   3
TORSDOF 4
ENDMDL
MODEL      102
REMARK 921   NORMALIZED FREE ENERGY PREDICTED BY IDOCK:   -3.56 KCAL/MOL
REMARK 922        TOTAL FREE ENERGY PREDICTED BY IDOCK:   -4.66 KCAL/MOL
REMARK 923 INTER-LIGAND FREE ENERGY PREDICTED BY IDOCK:   -4.31 KCAL/MOL
REMARK 924 INTRA-LIGAND FREE ENERGY PREDICTED BY IDOCK:   -0.36 KCAL/MOL
REMARK 927      BINDING AFFINITY PREDICTED BY RF-SCORE:    0.00 PKD
ROOT
HETATM    1  C   UNL     1      -6.531  15.368  69.100  1.00  0.00    -0.128 C  
HETATM    2  C   UNL     1      -6.914  14.644  67.823  1.00  0.00    -0.177 C  
ENDROOT
BRANCH   2   3
HETATM    3  O   UNL     1      -8.255  14.991  67.451  1.00  0.00    -0.164 OA 
BRANCH   3   4
HETATM    4  C   UNL     1      -9.242  14.196  67.951  1.00  0.00    -0.196 C  
HETATM    5  O   UNL     1     -10.100  14.605  68.732  1.00  0.00    -0.226 OA 
HETATM    6  N   UNL     1      -9.116  12.965  67.438  1.00  0.00    -0.188 N  
HETATM    7  H   UNL     1      -8.401  12.734  66.748  1.00  0.00     0.000 HD 
BRANCH   6   8
HETATM    8  C   UNL     1      -9.993  12.056  67.892  1.00  0.00    -0.197 A  
HETATM    9  C   UNL     1      -9.930  11.345  69.067  1.00  0.00    -0.067 A  
HETATM   10  N   UNL     1     -11.131  10.687  69.142  1.00  0.00    -0.236 NA 
HETATM   11  O   UNL     1     -11.163  11.720  67.249  1.00  0.00    -0.267 OA 
HETATM   12  N   UNL     1     -11.894  10.848  68.073  1.00  0.00    -0.579 NA 
BRANCH  10  13
HETATM   13  N   UNL     1     -11.637  10.043  70.309  1.00  0.00    -0.275 NA 
HETATM   14  C   UNL     1     -12.207  10.795  71.414  1.00  0.00    -0.269 C  
HETATM   15  C   UNL     1     -13.325   9.951  72.040  1.00  0.00    -0.432 C  
HETATM   16  O   UNL     1     -12.836   8.660  72.425  1.00  0.00    -0.378 OA 
HETATM   17  C   UNL     1     -12.311   7.947  71.298  1.00  0.00    -0.281 C  
HETATM   18  C   UNL     1     -11.150   8.718  70.662  1.00  0.00    -0.246 C  
ENDBRANCH  10  13
ENDBRANCH   6   8
ENDBRANCH   3   4
ENDBRANCH   2   3
TORSDOF 4
ENDMDL
MODEL      103
REMARK 921   NORMALIZED FREE ENERGY PREDICTED BY IDOCK:   -3.55 KCAL/MOL
REMARK 922        TOTAL FREE ENERGY PREDICTED BY IDOCK:   -4.65 KCAL/MOL
REMARK 923 INTER-LIGAND FREE ENERGY PREDICTED BY IDOCK:   -4.35 KCAL/MOL
REMARK 924 INTRA-LIGAND FREE ENERGY PREDICTED BY IDOCK:   -0.30 KCAL/MOL
REMARK 927      BINDING AFFINITY PREDICTED BY RF-SCORE:    0.00 PKD
ROOT
HETATM    1  C   UNL     1      -8.216   5.785  71.077  1.00  0.00    -0.122 C  
HETATM    2  C   UNL     1      -8.447   7.282  70.996  1.00  0.00    -0.127 C  
ENDROOT
BRANCH   2   3
HETATM    3  O   UNL     1      -9.294   7.583  69.877  1.00  0.00    -0.151 OA 
BRANCH   3   4
HETATM    4  C   UNL     1      -9.805   8.844  69.832  1.00  0.00    -0.182 C  
HETATM    5  O   UNL     1     -10.056   9.501  70.841  1.00  0.00    -0.286 OA 
HETATM    6  N   UNL     1      -9.949   9.214  68.552  1.00  0.00    -0.168 N  
HETATM    7  H   UNL     1      -9.657   8.617  67.778  1.00  0.00     0.000 HD 
BRANCH   6   8
HETATM    8  C   UNL     1     -10.502  10.421  68.357  1.00  0.00    -0.189 A  
HETATM    9  C   UNL     1      -9.855  11.624  68.208  1.00  0.00    -0.199 A  
HETATM   10  N   UNL     1     -10.844  12.514  67.871  1.00  0.00    -0.215 NA 
HETATM   11  O   UNL     1     -11.854  10.641  68.222  1.00  0.00    -0.466 OA 
HETATM   12  N   UNL     1     -12.059  11.991  67.893  1.00  0.00    -0.494 NA 
BRANCH  10  13
HETATM   13  N   UNL     1     -10.622  13.823  67.352  1.00  0.00    -0.259 NA 
HETATM   14  C   UNL     1      -9.836  14.810  68.074  1.00  0.00    -0.218 C  
HETATM   15  C   UNL     1      -9.107  15.684  67.044  1.00  0.00    -0.219 C  
HETATM   16  O   UNL     1     -10.033  16.263  66.117  1.00  0.00    -0.293 OA 
HETATM   17  C   UNL     1     -10.762  15.251  65.412  1.00  0.00    -0.391 C  
HETATM   18  C   UNL     1     -11.558  14.378  66.387  1.00  0.00    -0.375 C  
ENDBRANCH  10  13
ENDBRANCH   6   8
ENDBRANCH   3   4
ENDBRANCH   2   3
TORSDOF 4
ENDMDL
MODEL      104
REMARK 921   NORMALIZED FREE ENERGY PREDICTED BY IDOCK:   -3.53 KCAL/MOL
REMARK 922        TOTAL FREE ENERGY PREDICTED BY IDOCK:   -4.62 KCAL/MOL
REMARK 923 INTER-LIGAND FREE ENERGY PREDICTED BY IDOCK:   -5.20 KCAL/MOL
REMARK 924 INTRA-LIGAND FREE ENERGY PREDICTED BY IDOCK:    0.58 KCAL/MOL
REMARK 927      BINDING AFFINITY PREDICTED BY RF-SCORE:    0.00 PKD
ROOT
HETATM    1  C   UNL     1     -13.200  15.937  73.418  1.00  0.00    -0.668 C  
HETATM    2  C   UNL     1     -13.261  15.573  71.946  1.00  0.00    -0.464 C  
ENDROOT
BRANCH   2   3
HETATM    3  O   UNL     1     -13.977  14.340  71.780  1.00  0.00    -0.403 OA 
BRANCH   3   4
HETATM    4  C   UNL     1     -13.220  13.235  71.534  1.00  0.00    -0.299 C  
HETATM    5  O   UNL     1     -12.184  13.267  70.872  1.00  0.00    -0.356 OA 
HETATM    6  N   UNL     1     -13.779  12.178  72.137  1.00  0.00    -0.360 N  
HETATM    7  H   UNL     1     -14.615  12.261  72.717  1.00  0.00     0.000 HD 
BRANCH   6   8
HETATM    8  C   UNL     1     -13.167  11.001  71.929  1.00  0.00    -0.398 A  
HETATM    9  C   UNL     1     -11.926  10.789  71.377  1.00  0.00    -0.089 A  
HETATM   10  N   UNL     1     -11.696   9.446  71.540  1.00  0.00    -0.369 NA 
HETATM   11  O   UNL     1     -13.688   9.782  72.296  1.00  0.00    -0.393 OA 
HETATM   12  N   UNL     1     -12.723   8.789  72.054  1.00  0.00    -0.360 NA 
BRANCH  10  13
HETATM   13  N   UNL     1     -10.432   8.809  71.371  1.00  0.00    -0.257 NA 
HETATM   14  C   UNL     1      -9.575   9.095  70.232  1.00  0.00    -0.213 C  
HETATM   15  C   UNL     1      -8.117   8.979  70.693  1.00  0.00    -0.162 C  
HETATM   16  O   UNL     1      -7.866   7.698  71.284  1.00  0.00    -0.087 OA 
HETATM   17  C   UNL     1      -8.714   7.476  72.417  1.00  0.00    -0.123 C  
HETATM   18  C   UNL     1     -10.189   7.523  72.008  1.00  0.00    -0.196 C  
ENDBRANCH  10  13
ENDBRANCH   6   8
ENDBRANCH   3   4
ENDBRANCH   2   3
TORSDOF 4
ENDMDL
MODEL      105
REMARK 921   NORMALIZED FREE ENERGY PREDICTED BY IDOCK:   -3.52 KCAL/MOL
REMARK 922        TOTAL FREE ENERGY PREDICTED BY IDOCK:   -4.62 KCAL/MOL
REMARK 923 INTER-LIGAND FREE ENERGY PREDICTED BY IDOCK:   -4.25 KCAL/MOL
REMARK 924 INTRA-LIGAND FREE ENERGY PREDICTED BY IDOCK:   -0.37 KCAL/MOL
REMARK 927      BINDING AFFINITY PREDICTED BY RF-SCORE:    0.00 PKD
ROOT
HETATM    1  C   UNL     1     -10.649  19.894  65.990  1.00  0.00    -0.527 C  
HETATM    2  C   UNL     1      -9.420  20.195  66.828  1.00  0.00    -0.403 C  
ENDROOT
BRANCH   2   3
HETATM    3  O   UNL     1      -8.356  19.301  66.467  1.00  0.00    -0.291 OA 
BRANCH   3   4
HETATM    4  C   UNL     1      -8.285  18.138  67.171  1.00  0.00    -0.229 C  
HETATM    5  O   UNL     1      -8.317  18.095  68.400  1.00  0.00    -0.286 OA 
HETATM    6  N   UNL     1      -8.203  17.111  66.314  1.00  0.00    -0.279 N  
HETATM    7  H   UNL     1      -8.242  17.243  65.303  1.00  0.00     0.000 HD 
BRANCH   6   8
HETATM    8  C   UNL     1      -8.066  15.899  66.874  1.00  0.00    -0.250 A  
HETATM    9  C   UNL     1      -9.061  15.001  67.180  1.00  0.00    -0.215 A  
HETATM   10  N   UNL     1      -8.398  13.865  67.570  1.00  0.00    -0.183 NA 
HETATM   11  O   UNL     1      -6.857  15.327  67.196  1.00  0.00    -0.254 OA 
HETATM   12  N   UNL     1      -7.084  14.010  67.629  1.00  0.00    -0.171 NA 
BRANCH  10  13
HETATM   13  N   UNL     1      -8.998  12.581  67.721  1.00  0.00    -0.175 NA 
HETATM   14  C   UNL     1      -8.264  11.450  68.263  1.00  0.00    -0.150 C  
HETATM   15  C   UNL     1      -9.250  10.570  69.042  1.00  0.00    -0.185 C  
HETATM   16  O   UNL     1     -10.355  10.185  68.214  1.00  0.00    -0.168 OA 
HETATM   17  C   UNL     1     -11.063  11.331  67.728  1.00  0.00    -0.271 C  
HETATM   18  C   UNL     1     -10.140  12.224  66.893  1.00  0.00    -0.211 C  
ENDBRANCH  10  13
ENDBRANCH   6   8
ENDBRANCH   3   4
ENDBRANCH   2   3
TORSDOF 4
ENDMDL
MODEL      106
REMARK 921   NORMALIZED FREE ENERGY PREDICTED BY IDOCK:   -3.52 KCAL/MOL
REMARK 922        TOTAL FREE ENERGY PREDICTED BY IDOCK:   -4.61 KCAL/MOL
REMARK 923 INTER-LIGAND FREE ENERGY PREDICTED BY IDOCK:   -4.28 KCAL/MOL
REMARK 924 INTRA-LIGAND FREE ENERGY PREDICTED BY IDOCK:   -0.33 KCAL/MOL
REMARK 927      BINDING AFFINITY PREDICTED BY RF-SCORE:    0.00 PKD
ROOT
HETATM    1  C   UNL     1     -12.356  13.508  65.776  1.00  0.00    -0.516 C  
HETATM    2  C   UNL     1     -11.384  12.956  66.802  1.00  0.00    -0.322 C  
ENDROOT
BRANCH   2   3
HETATM    3  O   UNL     1     -12.021  11.923  67.568  1.00  0.00    -0.586 OA 
BRANCH   3   4
HETATM    4  C   UNL     1     -11.230  11.259  68.456  1.00  0.00    -0.252 C  
HETATM    5  O   UNL     1     -10.054  11.557  68.658  1.00  0.00    -0.209 OA 
HETATM    6  N   UNL     1     -11.948  10.295  69.047  1.00  0.00    -0.502 N  
HETATM    7  H   UNL     1     -12.941  10.161  68.854  1.00  0.00     0.000 HD 
BRANCH   6   8
HETATM    8  C   UNL     1     -11.274   9.518  69.909  1.00  0.00    -0.178 A  
HETATM    9  C   UNL     1     -10.652   8.321  69.648  1.00  0.00    -0.222 A  
HETATM   10  N   UNL     1      -9.975   8.019  70.803  1.00  0.00    -0.187 NA 
HETATM   11  O   UNL     1     -11.053   9.839  71.230  1.00  0.00    -0.355 OA 
HETATM   12  N   UNL     1     -10.201   8.871  71.789  1.00  0.00    -0.330 NA 
BRANCH  10  13
HETATM   13  N   UNL     1      -8.970   7.016  70.921  1.00  0.00    -0.151 NA 
HETATM   14  C   UNL     1      -8.318   6.443  69.755  1.00  0.00    -0.127 C  
HETATM   15  C   UNL     1      -6.871   6.105  70.136  1.00  0.00    -0.057 C  
HETATM   16  O   UNL     1      -6.830   5.250  71.285  1.00  0.00    -0.048 OA 
HETATM   17  C   UNL     1      -7.459   5.870  72.414  1.00  0.00    -0.099 C  
HETATM   18  C   UNL     1      -8.928   6.181  72.112  1.00  0.00    -0.142 C  
ENDBRANCH  10  13
ENDBRANCH   6   8
ENDBRANCH   3   4
ENDBRANCH   2   3
TORSDOF 4
ENDMDL
MODEL      107
REMARK 921   NORMALIZED FREE ENERGY PREDICTED BY IDOCK:   -3.50 KCAL/MOL
REMARK 922        TOTAL FREE ENERGY PREDICTED BY IDOCK:   -4.59 KCAL/MOL
REMARK 923 INTER-LIGAND FREE ENERGY PREDICTED BY IDOCK:   -4.34 KCAL/MOL
REMARK 924 INTRA-LIGAND FREE ENERGY PREDICTED BY IDOCK:   -0.25 KCAL/MOL
REMARK 927      BINDING AFFINITY PREDICTED BY RF-SCORE:    0.00 PKD
ROOT
HETATM    1  C   UNL     1      -7.962  20.284  66.882  1.00  0.00    -0.349 C  
HETATM    2  C   UNL     1      -7.773  19.529  68.185  1.00  0.00    -0.306 C  
ENDROOT
BRANCH   2   3
HETATM    3  O   UNL     1      -9.052  19.216  68.755  1.00  0.00    -0.363 OA 
BRANCH   3   4
HETATM    4  C   UNL     1      -9.613  18.040  68.361  1.00  0.00    -0.334 C  
HETATM    5  O   UNL     1     -10.829  17.858  68.323  1.00  0.00    -0.289 OA 
HETATM    6  N   UNL     1      -8.642  17.182  68.022  1.00  0.00    -0.221 N  
HETATM    7  H   UNL     1      -7.656  17.445  68.032  1.00  0.00     0.000 HD 
BRANCH   6   8
HETATM    8  C   UNL     1      -9.052  15.954  67.667  1.00  0.00    -0.198 A  
HETATM    9  C   UNL     1      -9.022  14.809  68.427  1.00  0.00    -0.187 A  
HETATM   10  N   UNL     1      -9.699  13.877  67.682  1.00  0.00    -0.221 NA 
HETATM   11  O   UNL     1      -9.635  15.652  66.457  1.00  0.00    -0.237 OA 
HETATM   12  N   UNL     1     -10.061  14.313  66.486  1.00  0.00    -0.271 NA 
BRANCH  10  13
HETATM   13  N   UNL     1     -10.161  12.621  68.171  1.00  0.00    -0.233 NA 
HETATM   14  C   UNL     1     -11.315  12.517  69.049  1.00  0.00    -0.290 C  
HETATM   15  C   UNL     1     -12.033  11.197  68.740  1.00  0.00    -0.268 C  
HETATM   16  O   UNL     1     -11.134  10.087  68.852  1.00  0.00    -0.225 OA 
HETATM   17  C   UNL     1     -10.031  10.221  67.948  1.00  0.00    -0.164 C  
HETATM   18  C   UNL     1      -9.239  11.498  68.245  1.00  0.00    -0.186 C  
ENDBRANCH  10  13
ENDBRANCH   6   8
ENDBRANCH   3   4
ENDBRANCH   2   3
TORSDOF 4
ENDMDL
MODEL      108
REMARK 921   NORMALIZED FREE ENERGY PREDICTED BY IDOCK:   -3.50 KCAL/MOL
REMARK 922        TOTAL FREE ENERGY PREDICTED BY IDOCK:   -4.59 KCAL/MOL
REMARK 923 INTER-LIGAND FREE ENERGY PREDICTED BY IDOCK:   -4.26 KCAL/MOL
REMARK 924 INTRA-LIGAND FREE ENERGY PREDICTED BY IDOCK:   -0.33 KCAL/MOL
REMARK 927      BINDING AFFINITY PREDICTED BY RF-SCORE:    0.00 PKD
ROOT
HETATM    1  C   UNL     1     -12.273  15.455  64.384  1.00  0.00    -0.161 C  
HETATM    2  C   UNL     1     -12.152  13.960  64.157  1.00  0.00    -0.425 C  
ENDROOT
BRANCH   2   3
HETATM    3  O   UNL     1     -10.776  13.564  64.246  1.00  0.00    -0.403 OA 
BRANCH   3   4
HETATM    4  C   UNL     1     -10.537  12.224  64.282  1.00  0.00    -0.354 C  
HETATM    5  O   UNL     1     -11.253  11.401  63.714  1.00  0.00    -0.399 OA 
HETATM    6  N   UNL     1      -9.424  11.996  64.992  1.00  0.00    -0.439 N  
HETATM    7  H   UNL     1      -8.861  12.753  65.379  1.00  0.00     0.000 HD 
BRANCH   6   8
HETATM    8  C   UNL     1      -9.099  10.704  65.159  1.00  0.00    -0.201 A  
HETATM    9  C   UNL     1      -9.419   9.891  66.220  1.00  0.00    -0.193 A  
HETATM   10  N   UNL     1      -9.007   8.639  65.838  1.00  0.00    -0.189 NA 
HETATM   11  O   UNL     1      -8.411   9.953  64.234  1.00  0.00    -0.144 OA 
HETATM   12  N   UNL     1      -8.372   8.620  64.677  1.00  0.00    -0.165 NA 
BRANCH  10  13
HETATM   13  N   UNL     1      -9.370   7.425  66.491  1.00  0.00    -0.175 NA 
HETATM   14  C   UNL     1      -9.914   7.413  67.839  1.00  0.00    -0.165 C  
HETATM   15  C   UNL     1     -10.910   6.251  67.941  1.00  0.00    -0.333 C  
HETATM   16  O   UNL     1     -10.292   5.013  67.567  1.00  0.00    -0.160 OA 
HETATM   17  C   UNL     1      -9.798   5.065  66.223  1.00  0.00    -0.200 C  
HETATM   18  C   UNL     1      -8.754   6.175  66.073  1.00  0.00    -0.153 C  
ENDBRANCH  10  13
ENDBRANCH   6   8
ENDBRANCH   3   4
ENDBRANCH   2   3
TORSDOF 4
ENDMDL
MODEL      109
REMARK 921   NORMALIZED FREE ENERGY PREDICTED BY IDOCK:   -3.50 KCAL/MOL
REMARK 922        TOTAL FREE ENERGY PREDICTED BY IDOCK:   -4.59 KCAL/MOL
REMARK 923 INTER-LIGAND FREE ENERGY PREDICTED BY IDOCK:   -4.24 KCAL/MOL
REMARK 924 INTRA-LIGAND FREE ENERGY PREDICTED BY IDOCK:   -0.35 KCAL/MOL
REMARK 927      BINDING AFFINITY PREDICTED BY RF-SCORE:    0.00 PKD
ROOT
HETATM    1  C   UNL     1     -10.118   4.512  65.847  1.00  0.00    -0.279 C  
HETATM    2  C   UNL     1     -10.474   5.639  66.799  1.00  0.00    -0.291 C  
ENDROOT
BRANCH   2   3
HETATM    3  O   UNL     1      -9.278   6.294  67.246  1.00  0.00    -0.118 OA 
BRANCH   3   4
HETATM    4  C   UNL     1      -9.162   7.613  66.930  1.00  0.00    -0.145 C  
HETATM    5  O   UNL     1      -8.092   8.219  66.966  1.00  0.00    -0.102 OA 
HETATM    6  N   UNL     1     -10.363   8.086  66.573  1.00  0.00    -0.468 N  
HETATM    7  H   UNL     1     -11.188   7.489  66.519  1.00  0.00     0.000 HD 
BRANCH   6   8
HETATM    8  C   UNL     1     -10.409   9.398  66.290  1.00  0.00    -0.141 A  
HETATM    9  C   UNL     1     -10.851  10.414  67.103  1.00  0.00    -0.238 A  
HETATM   10  N   UNL     1     -10.537  11.565  66.425  1.00  0.00    -0.250 NA 
HETATM   11  O   UNL     1      -9.956   9.953  65.115  1.00  0.00    -0.318 OA 
HETATM   12  N   UNL     1     -10.030  11.352  65.221  1.00  0.00    -0.246 NA 
BRANCH  10  13
HETATM   13  N   UNL     1     -10.554  12.874  66.988  1.00  0.00    -0.251 NA 
HETATM   14  C   UNL     1     -11.797  13.569  67.278  1.00  0.00    -0.385 C  
HETATM   15  C   UNL     1     -11.577  14.442  68.520  1.00  0.00    -0.314 C  
HETATM   16  O   UNL     1     -10.465  15.326  68.334  1.00  0.00    -0.229 OA 
HETATM   17  C   UNL     1      -9.259  14.594  68.079  1.00  0.00    -0.197 C  
HETATM   18  C   UNL     1      -9.399  13.743  66.814  1.00  0.00    -0.266 C  
ENDBRANCH  10  13
ENDBRANCH   6   8
ENDBRANCH   3   4
ENDBRANCH   2   3
TORSDOF 4
ENDMDL
MODEL      110
REMARK 921   NORMALIZED FREE ENERGY PREDICTED BY IDOCK:   -3.49 KCAL/MOL
REMARK 922        TOTAL FREE ENERGY PREDICTED BY IDOCK:   -4.58 KCAL/MOL
REMARK 923 INTER-LIGAND FREE ENERGY PREDICTED BY IDOCK:   -4.21 KCAL/MOL
REMARK 924 INTRA-LIGAND FREE ENERGY PREDICTED BY IDOCK:   -0.37 KCAL/MOL
REMARK 927      BINDING AFFINITY PREDICTED BY RF-SCORE:    0.00 PKD
ROOT
HETATM    1  C   UNL     1      -8.936  11.079  62.502  1.00  0.00    -0.366 C  
HETATM    2  C   UNL     1      -9.724  10.277  63.520  1.00  0.00    -0.193 C  
ENDROOT
BRANCH   2   3
HETATM    3  O   UNL     1     -10.706  11.115  64.145  1.00  0.00    -0.368 OA 
BRANCH   3   4
HETATM    4  C   UNL     1     -10.753  11.075  65.505  1.00  0.00    -0.148 C  
HETATM    5  O   UNL     1     -11.430  11.854  66.175  1.00  0.00    -0.343 OA 
HETATM    6  N   UNL     1      -9.985  10.068  65.941  1.00  0.00    -0.265 N  
HETATM    7  H   UNL     1      -9.504   9.435  65.302  1.00  0.00     0.000 HD 
BRANCH   6   8
HETATM    8  C   UNL     1      -9.891   9.947  67.275  1.00  0.00    -0.182 A  
HETATM    9  C   UNL     1     -10.624   9.123  68.095  1.00  0.00    -0.183 A  
HETATM   10  N   UNL     1     -10.038   9.248  69.329  1.00  0.00    -0.192 NA 
HETATM   11  O   UNL     1      -8.975  10.621  68.050  1.00  0.00    -0.135 OA 
HETATM   12  N   UNL     1      -9.070  10.149  69.370  1.00  0.00    -0.199 NA 
BRANCH  10  13
HETATM   13  N   UNL     1     -10.277   8.383  70.437  1.00  0.00    -0.194 NA 
HETATM   14  C   UNL     1     -10.101   8.828  71.809  1.00  0.00    -0.333 C  
HETATM   15  C   UNL     1     -11.135   8.104  72.681  1.00  0.00    -0.380 C  
HETATM   16  O   UNL     1     -11.028   6.683  72.528  1.00  0.00    -0.229 OA 
HETATM   17  C   UNL     1     -11.236   6.292  71.165  1.00  0.00    -0.305 C  
HETATM   18  C   UNL     1     -10.195   6.942  70.250  1.00  0.00    -0.192 C  
ENDBRANCH  10  13
ENDBRANCH   6   8
ENDBRANCH   3   4
ENDBRANCH   2   3
TORSDOF 4
ENDMDL
MODEL      111
REMARK 921   NORMALIZED FREE ENERGY PREDICTED BY IDOCK:   -3.46 KCAL/MOL
REMARK 922        TOTAL FREE ENERGY PREDICTED BY IDOCK:   -4.54 KCAL/MOL
REMARK 923 INTER-LIGAND FREE ENERGY PREDICTED BY IDOCK:   -4.23 KCAL/MOL
REMARK 924 INTRA-LIGAND FREE ENERGY PREDICTED BY IDOCK:   -0.31 KCAL/MOL
REMARK 927      BINDING AFFINITY PREDICTED BY RF-SCORE:    0.00 PKD
ROOT
HETATM    1  C   UNL     1     -13.247   9.547  72.330  1.00  0.00    -0.507 C  
HETATM    2  C   UNL     1     -13.217  10.533  71.177  1.00  0.00    -0.269 C  
ENDROOT
BRANCH   2   3
HETATM    3  O   UNL     1     -12.767  11.813  71.645  1.00  0.00    -0.328 OA 
BRANCH   3   4
HETATM    4  C   UNL     1     -12.337  12.684  70.691  1.00  0.00    -0.290 C  
HETATM    5  O   UNL     1     -12.241  12.382  69.503  1.00  0.00    -0.208 OA 
HETATM    6  N   UNL     1     -12.081  13.869  71.262  1.00  0.00    -0.422 N  
HETATM    7  H   UNL     1     -12.247  14.041  72.254  1.00  0.00     0.000 HD 
BRANCH   6   8
HETATM    8  C   UNL     1     -11.590  14.812  70.443  1.00  0.00    -0.279 A  
HETATM    9  C   UNL     1     -10.272  15.061  70.147  1.00  0.00     0.021 A  
HETATM   10  N   UNL     1     -10.309  15.999  69.146  1.00  0.00    -0.230 NA 
HETATM   11  O   UNL     1     -12.367  15.678  69.707  1.00  0.00    -0.333 OA 
HETATM   12  N   UNL     1     -11.529  16.427  68.864  1.00  0.00    -0.276 NA 
BRANCH  10  13
HETATM   13  N   UNL     1      -9.200  16.366  68.330  1.00  0.00    -0.202 NA 
HETATM   14  C   UNL     1      -8.615  15.442  67.372  1.00  0.00    -0.179 C  
HETATM   15  C   UNL     1      -8.107  16.256  66.174  1.00  0.00    -0.095 C  
HETATM   16  O   UNL     1      -7.202  17.282  66.599  1.00  0.00    -0.191 OA 
HETATM   17  C   UNL     1      -7.833  18.182  67.518  1.00  0.00    -0.222 C  
HETATM   18  C   UNL     1      -8.312  17.434  68.765  1.00  0.00    -0.223 C  
ENDBRANCH  10  13
ENDBRANCH   6   8
ENDBRANCH   3   4
ENDBRANCH   2   3
TORSDOF 4
ENDMDL
MODEL      112
REMARK 921   NORMALIZED FREE ENERGY PREDICTED BY IDOCK:   -3.43 KCAL/MOL
REMARK 922        TOTAL FREE ENERGY PREDICTED BY IDOCK:   -4.51 KCAL/MOL
REMARK 923 INTER-LIGAND FREE ENERGY PREDICTED BY IDOCK:   -4.14 KCAL/MOL
REMARK 924 INTRA-LIGAND FREE ENERGY PREDICTED BY IDOCK:   -0.37 KCAL/MOL
REMARK 927      BINDING AFFINITY PREDICTED BY RF-SCORE:    0.00 PKD
ROOT
HETATM    1  C   UNL     1     -12.695  12.436  71.174  1.00  0.00    -0.336 C  
HETATM    2  C   UNL     1     -12.820  10.926  71.087  1.00  0.00    -0.409 C  
ENDROOT
BRANCH   2   3
HETATM    3  O   UNL     1     -11.649  10.377  70.466  1.00  0.00    -0.296 OA 
BRANCH   3   4
HETATM    4  C   UNL     1     -11.010   9.391  71.154  1.00  0.00    -0.360 C  
HETATM    5  O   UNL     1      -9.792   9.229  71.116  1.00  0.00    -0.285 OA 
HETATM    6  N   UNL     1     -11.912   8.691  71.856  1.00  0.00    -0.331 N  
HETATM    7  H   UNL     1     -12.901   8.939  71.869  1.00  0.00     0.000 HD 
BRANCH   6   8
HETATM    8  C   UNL     1     -11.426   7.644  72.540  1.00  0.00    -0.352 A  
HETATM    9  C   UNL     1     -11.383   6.329  72.140  1.00  0.00    -0.297 A  
HETATM   10  N   UNL     1     -10.650   5.693  73.110  1.00  0.00    -0.229 NA 
HETATM   11  O   UNL     1     -10.829   7.737  73.777  1.00  0.00    -0.170 OA 
HETATM   12  N   UNL     1     -10.319   6.474  74.125  1.00  0.00    -0.354 NA 
BRANCH  10  13
HETATM   13  N   UNL     1     -10.109   4.380  72.994  1.00  0.00    -0.148 NA 
HETATM   14  C   UNL     1     -10.347   3.359  74.002  1.00  0.00    -0.167 C  
HETATM   15  C   UNL     1     -10.405   1.998  73.297  1.00  0.00    -0.117 C  
HETATM   16  O   UNL     1      -9.218   1.769  72.528  1.00  0.00    -0.071 OA 
HETATM   17  C   UNL     1      -9.043   2.783  71.531  1.00  0.00    -0.102 C  
HETATM   18  C   UNL     1      -8.922   4.165  72.180  1.00  0.00    -0.115 C  
ENDBRANCH  10  13
ENDBRANCH   6   8
ENDBRANCH   3   4
ENDBRANCH   2   3
TORSDOF 4
ENDMDL
MODEL      113
REMARK 921   NORMALIZED FREE ENERGY PREDICTED BY IDOCK:   -3.42 KCAL/MOL
REMARK 922        TOTAL FREE ENERGY PREDICTED BY IDOCK:   -4.49 KCAL/MOL
REMARK 923 INTER-LIGAND FREE ENERGY PREDICTED BY IDOCK:   -4.18 KCAL/MOL
REMARK 924 INTRA-LIGAND FREE ENERGY PREDICTED BY IDOCK:   -0.31 KCAL/MOL
REMARK 927      BINDING AFFINITY PREDICTED BY RF-SCORE:    0.00 PKD
ROOT
HETATM    1  C   UNL     1      -6.730   8.817  65.512  1.00  0.00    -0.071 C  
HETATM    2  C   UNL     1      -7.055  10.205  64.994  1.00  0.00    -0.135 C  
ENDROOT
BRANCH   2   3
HETATM    3  O   UNL     1      -8.420  10.528  65.293  1.00  0.00    -0.168 OA 
BRANCH   3   4
HETATM    4  C   UNL     1      -8.624  11.344  66.364  1.00  0.00    -0.174 C  
HETATM    5  O   UNL     1      -8.381  11.004  67.521  1.00  0.00    -0.116 OA 
HETATM    6  N   UNL     1      -9.089  12.525  65.934  1.00  0.00    -0.432 N  
HETATM    7  H   UNL     1      -9.205  12.735  64.943  1.00  0.00     0.000 HD 
BRANCH   6   8
HETATM    8  C   UNL     1      -9.392  13.412  66.895  1.00  0.00    -0.252 A  
HETATM    9  C   UNL     1     -10.588  13.555  67.556  1.00  0.00    -0.244 A  
HETATM   10  N   UNL     1     -10.334  14.473  68.544  1.00  0.00    -0.236 NA 
HETATM   11  O   UNL     1      -8.499  14.319  67.420  1.00  0.00    -0.179 OA 
HETATM   12  N   UNL     1      -9.115  14.985  68.493  1.00  0.00    -0.181 NA 
BRANCH  10  13
HETATM   13  N   UNL     1     -11.192  14.739  69.651  1.00  0.00    -0.266 NA 
HETATM   14  C   UNL     1     -12.385  13.947  69.904  1.00  0.00    -0.300 C  
HETATM   15  C   UNL     1     -12.593  13.872  71.422  1.00  0.00    -0.361 C  
HETATM   16  O   UNL     1     -12.650  15.183  71.996  1.00  0.00    -0.307 OA 
HETATM   17  C   UNL     1     -11.442  15.912  71.744  1.00  0.00    -0.369 C  
HETATM   18  C   UNL     1     -11.209  16.070  70.239  1.00  0.00    -0.389 C  
ENDBRANCH  10  13
ENDBRANCH   6   8
ENDBRANCH   3   4
ENDBRANCH   2   3
TORSDOF 4
ENDMDL
MODEL      114
REMARK 921   NORMALIZED FREE ENERGY PREDICTED BY IDOCK:   -3.42 KCAL/MOL
REMARK 922        TOTAL FREE ENERGY PREDICTED BY IDOCK:   -4.49 KCAL/MOL
REMARK 923 INTER-LIGAND FREE ENERGY PREDICTED BY IDOCK:   -4.25 KCAL/MOL
REMARK 924 INTRA-LIGAND FREE ENERGY PREDICTED BY IDOCK:   -0.23 KCAL/MOL
REMARK 927      BINDING AFFINITY PREDICTED BY RF-SCORE:    0.00 PKD
ROOT
HETATM    1  C   UNL     1     -10.121  17.576  68.980  1.00  0.00    -0.291 C  
HETATM    2  C   UNL     1     -10.240  16.174  69.548  1.00  0.00    -0.261 C  
ENDROOT
BRANCH   2   3
HETATM    3  O   UNL     1     -11.445  15.557  69.071  1.00  0.00    -0.306 OA 
BRANCH   3   4
HETATM    4  C   UNL     1     -11.364  14.935  67.862  1.00  0.00    -0.327 C  
HETATM    5  O   UNL     1     -11.475  15.533  66.793  1.00  0.00    -0.142 OA 
HETATM    6  N   UNL     1     -11.130  13.631  68.055  1.00  0.00    -0.253 N  
HETATM    7  H   UNL     1     -10.995  13.234  68.985  1.00  0.00     0.000 HD 
BRANCH   6   8
HETATM    8  C   UNL     1     -11.084  12.880  66.943  1.00  0.00    -0.278 A  
HETATM    9  C   UNL     1      -9.984  12.591  66.172  1.00  0.00    -0.255 A  
HETATM   10  N   UNL     1     -10.428  11.664  65.263  1.00  0.00    -0.263 NA 
HETATM   11  O   UNL     1     -12.168  12.219  66.410  1.00  0.00    -0.613 OA 
HETATM   12  N   UNL     1     -11.727  11.427  65.337  1.00  0.00     0.002 NA 
BRANCH  10  13
HETATM   13  N   UNL     1      -9.586  10.866  64.434  1.00  0.00    -0.244 NA 
HETATM   14  C   UNL     1      -9.706  10.876  62.985  1.00  0.00    -0.350 C  
HETATM   15  C   UNL     1      -8.308  10.664  62.390  1.00  0.00    -0.226 C  
HETATM   16  O   UNL     1      -7.711   9.466  62.901  1.00  0.00    -0.114 OA 
HETATM   17  C   UNL     1      -7.588   9.517  64.328  1.00  0.00    -0.122 C  
HETATM   18  C   UNL     1      -8.963   9.672  64.984  1.00  0.00    -0.212 C  
ENDBRANCH  10  13
ENDBRANCH   6   8
ENDBRANCH   3   4
ENDBRANCH   2   3
TORSDOF 4
ENDMDL
MODEL      115
REMARK 921   NORMALIZED FREE ENERGY PREDICTED BY IDOCK:   -3.40 KCAL/MOL
REMARK 922        TOTAL FREE ENERGY PREDICTED BY IDOCK:   -4.47 KCAL/MOL
REMARK 923 INTER-LIGAND FREE ENERGY PREDICTED BY IDOCK:   -4.14 KCAL/MOL
REMARK 924 INTRA-LIGAND FREE ENERGY PREDICTED BY IDOCK:   -0.33 KCAL/MOL
REMARK 927      BINDING AFFINITY PREDICTED BY RF-SCORE:    0.00 PKD
ROOT
HETATM    1  C   UNL     1      -9.963   3.722  62.633  1.00  0.00    -0.143 C  
HETATM    2  C   UNL     1     -10.674   3.906  63.961  1.00  0.00    -0.208 C  
ENDROOT
BRANCH   2   3
HETATM    3  O   UNL     1      -9.893   3.323  65.014  1.00  0.00    -0.130 OA 
BRANCH   3   4
HETATM    4  C   UNL     1      -9.767   4.065  66.149  1.00  0.00    -0.186 C  
HETATM    5  O   UNL     1      -9.469   3.577  67.238  1.00  0.00    -0.200 OA 
HETATM    6  N   UNL     1      -9.991   5.353  65.858  1.00  0.00    -0.360 N  
HETATM    7  H   UNL     1     -10.176   5.672  64.907  1.00  0.00     0.000 HD 
BRANCH   6   8
HETATM    8  C   UNL     1      -9.957   6.197  66.902  1.00  0.00    -0.168 A  
HETATM    9  C   UNL     1     -10.963   6.458  67.801  1.00  0.00    -0.332 A  
HETATM   10  N   UNL     1     -10.380   7.250  68.758  1.00  0.00    -0.196 NA 
HETATM   11  O   UNL     1      -8.848   6.921  67.276  1.00  0.00    -0.118 OA 
HETATM   12  N   UNL     1      -9.130   7.583  68.483  1.00  0.00    -0.134 NA 
BRANCH  10  13
HETATM   13  N   UNL     1     -10.952   7.548  70.029  1.00  0.00    -0.257 NA 
HETATM   14  C   UNL     1     -10.518   8.692  70.815  1.00  0.00    -0.204 C  
HETATM   15  C   UNL     1     -11.729   9.223  71.593  1.00  0.00    -0.392 C  
HETATM   16  O   UNL     1     -12.326   8.186  72.381  1.00  0.00    -0.337 OA 
HETATM   17  C   UNL     1     -12.762   7.096  71.559  1.00  0.00    -0.393 C  
HETATM   18  C   UNL     1     -11.582   6.486  70.798  1.00  0.00    -0.377 C  
ENDBRANCH  10  13
ENDBRANCH   6   8
ENDBRANCH   3   4
ENDBRANCH   2   3
TORSDOF 4
ENDMDL
MODEL      116
REMARK 921   NORMALIZED FREE ENERGY PREDICTED BY IDOCK:   -3.40 KCAL/MOL
REMARK 922        TOTAL FREE ENERGY PREDICTED BY IDOCK:   -4.47 KCAL/MOL
REMARK 923 INTER-LIGAND FREE ENERGY PREDICTED BY IDOCK:   -4.16 KCAL/MOL
REMARK 924 INTRA-LIGAND FREE ENERGY PREDICTED BY IDOCK:   -0.31 KCAL/MOL
REMARK 927      BINDING AFFINITY PREDICTED BY RF-SCORE:    0.00 PKD
ROOT
HETATM    1  C   UNL     1      -9.751   4.043  71.124  1.00  0.00    -0.257 C  
HETATM    2  C   UNL     1     -10.454   5.231  71.755  1.00  0.00    -0.214 C  
ENDROOT
BRANCH   2   3
HETATM    3  O   UNL     1      -9.767   6.442  71.408  1.00  0.00    -0.172 OA 
BRANCH   3   4
HETATM    4  C   UNL     1     -10.429   7.289  70.572  1.00  0.00    -0.217 C  
HETATM    5  O   UNL     1     -11.640   7.222  70.371  1.00  0.00    -0.279 OA 
HETATM    6  N   UNL     1      -9.558   8.171  70.063  1.00  0.00    -0.171 N  
HETATM    7  H   UNL     1      -8.575   8.184  70.336  1.00  0.00     0.000 HD 
BRANCH   6   8
HETATM    8  C   UNL     1     -10.065   9.037  69.171  1.00  0.00    -0.195 A  
HETATM    9  C   UNL     1     -10.284  10.383  69.341  1.00  0.00    -0.234 A  
HETATM   10  N   UNL     1     -10.650  10.837  68.099  1.00  0.00    -0.189 NA 
HETATM   11  O   UNL     1     -10.412   8.704  67.881  1.00  0.00    -0.228 OA 
HETATM   12  N   UNL     1     -10.772   9.877  67.196  1.00  0.00    -0.238 NA 
BRANCH  10  13
HETATM   13  N   UNL     1     -10.712  12.209  67.717  1.00  0.00    -0.204 NA 
HETATM   14  C   UNL     1     -11.574  12.667  66.640  1.00  0.00    -0.381 C  
HETATM   15  C   UNL     1     -12.058  14.081  66.985  1.00  0.00    -0.420 C  
HETATM   16  O   UNL     1     -10.950  14.954  67.235  1.00  0.00    -0.305 OA 
HETATM   17  C   UNL     1     -10.149  14.476  68.322  1.00  0.00    -0.232 C  
HETATM   18  C   UNL     1      -9.588  13.085  68.011  1.00  0.00    -0.224 C  
ENDBRANCH  10  13
ENDBRANCH   6   8
ENDBRANCH   3   4
ENDBRANCH   2   3
TORSDOF 4
ENDMDL
MODEL      117
REMARK 921   NORMALIZED FREE ENERGY PREDICTED BY IDOCK:   -3.39 KCAL/MOL
REMARK 922        TOTAL FREE ENERGY PREDICTED BY IDOCK:   -4.46 KCAL/MOL
REMARK 923 INTER-LIGAND FREE ENERGY PREDICTED BY IDOCK:   -4.13 KCAL/MOL
REMARK 924 INTRA-LIGAND FREE ENERGY PREDICTED BY IDOCK:   -0.33 KCAL/MOL
REMARK 927      BINDING AFFINITY PREDICTED BY RF-SCORE:    0.00 PKD
ROOT
HETATM    1  C   UNL     1     -10.856  14.674  69.282  1.00  0.00    -0.272 C  
HETATM    2  C   UNL     1     -12.145  14.431  68.520  1.00  0.00    -0.243 C  
ENDROOT
BRANCH   2   3
HETATM    3  O   UNL     1     -11.931  14.657  67.119  1.00  0.00    -0.391 OA 
BRANCH   3   4
HETATM    4  C   UNL     1     -11.055  13.816  66.502  1.00  0.00    -0.306 C  
HETATM    5  O   UNL     1      -9.973  14.189  66.053  1.00  0.00    -0.301 OA 
HETATM    6  N   UNL     1     -11.562  12.576  66.504  1.00  0.00    -0.369 N  
HETATM    7  H   UNL     1     -12.448  12.352  66.956  1.00  0.00     0.000 HD 
BRANCH   6   8
HETATM    8  C   UNL     1     -10.825  11.649  65.872  1.00  0.00    -0.287 A  
HETATM    9  C   UNL     1     -10.041  10.673  66.440  1.00  0.00    -0.225 A  
HETATM   10  N   UNL     1      -9.640   9.890  65.386  1.00  0.00    -0.266 NA 
HETATM   11  O   UNL     1     -10.779  11.496  64.505  1.00  0.00    -0.299 OA 
HETATM   12  N   UNL     1     -10.025  10.349  64.206  1.00  0.00    -0.330 NA 
BRANCH  10  13
HETATM   13  N   UNL     1      -9.039   8.603  65.508  1.00  0.00    -0.171 NA 
HETATM   14  C   UNL     1      -9.199   7.793  66.704  1.00  0.00    -0.177 C  
HETATM   15  C   UNL     1      -9.211   6.318  66.283  1.00  0.00    -0.145 C  
HETATM   16  O   UNL     1      -8.037   5.991  65.529  1.00  0.00    -0.118 OA 
HETATM   17  C   UNL     1      -7.940   6.796  64.347  1.00  0.00    -0.096 C  
HETATM   18  C   UNL     1      -7.867   8.282  64.708  1.00  0.00    -0.129 C  
ENDBRANCH  10  13
ENDBRANCH   6   8
ENDBRANCH   3   4
ENDBRANCH   2   3
TORSDOF 4
ENDMDL
MODEL      118
REMARK 921   NORMALIZED FREE ENERGY PREDICTED BY IDOCK:   -3.38 KCAL/MOL
REMARK 922        TOTAL FREE ENERGY PREDICTED BY IDOCK:   -4.44 KCAL/MOL
REMARK 923 INTER-LIGAND FREE ENERGY PREDICTED BY IDOCK:   -4.15 KCAL/MOL
REMARK 924 INTRA-LIGAND FREE ENERGY PREDICTED BY IDOCK:   -0.30 KCAL/MOL
REMARK 927      BINDING AFFINITY PREDICTED BY RF-SCORE:    0.00 PKD
ROOT
HETATM    1  C   UNL     1     -11.569  14.002  67.657  1.00  0.00    -0.385 C  
HETATM    2  C   UNL     1     -11.780  12.786  66.775  1.00  0.00    -0.392 C  
ENDROOT
BRANCH   2   3
HETATM    3  O   UNL     1     -12.252  11.687  67.568  1.00  0.00    -0.501 OA 
BRANCH   3   4
HETATM    4  C   UNL     1     -11.312  10.790  67.973  1.00  0.00    -0.307 C  
HETATM    5  O   UNL     1     -10.288  10.558  67.331  1.00  0.00    -0.199 OA 
HETATM    6  N   UNL     1     -11.686  10.260  69.145  1.00  0.00    -0.491 N  
HETATM    7  H   UNL     1     -12.531  10.560  69.632  1.00  0.00     0.000 HD 
BRANCH   6   8
HETATM    8  C   UNL     1     -10.875   9.310  69.636  1.00  0.00    -0.212 A  
HETATM    9  C   UNL     1     -10.075   9.386  70.751  1.00  0.00    -0.298 A  
HETATM   10  N   UNL     1      -9.585   8.115  70.917  1.00  0.00    -0.160 NA 
HETATM   11  O   UNL     1     -10.754   8.046  69.106  1.00  0.00    -0.199 OA 
HETATM   12  N   UNL     1      -9.931   7.281  69.950  1.00  0.00    -0.182 NA 
BRANCH  10  13
HETATM   13  N   UNL     1      -8.930   7.640  72.091  1.00  0.00    -0.128 NA 
HETATM   14  C   UNL     1      -7.488   7.731  72.254  1.00  0.00    -0.083 C  
HETATM   15  C   UNL     1      -7.190   7.949  73.743  1.00  0.00    -0.134 C  
HETATM   16  O   UNL     1      -7.788   6.919  74.541  1.00  0.00    -0.116 OA 
HETATM   17  C   UNL     1      -9.210   6.889  74.367  1.00  0.00    -0.212 C  
HETATM   18  C   UNL     1      -9.571   6.618  72.904  1.00  0.00    -0.149 C  
ENDBRANCH  10  13
ENDBRANCH   6   8
ENDBRANCH   3   4
ENDBRANCH   2   3
TORSDOF 4
ENDMDL
MODEL      119
REMARK 921   NORMALIZED FREE ENERGY PREDICTED BY IDOCK:   -3.34 KCAL/MOL
REMARK 922        TOTAL FREE ENERGY PREDICTED BY IDOCK:   -4.39 KCAL/MOL
REMARK 923 INTER-LIGAND FREE ENERGY PREDICTED BY IDOCK:   -4.01 KCAL/MOL
REMARK 924 INTRA-LIGAND FREE ENERGY PREDICTED BY IDOCK:   -0.38 KCAL/MOL
REMARK 927      BINDING AFFINITY PREDICTED BY RF-SCORE:    0.00 PKD
ROOT
HETATM    1  C   UNL     1     -12.008  14.384  68.981  1.00  0.00    -0.342 C  
HETATM    2  C   UNL     1     -10.701  13.633  68.808  1.00  0.00    -0.244 C  
ENDROOT
BRANCH   2   3
HETATM    3  O   UNL     1     -10.861  12.599  67.826  1.00  0.00    -0.212 OA 
BRANCH   3   4
HETATM    4  C   UNL     1     -10.827  11.319  68.291  1.00  0.00    -0.205 C  
HETATM    5  O   UNL     1     -11.684  10.482  68.012  1.00  0.00    -0.450 OA 
HETATM    6  N   UNL     1      -9.731  11.155  69.044  1.00  0.00    -0.371 N  
HETATM    7  H   UNL     1      -9.043  11.898  69.171  1.00  0.00     0.000 HD 
BRANCH   6   8
HETATM    8  C   UNL     1      -9.598   9.949  69.618  1.00  0.00    -0.227 A  
HETATM    9  C   UNL     1      -9.952   9.587  70.896  1.00  0.00    -0.238 A  
HETATM   10  N   UNL     1      -9.772   8.227  70.936  1.00  0.00    -0.169 NA 
HETATM   11  O   UNL     1      -9.113   8.834  68.974  1.00  0.00    -0.140 OA 
HETATM   12  N   UNL     1      -9.245   7.728  69.830  1.00  0.00    -0.150 NA 
BRANCH  10  13
HETATM   13  N   UNL     1     -10.265   7.369  71.962  1.00  0.00    -0.189 NA 
HETATM   14  C   UNL     1     -11.624   6.853  71.943  1.00  0.00    -0.286 C  
HETATM   15  C   UNL     1     -11.612   5.454  72.570  1.00  0.00    -0.159 C  
HETATM   16  O   UNL     1     -11.036   5.486  73.882  1.00  0.00    -0.221 OA 
HETATM   17  C   UNL     1      -9.689   5.974  73.844  1.00  0.00    -0.180 C  
HETATM   18  C   UNL     1      -9.643   7.395  73.277  1.00  0.00    -0.232 C  
ENDBRANCH  10  13
ENDBRANCH   6   8
ENDBRANCH   3   4
ENDBRANCH   2   3
TORSDOF 4
ENDMDL
MODEL      120
REMARK 921   NORMALIZED FREE ENERGY PREDICTED BY IDOCK:   -3.33 KCAL/MOL
REMARK 922        TOTAL FREE ENERGY PREDICTED BY IDOCK:   -4.37 KCAL/MOL
REMARK 923 INTER-LIGAND FREE ENERGY PREDICTED BY IDOCK:   -4.04 KCAL/MOL
REMARK 924 INTRA-LIGAND FREE ENERGY PREDICTED BY IDOCK:   -0.34 KCAL/MOL
REMARK 927      BINDING AFFINITY PREDICTED BY RF-SCORE:    0.00 PKD
ROOT
HETATM    1  C   UNL     1     -11.859  14.517  68.842  1.00  0.00    -0.359 C  
HETATM    2  C   UNL     1     -12.641  13.848  69.957  1.00  0.00    -0.169 C  
ENDROOT
BRANCH   2   3
HETATM    3  O   UNL     1     -11.863  12.785  70.527  1.00  0.00    -0.253 OA 
BRANCH   3   4
HETATM    4  C   UNL     1     -11.863  11.608  69.843  1.00  0.00    -0.358 C  
HETATM    5  O   UNL     1     -12.889  10.977  69.596  1.00  0.00    -0.168 OA 
HETATM    6  N   UNL     1     -10.606  11.304  69.494  1.00  0.00    -0.439 N  
HETATM    7  H   UNL     1      -9.821  11.923  69.696  1.00  0.00     0.000 HD 
BRANCH   6   8
HETATM    8  C   UNL     1     -10.448  10.131  68.861  1.00  0.00    -0.210 A  
HETATM    9  C   UNL     1     -10.065   8.929  69.407  1.00  0.00    -0.202 A  
HETATM   10  N   UNL     1     -10.217   8.019  68.392  1.00  0.00    -0.203 NA 
HETATM   11  O   UNL     1     -10.705   9.933  67.523  1.00  0.00    -0.258 OA 
HETATM   12  N   UNL     1     -10.567   8.564  67.238  1.00  0.00    -0.288 NA 
BRANCH  10  13
HETATM   13  N   UNL     1     -10.204   6.603  68.556  1.00  0.00    -0.160 NA 
HETATM   14  C   UNL     1     -10.085   5.701  67.422  1.00  0.00    -0.173 C  
HETATM   15  C   UNL     1      -9.303   4.462  67.879  1.00  0.00    -0.149 C  
HETATM   16  O   UNL     1      -9.922   3.859  69.022  1.00  0.00    -0.034 OA 
HETATM   17  C   UNL     1      -9.990   4.778  70.120  1.00  0.00    -0.251 C  
HETATM   18  C   UNL     1     -10.810   6.015  69.741  1.00  0.00    -0.363 C  
ENDBRANCH  10  13
ENDBRANCH   6   8
ENDBRANCH   3   4
ENDBRANCH   2   3
TORSDOF 4
ENDMDL
MODEL      121
REMARK 921   NORMALIZED FREE ENERGY PREDICTED BY IDOCK:   -3.32 KCAL/MOL
REMARK 922        TOTAL FREE ENERGY PREDICTED BY IDOCK:   -4.37 KCAL/MOL
REMARK 923 INTER-LIGAND FREE ENERGY PREDICTED BY IDOCK:   -4.29 KCAL/MOL
REMARK 924 INTRA-LIGAND FREE ENERGY PREDICTED BY IDOCK:   -0.08 KCAL/MOL
REMARK 927      BINDING AFFINITY PREDICTED BY RF-SCORE:    0.00 PKD
ROOT
HETATM    1  C   UNL     1     -10.615  16.971  67.639  1.00  0.00    -0.333 C  
HETATM    2  C   UNL     1      -9.661  16.086  66.859  1.00  0.00    -0.226 C  
ENDROOT
BRANCH   2   3
HETATM    3  O   UNL     1     -10.376  15.393  65.826  1.00  0.00    -0.310 OA 
BRANCH   3   4
HETATM    4  C   UNL     1     -10.490  14.044  65.975  1.00  0.00    -0.304 C  
HETATM    5  O   UNL     1     -10.418  13.259  65.031  1.00  0.00    -0.320 OA 
HETATM    6  N   UNL     1     -10.659  13.759  67.272  1.00  0.00    -0.273 N  
HETATM    7  H   UNL     1     -10.647  14.480  67.994  1.00  0.00     0.000 HD 
BRANCH   6   8
HETATM    8  C   UNL     1     -10.845  12.461  67.560  1.00  0.00    -0.236 A  
HETATM    9  C   UNL     1     -10.036  11.646  68.316  1.00  0.00    -0.201 A  
HETATM   10  N   UNL     1     -10.742  10.477  68.447  1.00  0.00    -0.207 NA 
HETATM   11  O   UNL     1     -11.943  11.730  67.167  1.00  0.00    -0.617 OA 
HETATM   12  N   UNL     1     -11.872  10.458  67.759  1.00  0.00    -0.018 NA 
BRANCH  10  13
HETATM   13  N   UNL     1     -10.432   9.436  69.370  1.00  0.00    -0.213 NA 
HETATM   14  C   UNL     1     -10.553   8.032  69.012  1.00  0.00    -0.154 C  
HETATM   15  C   UNL     1      -9.463   7.254  69.762  1.00  0.00    -0.149 C  
HETATM   16  O   UNL     1      -9.546   7.488  71.173  1.00  0.00    -0.159 OA 
HETATM   17  C   UNL     1      -9.394   8.880  71.477  1.00  0.00    -0.265 C  
HETATM   18  C   UNL     1     -10.491   9.706  70.799  1.00  0.00    -0.305 C  
ENDBRANCH  10  13
ENDBRANCH   6   8
ENDBRANCH   3   4
ENDBRANCH   2   3
TORSDOF 4
ENDMDL
MODEL      122
REMARK 921   NORMALIZED FREE ENERGY PREDICTED BY IDOCK:   -3.31 KCAL/MOL
REMARK 922        TOTAL FREE ENERGY PREDICTED BY IDOCK:   -4.35 KCAL/MOL
REMARK 923 INTER-LIGAND FREE ENERGY PREDICTED BY IDOCK:   -4.36 KCAL/MOL
REMARK 924 INTRA-LIGAND FREE ENERGY PREDICTED BY IDOCK:    0.01 KCAL/MOL
REMARK 927      BINDING AFFINITY PREDICTED BY RF-SCORE:    0.00 PKD
ROOT
HETATM    1  C   UNL     1     -11.563  16.199  70.740  1.00  0.00    -0.382 C  
HETATM    2  C   UNL     1     -10.690  16.230  69.499  1.00  0.00    -0.323 C  
ENDROOT
BRANCH   2   3
HETATM    3  O   UNL     1     -11.489  15.965  68.337  1.00  0.00    -0.365 OA 
BRANCH   3   4
HETATM    4  C   UNL     1     -11.318  14.746  67.755  1.00  0.00    -0.330 C  
HETATM    5  O   UNL     1     -11.350  14.575  66.537  1.00  0.00    -0.337 OA 
HETATM    6  N   UNL     1     -11.097  13.831  68.708  1.00  0.00    -0.256 N  
HETATM    7  H   UNL     1     -11.031  14.080  69.696  1.00  0.00     0.000 HD 
BRANCH   6   8
HETATM    8  C   UNL     1     -10.968  12.566  68.279  1.00  0.00    -0.240 A  
HETATM    9  C   UNL     1      -9.876  11.743  68.414  1.00  0.00    -0.199 A  
HETATM   10  N   UNL     1     -10.304  10.519  67.966  1.00  0.00    -0.172 NA 
HETATM   11  O   UNL     1     -11.968  11.855  67.655  1.00  0.00    -0.575 OA 
HETATM   12  N   UNL     1     -11.531  10.532  67.473  1.00  0.00    -0.390 NA 
BRANCH  10  13
HETATM   13  N   UNL     1      -9.611   9.289  68.165  1.00  0.00    -0.141 NA 
HETATM   14  C   UNL     1     -10.312   8.057  68.487  1.00  0.00    -0.199 C  
HETATM   15  C   UNL     1      -9.544   6.891  67.852  1.00  0.00    -0.118 C  
HETATM   16  O   UNL     1      -8.174   6.891  68.274  1.00  0.00    -0.121 OA 
HETATM   17  C   UNL     1      -7.520   8.112  67.909  1.00  0.00    -0.098 C  
HETATM   18  C   UNL     1      -8.211   9.313  68.561  1.00  0.00    -0.114 C  
ENDBRANCH  10  13
ENDBRANCH   6   8
ENDBRANCH   3   4
ENDBRANCH   2   3
TORSDOF 4
ENDMDL
MODEL      123
REMARK 921   NORMALIZED FREE ENERGY PREDICTED BY IDOCK:   -3.30 KCAL/MOL
REMARK 922        TOTAL FREE ENERGY PREDICTED BY IDOCK:   -4.35 KCAL/MOL
REMARK 923 INTER-LIGAND FREE ENERGY PREDICTED BY IDOCK:   -3.94 KCAL/MOL
REMARK 924 INTRA-LIGAND FREE ENERGY PREDICTED BY IDOCK:   -0.41 KCAL/MOL
REMARK 927      BINDING AFFINITY PREDICTED BY RF-SCORE:    0.00 PKD
ROOT
HETATM    1  C   UNL     1     -12.432  12.001  63.463  1.00  0.00    -0.654 C  
HETATM    2  C   UNL     1     -12.096  12.929  64.616  1.00  0.00    -0.418 C  
ENDROOT
BRANCH   2   3
HETATM    3  O   UNL     1     -10.673  13.001  64.783  1.00  0.00    -0.314 OA 
BRANCH   3   4
HETATM    4  C   UNL     1     -10.089  11.950  65.423  1.00  0.00    -0.253 C  
HETATM    5  O   UNL     1      -9.262  11.215  64.887  1.00  0.00    -0.209 OA 
HETATM    6  N   UNL     1     -10.547  11.895  66.681  1.00  0.00    -0.230 N  
HETATM    7  H   UNL     1     -11.194  12.589  67.056  1.00  0.00     0.000 HD 
BRANCH   6   8
HETATM    8  C   UNL     1     -10.097  10.865  67.416  1.00  0.00    -0.191 A  
HETATM    9  C   UNL     1     -10.617   9.594  67.483  1.00  0.00    -0.277 A  
HETATM   10  N   UNL     1      -9.710   8.885  68.230  1.00  0.00    -0.154 NA 
HETATM   11  O   UNL     1      -8.973  10.912  68.208  1.00  0.00    -0.138 OA 
HETATM   12  N   UNL     1      -8.726   9.625  68.715  1.00  0.00    -0.123 NA 
BRANCH  10  13
HETATM   13  N   UNL     1      -9.678   7.465  68.342  1.00  0.00    -0.151 NA 
HETATM   14  C   UNL     1     -10.785   6.635  67.894  1.00  0.00    -0.274 C  
HETATM   15  C   UNL     1     -10.209   5.313  67.372  1.00  0.00    -0.191 C  
HETATM   16  O   UNL     1      -9.394   4.682  68.367  1.00  0.00    -0.122 OA 
HETATM   17  C   UNL     1      -8.302   5.526  68.754  1.00  0.00    -0.102 C  
HETATM   18  C   UNL     1      -8.818   6.844  69.338  1.00  0.00    -0.136 C  
ENDBRANCH  10  13
ENDBRANCH   6   8
ENDBRANCH   3   4
ENDBRANCH   2   3
TORSDOF 4
ENDMDL
MODEL      124
REMARK 921   NORMALIZED FREE ENERGY PREDICTED BY IDOCK:   -3.30 KCAL/MOL
REMARK 922        TOTAL FREE ENERGY PREDICTED BY IDOCK:   -4.34 KCAL/MOL
REMARK 923 INTER-LIGAND FREE ENERGY PREDICTED BY IDOCK:   -3.98 KCAL/MOL
REMARK 924 INTRA-LIGAND FREE ENERGY PREDICTED BY IDOCK:   -0.36 KCAL/MOL
REMARK 927      BINDING AFFINITY PREDICTED BY RF-SCORE:    0.00 PKD
ROOT
HETATM    1  C   UNL     1     -10.336  11.576  63.427  1.00  0.00    -0.469 C  
HETATM    2  C   UNL     1     -11.116  11.609  64.727  1.00  0.00    -0.264 C  
ENDROOT
BRANCH   2   3
HETATM    3  O   UNL     1     -10.225  11.413  65.834  1.00  0.00    -0.230 OA 
BRANCH   3   4
HETATM    4  C   UNL     1     -10.524  10.381  66.671  1.00  0.00    -0.215 C  
HETATM    5  O   UNL     1     -11.314  10.486  67.607  1.00  0.00    -0.394 OA 
HETATM    6  N   UNL     1      -9.848   9.291  66.283  1.00  0.00    -0.273 N  
HETATM    7  H   UNL     1      -9.255   9.286  65.453  1.00  0.00     0.000 HD 
BRANCH   6   8
HETATM    8  C   UNL     1     -10.003   8.207  67.059  1.00  0.00    -0.259 A  
HETATM    9  C   UNL     1      -9.243   7.836  68.141  1.00  0.00    -0.138 A  
HETATM   10  N   UNL     1      -9.904   6.762  68.682  1.00  0.00    -0.141 NA 
HETATM   11  O   UNL     1     -11.019   7.290  66.912  1.00  0.00    -0.343 OA 
HETATM   12  N   UNL     1     -10.952   6.372  67.975  1.00  0.00    -0.314 NA 
BRANCH  10  13
HETATM   13  N   UNL     1      -9.646   6.209  69.970  1.00  0.00    -0.159 NA 
HETATM   14  C   UNL     1      -8.353   6.346  70.619  1.00  0.00    -0.133 C  
HETATM   15  C   UNL     1      -8.586   6.438  72.132  1.00  0.00    -0.125 C  
HETATM   16  O   UNL     1      -9.340   5.314  72.603  1.00  0.00    -0.137 OA 
HETATM   17  C   UNL     1     -10.616   5.239  71.956  1.00  0.00    -0.216 C  
HETATM   18  C   UNL     1     -10.447   5.089  70.441  1.00  0.00    -0.167 C  
ENDBRANCH  10  13
ENDBRANCH   6   8
ENDBRANCH   3   4
ENDBRANCH   2   3
TORSDOF 4
ENDMDL
MODEL      125
REMARK 921   NORMALIZED FREE ENERGY PREDICTED BY IDOCK:   -3.27 KCAL/MOL
REMARK 922        TOTAL FREE ENERGY PREDICTED BY IDOCK:   -4.31 KCAL/MOL
REMARK 923 INTER-LIGAND FREE ENERGY PREDICTED BY IDOCK:   -4.31 KCAL/MOL
REMARK 924 INTRA-LIGAND FREE ENERGY PREDICTED BY IDOCK:    0.01 KCAL/MOL
REMARK 927      BINDING AFFINITY PREDICTED BY RF-SCORE:    0.00 PKD
ROOT
HETATM    1  C   UNL     1     -12.787  15.467  73.375  1.00  0.00    -0.660 C  
HETATM    2  C   UNL     1     -13.479  15.130  72.067  1.00  0.00    -0.421 C  
ENDROOT
BRANCH   2   3
HETATM    3  O   UNL     1     -12.943  15.939  71.011  1.00  0.00    -0.477 OA 
BRANCH   3   4
HETATM    4  C   UNL     1     -12.268  15.277  70.031  1.00  0.00    -0.349 C  
HETATM    5  O   UNL     1     -11.903  15.817  68.987  1.00  0.00    -0.391 OA 
HETATM    6  N   UNL     1     -12.070  14.009  70.414  1.00  0.00    -0.335 N  
HETATM    7  H   UNL     1     -12.360  13.666  71.330  1.00  0.00     0.000 HD 
BRANCH   6   8
HETATM    8  C   UNL     1     -11.463  13.220  69.513  1.00  0.00    -0.234 A  
HETATM    9  C   UNL     1     -10.188  13.345  69.015  1.00  0.00     0.067 A  
HETATM   10  N   UNL     1      -9.993  12.211  68.266  1.00  0.00    -0.208 NA 
HETATM   11  O   UNL     1     -12.031  12.092  68.966  1.00  0.00    -0.297 OA 
HETATM   12  N   UNL     1     -11.067  11.443  68.176  1.00  0.00    -0.227 NA 
BRANCH  10  13
HETATM   13  N   UNL     1      -8.732  11.762  67.779  1.00  0.00    -0.149 NA 
HETATM   14  C   UNL     1      -8.582  10.485  67.100  1.00  0.00    -0.127 C  
HETATM   15  C   UNL     1      -7.481  10.634  66.042  1.00  0.00    -0.137 C  
HETATM   16  O   UNL     1      -6.265  11.108  66.633  1.00  0.00    -0.108 OA 
HETATM   17  C   UNL     1      -6.457  12.381  67.263  1.00  0.00    -0.140 C  
HETATM   18  C   UNL     1      -7.509  12.283  68.371  1.00  0.00    -0.122 C  
ENDBRANCH  10  13
ENDBRANCH   6   8
ENDBRANCH   3   4
ENDBRANCH   2   3
TORSDOF 4
ENDMDL
MODEL      126
REMARK 921   NORMALIZED FREE ENERGY PREDICTED BY IDOCK:   -3.25 KCAL/MOL
REMARK 922        TOTAL FREE ENERGY PREDICTED BY IDOCK:   -4.29 KCAL/MOL
REMARK 923 INTER-LIGAND FREE ENERGY PREDICTED BY IDOCK:   -3.98 KCAL/MOL
REMARK 924 INTRA-LIGAND FREE ENERGY PREDICTED BY IDOCK:   -0.31 KCAL/MOL
REMARK 927      BINDING AFFINITY PREDICTED BY RF-SCORE:    0.00 PKD
ROOT
HETATM    1  C   UNL     1      -7.379   3.936  63.239  1.00  0.00    -0.050 C  
HETATM    2  C   UNL     1      -8.060   5.225  63.662  1.00  0.00    -0.113 C  
ENDROOT
BRANCH   2   3
HETATM    3  O   UNL     1      -9.215   4.926  64.458  1.00  0.00    -0.116 OA 
BRANCH   3   4
HETATM    4  C   UNL     1      -9.155   5.296  65.767  1.00  0.00    -0.157 C  
HETATM    5  O   UNL     1      -8.097   5.530  66.348  1.00  0.00    -0.104 OA 
HETATM    6  N   UNL     1     -10.399   5.373  66.259  1.00  0.00    -0.369 N  
HETATM    7  H   UNL     1     -11.223   5.215  65.679  1.00  0.00     0.000 HD 
BRANCH   6   8
HETATM    8  C   UNL     1     -10.487   5.673  67.564  1.00  0.00    -0.229 A  
HETATM    9  C   UNL     1     -10.892   6.861  68.125  1.00  0.00    -0.194 A  
HETATM   10  N   UNL     1     -10.967   6.604  69.471  1.00  0.00    -0.288 NA 
HETATM   11  O   UNL     1     -10.223   4.785  68.582  1.00  0.00    -0.106 OA 
HETATM   12  N   UNL     1     -10.552   5.393  69.805  1.00  0.00    -0.313 NA 
BRANCH  10  13
HETATM   13  N   UNL     1     -11.603   7.448  70.428  1.00  0.00    -0.230 NA 
HETATM   14  C   UNL     1     -11.050   8.741  70.796  1.00  0.00    -0.260 C  
HETATM   15  C   UNL     1     -12.218   9.686  71.110  1.00  0.00    -0.350 C  
HETATM   16  O   UNL     1     -13.072   9.127  72.116  1.00  0.00    -0.383 OA 
HETATM   17  C   UNL     1     -13.613   7.868  71.695  1.00  0.00    -0.345 C  
HETATM   18  C   UNL     1     -12.492   6.862  71.420  1.00  0.00    -0.367 C  
ENDBRANCH  10  13
ENDBRANCH   6   8
ENDBRANCH   3   4
ENDBRANCH   2   3
TORSDOF 4
ENDMDL
MODEL      127
REMARK 921   NORMALIZED FREE ENERGY PREDICTED BY IDOCK:   -3.23 KCAL/MOL
REMARK 922        TOTAL FREE ENERGY PREDICTED BY IDOCK:   -4.26 KCAL/MOL
REMARK 923 INTER-LIGAND FREE ENERGY PREDICTED BY IDOCK:   -3.92 KCAL/MOL
REMARK 924 INTRA-LIGAND FREE ENERGY PREDICTED BY IDOCK:   -0.35 KCAL/MOL
REMARK 927      BINDING AFFINITY PREDICTED BY RF-SCORE:    0.00 PKD
ROOT
HETATM    1  C   UNL     1     -10.502   3.439  62.354  1.00  0.00    -0.162 C  
HETATM    2  C   UNL     1     -10.680   3.730  63.832  1.00  0.00    -0.243 C  
ENDROOT
BRANCH   2   3
HETATM    3  O   UNL     1      -9.461   3.447  64.534  1.00  0.00    -0.135 OA 
BRANCH   3   4
HETATM    4  C   UNL     1      -9.202   4.221  65.623  1.00  0.00    -0.148 C  
HETATM    5  O   UNL     1      -8.155   4.852  65.762  1.00  0.00    -0.108 OA 
HETATM    6  N   UNL     1     -10.255   4.182  66.450  1.00  0.00    -0.387 N  
HETATM    7  H   UNL     1     -11.108   3.673  66.220  1.00  0.00     0.000 HD 
BRANCH   6   8
HETATM    8  C   UNL     1     -10.113   4.858  67.601  1.00  0.00    -0.116 A  
HETATM    9  C   UNL     1     -10.559   6.126  67.888  1.00  0.00    -0.263 A  
HETATM   10  N   UNL     1     -10.315   6.287  69.229  1.00  0.00    -0.198 NA 
HETATM   11  O   UNL     1      -9.517   4.346  68.731  1.00  0.00    -0.141 OA 
HETATM   12  N   UNL     1      -9.668   5.272  69.778  1.00  0.00    -0.172 NA 
BRANCH  10  13
HETATM   13  N   UNL     1     -10.852   7.332  70.036  1.00  0.00    -0.249 NA 
HETATM   14  C   UNL     1     -11.941   7.096  70.970  1.00  0.00    -0.347 C  
HETATM   15  C   UNL     1     -11.746   8.026  72.174  1.00  0.00    -0.344 C  
HETATM   16  O   UNL     1     -11.645   9.392  71.755  1.00  0.00    -0.377 OA 
HETATM   17  C   UNL     1     -10.541   9.579  70.859  1.00  0.00    -0.325 C  
HETATM   18  C   UNL     1     -10.709   8.714  69.607  1.00  0.00    -0.200 C  
ENDBRANCH  10  13
ENDBRANCH   6   8
ENDBRANCH   3   4
ENDBRANCH   2   3
TORSDOF 4
ENDMDL
MODEL      128
REMARK 921   NORMALIZED FREE ENERGY PREDICTED BY IDOCK:   -3.22 KCAL/MOL
REMARK 922        TOTAL FREE ENERGY PREDICTED BY IDOCK:   -4.24 KCAL/MOL
REMARK 923 INTER-LIGAND FREE ENERGY PREDICTED BY IDOCK:   -3.89 KCAL/MOL
REMARK 924 INTRA-LIGAND FREE ENERGY PREDICTED BY IDOCK:   -0.35 KCAL/MOL
REMARK 927      BINDING AFFINITY PREDICTED BY RF-SCORE:    0.00 PKD
ROOT
HETATM    1  C   UNL     1     -11.725   5.548  72.483  1.00  0.00    -0.222 C  
HETATM    2  C   UNL     1     -11.394   7.018  72.301  1.00  0.00    -0.268 C  
ENDROOT
BRANCH   2   3
HETATM    3  O   UNL     1     -12.507   7.695  71.700  1.00  0.00    -0.312 OA 
BRANCH   3   4
HETATM    4  C   UNL     1     -12.236   8.895  71.117  1.00  0.00    -0.255 C  
HETATM    5  O   UNL     1     -12.709   9.957  71.520  1.00  0.00    -0.349 OA 
HETATM    6  N   UNL     1     -11.387   8.706  70.098  1.00  0.00    -0.435 N  
HETATM    7  H   UNL     1     -11.002   7.789  69.874  1.00  0.00     0.000 HD 
BRANCH   6   8
HETATM    8  C   UNL     1     -11.078   9.805  69.391  1.00  0.00    -0.170 A  
HETATM    9  C   UNL     1      -9.938  10.567  69.485  1.00  0.00    -0.158 A  
HETATM   10  N   UNL     1     -10.029  11.461  68.448  1.00  0.00    -0.198 NA 
HETATM   11  O   UNL     1     -11.864  10.328  68.390  1.00  0.00    -0.215 OA 
HETATM   12  N   UNL     1     -11.169  11.386  67.780  1.00  0.00    -0.261 NA 
BRANCH  10  13
HETATM   13  N   UNL     1      -8.958  12.274  67.975  1.00  0.00    -0.184 NA 
HETATM   14  C   UNL     1      -9.013  13.726  68.035  1.00  0.00    -0.187 C  
HETATM   15  C   UNL     1      -7.589  14.247  68.267  1.00  0.00    -0.130 C  
HETATM   16  O   UNL     1      -6.693  13.754  67.263  1.00  0.00    -0.230 OA 
HETATM   17  C   UNL     1      -6.653  12.322  67.263  1.00  0.00    -0.146 C  
HETATM   18  C   UNL     1      -8.041  11.741  66.979  1.00  0.00    -0.169 C  
ENDBRANCH  10  13
ENDBRANCH   6   8
ENDBRANCH   3   4
ENDBRANCH   2   3
TORSDOF 4
ENDMDL
MODEL      129
REMARK 921   NORMALIZED FREE ENERGY PREDICTED BY IDOCK:   -3.14 KCAL/MOL
REMARK 922        TOTAL FREE ENERGY PREDICTED BY IDOCK:   -4.14 KCAL/MOL
REMARK 923 INTER-LIGAND FREE ENERGY PREDICTED BY IDOCK:   -3.81 KCAL/MOL
REMARK 924 INTRA-LIGAND FREE ENERGY PREDICTED BY IDOCK:   -0.33 KCAL/MOL
REMARK 927      BINDING AFFINITY PREDICTED BY RF-SCORE:    0.00 PKD
ROOT
HETATM    1  C   UNL     1      -9.288  19.928  66.456  1.00  0.00    -0.501 C  
HETATM    2  C   UNL     1      -8.749  19.586  67.833  1.00  0.00    -0.320 C  
ENDROOT
BRANCH   2   3
HETATM    3  O   UNL     1      -7.355  19.262  67.742  1.00  0.00    -0.245 OA 
BRANCH   3   4
HETATM    4  C   UNL     1      -7.006  17.999  68.114  1.00  0.00    -0.224 C  
HETATM    5  O   UNL     1      -6.703  17.700  69.268  1.00  0.00    -0.254 OA 
HETATM    6  N   UNL     1      -7.079  17.192  67.047  1.00  0.00    -0.172 N  
HETATM    7  H   UNL     1      -7.399  17.522  66.136  1.00  0.00     0.000 HD 
BRANCH   6   8
HETATM    8  C   UNL     1      -6.703  15.920  67.257  1.00  0.00    -0.186 A  
HETATM    9  C   UNL     1      -7.514  14.820  67.399  1.00  0.00    -0.194 A  
HETATM   10  N   UNL     1      -6.654  13.751  67.421  1.00  0.00    -0.267 NA 
HETATM   11  O   UNL     1      -5.394  15.499  67.315  1.00  0.00    -0.339 OA 
HETATM   12  N   UNL     1      -5.377  14.097  67.405  1.00  0.00    -0.304 NA 
BRANCH  10  13
HETATM   13  N   UNL     1      -7.042  12.387  67.280  1.00  0.00    -0.147 NA 
HETATM   14  C   UNL     1      -8.106  11.806  68.082  1.00  0.00    -0.150 C  
HETATM   15  C   UNL     1      -8.822  10.750  67.230  1.00  0.00    -0.133 C  
HETATM   16  O   UNL     1      -7.894   9.780  66.731  1.00  0.00    -0.101 OA 
HETATM   17  C   UNL     1      -6.882  10.397  65.925  1.00  0.00    -0.131 C  
HETATM   18  C   UNL     1      -6.093  11.425  66.740  1.00  0.00    -0.145 C  
ENDBRANCH  10  13
ENDBRANCH   6   8
ENDBRANCH   3   4
ENDBRANCH   2   3
TORSDOF 4
ENDMDL
MODEL      130
REMARK 921   NORMALIZED FREE ENERGY PREDICTED BY IDOCK:   -3.12 KCAL/MOL
REMARK 922        TOTAL FREE ENERGY PREDICTED BY IDOCK:   -4.12 KCAL/MOL
REMARK 923 INTER-LIGAND FREE ENERGY PREDICTED BY IDOCK:   -3.76 KCAL/MOL
REMARK 924 INTRA-LIGAND FREE ENERGY PREDICTED BY IDOCK:   -0.36 KCAL/MOL
REMARK 927      BINDING AFFINITY PREDICTED BY RF-SCORE:    0.00 PKD
ROOT
HETATM    1  C   UNL     1     -11.739  15.723  68.771  1.00  0.00    -0.387 C  
HETATM    2  C   UNL     1     -11.017  14.388  68.766  1.00  0.00    -0.250 C  
ENDROOT
BRANCH   2   3
HETATM    3  O   UNL     1      -9.961  14.410  67.795  1.00  0.00    -0.222 OA 
BRANCH   3   4
HETATM    4  C   UNL     1      -9.457  13.200  67.428  1.00  0.00    -0.214 C  
HETATM    5  O   UNL     1      -8.253  12.989  67.295  1.00  0.00    -0.180 OA 
HETATM    6  N   UNL     1     -10.466  12.332  67.275  1.00  0.00    -0.216 N  
HETATM    7  H   UNL     1     -11.436  12.587  67.465  1.00  0.00     0.000 HD 
BRANCH   6   8
HETATM    8  C   UNL     1     -10.117  11.106  66.854  1.00  0.00    -0.214 A  
HETATM    9  C   UNL     1      -9.925   9.982  67.620  1.00  0.00    -0.176 A  
HETATM   10  N   UNL     1      -9.750   8.967  66.714  1.00  0.00    -0.197 NA 
HETATM   11  O   UNL     1      -9.939  10.762  65.533  1.00  0.00    -0.235 OA 
HETATM   12  N   UNL     1      -9.718   9.377  65.456  1.00  0.00    -0.276 NA 
BRANCH  10  13
HETATM   13  N   UNL     1      -9.788   7.577  67.027  1.00  0.00    -0.195 NA 
HETATM   14  C   UNL     1     -11.032   6.825  67.027  1.00  0.00    -0.368 C  
HETATM   15  C   UNL     1     -10.723   5.391  66.576  1.00  0.00    -0.240 C  
HETATM   16  O   UNL     1      -9.706   4.805  67.398  1.00  0.00    -0.156 OA 
HETATM   17  C   UNL     1      -8.493   5.565  67.342  1.00  0.00    -0.109 C  
HETATM   18  C   UNL     1      -8.727   6.996  67.836  1.00  0.00    -0.125 C  
ENDBRANCH  10  13
ENDBRANCH   6   8
ENDBRANCH   3   4
ENDBRANCH   2   3
TORSDOF 4
ENDMDL
MODEL      131
REMARK 921   NORMALIZED FREE ENERGY PREDICTED BY IDOCK:   -3.11 KCAL/MOL
REMARK 922        TOTAL FREE ENERGY PREDICTED BY IDOCK:   -4.11 KCAL/MOL
REMARK 923 INTER-LIGAND FREE ENERGY PREDICTED BY IDOCK:   -3.90 KCAL/MOL
REMARK 924 INTRA-LIGAND FREE ENERGY PREDICTED BY IDOCK:   -0.21 KCAL/MOL
REMARK 927      BINDING AFFINITY PREDICTED BY RF-SCORE:    0.00 PKD
ROOT
HETATM    1  C   UNL     1     -13.083  11.159  71.912  1.00  0.00    -0.513 C  
HETATM    2  C   UNL     1     -13.235   9.654  71.802  1.00  0.00    -0.430 C  
ENDROOT
BRANCH   2   3
HETATM    3  O   UNL     1     -11.941   9.034  71.797  1.00  0.00    -0.321 OA 
BRANCH   3   4
HETATM    4  C   UNL     1     -11.858   7.822  71.182  1.00  0.00    -0.291 C  
HETATM    5  O   UNL     1     -12.774   7.000  71.194  1.00  0.00    -0.381 OA 
HETATM    6  N   UNL     1     -10.667   7.717  70.578  1.00  0.00    -0.231 N  
HETATM    7  H   UNL     1      -9.990   8.480  70.575  1.00  0.00     0.000 HD 
BRANCH   6   8
HETATM    8  C   UNL     1     -10.424   6.541  69.977  1.00  0.00    -0.212 A  
HETATM    9  C   UNL     1     -10.208   6.313  68.639  1.00  0.00    -0.178 A  
HETATM   10  N   UNL     1      -9.845   4.992  68.564  1.00  0.00    -0.154 NA 
HETATM   11  O   UNL     1     -10.300   5.343  70.643  1.00  0.00    -0.236 OA 
HETATM   12  N   UNL     1      -9.911   4.356  69.722  1.00  0.00    -0.215 NA 
BRANCH  10  13
HETATM   13  N   UNL     1      -9.262   4.370  67.422  1.00  0.00    -0.133 NA 
HETATM   14  C   UNL     1      -9.897   4.416  66.115  1.00  0.00    -0.231 C  
HETATM   15  C   UNL     1      -8.795   4.451  65.049  1.00  0.00    -0.141 C  
HETATM   16  O   UNL     1      -7.897   3.345  65.205  1.00  0.00    -0.081 OA 
HETATM   17  C   UNL     1      -7.275   3.360  66.496  1.00  0.00    -0.063 C  
HETATM   18  C   UNL     1      -8.327   3.270  67.605  1.00  0.00    -0.086 C  
ENDBRANCH  10  13
ENDBRANCH   6   8
ENDBRANCH   3   4
ENDBRANCH   2   3
TORSDOF 4
ENDMDL
MODEL      132
REMARK 921   NORMALIZED FREE ENERGY PREDICTED BY IDOCK:   -3.10 KCAL/MOL
REMARK 922        TOTAL FREE ENERGY PREDICTED BY IDOCK:   -4.10 KCAL/MOL
REMARK 923 INTER-LIGAND FREE ENERGY PREDICTED BY IDOCK:   -3.78 KCAL/MOL
REMARK 924 INTRA-LIGAND FREE ENERGY PREDICTED BY IDOCK:   -0.32 KCAL/MOL
REMARK 927      BINDING AFFINITY PREDICTED BY RF-SCORE:    0.00 PKD
ROOT
HETATM    1  C   UNL     1     -13.218  10.929  71.807  1.00  0.00    -0.513 C  
HETATM    2  C   UNL     1     -13.446   9.460  72.109  1.00  0.00    -0.471 C  
ENDROOT
BRANCH   2   3
HETATM    3  O   UNL     1     -12.196   8.830  72.425  1.00  0.00    -0.370 OA 
BRANCH   3   4
HETATM    4  C   UNL     1     -12.059   7.535  72.027  1.00  0.00    -0.291 C  
HETATM    5  O   UNL     1     -13.018   6.803  71.787  1.00  0.00    -0.349 OA 
HETATM    6  N   UNL     1     -10.755   7.241  71.931  1.00  0.00    -0.214 N  
HETATM    7  H   UNL     1     -10.028   7.937  72.096  1.00  0.00     0.000 HD 
BRANCH   6   8
HETATM    8  C   UNL     1     -10.470   5.972  71.602  1.00  0.00    -0.228 A  
HETATM    9  C   UNL     1     -10.189   5.473  70.352  1.00  0.00    -0.251 A  
HETATM   10  N   UNL     1      -9.807   4.173  70.572  1.00  0.00    -0.206 NA 
HETATM   11  O   UNL     1     -10.364   4.942  72.509  1.00  0.00    -0.188 OA 
HETATM   12  N   UNL     1      -9.920   3.792  71.834  1.00  0.00    -0.176 NA 
BRANCH  10  13
HETATM   13  N   UNL     1      -9.163   3.339  69.613  1.00  0.00    -0.138 NA 
HETATM   14  C   UNL     1      -9.419   3.470  68.188  1.00  0.00    -0.155 C  
HETATM   15  C   UNL     1      -8.125   3.126  67.438  1.00  0.00    -0.081 C  
HETATM   16  O   UNL     1      -7.647   1.828  67.811  1.00  0.00    -0.053 OA 
HETATM   17  C   UNL     1      -7.383   1.758  69.218  1.00  0.00    -0.043 C  
HETATM   18  C   UNL     1      -8.656   2.038  70.022  1.00  0.00    -0.051 C  
ENDBRANCH  10  13
ENDBRANCH   6   8
ENDBRANCH   3   4
ENDBRANCH   2   3
TORSDOF 4
ENDMDL
MODEL      133
REMARK 921   NORMALIZED FREE ENERGY PREDICTED BY IDOCK:   -3.03 KCAL/MOL
REMARK 922        TOTAL FREE ENERGY PREDICTED BY IDOCK:   -4.01 KCAL/MOL
REMARK 923 INTER-LIGAND FREE ENERGY PREDICTED BY IDOCK:   -3.66 KCAL/MOL
REMARK 924 INTRA-LIGAND FREE ENERGY PREDICTED BY IDOCK:   -0.35 KCAL/MOL
REMARK 927      BINDING AFFINITY PREDICTED BY RF-SCORE:    0.00 PKD
ROOT
HETATM    1  C   UNL     1     -13.021  14.645  70.725  1.00  0.00    -0.405 C  
HETATM    2  C   UNL     1     -11.874  14.988  69.793  1.00  0.00    -0.321 C  
ENDROOT
BRANCH   2   3
HETATM    3  O   UNL     1     -12.120  14.432  68.494  1.00  0.00    -0.318 OA 
BRANCH   3   4
HETATM    4  C   UNL     1     -11.107  13.699  67.953  1.00  0.00    -0.261 C  
HETATM    5  O   UNL     1     -10.099  14.208  67.465  1.00  0.00    -0.233 OA 
HETATM    6  N   UNL     1     -11.396  12.396  68.072  1.00  0.00    -0.265 N  
HETATM    7  H   UNL     1     -12.237  12.067  68.547  1.00  0.00     0.000 HD 
BRANCH   6   8
HETATM    8  C   UNL     1     -10.507  11.553  67.524  1.00  0.00    -0.199 A  
HETATM    9  C   UNL     1     -10.552  10.983  66.275  1.00  0.00    -0.237 A  
HETATM   10  N   UNL     1      -9.344  10.348  66.136  1.00  0.00    -0.166 NA 
HETATM   11  O   UNL     1      -9.341  11.154  68.137  1.00  0.00    -0.163 OA 
HETATM   12  N   UNL     1      -8.593  10.390  67.225  1.00  0.00    -0.126 NA 
BRANCH  10  13
HETATM   13  N   UNL     1      -8.821   9.848  64.908  1.00  0.00    -0.176 NA 
HETATM   14  C   UNL     1      -7.869   8.750  64.870  1.00  0.00    -0.120 C  
HETATM   15  C   UNL     1      -8.127   7.939  63.593  1.00  0.00    -0.074 C  
HETATM   16  O   UNL     1      -8.070   8.780  62.434  1.00  0.00    -0.141 OA 
HETATM   17  C   UNL     1      -9.044   9.828  62.505  1.00  0.00    -0.283 C  
HETATM   18  C   UNL     1      -8.804  10.708  63.735  1.00  0.00    -0.171 C  
ENDBRANCH  10  13
ENDBRANCH   6   8
ENDBRANCH   3   4
ENDBRANCH   2   3
TORSDOF 4
ENDMDL
MODEL      134
REMARK 921   NORMALIZED FREE ENERGY PREDICTED BY IDOCK:   -3.02 KCAL/MOL
REMARK 922        TOTAL FREE ENERGY PREDICTED BY IDOCK:   -4.00 KCAL/MOL
REMARK 923 INTER-LIGAND FREE ENERGY PREDICTED BY IDOCK:   -3.66 KCAL/MOL
REMARK 924 INTRA-LIGAND FREE ENERGY PREDICTED BY IDOCK:   -0.34 KCAL/MOL
REMARK 927      BINDING AFFINITY PREDICTED BY RF-SCORE:    0.00 PKD
ROOT
HETATM    1  C   UNL     1     -12.258  14.213  68.822  1.00  0.00    -0.234 C  
HETATM    2  C   UNL     1     -11.245  13.146  68.451  1.00  0.00    -0.271 C  
ENDROOT
BRANCH   2   3
HETATM    3  O   UNL     1     -11.924  11.929  68.109  1.00  0.00    -0.496 OA 
BRANCH   3   4
HETATM    4  C   UNL     1     -11.193  10.785  68.210  1.00  0.00    -0.297 C  
HETATM    5  O   UNL     1     -10.789  10.160  67.230  1.00  0.00    -0.271 OA 
HETATM    6  N   UNL     1     -10.992  10.505  69.505  1.00  0.00    -0.246 N  
HETATM    7  H   UNL     1     -11.319  11.118  70.251  1.00  0.00     0.000 HD 
BRANCH   6   8
HETATM    8  C   UNL     1     -10.331   9.364  69.754  1.00  0.00    -0.223 A  
HETATM    9  C   UNL     1     -10.867   8.131  70.040  1.00  0.00    -0.233 A  
HETATM   10  N   UNL     1      -9.793   7.276  70.045  1.00  0.00    -0.175 NA 
HETATM   11  O   UNL     1      -8.961   9.237  69.712  1.00  0.00    -0.147 OA 
HETATM   12  N   UNL     1      -8.629   7.883  69.886  1.00  0.00    -0.138 NA 
BRANCH  10  13
HETATM   13  N   UNL     1      -9.883   5.853  70.025  1.00  0.00    -0.168 NA 
HETATM   14  C   UNL     1     -10.267   5.126  68.826  1.00  0.00    -0.132 C  
HETATM   15  C   UNL     1      -9.520   3.786  68.822  1.00  0.00    -0.151 C  
HETATM   16  O   UNL     1      -9.768   3.058  70.031  1.00  0.00    -0.115 OA 
HETATM   17  C   UNL     1      -9.348   3.803  71.180  1.00  0.00    -0.149 C  
HETATM   18  C   UNL     1     -10.103   5.132  71.270  1.00  0.00    -0.210 C  
ENDBRANCH  10  13
ENDBRANCH   6   8
ENDBRANCH   3   4
ENDBRANCH   2   3
TORSDOF 4
ENDMDL
MODEL      135
REMARK 921   NORMALIZED FREE ENERGY PREDICTED BY IDOCK:   -3.02 KCAL/MOL
REMARK 922        TOTAL FREE ENERGY PREDICTED BY IDOCK:   -3.99 KCAL/MOL
REMARK 923 INTER-LIGAND FREE ENERGY PREDICTED BY IDOCK:   -3.82 KCAL/MOL
REMARK 924 INTRA-LIGAND FREE ENERGY PREDICTED BY IDOCK:   -0.18 KCAL/MOL
REMARK 927      BINDING AFFINITY PREDICTED BY RF-SCORE:    0.00 PKD
ROOT
HETATM    1  C   UNL     1     -10.497  18.736  66.160  1.00  0.00    -0.499 C  
HETATM    2  C   UNL     1      -9.633  18.008  67.173  1.00  0.00    -0.281 C  
ENDROOT
BRANCH   2   3
HETATM    3  O   UNL     1      -8.508  17.412  66.513  1.00  0.00    -0.236 OA 
BRANCH   3   4
HETATM    4  C   UNL     1      -8.300  16.088  66.757  1.00  0.00    -0.270 C  
HETATM    5  O   UNL     1      -7.187  15.616  66.984  1.00  0.00    -0.210 OA 
HETATM    6  N   UNL     1      -9.475  15.446  66.727  1.00  0.00    -0.228 N  
HETATM    7  H   UNL     1     -10.359  15.937  66.587  1.00  0.00     0.000 HD 
BRANCH   6   8
HETATM    8  C   UNL     1      -9.413  14.116  66.895  1.00  0.00    -0.267 A  
HETATM    9  C   UNL     1      -9.210  13.428  68.068  1.00  0.00    -0.209 A  
HETATM   10  N   UNL     1      -9.398  12.110  67.737  1.00  0.00    -0.186 NA 
HETATM   11  O   UNL     1      -9.598  13.199  65.885  1.00  0.00    -0.218 OA 
HETATM   12  N   UNL     1      -9.602  11.910  66.445  1.00  0.00    -0.220 NA 
BRANCH  10  13
HETATM   13  N   UNL     1      -9.561  11.049  68.674  1.00  0.00    -0.190 NA 
HETATM   14  C   UNL     1     -10.837  10.786  69.320  1.00  0.00    -0.242 C  
HETATM   15  C   UNL     1     -10.952   9.273  69.550  1.00  0.00    -0.151 C  
HETATM   16  O   UNL     1      -9.829   8.781  70.290  1.00  0.00    -0.166 OA 
HETATM   17  C   UNL     1      -8.600   9.038  69.600  1.00  0.00    -0.137 C  
HETATM   18  C   UNL     1      -8.401  10.542  69.391  1.00  0.00    -0.106 C  
ENDBRANCH  10  13
ENDBRANCH   6   8
ENDBRANCH   3   4
ENDBRANCH   2   3
TORSDOF 4
ENDMDL
MODEL      136
REMARK 921   NORMALIZED FREE ENERGY PREDICTED BY IDOCK:   -3.00 KCAL/MOL
REMARK 922        TOTAL FREE ENERGY PREDICTED BY IDOCK:   -3.98 KCAL/MOL
REMARK 923 INTER-LIGAND FREE ENERGY PREDICTED BY IDOCK:   -3.66 KCAL/MOL
REMARK 924 INTRA-LIGAND FREE ENERGY PREDICTED BY IDOCK:   -0.32 KCAL/MOL
REMARK 927      BINDING AFFINITY PREDICTED BY RF-SCORE:    0.00 PKD
ROOT
HETATM    1  C   UNL     1     -10.828  16.661  68.101  1.00  0.00    -0.348 C  
HETATM    2  C   UNL     1      -9.451  16.274  67.593  1.00  0.00    -0.221 C  
ENDROOT
BRANCH   2   3
HETATM    3  O   UNL     1      -9.571  15.238  66.607  1.00  0.00    -0.231 OA 
BRANCH   3   4
HETATM    4  C   UNL     1      -9.710  13.970  67.083  1.00  0.00    -0.242 C  
HETATM    5  O   UNL     1      -9.306  13.622  68.191  1.00  0.00    -0.201 OA 
HETATM    6  N   UNL     1     -10.354  13.228  66.172  1.00  0.00    -0.284 N  
HETATM    7  H   UNL     1     -10.704  13.622  65.298  1.00  0.00     0.000 HD 
BRANCH   6   8
HETATM    8  C   UNL     1     -10.510  11.932  66.486  1.00  0.00    -0.221 A  
HETATM    9  C   UNL     1      -9.659  10.892  66.195  1.00  0.00    -0.202 A  
HETATM   10  N   UNL     1     -10.179   9.816  66.870  1.00  0.00    -0.236 NA 
HETATM   11  O   UNL     1     -11.563  11.434  67.219  1.00  0.00    -0.523 OA 
HETATM   12  N   UNL     1     -11.329  10.072  67.472  1.00  0.00    -0.140 NA 
BRANCH  10  13
HETATM   13  N   UNL     1      -9.496   8.586  67.093  1.00  0.00    -0.153 NA 
HETATM   14  C   UNL     1      -8.696   8.358  68.286  1.00  0.00    -0.143 C  
HETATM   15  C   UNL     1      -8.801   6.872  68.653  1.00  0.00    -0.124 C  
HETATM   16  O   UNL     1      -8.420   6.043  67.548  1.00  0.00    -0.108 OA 
HETATM   17  C   UNL     1      -9.254   6.284  66.408  1.00  0.00    -0.156 C  
HETATM   18  C   UNL     1      -9.148   7.744  65.958  1.00  0.00    -0.121 C  
ENDBRANCH  10  13
ENDBRANCH   6   8
ENDBRANCH   3   4
ENDBRANCH   2   3
TORSDOF 4
ENDMDL
MODEL      137
REMARK 921   NORMALIZED FREE ENERGY PREDICTED BY IDOCK:   -2.99 KCAL/MOL
REMARK 922        TOTAL FREE ENERGY PREDICTED BY IDOCK:   -3.96 KCAL/MOL
REMARK 923 INTER-LIGAND FREE ENERGY PREDICTED BY IDOCK:   -3.60 KCAL/MOL
REMARK 924 INTRA-LIGAND FREE ENERGY PREDICTED BY IDOCK:   -0.36 KCAL/MOL
REMARK 927      BINDING AFFINITY PREDICTED BY RF-SCORE:    0.00 PKD
ROOT
HETATM    1  C   UNL     1      -9.024   4.476  64.644  1.00  0.00    -0.152 C  
HETATM    2  C   UNL     1     -10.112   4.347  65.695  1.00  0.00    -0.241 C  
ENDROOT
BRANCH   2   3
HETATM    3  O   UNL     1      -9.660   4.913  66.934  1.00  0.00    -0.137 OA 
BRANCH   3   4
HETATM    4  C   UNL     1     -10.194   6.119  67.274  1.00  0.00    -0.191 C  
HETATM    5  O   UNL     1     -11.360   6.427  67.029  1.00  0.00    -0.314 OA 
HETATM    6  N   UNL     1      -9.267   6.846  67.910  1.00  0.00    -0.125 N  
HETATM    7  H   UNL     1      -8.338   6.480  68.119  1.00  0.00     0.000 HD 
BRANCH   6   8
HETATM    8  C   UNL     1      -9.641   8.089  68.253  1.00  0.00    -0.146 A  
HETATM    9  C   UNL     1      -9.353   9.261  67.597  1.00  0.00    -0.128 A  
HETATM   10  N   UNL     1     -10.096  10.216  68.246  1.00  0.00    -0.151 NA 
HETATM   11  O   UNL     1     -10.443   8.385  69.332  1.00  0.00    -0.217 OA 
HETATM   12  N   UNL     1     -10.742   9.758  69.306  1.00  0.00    -0.218 NA 
BRANCH  10  13
HETATM   13  N   UNL     1     -10.337  11.533  67.757  1.00  0.00    -0.179 NA 
HETATM   14  C   UNL     1      -9.341  12.259  66.986  1.00  0.00    -0.205 C  
HETATM   15  C   UNL     1     -10.077  13.145  65.972  1.00  0.00    -0.286 C  
HETATM   16  O   UNL     1     -11.020  14.000  66.628  1.00  0.00    -0.295 OA 
HETATM   17  C   UNL     1     -11.996  13.238  67.350  1.00  0.00    -0.335 C  
HETATM   18  C   UNL     1     -11.324  12.373  68.420  1.00  0.00    -0.285 C  
ENDBRANCH  10  13
ENDBRANCH   6   8
ENDBRANCH   3   4
ENDBRANCH   2   3
TORSDOF 4
ENDMDL
MODEL      138
REMARK 921   NORMALIZED FREE ENERGY PREDICTED BY IDOCK:   -2.96 KCAL/MOL
REMARK 922        TOTAL FREE ENERGY PREDICTED BY IDOCK:   -3.93 KCAL/MOL
REMARK 923 INTER-LIGAND FREE ENERGY PREDICTED BY IDOCK:   -3.64 KCAL/MOL
REMARK 924 INTRA-LIGAND FREE ENERGY PREDICTED BY IDOCK:   -0.29 KCAL/MOL
REMARK 927      BINDING AFFINITY PREDICTED BY RF-SCORE:    0.00 PKD
ROOT
HETATM    1  C   UNL     1      -5.730   1.483  70.225  1.00  0.00    -0.017 C  
HETATM    2  C   UNL     1      -6.930   2.286  70.691  1.00  0.00    -0.033 C  
ENDROOT
BRANCH   2   3
HETATM    3  O   UNL     1      -7.396   3.126  69.625  1.00  0.00    -0.044 OA 
BRANCH   3   4
HETATM    4  C   UNL     1      -8.602   3.728  69.818  1.00  0.00    -0.065 C  
HETATM    5  O   UNL     1      -9.619   3.107  70.123  1.00  0.00    -0.169 OA 
HETATM    6  N   UNL     1      -8.465   5.049  69.645  1.00  0.00    -0.087 N  
HETATM    7  H   UNL     1      -7.562   5.481  69.449  1.00  0.00     0.000 HD 
BRANCH   6   8
HETATM    8  C   UNL     1      -9.595   5.766  69.749  1.00  0.00    -0.157 A  
HETATM    9  C   UNL     1      -9.979   6.580  70.788  1.00  0.00    -0.184 A  
HETATM   10  N   UNL     1     -11.115   7.207  70.340  1.00  0.00    -0.271 NA 
HETATM   11  O   UNL     1     -10.559   5.838  68.768  1.00  0.00    -0.231 OA 
HETATM   12  N   UNL     1     -11.525   6.782  69.156  1.00  0.00    -0.121 NA 
BRANCH  10  13
HETATM   13  N   UNL     1     -11.718   8.341  70.958  1.00  0.00    -0.280 NA 
HETATM   14  C   UNL     1     -11.420   9.697  70.528  1.00  0.00    -0.285 C  
HETATM   15  C   UNL     1     -12.685  10.545  70.714  1.00  0.00    -0.381 C  
HETATM   16  O   UNL     1     -13.159  10.469  72.064  1.00  0.00    -0.467 OA 
HETATM   17  C   UNL     1     -13.466   9.118  72.430  1.00  0.00    -0.476 C  
HETATM   18  C   UNL     1     -12.222   8.231  72.318  1.00  0.00    -0.370 C  
ENDBRANCH  10  13
ENDBRANCH   6   8
ENDBRANCH   3   4
ENDBRANCH   2   3
TORSDOF 4
ENDMDL
MODEL      139
REMARK 921   NORMALIZED FREE ENERGY PREDICTED BY IDOCK:   -2.96 KCAL/MOL
REMARK 922        TOTAL FREE ENERGY PREDICTED BY IDOCK:   -3.93 KCAL/MOL
REMARK 923 INTER-LIGAND FREE ENERGY PREDICTED BY IDOCK:   -3.58 KCAL/MOL
REMARK 924 INTRA-LIGAND FREE ENERGY PREDICTED BY IDOCK:   -0.34 KCAL/MOL
REMARK 927      BINDING AFFINITY PREDICTED BY RF-SCORE:    0.00 PKD
ROOT
HETATM    1  C   UNL     1     -11.669  15.845  69.131  1.00  0.00    -0.369 C  
HETATM    2  C   UNL     1     -11.475  14.357  69.351  1.00  0.00    -0.288 C  
ENDROOT
BRANCH   2   3
HETATM    3  O   UNL     1     -10.618  13.822  68.333  1.00  0.00    -0.240 OA 
BRANCH   3   4
HETATM    4  C   UNL     1     -10.166  12.553  68.533  1.00  0.00    -0.203 C  
HETATM    5  O   UNL     1      -8.978  12.245  68.451  1.00  0.00    -0.188 OA 
HETATM    6  N   UNL     1     -11.201  11.762  68.842  1.00  0.00    -0.233 N  
HETATM    7  H   UNL     1     -12.150  12.123  68.943  1.00  0.00     0.000 HD 
BRANCH   6   8
HETATM    8  C   UNL     1     -10.908  10.463  69.009  1.00  0.00    -0.234 A  
HETATM    9  C   UNL     1     -10.881   9.480  68.048  1.00  0.00    -0.168 A  
HETATM   10  N   UNL     1     -10.367   8.380  68.688  1.00  0.00    -0.205 NA 
HETATM   11  O   UNL     1     -10.525   9.904  70.207  1.00  0.00    -0.262 OA 
HETATM   12  N   UNL     1     -10.164   8.564  69.982  1.00  0.00    -0.193 NA 
BRANCH  10  13
HETATM   13  N   UNL     1      -9.898   7.202  68.036  1.00  0.00    -0.135 NA 
HETATM   14  C   UNL     1      -8.523   6.750  68.166  1.00  0.00    -0.121 C  
HETATM   15  C   UNL     1      -8.519   5.217  68.118  1.00  0.00    -0.099 C  
HETATM   16  O   UNL     1      -9.163   4.740  66.931  1.00  0.00    -0.118 OA 
HETATM   17  C   UNL     1     -10.522   5.188  66.863  1.00  0.00    -0.223 C  
HETATM   18  C   UNL     1     -10.588   6.718  66.850  1.00  0.00    -0.304 C  
ENDBRANCH  10  13
ENDBRANCH   6   8
ENDBRANCH   3   4
ENDBRANCH   2   3
TORSDOF 4
ENDMDL
MODEL      140
REMARK 921   NORMALIZED FREE ENERGY PREDICTED BY IDOCK:   -2.96 KCAL/MOL
REMARK 922        TOTAL FREE ENERGY PREDICTED BY IDOCK:   -3.92 KCAL/MOL
REMARK 923 INTER-LIGAND FREE ENERGY PREDICTED BY IDOCK:   -3.61 KCAL/MOL
REMARK 924 INTRA-LIGAND FREE ENERGY PREDICTED BY IDOCK:   -0.31 KCAL/MOL
REMARK 927      BINDING AFFINITY PREDICTED BY RF-SCORE:    0.00 PKD
ROOT
HETATM    1  C   UNL     1     -11.487  15.859  68.673  1.00  0.00    -0.391 C  
HETATM    2  C   UNL     1     -11.185  14.679  69.578  1.00  0.00    -0.269 C  
ENDROOT
BRANCH   2   3
HETATM    3  O   UNL     1     -12.095  13.606  69.298  1.00  0.00    -0.334 OA 
BRANCH   3   4
HETATM    4  C   UNL     1     -11.567  12.519  68.671  1.00  0.00    -0.314 C  
HETATM    5  O   UNL     1     -12.231  11.771  67.955  1.00  0.00    -0.538 OA 
HETATM    6  N   UNL     1     -10.259  12.444  68.950  1.00  0.00    -0.423 N  
HETATM    7  H   UNL     1      -9.781  13.149  69.512  1.00  0.00     0.000 HD 
BRANCH   6   8
HETATM    8  C   UNL     1      -9.618  11.379  68.442  1.00  0.00    -0.197 A  
HETATM    9  C   UNL     1      -9.084  11.246  67.183  1.00  0.00    -0.157 A  
HETATM   10  N   UNL     1      -8.401  10.056  67.217  1.00  0.00    -0.121 NA 
HETATM   11  O   UNL     1      -9.345  10.230  69.149  1.00  0.00    -0.184 OA 
HETATM   12  N   UNL     1      -8.547   9.392  68.352  1.00  0.00    -0.123 NA 
BRANCH  10  13
HETATM   13  N   UNL     1      -7.462   9.625  66.235  1.00  0.00    -0.097 NA 
HETATM   14  C   UNL     1      -7.382   8.238  65.807  1.00  0.00    -0.072 C  
HETATM   15  C   UNL     1      -6.981   8.219  64.326  1.00  0.00    -0.073 C  
HETATM   16  O   UNL     1      -5.766   8.949  64.116  1.00  0.00    -0.067 OA 
HETATM   17  C   UNL     1      -5.904  10.315  64.526  1.00  0.00    -0.136 C  
HETATM   18  C   UNL     1      -6.251  10.401  66.015  1.00  0.00    -0.110 C  
ENDBRANCH  10  13
ENDBRANCH   6   8
ENDBRANCH   3   4
ENDBRANCH   2   3
TORSDOF 4
ENDMDL
MODEL      141
REMARK 921   NORMALIZED FREE ENERGY PREDICTED BY IDOCK:   -2.94 KCAL/MOL
REMARK 922        TOTAL FREE ENERGY PREDICTED BY IDOCK:   -3.90 KCAL/MOL
REMARK 923 INTER-LIGAND FREE ENERGY PREDICTED BY IDOCK:   -3.89 KCAL/MOL
REMARK 924 INTRA-LIGAND FREE ENERGY PREDICTED BY IDOCK:   -0.01 KCAL/MOL
REMARK 927      BINDING AFFINITY PREDICTED BY RF-SCORE:    0.00 PKD
ROOT
HETATM    1  C   UNL     1      -9.680  14.449  67.684  1.00  0.00    -0.219 C  
HETATM    2  C   UNL     1     -10.296  13.883  66.417  1.00  0.00    -0.289 C  
ENDROOT
BRANCH   2   3
HETATM    3  O   UNL     1     -11.201  12.821  66.750  1.00  0.00    -0.271 OA 
BRANCH   3   4
HETATM    4  C   UNL     1     -10.652  11.580  66.872  1.00  0.00    -0.247 C  
HETATM    5  O   UNL     1      -9.692  11.204  66.202  1.00  0.00    -0.204 OA 
HETATM    6  N   UNL     1     -11.308  10.902  67.823  1.00  0.00    -0.310 N  
HETATM    7  H   UNL     1     -12.061  11.322  68.369  1.00  0.00     0.000 HD 
BRANCH   6   8
HETATM    8  C   UNL     1     -10.908   9.635  68.010  1.00  0.00    -0.196 A  
HETATM    9  C   UNL     1     -10.745   8.976  69.206  1.00  0.00    -0.174 A  
HETATM   10  N   UNL     1     -10.491   7.674  68.855  1.00  0.00    -0.212 NA 
HETATM   11  O   UNL     1     -10.637   8.750  66.991  1.00  0.00    -0.282 OA 
HETATM   12  N   UNL     1     -10.385   7.486  67.550  1.00  0.00    -0.228 NA 
BRANCH  10  13
HETATM   13  N   UNL     1     -10.524   6.566  69.752  1.00  0.00    -0.197 NA 
HETATM   14  C   UNL     1     -10.337   5.200  69.290  1.00  0.00    -0.178 C  
HETATM   15  C   UNL     1      -9.623   4.416  70.399  1.00  0.00    -0.196 C  
HETATM   16  O   UNL     1     -10.344   4.504  71.634  1.00  0.00    -0.175 OA 
HETATM   17  C   UNL     1     -10.477   5.866  72.061  1.00  0.00    -0.214 C  
HETATM   18  C   UNL     1     -11.235   6.689  71.015  1.00  0.00    -0.300 C  
ENDBRANCH  10  13
ENDBRANCH   6   8
ENDBRANCH   3   4
ENDBRANCH   2   3
TORSDOF 4
ENDMDL
MODEL      142
REMARK 921   NORMALIZED FREE ENERGY PREDICTED BY IDOCK:   -2.94 KCAL/MOL
REMARK 922        TOTAL FREE ENERGY PREDICTED BY IDOCK:   -3.90 KCAL/MOL
REMARK 923 INTER-LIGAND FREE ENERGY PREDICTED BY IDOCK:   -3.52 KCAL/MOL
REMARK 924 INTRA-LIGAND FREE ENERGY PREDICTED BY IDOCK:   -0.38 KCAL/MOL
REMARK 927      BINDING AFFINITY PREDICTED BY RF-SCORE:    0.00 PKD
ROOT
HETATM    1  C   UNL     1      -6.730  15.810  69.108  1.00  0.00    -0.154 C  
HETATM    2  C   UNL     1      -7.022  14.929  67.908  1.00  0.00    -0.156 C  
ENDROOT
BRANCH   2   3
HETATM    3  O   UNL     1      -8.416  15.001  67.579  1.00  0.00    -0.154 OA 
BRANCH   3   4
HETATM    4  C   UNL     1      -9.073  13.812  67.482  1.00  0.00    -0.209 C  
HETATM    5  O   UNL     1     -10.219  13.645  67.896  1.00  0.00    -0.239 OA 
HETATM    6  N   UNL     1      -8.284  12.924  66.863  1.00  0.00    -0.394 N  
HETATM    7  H   UNL     1      -7.364  13.174  66.502  1.00  0.00     0.000 HD 
BRANCH   6   8
HETATM    8  C   UNL     1      -8.786  11.684  66.751  1.00  0.00    -0.189 A  
HETATM    9  C   UNL     1      -8.589  10.621  67.599  1.00  0.00    -0.118 A  
HETATM   10  N   UNL     1      -9.439   9.646  67.142  1.00  0.00    -0.145 NA 
HETATM   11  O   UNL     1      -9.648  11.285  65.755  1.00  0.00    -0.211 OA 
HETATM   12  N   UNL     1     -10.073   9.974  66.028  1.00  0.00    -0.260 NA 
BRANCH  10  13
HETATM   13  N   UNL     1      -9.788   8.465  67.859  1.00  0.00    -0.162 NA 
HETATM   14  C   UNL     1      -9.778   8.419  69.312  1.00  0.00    -0.177 C  
HETATM   15  C   UNL     1     -10.892   7.467  69.767  1.00  0.00    -0.225 C  
HETATM   16  O   UNL     1     -10.744   6.179  69.158  1.00  0.00    -0.245 OA 
HETATM   17  C   UNL     1     -10.788   6.273  67.729  1.00  0.00    -0.338 C  
HETATM   18  C   UNL     1      -9.661   7.169  67.209  1.00  0.00    -0.143 C  
ENDBRANCH  10  13
ENDBRANCH   6   8
ENDBRANCH   3   4
ENDBRANCH   2   3
TORSDOF 4
ENDMDL
MODEL      143
REMARK 921   NORMALIZED FREE ENERGY PREDICTED BY IDOCK:   -2.93 KCAL/MOL
REMARK 922        TOTAL FREE ENERGY PREDICTED BY IDOCK:   -3.89 KCAL/MOL
REMARK 923 INTER-LIGAND FREE ENERGY PREDICTED BY IDOCK:   -3.63 KCAL/MOL
REMARK 924 INTRA-LIGAND FREE ENERGY PREDICTED BY IDOCK:   -0.27 KCAL/MOL
REMARK 927      BINDING AFFINITY PREDICTED BY RF-SCORE:    0.00 PKD
ROOT
HETATM    1  C   UNL     1     -12.141  13.265  70.105  1.00  0.00    -0.403 C  
HETATM    2  C   UNL     1     -12.882  12.910  71.381  1.00  0.00    -0.283 C  
ENDROOT
BRANCH   2   3
HETATM    3  O   UNL     1     -12.348  11.697  71.931  1.00  0.00     0.065 OA 
BRANCH   3   4
HETATM    4  C   UNL     1     -12.451  10.586  71.150  1.00  0.00    -0.412 C  
HETATM    5  O   UNL     1     -13.477  10.290  70.540  1.00  0.00    -0.175 OA 
HETATM    6  N   UNL     1     -11.281   9.934  71.158  1.00  0.00    -0.362 N  
HETATM    7  H   UNL     1     -10.463  10.291  71.652  1.00  0.00     0.000 HD 
BRANCH   6   8
HETATM    8  C   UNL     1     -11.256   8.781  70.472  1.00  0.00    -0.247 A  
HETATM    9  C   UNL     1     -10.667   8.543  69.253  1.00  0.00    -0.133 A  
HETATM   10  N   UNL     1     -10.776   7.188  69.070  1.00  0.00    -0.207 NA 
HETATM   11  O   UNL     1     -11.797   7.599  70.925  1.00  0.00    -0.289 OA 
HETATM   12  N   UNL     1     -11.467   6.577  70.019  1.00  0.00    -0.407 NA 
BRANCH  10  13
HETATM   13  N   UNL     1     -10.072   6.439  68.083  1.00  0.00    -0.139 NA 
HETATM   14  C   UNL     1      -9.818   6.970  66.754  1.00  0.00    -0.186 C  
HETATM   15  C   UNL     1      -8.471   6.419  66.270  1.00  0.00    -0.131 C  
HETATM   16  O   UNL     1      -8.456   4.987  66.321  1.00  0.00    -0.112 OA 
HETATM   17  C   UNL     1      -8.682   4.513  67.654  1.00  0.00    -0.104 C  
HETATM   18  C   UNL     1     -10.043   4.986  68.173  1.00  0.00    -0.103 C  
ENDBRANCH  10  13
ENDBRANCH   6   8
ENDBRANCH   3   4
ENDBRANCH   2   3
TORSDOF 4
ENDMDL
MODEL      144
REMARK 921   NORMALIZED FREE ENERGY PREDICTED BY IDOCK:   -2.91 KCAL/MOL
REMARK 922        TOTAL FREE ENERGY PREDICTED BY IDOCK:   -3.87 KCAL/MOL
REMARK 923 INTER-LIGAND FREE ENERGY PREDICTED BY IDOCK:   -3.66 KCAL/MOL
REMARK 924 INTRA-LIGAND FREE ENERGY PREDICTED BY IDOCK:   -0.20 KCAL/MOL
REMARK 927      BINDING AFFINITY PREDICTED BY RF-SCORE:    0.00 PKD
ROOT
HETATM    1  C   UNL     1     -11.866  14.674  67.794  1.00  0.00    -0.359 C  
HETATM    2  C   UNL     1     -12.153  13.992  69.118  1.00  0.00    -0.337 C  
ENDROOT
BRANCH   2   3
HETATM    3  O   UNL     1     -11.172  12.974  69.363  1.00  0.00    -0.226 OA 
BRANCH   3   4
HETATM    4  C   UNL     1     -11.084  11.987  68.429  1.00  0.00    -0.245 C  
HETATM    5  O   UNL     1     -12.022  11.243  68.150  1.00  0.00    -0.610 OA 
HETATM    6  N   UNL     1      -9.857  12.003  67.890  1.00  0.00    -0.190 N  
HETATM    7  H   UNL     1      -9.159  12.701  68.147  1.00  0.00     0.000 HD 
BRANCH   6   8
HETATM    8  C   UNL     1      -9.609  11.039  66.989  1.00  0.00    -0.177 A  
HETATM    9  C   UNL     1      -8.867   9.896  67.168  1.00  0.00    -0.138 A  
HETATM   10  N   UNL     1      -9.057   9.172  66.018  1.00  0.00    -0.181 NA 
HETATM   11  O   UNL     1     -10.120  11.024  65.711  1.00  0.00    -0.233 OA 
HETATM   12  N   UNL     1      -9.770   9.807  65.102  1.00  0.00    -0.300 NA 
BRANCH  10  13
HETATM   13  N   UNL     1      -8.711   7.800  65.851  1.00  0.00    -0.155 NA 
HETATM   14  C   UNL     1      -8.044   7.317  64.653  1.00  0.00    -0.081 C  
HETATM   15  C   UNL     1      -7.118   6.162  65.055  1.00  0.00    -0.061 C  
HETATM   16  O   UNL     1      -7.844   5.141  65.750  1.00  0.00    -0.093 OA 
HETATM   17  C   UNL     1      -8.459   5.659  66.936  1.00  0.00    -0.111 C  
HETATM   18  C   UNL     1      -9.441   6.782  66.592  1.00  0.00    -0.165 C  
ENDBRANCH  10  13
ENDBRANCH   6   8
ENDBRANCH   3   4
ENDBRANCH   2   3
TORSDOF 4
ENDMDL
MODEL      145
REMARK 921   NORMALIZED FREE ENERGY PREDICTED BY IDOCK:   -2.90 KCAL/MOL
REMARK 922        TOTAL FREE ENERGY PREDICTED BY IDOCK:   -3.85 KCAL/MOL
REMARK 923 INTER-LIGAND FREE ENERGY PREDICTED BY IDOCK:   -3.53 KCAL/MOL
REMARK 924 INTRA-LIGAND FREE ENERGY PREDICTED BY IDOCK:   -0.32 KCAL/MOL
REMARK 927      BINDING AFFINITY PREDICTED BY RF-SCORE:    0.00 PKD
ROOT
HETATM    1  C   UNL     1      -6.520  14.826  69.840  1.00  0.00    -0.164 C  
HETATM    2  C   UNL     1      -6.904  13.710  68.886  1.00  0.00    -0.110 C  
ENDROOT
BRANCH   2   3
HETATM    3  O   UNL     1      -8.270  13.867  68.478  1.00  0.00    -0.146 OA 
BRANCH   3   4
HETATM    4  C   UNL     1      -9.045  12.748  68.530  1.00  0.00    -0.049 C  
HETATM    5  O   UNL     1     -10.251  12.758  68.289  1.00  0.00    -0.233 OA 
HETATM    6  N   UNL     1      -8.278  11.698  68.849  1.00  0.00    -0.349 N  
HETATM    7  H   UNL     1      -7.269  11.779  68.974  1.00  0.00     0.000 HD 
BRANCH   6   8
HETATM    8  C   UNL     1      -8.925  10.531  68.993  1.00  0.00    -0.176 A  
HETATM    9  C   UNL     1      -9.227   9.879  70.165  1.00  0.00    -0.135 A  
HETATM   10  N   UNL     1     -10.030   8.833  69.786  1.00  0.00    -0.186 NA 
HETATM   11  O   UNL     1      -9.450   9.803  67.949  1.00  0.00    -0.131 OA 
HETATM   12  N   UNL     1     -10.173   8.719  68.476  1.00  0.00    -0.191 NA 
BRANCH  10  13
HETATM   13  N   UNL     1     -10.811   8.040  70.677  1.00  0.00    -0.230 NA 
HETATM   14  C   UNL     1     -12.077   8.512  71.215  1.00  0.00    -0.286 C  
HETATM   15  C   UNL     1     -13.001   7.301  71.391  1.00  0.00    -0.373 C  
HETATM   16  O   UNL     1     -12.380   6.296  72.202  1.00  0.00    -0.315 OA 
HETATM   17  C   UNL     1     -11.153   5.844  71.616  1.00  0.00    -0.258 C  
HETATM   18  C   UNL     1     -10.164   7.003  71.467  1.00  0.00    -0.198 C  
ENDBRANCH  10  13
ENDBRANCH   6   8
ENDBRANCH   3   4
ENDBRANCH   2   3
TORSDOF 4
ENDMDL
MODEL      146
REMARK 921   NORMALIZED FREE ENERGY PREDICTED BY IDOCK:   -2.90 KCAL/MOL
REMARK 922        TOTAL FREE ENERGY PREDICTED BY IDOCK:   -3.85 KCAL/MOL
REMARK 923 INTER-LIGAND FREE ENERGY PREDICTED BY IDOCK:   -3.75 KCAL/MOL
REMARK 924 INTRA-LIGAND FREE ENERGY PREDICTED BY IDOCK:   -0.10 KCAL/MOL
REMARK 927      BINDING AFFINITY PREDICTED BY RF-SCORE:    0.00 PKD
ROOT
HETATM    1  C   UNL     1     -10.526  11.031  65.867  1.00  0.00    -0.300 C  
HETATM    2  C   UNL     1      -9.042  10.821  65.632  1.00  0.00    -0.194 C  
ENDROOT
BRANCH   2   3
HETATM    3  O   UNL     1      -8.296  11.344  66.740  1.00  0.00    -0.153 OA 
BRANCH   3   4
HETATM    4  C   UNL     1      -8.757  11.022  67.980  1.00  0.00    -0.138 C  
HETATM    5  O   UNL     1      -9.472  11.771  68.644  1.00  0.00    -0.178 OA 
HETATM    6  N   UNL     1      -8.327   9.795  68.304  1.00  0.00    -0.106 N  
HETATM    7  H   UNL     1      -7.782   9.223  67.659  1.00  0.00     0.000 HD 
BRANCH   6   8
HETATM    8  C   UNL     1      -8.660   9.369  69.532  1.00  0.00    -0.158 A  
HETATM    9  C   UNL     1      -9.636   8.462  69.868  1.00  0.00    -0.171 A  
HETATM   10  N   UNL     1      -9.465   8.246  71.212  1.00  0.00    -0.161 NA 
HETATM   11  O   UNL     1      -8.017   9.756  70.686  1.00  0.00    -0.272 OA 
HETATM   12  N   UNL     1      -8.536   9.012  71.760  1.00  0.00    -0.350 NA 
BRANCH  10  13
HETATM   13  N   UNL     1     -10.064   7.184  71.951  1.00  0.00    -0.182 NA 
HETATM   14  C   UNL     1     -10.661   6.034  71.292  1.00  0.00    -0.246 C  
HETATM   15  C   UNL     1     -10.450   4.808  72.191  1.00  0.00    -0.175 C  
HETATM   16  O   UNL     1     -10.970   5.042  73.506  1.00  0.00    -0.285 OA 
HETATM   17  C   UNL     1     -10.331   6.167  74.123  1.00  0.00    -0.294 C  
HETATM   18  C   UNL     1     -10.555   7.437  73.297  1.00  0.00    -0.392 C  
ENDBRANCH  10  13
ENDBRANCH   6   8
ENDBRANCH   3   4
ENDBRANCH   2   3
TORSDOF 4
ENDMDL
MODEL      147
REMARK 921   NORMALIZED FREE ENERGY PREDICTED BY IDOCK:   -2.85 KCAL/MOL
REMARK 922        TOTAL FREE ENERGY PREDICTED BY IDOCK:   -3.79 KCAL/MOL
REMARK 923 INTER-LIGAND FREE ENERGY PREDICTED BY IDOCK:   -3.98 KCAL/MOL
REMARK 924 INTRA-LIGAND FREE ENERGY PREDICTED BY IDOCK:    0.20 KCAL/MOL
REMARK 927      BINDING AFFINITY PREDICTED BY RF-SCORE:    0.00 PKD
ROOT
HETATM    1  C   UNL     1     -10.748  10.148  68.539  1.00  0.00    -0.264 C  
HETATM    2  C   UNL     1     -10.612  11.432  67.742  1.00  0.00    -0.195 C  
ENDROOT
BRANCH   2   3
HETATM    3  O   UNL     1     -10.747  12.562  68.616  1.00  0.00    -0.232 OA 
BRANCH   3   4
HETATM    4  C   UNL     1     -10.129  13.707  68.216  1.00  0.00    -0.240 C  
HETATM    5  O   UNL     1     -10.742  14.688  67.798  1.00  0.00    -0.258 OA 
HETATM    6  N   UNL     1      -8.807  13.573  68.382  1.00  0.00    -0.261 N  
HETATM    7  H   UNL     1      -8.393  12.736  68.793  1.00  0.00     0.000 HD 
BRANCH   6   8
HETATM    8  C   UNL     1      -8.063  14.612  67.971  1.00  0.00    -0.135 A  
HETATM    9  C   UNL     1      -8.277  15.946  68.222  1.00  0.00    -0.152 A  
HETATM   10  N   UNL     1      -7.160  16.577  67.734  1.00  0.00    -0.131 NA 
HETATM   11  O   UNL     1      -6.898  14.492  67.247  1.00  0.00    -0.252 OA 
HETATM   12  N   UNL     1      -6.318  15.765  67.115  1.00  0.00    -0.321 NA 
BRANCH  10  13
HETATM   13  N   UNL     1      -6.801  17.929  68.008  1.00  0.00    -0.194 NA 
HETATM   14  C   UNL     1      -6.855  18.959  66.984  1.00  0.00    -0.201 C  
HETATM   15  C   UNL     1      -7.235  20.283  67.660  1.00  0.00    -0.301 C  
HETATM   16  O   UNL     1      -6.330  20.591  68.727  1.00  0.00    -0.315 OA 
HETATM   17  C   UNL     1      -6.334  19.561  69.723  1.00  0.00    -0.310 C  
HETATM   18  C   UNL     1      -5.907  18.221  69.118  1.00  0.00    -0.222 C  
ENDBRANCH  10  13
ENDBRANCH   6   8
ENDBRANCH   3   4
ENDBRANCH   2   3
TORSDOF 4
ENDMDL
MODEL      148
REMARK 921   NORMALIZED FREE ENERGY PREDICTED BY IDOCK:   -2.84 KCAL/MOL
REMARK 922        TOTAL FREE ENERGY PREDICTED BY IDOCK:   -3.77 KCAL/MOL
REMARK 923 INTER-LIGAND FREE ENERGY PREDICTED BY IDOCK:   -3.45 KCAL/MOL
REMARK 924 INTRA-LIGAND FREE ENERGY PREDICTED BY IDOCK:   -0.33 KCAL/MOL
REMARK 927      BINDING AFFINITY PREDICTED BY RF-SCORE:    0.00 PKD
ROOT
HETATM    1  C   UNL     1     -11.367  14.562  67.940  1.00  0.00    -0.329 C  
HETATM    2  C   UNL     1     -11.103  13.217  68.591  1.00  0.00    -0.268 C  
ENDROOT
BRANCH   2   3
HETATM    3  O   UNL     1      -9.837  12.705  68.152  1.00  0.00    -0.215 OA 
BRANCH   3   4
HETATM    4  C   UNL     1      -9.651  11.363  68.289  1.00  0.00    -0.192 C  
HETATM    5  O   UNL     1      -8.672  10.877  68.852  1.00  0.00    -0.162 OA 
HETATM    6  N   UNL     1     -10.692  10.719  67.745  1.00  0.00    -0.230 N  
HETATM    7  H   UNL     1     -11.491  11.214  67.349  1.00  0.00     0.000 HD 
BRANCH   6   8
HETATM    8  C   UNL     1     -10.613   9.379  67.757  1.00  0.00    -0.258 A  
HETATM    9  C   UNL     1     -10.304   8.549  66.706  1.00  0.00    -0.276 A  
HETATM   10  N   UNL     1     -10.191   7.302  67.266  1.00  0.00    -0.224 NA 
HETATM   11  O   UNL     1     -10.788   8.603  68.880  1.00  0.00    -0.133 OA 
HETATM   12  N   UNL     1     -10.498   7.267  68.553  1.00  0.00    -0.193 NA 
BRANCH  10  13
HETATM   13  N   UNL     1      -9.618   6.166  66.622  1.00  0.00    -0.150 NA 
HETATM   14  C   UNL     1      -8.442   6.278  65.775  1.00  0.00    -0.148 C  
HETATM   15  C   UNL     1      -7.626   4.987  65.921  1.00  0.00    -0.090 C  
HETATM   16  O   UNL     1      -8.430   3.837  65.627  1.00  0.00    -0.108 OA 
HETATM   17  C   UNL     1      -9.559   3.757  66.505  1.00  0.00    -0.169 C  
HETATM   18  C   UNL     1     -10.445   4.998  66.363  1.00  0.00    -0.300 C  
ENDBRANCH  10  13
ENDBRANCH   6   8
ENDBRANCH   3   4
ENDBRANCH   2   3
TORSDOF 4
ENDMDL
MODEL      149
REMARK 921   NORMALIZED FREE ENERGY PREDICTED BY IDOCK:   -2.80 KCAL/MOL
REMARK 922        TOTAL FREE ENERGY PREDICTED BY IDOCK:   -3.73 KCAL/MOL
REMARK 923 INTER-LIGAND FREE ENERGY PREDICTED BY IDOCK:   -4.17 KCAL/MOL
REMARK 924 INTRA-LIGAND FREE ENERGY PREDICTED BY IDOCK:    0.44 KCAL/MOL
REMARK 927      BINDING AFFINITY PREDICTED BY RF-SCORE:    0.00 PKD
ROOT
HETATM    1  C   UNL     1     -10.000   7.521  67.675  1.00  0.00    -0.219 C  
HETATM    2  C   UNL     1     -10.276   8.877  68.297  1.00  0.00    -0.201 C  
ENDROOT
BRANCH   2   3
HETATM    3  O   UNL     1     -11.240   9.587  67.506  1.00  0.00    -0.061 OA 
BRANCH   3   4
HETATM    4  C   UNL     1     -10.960  10.895  67.249  1.00  0.00    -0.294 C  
HETATM    5  O   UNL     1     -11.777  11.669  66.752  1.00  0.00    -0.541 OA 
HETATM    6  N   UNL     1      -9.708  11.162  67.643  1.00  0.00    -0.168 N  
HETATM    7  H   UNL     1      -9.122  10.464  68.101  1.00  0.00     0.000 HD 
BRANCH   6   8
HETATM    8  C   UNL     1      -9.276  12.408  67.394  1.00  0.00    -0.184 A  
HETATM    9  C   UNL     1     -10.032  13.551  67.289  1.00  0.00    -0.236 A  
HETATM   10  N   UNL     1      -9.116  14.569  67.199  1.00  0.00    -0.214 NA 
HETATM   11  O   UNL     1      -7.952  12.754  67.249  1.00  0.00    -0.173 OA 
HETATM   12  N   UNL     1      -7.862  14.152  67.140  1.00  0.00    -0.115 NA 
BRANCH  10  13
HETATM   13  N   UNL     1      -9.418  15.954  67.347  1.00  0.00    -0.218 NA 
HETATM   14  C   UNL     1      -9.460  16.855  66.207  1.00  0.00    -0.271 C  
HETATM   15  C   UNL     1     -10.530  17.921  66.482  1.00  0.00    -0.313 C  
HETATM   16  O   UNL     1     -10.280  18.589  67.725  1.00  0.00    -0.344 OA 
HETATM   17  C   UNL     1     -10.276  17.663  68.819  1.00  0.00    -0.373 C  
HETATM   18  C   UNL     1      -9.187  16.604  68.628  1.00  0.00    -0.248 C  
ENDBRANCH  10  13
ENDBRANCH   6   8
ENDBRANCH   3   4
ENDBRANCH   2   3
TORSDOF 4
ENDMDL
MODEL      150
REMARK 921   NORMALIZED FREE ENERGY PREDICTED BY IDOCK:   -2.78 KCAL/MOL
REMARK 922        TOTAL FREE ENERGY PREDICTED BY IDOCK:   -3.70 KCAL/MOL
REMARK 923 INTER-LIGAND FREE ENERGY PREDICTED BY IDOCK:   -3.44 KCAL/MOL
REMARK 924 INTRA-LIGAND FREE ENERGY PREDICTED BY IDOCK:   -0.26 KCAL/MOL
REMARK 927      BINDING AFFINITY PREDICTED BY RF-SCORE:    0.00 PKD
ROOT
HETATM    1  C   UNL     1     -13.148  11.559  71.720  1.00  0.00    -0.503 C  
HETATM    2  C   UNL     1     -13.084  10.043  71.739  1.00  0.00    -0.457 C  
ENDROOT
BRANCH   2   3
HETATM    3  O   UNL     1     -11.737   9.610  71.501  1.00  0.00    -0.371 OA 
BRANCH   3   4
HETATM    4  C   UNL     1     -11.592   8.380  70.936  1.00  0.00    -0.262 C  
HETATM    5  O   UNL     1     -12.327   7.430  71.201  1.00  0.00    -0.327 OA 
HETATM    6  N   UNL     1     -10.570   8.412  70.070  1.00  0.00    -0.232 N  
HETATM    7  H   UNL     1     -10.052   9.269  69.873  1.00  0.00     0.000 HD 
BRANCH   6   8
HETATM    8  C   UNL     1     -10.275   7.244  69.479  1.00  0.00    -0.198 A  
HETATM    9  C   UNL     1      -9.206   6.420  69.740  1.00  0.00    -0.144 A  
HETATM   10  N   UNL     1      -9.447   5.290  69.000  1.00  0.00    -0.126 NA 
HETATM   11  O   UNL     1     -11.055   6.644  68.516  1.00  0.00    -0.256 OA 
HETATM   12  N   UNL     1     -10.518   5.378  68.228  1.00  0.00    -0.156 NA 
BRANCH  10  13
HETATM   13  N   UNL     1      -8.760   4.051  69.155  1.00  0.00    -0.083 NA 
HETATM   14  C   UNL     1      -7.721   3.629  68.229  1.00  0.00    -0.061 C  
HETATM   15  C   UNL     1      -6.682   2.820  69.016  1.00  0.00    -0.033 C  
HETATM   16  O   UNL     1      -7.300   1.730  69.710  1.00  0.00    -0.036 OA 
HETATM   17  C   UNL     1      -8.294   2.198  70.630  1.00  0.00    -0.049 C  
HETATM   18  C   UNL     1      -9.393   2.968  69.893  1.00  0.00    -0.151 C  
ENDBRANCH  10  13
ENDBRANCH   6   8
ENDBRANCH   3   4
ENDBRANCH   2   3
TORSDOF 4
ENDMDL
MODEL      151
REMARK 921   NORMALIZED FREE ENERGY PREDICTED BY IDOCK:   -2.77 KCAL/MOL
REMARK 922        TOTAL FREE ENERGY PREDICTED BY IDOCK:   -3.70 KCAL/MOL
REMARK 923 INTER-LIGAND FREE ENERGY PREDICTED BY IDOCK:   -4.26 KCAL/MOL
REMARK 924 INTRA-LIGAND FREE ENERGY PREDICTED BY IDOCK:    0.57 KCAL/MOL
REMARK 927      BINDING AFFINITY PREDICTED BY RF-SCORE:    0.00 PKD
ROOT
HETATM    1  C   UNL     1     -12.907  11.183  71.984  1.00  0.00    -0.285 C  
HETATM    2  C   UNL     1     -12.941   9.960  71.085  1.00  0.00    -0.369 C  
ENDROOT
BRANCH   2   3
HETATM    3  O   UNL     1     -11.669   9.792  70.445  1.00  0.00    -0.261 OA 
BRANCH   3   4
HETATM    4  C   UNL     1     -11.304  10.768  69.567  1.00  0.00    -0.289 C  
HETATM    5  O   UNL     1     -12.119  11.483  68.985  1.00  0.00    -0.326 OA 
HETATM    6  N   UNL     1      -9.968  10.809  69.487  1.00  0.00    -0.431 N  
HETATM    7  H   UNL     1      -9.370  10.210  70.057  1.00  0.00     0.000 HD 
BRANCH   6   8
HETATM    8  C   UNL     1      -9.468  11.692  68.608  1.00  0.00    -0.123 A  
HETATM    9  C   UNL     1      -9.979  12.923  68.274  1.00  0.00    -0.234 A  
HETATM   10  N   UNL     1      -9.023  13.493  67.472  1.00  0.00    -0.199 NA 
HETATM   11  O   UNL     1      -8.291  11.513  67.916  1.00  0.00    -0.125 OA 
HETATM   12  N   UNL     1      -8.009  12.688  67.200  1.00  0.00    -0.155 NA 
BRANCH  10  13
HETATM   13  N   UNL     1      -8.981  14.870  67.104  1.00  0.00    -0.201 NA 
HETATM   14  C   UNL     1      -9.908  15.433  66.136  1.00  0.00    -0.311 C  
HETATM   15  C   UNL     1     -10.194  16.885  66.538  1.00  0.00    -0.318 C  
HETATM   16  O   UNL     1      -8.977  17.632  66.660  1.00  0.00    -0.249 OA 
HETATM   17  C   UNL     1      -8.111  17.055  67.645  1.00  0.00    -0.180 C  
HETATM   18  C   UNL     1      -7.744  15.617  67.268  1.00  0.00    -0.206 C  
ENDBRANCH  10  13
ENDBRANCH   6   8
ENDBRANCH   3   4
ENDBRANCH   2   3
TORSDOF 4
ENDMDL
MODEL      152
REMARK 921   NORMALIZED FREE ENERGY PREDICTED BY IDOCK:   -2.76 KCAL/MOL
REMARK 922        TOTAL FREE ENERGY PREDICTED BY IDOCK:   -3.68 KCAL/MOL
REMARK 923 INTER-LIGAND FREE ENERGY PREDICTED BY IDOCK:   -3.43 KCAL/MOL
REMARK 924 INTRA-LIGAND FREE ENERGY PREDICTED BY IDOCK:   -0.25 KCAL/MOL
REMARK 927      BINDING AFFINITY PREDICTED BY RF-SCORE:    0.00 PKD
ROOT
HETATM    1  C   UNL     1     -11.644   5.612  72.456  1.00  0.00    -0.303 C  
HETATM    2  C   UNL     1     -11.003   6.986  72.406  1.00  0.00    -0.248 C  
ENDROOT
BRANCH   2   3
HETATM    3  O   UNL     1     -11.859   7.896  71.700  1.00  0.00    -0.268 OA 
BRANCH   3   4
HETATM    4  C   UNL     1     -11.247   8.737  70.821  1.00  0.00    -0.266 C  
HETATM    5  O   UNL     1     -10.948   9.896  71.101  1.00  0.00    -0.333 OA 
HETATM    6  N   UNL     1     -11.026   8.085  69.671  1.00  0.00    -0.419 N  
HETATM    7  H   UNL     1     -11.260   7.099  69.552  1.00  0.00     0.000 HD 
BRANCH   6   8
HETATM    8  C   UNL     1     -10.478   8.816  68.688  1.00  0.00    -0.183 A  
HETATM    9  C   UNL     1      -9.254   8.631  68.090  1.00  0.00    -0.137 A  
HETATM   10  N   UNL     1      -9.237   9.522  67.046  1.00  0.00    -0.137 NA 
HETATM   11  O   UNL     1     -11.103   9.875  68.069  1.00  0.00    -0.249 OA 
HETATM   12  N   UNL     1     -10.299  10.310  67.002  1.00  0.00    -0.231 NA 
BRANCH  10  13
HETATM   13  N   UNL     1      -8.293   9.509  65.978  1.00  0.00    -0.118 NA 
HETATM   14  C   UNL     1      -7.299  10.558  65.822  1.00  0.00    -0.137 C  
HETATM   15  C   UNL     1      -6.033   9.929  65.226  1.00  0.00    -0.084 C  
HETATM   16  O   UNL     1      -6.329   9.241  64.004  1.00  0.00    -0.086 OA 
HETATM   17  C   UNL     1      -7.291   8.201  64.215  1.00  0.00    -0.094 C  
HETATM   18  C   UNL     1      -8.601   8.777  64.759  1.00  0.00    -0.134 C  
ENDBRANCH  10  13
ENDBRANCH   6   8
ENDBRANCH   3   4
ENDBRANCH   2   3
TORSDOF 4
ENDMDL
MODEL      153
REMARK 921   NORMALIZED FREE ENERGY PREDICTED BY IDOCK:   -2.76 KCAL/MOL
REMARK 922        TOTAL FREE ENERGY PREDICTED BY IDOCK:   -3.67 KCAL/MOL
REMARK 923 INTER-LIGAND FREE ENERGY PREDICTED BY IDOCK:   -3.31 KCAL/MOL
REMARK 924 INTRA-LIGAND FREE ENERGY PREDICTED BY IDOCK:   -0.36 KCAL/MOL
REMARK 927      BINDING AFFINITY PREDICTED BY RF-SCORE:    0.00 PKD
ROOT
HETATM    1  C   UNL     1      -8.743   4.247  63.536  1.00  0.00    -0.121 C  
HETATM    2  C   UNL     1      -9.188   4.794  64.880  1.00  0.00    -0.116 C  
ENDROOT
BRANCH   2   3
HETATM    3  O   UNL     1      -8.044   5.208  65.639  1.00  0.00    -0.109 OA 
BRANCH   3   4
HETATM    4  C   UNL     1      -7.970   6.534  65.940  1.00  0.00    -0.115 C  
HETATM    5  O   UNL     1      -6.955   7.206  65.759  1.00  0.00    -0.058 OA 
HETATM    6  N   UNL     1      -9.153   6.942  66.417  1.00  0.00    -0.159 N  
HETATM    7  H   UNL     1      -9.959   6.320  66.476  1.00  0.00     0.000 HD 
BRANCH   6   8
HETATM    8  C   UNL     1      -9.206   8.224  66.812  1.00  0.00    -0.169 A  
HETATM    9  C   UNL     1      -9.749   9.288  66.131  1.00  0.00    -0.279 A  
HETATM   10  N   UNL     1      -9.704  10.331  67.021  1.00  0.00    -0.170 NA 
HETATM   11  O   UNL     1      -8.752   8.679  68.029  1.00  0.00    -0.139 OA 
HETATM   12  N   UNL     1      -9.093  10.036  68.157  1.00  0.00    -0.121 NA 
BRANCH  10  13
HETATM   13  N   UNL     1     -10.399  11.566  66.866  1.00  0.00    -0.216 NA 
HETATM   14  C   UNL     1     -11.520  11.927  67.718  1.00  0.00    -0.319 C  
HETATM   15  C   UNL     1     -11.504  13.449  67.908  1.00  0.00    -0.315 C  
HETATM   16  O   UNL     1     -11.514  14.123  66.643  1.00  0.00    -0.337 OA 
HETATM   17  C   UNL     1     -10.376  13.756  65.852  1.00  0.00    -0.309 C  
HETATM   18  C   UNL     1     -10.368  12.249  65.581  1.00  0.00    -0.257 C  
ENDBRANCH  10  13
ENDBRANCH   6   8
ENDBRANCH   3   4
ENDBRANCH   2   3
TORSDOF 4
ENDMDL
MODEL      154
REMARK 921   NORMALIZED FREE ENERGY PREDICTED BY IDOCK:   -2.63 KCAL/MOL
REMARK 922        TOTAL FREE ENERGY PREDICTED BY IDOCK:   -3.51 KCAL/MOL
REMARK 923 INTER-LIGAND FREE ENERGY PREDICTED BY IDOCK:   -3.25 KCAL/MOL
REMARK 924 INTRA-LIGAND FREE ENERGY PREDICTED BY IDOCK:   -0.26 KCAL/MOL
REMARK 927      BINDING AFFINITY PREDICTED BY RF-SCORE:    0.00 PKD
ROOT
HETATM    1  C   UNL     1      -8.871   3.662  63.174  1.00  0.00    -0.097 C  
HETATM    2  C   UNL     1      -9.092   4.183  64.581  1.00  0.00    -0.146 C  
ENDROOT
BRANCH   2   3
HETATM    3  O   UNL     1      -8.689   5.558  64.659  1.00  0.00    -0.117 OA 
BRANCH   3   4
HETATM    4  C   UNL     1      -8.730   6.128  65.895  1.00  0.00    -0.154 C  
HETATM    5  O   UNL     1      -8.501   5.502  66.928  1.00  0.00    -0.111 OA 
HETATM    6  N   UNL     1      -9.027   7.428  65.769  1.00  0.00    -0.354 N  
HETATM    7  H   UNL     1      -9.144   7.873  64.858  1.00  0.00     0.000 HD 
BRANCH   6   8
HETATM    8  C   UNL     1      -9.159   8.106  66.920  1.00  0.00    -0.154 A  
HETATM    9  C   UNL     1     -10.252   8.137  67.752  1.00  0.00    -0.228 A  
HETATM   10  N   UNL     1      -9.828   8.827  68.860  1.00  0.00    -0.173 NA 
HETATM   11  O   UNL     1      -8.163   8.865  67.490  1.00  0.00    -0.108 OA 
HETATM   12  N   UNL     1      -8.602   9.311  68.748  1.00  0.00    -0.129 NA 
BRANCH  10  13
HETATM   13  N   UNL     1     -10.523   8.879  70.104  1.00  0.00    -0.207 NA 
HETATM   14  C   UNL     1     -11.796   9.566  70.243  1.00  0.00    -0.057 C  
HETATM   15  C   UNL     1     -12.632   8.814  71.286  1.00  0.00    -0.246 C  
HETATM   16  O   UNL     1     -11.917   8.690  72.522  1.00  0.00    -0.368 OA 
HETATM   17  C   UNL     1     -10.685   7.982  72.338  1.00  0.00    -0.320 C  
HETATM   18  C   UNL     1      -9.781   8.717  71.345  1.00  0.00    -0.280 C  
ENDBRANCH  10  13
ENDBRANCH   6   8
ENDBRANCH   3   4
ENDBRANCH   2   3
TORSDOF 4
ENDMDL
MODEL      155
REMARK 921   NORMALIZED FREE ENERGY PREDICTED BY IDOCK:   -2.62 KCAL/MOL
REMARK 922        TOTAL FREE ENERGY PREDICTED BY IDOCK:   -3.50 KCAL/MOL
REMARK 923 INTER-LIGAND FREE ENERGY PREDICTED BY IDOCK:   -3.31 KCAL/MOL
REMARK 924 INTRA-LIGAND FREE ENERGY PREDICTED BY IDOCK:   -0.19 KCAL/MOL
REMARK 927      BINDING AFFINITY PREDICTED BY RF-SCORE:    0.00 PKD
ROOT
HETATM    1  C   UNL     1     -11.024  11.335  65.917  1.00  0.00    -0.221 C  
HETATM    2  C   UNL     1     -10.254  10.089  66.314  1.00  0.00    -0.215 C  
ENDROOT
BRANCH   2   3
HETATM    3  O   UNL     1      -9.427  10.373  67.452  1.00  0.00    -0.148 OA 
BRANCH   3   4
HETATM    4  C   UNL     1      -8.637  11.478  67.360  1.00  0.00    -0.145 C  
HETATM    5  O   UNL     1      -7.781  11.618  66.488  1.00  0.00    -0.109 OA 
HETATM    6  N   UNL     1      -8.971  12.338  68.331  1.00  0.00    -0.296 N  
HETATM    7  H   UNL     1      -9.739  12.157  68.977  1.00  0.00     0.000 HD 
BRANCH   6   8
HETATM    8  C   UNL     1      -8.228  13.454  68.396  1.00  0.00    -0.139 A  
HETATM    9  C   UNL     1      -8.542  14.699  67.904  1.00  0.00    -0.165 A  
HETATM   10  N   UNL     1      -7.546  15.520  68.370  1.00  0.00    -0.114 NA 
HETATM   11  O   UNL     1      -7.012  13.539  69.035  1.00  0.00    -0.110 OA 
HETATM   12  N   UNL     1      -6.591  14.879  69.024  1.00  0.00    -0.103 NA 
BRANCH  10  13
HETATM   13  N   UNL     1      -7.586  16.945  68.348  1.00  0.00    -0.199 NA 
HETATM   14  C   UNL     1      -8.601  17.672  67.604  1.00  0.00    -0.224 C  
HETATM   15  C   UNL     1      -8.916  18.965  68.367  1.00  0.00    -0.340 C  
HETATM   16  O   UNL     1      -7.724  19.728  68.594  1.00  0.00    -0.329 OA 
HETATM   17  C   UNL     1      -6.767  18.980  69.355  1.00  0.00    -0.266 C  
HETATM   18  C   UNL     1      -6.370  17.699  68.615  1.00  0.00    -0.192 C  
ENDBRANCH  10  13
ENDBRANCH   6   8
ENDBRANCH   3   4
ENDBRANCH   2   3
TORSDOF 4
ENDMDL
MODEL      156
REMARK 921   NORMALIZED FREE ENERGY PREDICTED BY IDOCK:   -2.58 KCAL/MOL
REMARK 922        TOTAL FREE ENERGY PREDICTED BY IDOCK:   -3.46 KCAL/MOL
REMARK 923 INTER-LIGAND FREE ENERGY PREDICTED BY IDOCK:   -3.16 KCAL/MOL
REMARK 924 INTRA-LIGAND FREE ENERGY PREDICTED BY IDOCK:   -0.29 KCAL/MOL
REMARK 927      BINDING AFFINITY PREDICTED BY RF-SCORE:    0.00 PKD
ROOT
HETATM    1  C   UNL     1      -9.999   3.768  63.249  1.00  0.00    -0.162 C  
HETATM    2  C   UNL     1     -10.822   4.302  64.407  1.00  0.00    -0.012 C  
ENDROOT
BRANCH   2   3
HETATM    3  O   UNL     1     -10.167   4.000  65.647  1.00  0.00    -0.166 OA 
BRANCH   3   4
HETATM    4  C   UNL     1      -9.904   5.059  66.461  1.00  0.00    -0.199 C  
HETATM    5  O   UNL     1     -10.103   5.036  67.675  1.00  0.00    -0.169 OA 
HETATM    6  N   UNL     1      -9.394   6.059  65.730  1.00  0.00    -0.359 N  
HETATM    7  H   UNL     1      -9.210   5.963  64.731  1.00  0.00     0.000 HD 
BRANCH   6   8
HETATM    8  C   UNL     1      -9.140   7.195  66.399  1.00  0.00    -0.157 A  
HETATM    9  C   UNL     1      -9.923   8.323  66.459  1.00  0.00    -0.250 A  
HETATM   10  N   UNL     1      -9.313   9.122  67.393  1.00  0.00    -0.133 NA 
HETATM   11  O   UNL     1      -8.038   7.393  67.199  1.00  0.00    -0.111 OA 
HETATM   12  N   UNL     1      -8.170   8.633  67.846  1.00  0.00    -0.114 NA 
BRANCH  10  13
HETATM   13  N   UNL     1      -9.903  10.273  67.993  1.00  0.00    -0.149 NA 
HETATM   14  C   UNL     1      -9.213  11.552  68.040  1.00  0.00    -0.175 C  
HETATM   15  C   UNL     1     -10.265  12.664  67.938  1.00  0.00    -0.220 C  
HETATM   16  O   UNL     1     -11.262  12.520  68.956  1.00  0.00    -0.252 OA 
HETATM   17  C   UNL     1     -11.932  11.258  68.851  1.00  0.00    -0.310 C  
HETATM   18  C   UNL     1     -10.938  10.103  69.002  1.00  0.00    -0.226 C  
ENDBRANCH  10  13
ENDBRANCH   6   8
ENDBRANCH   3   4
ENDBRANCH   2   3
TORSDOF 4
ENDMDL
MODEL      157
REMARK 921   NORMALIZED FREE ENERGY PREDICTED BY IDOCK:   -2.56 KCAL/MOL
REMARK 922        TOTAL FREE ENERGY PREDICTED BY IDOCK:   -3.43 KCAL/MOL
REMARK 923 INTER-LIGAND FREE ENERGY PREDICTED BY IDOCK:   -3.13 KCAL/MOL
REMARK 924 INTRA-LIGAND FREE ENERGY PREDICTED BY IDOCK:   -0.30 KCAL/MOL
REMARK 927      BINDING AFFINITY PREDICTED BY RF-SCORE:    0.00 PKD
ROOT
HETATM    1  C   UNL     1      -8.841   1.596  71.364  1.00  0.00    -0.105 C  
HETATM    2  C   UNL     1      -7.959   2.830  71.330  1.00  0.00    -0.051 C  
ENDROOT
BRANCH   2   3
HETATM    3  O   UNL     1      -8.392   3.708  70.281  1.00  0.00    -0.056 OA 
BRANCH   3   4
HETATM    4  C   UNL     1      -8.878   4.918  70.673  1.00  0.00    -0.117 C  
HETATM    5  O   UNL     1      -8.551   5.462  71.726  1.00  0.00    -0.128 OA 
HETATM    6  N   UNL     1      -9.712   5.380  69.732  1.00  0.00    -0.169 N  
HETATM    7  H   UNL     1      -9.878   4.880  68.859  1.00  0.00     0.000 HD 
BRANCH   6   8
HETATM    8  C   UNL     1     -10.314   6.546  70.015  1.00  0.00    -0.198 A  
HETATM    9  C   UNL     1     -10.097   7.767  69.422  1.00  0.00    -0.195 A  
HETATM   10  N   UNL     1     -11.067   8.586  69.942  1.00  0.00    -0.173 NA 
HETATM   11  O   UNL     1     -11.317   6.693  70.946  1.00  0.00    -0.285 OA 
HETATM   12  N   UNL     1     -11.804   8.010  70.878  1.00  0.00    -0.265 NA 
BRANCH  10  13
HETATM   13  N   UNL     1     -11.414   9.869  69.427  1.00  0.00    -0.095 NA 
HETATM   14  C   UNL     1     -12.260  10.790  70.169  1.00  0.00    -0.346 C  
HETATM   15  C   UNL     1     -11.802  12.219  69.850  1.00  0.00    -0.311 C  
HETATM   16  O   UNL     1     -11.809  12.456  68.437  1.00  0.00    -0.322 OA 
HETATM   17  C   UNL     1     -10.940  11.543  67.755  1.00  0.00    -0.236 C  
HETATM   18  C   UNL     1     -11.381  10.096  67.990  1.00  0.00    -0.078 C  
ENDBRANCH  10  13
ENDBRANCH   6   8
ENDBRANCH   3   4
ENDBRANCH   2   3
TORSDOF 4
ENDMDL
MODEL      158
REMARK 921   NORMALIZED FREE ENERGY PREDICTED BY IDOCK:   -2.52 KCAL/MOL
REMARK 922        TOTAL FREE ENERGY PREDICTED BY IDOCK:   -3.38 KCAL/MOL
REMARK 923 INTER-LIGAND FREE ENERGY PREDICTED BY IDOCK:   -3.07 KCAL/MOL
REMARK 924 INTRA-LIGAND FREE ENERGY PREDICTED BY IDOCK:   -0.31 KCAL/MOL
REMARK 927      BINDING AFFINITY PREDICTED BY RF-SCORE:    0.00 PKD
ROOT
HETATM    1  C   UNL     1      -8.877   3.126  64.486  1.00  0.00    -0.109 C  
HETATM    2  C   UNL     1      -9.766   4.335  64.713  1.00  0.00    -0.164 C  
ENDROOT
BRANCH   2   3
HETATM    3  O   UNL     1     -10.293   4.306  66.047  1.00  0.00    -0.209 OA 
BRANCH   3   4
HETATM    4  C   UNL     1     -10.219   5.471  66.748  1.00  0.00    -0.233 C  
HETATM    5  O   UNL     1     -10.614   5.581  67.908  1.00  0.00    -0.205 OA 
HETATM    6  N   UNL     1      -9.643   6.407  65.983  1.00  0.00    -0.386 N  
HETATM    7  H   UNL     1      -9.293   6.204  65.046  1.00  0.00     0.000 HD 
BRANCH   6   8
HETATM    8  C   UNL     1      -9.558   7.630  66.530  1.00  0.00    -0.186 A  
HETATM    9  C   UNL     1      -8.420   8.297  66.917  1.00  0.00    -0.118 A  
HETATM   10  N   UNL     1      -8.850   9.557  67.252  1.00  0.00    -0.128 NA 
HETATM   11  O   UNL     1     -10.637   8.456  66.751  1.00  0.00    -0.295 OA 
HETATM   12  N   UNL     1     -10.165   9.700  67.202  1.00  0.00    -0.227 NA 
BRANCH  10  13
HETATM   13  N   UNL     1      -8.000  10.683  67.451  1.00  0.00    -0.110 NA 
HETATM   14  C   UNL     1      -6.559  10.542  67.582  1.00  0.00    -0.065 C  
HETATM   15  C   UNL     1      -5.901  11.787  66.972  1.00  0.00    -0.145 C  
HETATM   16  O   UNL     1      -6.411  12.983  67.574  1.00  0.00    -0.153 OA 
HETATM   17  C   UNL     1      -7.829  13.090  67.394  1.00  0.00    -0.164 C  
HETATM   18  C   UNL     1      -8.548  11.899  68.034  1.00  0.00    -0.168 C  
ENDBRANCH  10  13
ENDBRANCH   6   8
ENDBRANCH   3   4
ENDBRANCH   2   3
TORSDOF 4
ENDMDL
MODEL      159
REMARK 921   NORMALIZED FREE ENERGY PREDICTED BY IDOCK:   -2.46 KCAL/MOL
REMARK 922        TOTAL FREE ENERGY PREDICTED BY IDOCK:   -3.31 KCAL/MOL
REMARK 923 INTER-LIGAND FREE ENERGY PREDICTED BY IDOCK:   -2.93 KCAL/MOL
REMARK 924 INTRA-LIGAND FREE ENERGY PREDICTED BY IDOCK:   -0.38 KCAL/MOL
REMARK 927      BINDING AFFINITY PREDICTED BY RF-SCORE:    0.00 PKD
ROOT
HETATM    1  C   UNL     1      -8.578   3.950  63.357  1.00  0.00    -0.096 C  
HETATM    2  C   UNL     1      -9.548   3.089  64.145  1.00  0.00    -0.146 C  
ENDROOT
BRANCH   2   3
HETATM    3  O   UNL     1      -9.375   3.324  65.550  1.00  0.00    -0.151 OA 
BRANCH   3   4
HETATM    4  C   UNL     1      -9.888   4.489  66.032  1.00  0.00    -0.229 C  
HETATM    5  O   UNL     1     -11.020   4.886  65.760  1.00  0.00    -0.230 OA 
HETATM    6  N   UNL     1      -8.983   5.070  66.831  1.00  0.00    -0.112 N  
HETATM    7  H   UNL     1      -8.086   4.633  67.044  1.00  0.00     0.000 HD 
BRANCH   6   8
HETATM    8  C   UNL     1      -9.335   6.264  67.333  1.00  0.00    -0.115 A  
HETATM    9  C   UNL     1      -8.954   7.506  66.885  1.00  0.00    -0.135 A  
HETATM   10  N   UNL     1      -9.707   8.388  67.618  1.00  0.00    -0.153 NA 
HETATM   11  O   UNL     1     -10.205   6.435  68.386  1.00  0.00    -0.150 OA 
HETATM   12  N   UNL     1     -10.448   7.809  68.549  1.00  0.00    -0.194 NA 
BRANCH  10  13
HETATM   13  N   UNL     1      -9.861   9.774  67.320  1.00  0.00    -0.172 NA 
HETATM   14  C   UNL     1     -10.823  10.607  68.022  1.00  0.00    -0.261 C  
HETATM   15  C   UNL     1     -10.240  12.022  68.129  1.00  0.00    -0.201 C  
HETATM   16  O   UNL     1      -9.888  12.529  66.836  1.00  0.00    -0.219 OA 
HETATM   17  C   UNL     1      -8.918  11.690  66.197  1.00  0.00    -0.178 C  
HETATM   18  C   UNL     1      -9.466  10.272  66.011  1.00  0.00    -0.185 C  
ENDBRANCH  10  13
ENDBRANCH   6   8
ENDBRANCH   3   4
ENDBRANCH   2   3
TORSDOF 4
ENDMDL
MODEL      160
REMARK 921   NORMALIZED FREE ENERGY PREDICTED BY IDOCK:   -2.45 KCAL/MOL
REMARK 922        TOTAL FREE ENERGY PREDICTED BY IDOCK:   -3.30 KCAL/MOL
REMARK 923 INTER-LIGAND FREE ENERGY PREDICTED BY IDOCK:   -3.10 KCAL/MOL
REMARK 924 INTRA-LIGAND FREE ENERGY PREDICTED BY IDOCK:   -0.20 KCAL/MOL
REMARK 927      BINDING AFFINITY PREDICTED BY RF-SCORE:    0.00 PKD
ROOT
HETATM    1  C   UNL     1      -9.356  11.166  63.344  1.00  0.00    -0.279 C  
HETATM    2  C   UNL     1      -9.319  10.884  64.834  1.00  0.00    -0.224 C  
ENDROOT
BRANCH   2   3
HETATM    3  O   UNL     1     -10.153   9.755  65.136  1.00  0.00    -0.262 OA 
BRANCH   3   4
HETATM    4  C   UNL     1      -9.844   9.066  66.269  1.00  0.00    -0.291 C  
HETATM    5  O   UNL     1     -10.514   8.120  66.680  1.00  0.00    -0.303 OA 
HETATM    6  N   UNL     1      -8.724   9.573  66.800  1.00  0.00    -0.127 N  
HETATM    7  H   UNL     1      -8.203  10.327  66.352  1.00  0.00     0.000 HD 
BRANCH   6   8
HETATM    8  C   UNL     1      -8.333   9.024  67.961  1.00  0.00    -0.117 A  
HETATM    9  C   UNL     1      -8.964   9.103  69.179  1.00  0.00    -0.144 A  
HETATM   10  N   UNL     1      -8.265   8.245  69.991  1.00  0.00    -0.116 NA 
HETATM   11  O   UNL     1      -7.222   8.224  68.103  1.00  0.00    -0.089 OA 
HETATM   12  N   UNL     1      -7.199   7.716  69.413  1.00  0.00    -0.079 NA 
BRANCH  10  13
HETATM   13  N   UNL     1      -8.708   7.786  71.266  1.00  0.00    -0.129 NA 
HETATM   14  C   UNL     1      -9.823   8.409  71.960  1.00  0.00    -0.284 C  
HETATM   15  C   UNL     1     -10.555   7.322  72.757  1.00  0.00    -0.281 C  
HETATM   16  O   UNL     1      -9.653   6.635  73.634  1.00  0.00    -0.157 OA 
HETATM   17  C   UNL     1      -8.590   6.015  72.900  1.00  0.00    -0.123 C  
HETATM   18  C   UNL     1      -7.784   7.062  72.125  1.00  0.00    -0.092 C  
ENDBRANCH  10  13
ENDBRANCH   6   8
ENDBRANCH   3   4
ENDBRANCH   2   3
TORSDOF 4
ENDMDL
MODEL      161
REMARK 921   NORMALIZED FREE ENERGY PREDICTED BY IDOCK:   -2.44 KCAL/MOL
REMARK 922        TOTAL FREE ENERGY PREDICTED BY IDOCK:   -3.28 KCAL/MOL
REMARK 923 INTER-LIGAND FREE ENERGY PREDICTED BY IDOCK:   -2.95 KCAL/MOL
REMARK 924 INTRA-LIGAND FREE ENERGY PREDICTED BY IDOCK:   -0.33 KCAL/MOL
REMARK 927      BINDING AFFINITY PREDICTED BY RF-SCORE:    0.00 PKD
ROOT
HETATM    1  C   UNL     1      -9.690   3.939  62.878  1.00  0.00    -0.139 C  
HETATM    2  C   UNL     1     -10.043   3.902  64.353  1.00  0.00    -0.215 C  
ENDROOT
BRANCH   2   3
HETATM    3  O   UNL     1      -9.360   4.958  65.043  1.00  0.00    -0.146 OA 
BRANCH   3   4
HETATM    4  C   UNL     1      -9.353   4.882  66.403  1.00  0.00    -0.145 C  
HETATM    5  O   UNL     1      -9.997   4.042  67.029  1.00  0.00    -0.176 OA 
HETATM    6  N   UNL     1      -8.539   5.827  66.891  1.00  0.00    -0.111 N  
HETATM    7  H   UNL     1      -7.999   6.446  66.286  1.00  0.00     0.000 HD 
BRANCH   6   8
HETATM    8  C   UNL     1      -8.481   5.906  68.230  1.00  0.00    -0.114 A  
HETATM    9  C   UNL     1      -9.225   6.717  69.054  1.00  0.00    -0.136 A  
HETATM   10  N   UNL     1      -8.914   6.304  70.325  1.00  0.00    -0.152 NA 
HETATM   11  O   UNL     1      -7.671   5.121  69.018  1.00  0.00    -0.079 OA 
HETATM   12  N   UNL     1      -7.972   5.376  70.366  1.00  0.00    -0.098 NA 
BRANCH  10  13
HETATM   13  N   UNL     1      -9.638   6.662  71.499  1.00  0.00    -0.164 NA 
HETATM   14  C   UNL     1      -9.291   6.128  72.806  1.00  0.00    -0.148 C  
HETATM   15  C   UNL     1      -9.596   7.204  73.856  1.00  0.00    -0.278 C  
HETATM   16  O   UNL     1     -10.958   7.638  73.764  1.00  0.00    -0.220 OA 
HETATM   17  C   UNL     1     -11.243   8.181  72.469  1.00  0.00    -0.391 C  
HETATM   18  C   UNL     1     -11.010   7.131  71.379  1.00  0.00    -0.234 C  
ENDBRANCH  10  13
ENDBRANCH   6   8
ENDBRANCH   3   4
ENDBRANCH   2   3
TORSDOF 4
ENDMDL
MODEL      162
REMARK 921   NORMALIZED FREE ENERGY PREDICTED BY IDOCK:   -2.43 KCAL/MOL
REMARK 922        TOTAL FREE ENERGY PREDICTED BY IDOCK:   -3.27 KCAL/MOL
REMARK 923 INTER-LIGAND FREE ENERGY PREDICTED BY IDOCK:   -3.03 KCAL/MOL
REMARK 924 INTRA-LIGAND FREE ENERGY PREDICTED BY IDOCK:   -0.24 KCAL/MOL
REMARK 927      BINDING AFFINITY PREDICTED BY RF-SCORE:    0.00 PKD
ROOT
HETATM    1  C   UNL     1      -9.309   2.465  70.753  1.00  0.00    -0.210 C  
HETATM    2  C   UNL     1      -8.717   3.633  71.520  1.00  0.00    -0.093 C  
ENDROOT
BRANCH   2   3
HETATM    3  O   UNL     1      -8.155   4.582  70.603  1.00  0.00    -0.072 OA 
BRANCH   3   4
HETATM    4  C   UNL     1      -9.001   5.543  70.140  1.00  0.00    -0.136 C  
HETATM    5  O   UNL     1     -10.145   5.689  70.565  1.00  0.00    -0.191 OA 
HETATM    6  N   UNL     1      -8.371   6.268  69.205  1.00  0.00    -0.116 N  
HETATM    7  H   UNL     1      -7.395   6.106  68.958  1.00  0.00     0.000 HD 
BRANCH   6   8
HETATM    8  C   UNL     1      -9.111   7.221  68.616  1.00  0.00    -0.133 A  
HETATM    9  C   UNL     1      -9.282   8.521  69.026  1.00  0.00    -0.146 A  
HETATM   10  N   UNL     1      -9.980   9.120  68.007  1.00  0.00    -0.169 NA 
HETATM   11  O   UNL     1      -9.799   7.047  67.437  1.00  0.00    -0.139 OA 
HETATM   12  N   UNL     1     -10.342   8.284  67.048  1.00  0.00    -0.309 NA 
BRANCH  10  13
HETATM   13  N   UNL     1     -10.153  10.526  67.854  1.00  0.00    -0.171 NA 
HETATM   14  C   UNL     1     -11.462  11.116  67.621  1.00  0.00    -0.250 C  
HETATM   15  C   UNL     1     -11.490  12.494  68.295  1.00  0.00    -0.308 C  
HETATM   16  O   UNL     1     -10.408  13.312  67.833  1.00  0.00    -0.228 OA 
HETATM   17  C   UNL     1      -9.141  12.702  68.110  1.00  0.00    -0.204 C  
HETATM   18  C   UNL     1      -9.032  11.342  67.414  1.00  0.00    -0.154 C  
ENDBRANCH  10  13
ENDBRANCH   6   8
ENDBRANCH   3   4
ENDBRANCH   2   3
TORSDOF 4
ENDMDL
MODEL      163
REMARK 921   NORMALIZED FREE ENERGY PREDICTED BY IDOCK:   -2.42 KCAL/MOL
REMARK 922        TOTAL FREE ENERGY PREDICTED BY IDOCK:   -3.25 KCAL/MOL
REMARK 923 INTER-LIGAND FREE ENERGY PREDICTED BY IDOCK:   -2.93 KCAL/MOL
REMARK 924 INTRA-LIGAND FREE ENERGY PREDICTED BY IDOCK:   -0.32 KCAL/MOL
REMARK 927      BINDING AFFINITY PREDICTED BY RF-SCORE:    0.00 PKD
ROOT
HETATM    1  C   UNL     1      -9.639  12.043  64.650  1.00  0.00    -0.002 C  
HETATM    2  C   UNL     1      -9.603  11.289  65.967  1.00  0.00    -0.218 C  
ENDROOT
BRANCH   2   3
HETATM    3  O   UNL     1     -10.165   9.980  65.792  1.00  0.00    -0.265 OA 
BRANCH   3   4
HETATM    4  C   UNL     1      -9.848   9.059  66.744  1.00  0.00    -0.234 C  
HETATM    5  O   UNL     1      -8.725   8.964  67.236  1.00  0.00    -0.120 OA 
HETATM    6  N   UNL     1     -10.939   8.338  67.037  1.00  0.00    -0.328 N  
HETATM    7  H   UNL     1     -11.847   8.531  66.614  1.00  0.00     0.000 HD 
BRANCH   6   8
HETATM    8  C   UNL     1     -10.757   7.347  67.923  1.00  0.00    -0.149 A  
HETATM    9  C   UNL     1     -10.545   6.015  67.659  1.00  0.00    -0.264 A  
HETATM   10  N   UNL     1     -10.255   5.459  68.879  1.00  0.00    -0.197 NA 
HETATM   11  O   UNL     1     -10.705   7.528  69.287  1.00  0.00    -0.226 OA 
HETATM   12  N   UNL     1     -10.365   6.305  69.890  1.00  0.00    -0.183 NA 
BRANCH  10  13
HETATM   13  N   UNL     1      -9.698   4.161  69.072  1.00  0.00    -0.157 NA 
HETATM   14  C   UNL     1      -9.039   3.786  70.312  1.00  0.00    -0.123 C  
HETATM   15  C   UNL     1      -9.299   2.294  70.558  1.00  0.00    -0.128 C  
HETATM   16  O   UNL     1      -8.882   1.509  69.434  1.00  0.00    -0.059 OA 
HETATM   17  C   UNL     1      -9.579   1.897  68.244  1.00  0.00    -0.087 C  
HETATM   18  C   UNL     1      -9.312   3.368  67.914  1.00  0.00    -0.191 C  
ENDBRANCH  10  13
ENDBRANCH   6   8
ENDBRANCH   3   4
ENDBRANCH   2   3
TORSDOF 4
ENDMDL
MODEL      164
REMARK 921   NORMALIZED FREE ENERGY PREDICTED BY IDOCK:   -2.41 KCAL/MOL
REMARK 922        TOTAL FREE ENERGY PREDICTED BY IDOCK:   -3.24 KCAL/MOL
REMARK 923 INTER-LIGAND FREE ENERGY PREDICTED BY IDOCK:   -2.96 KCAL/MOL
REMARK 924 INTRA-LIGAND FREE ENERGY PREDICTED BY IDOCK:   -0.28 KCAL/MOL
REMARK 927      BINDING AFFINITY PREDICTED BY RF-SCORE:    0.00 PKD
ROOT
HETATM    1  C   UNL     1     -12.242  13.769  64.597  1.00  0.00    -0.440 C  
HETATM    2  C   UNL     1     -11.906  14.289  65.982  1.00  0.00    -0.391 C  
ENDROOT
BRANCH   2   3
HETATM    3  O   UNL     1     -10.573  13.897  66.338  1.00  0.00    -0.276 OA 
BRANCH   3   4
HETATM    4  C   UNL     1     -10.446  12.685  66.947  1.00  0.00    -0.233 C  
HETATM    5  O   UNL     1     -11.261  12.258  67.763  1.00  0.00    -0.242 OA 
HETATM    6  N   UNL     1      -9.341  12.079  66.492  1.00  0.00    -0.219 N  
HETATM    7  H   UNL     1      -8.754  12.492  65.767  1.00  0.00     0.000 HD 
BRANCH   6   8
HETATM    8  C   UNL     1      -9.059  10.893  67.054  1.00  0.00    -0.149 A  
HETATM    9  C   UNL     1      -9.037   9.662  66.445  1.00  0.00    -0.156 A  
HETATM   10  N   UNL     1      -8.534   8.810  67.395  1.00  0.00    -0.115 NA 
HETATM   11  O   UNL     1      -8.685  10.729  68.369  1.00  0.00    -0.129 OA 
HETATM   12  N   UNL     1      -8.334   9.383  68.571  1.00  0.00    -0.117 NA 
BRANCH  10  13
HETATM   13  N   UNL     1      -8.073   7.485  67.142  1.00  0.00    -0.116 NA 
HETATM   14  C   UNL     1      -7.090   7.200  66.109  1.00  0.00    -0.073 C  
HETATM   15  C   UNL     1      -6.231   6.020  66.582  1.00  0.00    -0.030 C  
HETATM   16  O   UNL     1      -7.049   4.891  66.914  1.00  0.00    -0.069 OA 
HETATM   17  C   UNL     1      -7.980   5.215  67.955  1.00  0.00    -0.095 C  
HETATM   18  C   UNL     1      -8.906   6.353  67.518  1.00  0.00    -0.111 C  
ENDBRANCH  10  13
ENDBRANCH   6   8
ENDBRANCH   3   4
ENDBRANCH   2   3
TORSDOF 4
ENDMDL
MODEL      165
REMARK 921   NORMALIZED FREE ENERGY PREDICTED BY IDOCK:   -2.35 KCAL/MOL
REMARK 922        TOTAL FREE ENERGY PREDICTED BY IDOCK:   -3.17 KCAL/MOL
REMARK 923 INTER-LIGAND FREE ENERGY PREDICTED BY IDOCK:   -2.81 KCAL/MOL
REMARK 924 INTRA-LIGAND FREE ENERGY PREDICTED BY IDOCK:   -0.36 KCAL/MOL
REMARK 927      BINDING AFFINITY PREDICTED BY RF-SCORE:    0.00 PKD
ROOT
HETATM    1  C   UNL     1     -12.625  12.931  64.830  1.00  0.00    -0.525 C  
HETATM    2  C   UNL     1     -11.580  11.831  64.807  1.00  0.00    -0.172 C  
ENDROOT
BRANCH   2   3
HETATM    3  O   UNL     1     -10.431  12.236  65.565  1.00  0.00    -0.250 OA 
BRANCH   3   4
HETATM    4  C   UNL     1     -10.096  11.441  66.619  1.00  0.00    -0.212 C  
HETATM    5  O   UNL     1      -9.503  11.861  67.612  1.00  0.00    -0.175 OA 
HETATM    6  N   UNL     1     -10.533  10.197  66.387  1.00  0.00    -0.179 N  
HETATM    7  H   UNL     1     -11.069   9.955  65.553  1.00  0.00     0.000 HD 
BRANCH   6   8
HETATM    8  C   UNL     1     -10.218   9.288  67.323  1.00  0.00    -0.252 A  
HETATM    9  C   UNL     1      -9.166   8.404  67.312  1.00  0.00    -0.138 A  
HETATM   10  N   UNL     1      -9.185   7.821  68.554  1.00  0.00    -0.138 NA 
HETATM   11  O   UNL     1     -10.899   9.130  68.509  1.00  0.00    -0.157 OA 
HETATM   12  N   UNL     1     -10.214   8.193  69.300  1.00  0.00    -0.210 NA 
BRANCH  10  13
HETATM   13  N   UNL     1      -8.128   7.041  69.107  1.00  0.00    -0.119 NA 
HETATM   14  C   UNL     1      -6.950   7.656  69.698  1.00  0.00    -0.052 C  
HETATM   15  C   UNL     1      -6.472   6.760  70.848  1.00  0.00    -0.052 C  
HETATM   16  O   UNL     1      -6.246   5.420  70.394  1.00  0.00    -0.021 OA 
HETATM   17  C   UNL     1      -7.441   4.850  69.847  1.00  0.00    -0.056 C  
HETATM   18  C   UNL     1      -7.937   5.672  68.654  1.00  0.00    -0.100 C  
ENDBRANCH  10  13
ENDBRANCH   6   8
ENDBRANCH   3   4
ENDBRANCH   2   3
TORSDOF 4
ENDMDL
MODEL      166
REMARK 921   NORMALIZED FREE ENERGY PREDICTED BY IDOCK:   -2.33 KCAL/MOL
REMARK 922        TOTAL FREE ENERGY PREDICTED BY IDOCK:   -3.14 KCAL/MOL
REMARK 923 INTER-LIGAND FREE ENERGY PREDICTED BY IDOCK:   -2.80 KCAL/MOL
REMARK 924 INTRA-LIGAND FREE ENERGY PREDICTED BY IDOCK:   -0.34 KCAL/MOL
REMARK 927      BINDING AFFINITY PREDICTED BY RF-SCORE:    0.00 PKD
ROOT
HETATM    1  C   UNL     1      -9.455   3.641  63.188  1.00  0.00    -0.110 C  
HETATM    2  C   UNL     1      -9.749   3.731  64.674  1.00  0.00    -0.183 C  
ENDROOT
BRANCH   2   3
HETATM    3  O   UNL     1      -9.401   5.035  65.161  1.00  0.00    -0.140 OA 
BRANCH   3   4
HETATM    4  C   UNL     1      -9.804   5.331  66.427  1.00  0.00    -0.186 C  
HETATM    5  O   UNL     1     -10.848   5.933  66.674  1.00  0.00    -0.301 OA 
HETATM    6  N   UNL     1      -8.908   4.846  67.297  1.00  0.00    -0.103 N  
HETATM    7  H   UNL     1      -8.096   4.306  66.997  1.00  0.00     0.000 HD 
BRANCH   6   8
HETATM    8  C   UNL     1      -9.150   5.118  68.589  1.00  0.00    -0.111 A  
HETATM    9  C   UNL     1      -9.776   4.314  69.511  1.00  0.00    -0.201 A  
HETATM   10  N   UNL     1      -9.624   4.969  70.707  1.00  0.00    -0.168 NA 
HETATM   11  O   UNL     1      -8.747   6.270  69.226  1.00  0.00    -0.123 OA 
HETATM   12  N   UNL     1      -9.045   6.154  70.595  1.00  0.00    -0.149 NA 
BRANCH  10  13
HETATM   13  N   UNL     1      -9.868   4.396  71.989  1.00  0.00    -0.169 NA 
HETATM   14  C   UNL     1      -9.742   5.170  73.212  1.00  0.00    -0.145 C  
HETATM   15  C   UNL     1     -10.778   4.648  74.216  1.00  0.00    -0.221 C  
HETATM   16  O   UNL     1     -10.627   3.237  74.420  1.00  0.00    -0.189 OA 
HETATM   17  C   UNL     1     -10.788   2.516  73.192  1.00  0.00    -0.148 C  
HETATM   18  C   UNL     1      -9.741   2.957  72.164  1.00  0.00    -0.157 C  
ENDBRANCH  10  13
ENDBRANCH   6   8
ENDBRANCH   3   4
ENDBRANCH   2   3
TORSDOF 4
ENDMDL
MODEL      167
REMARK 921   NORMALIZED FREE ENERGY PREDICTED BY IDOCK:   -2.32 KCAL/MOL
REMARK 922        TOTAL FREE ENERGY PREDICTED BY IDOCK:   -3.13 KCAL/MOL
REMARK 923 INTER-LIGAND FREE ENERGY PREDICTED BY IDOCK:   -3.70 KCAL/MOL
REMARK 924 INTRA-LIGAND FREE ENERGY PREDICTED BY IDOCK:    0.57 KCAL/MOL
REMARK 927      BINDING AFFINITY PREDICTED BY RF-SCORE:    0.00 PKD
ROOT
HETATM    1  C   UNL     1     -12.236  13.790  64.631  1.00  0.00    -0.440 C  
HETATM    2  C   UNL     1     -12.085  14.559  65.930  1.00  0.00    -0.280 C  
ENDROOT
BRANCH   2   3
HETATM    3  O   UNL     1     -10.765  14.368  66.457  1.00  0.00    -0.298 OA 
BRANCH   3   4
HETATM    4  C   UNL     1     -10.621  13.368  67.370  1.00  0.00    -0.251 C  
HETATM    5  O   UNL     1     -11.501  13.064  68.174  1.00  0.00    -0.277 OA 
HETATM    6  N   UNL     1      -9.418  12.800  67.213  1.00  0.00    -0.198 N  
HETATM    7  H   UNL     1      -8.775  13.085  66.474  1.00  0.00     0.000 HD 
BRANCH   6   8
HETATM    8  C   UNL     1      -9.117  11.830  68.091  1.00  0.00    -0.185 A  
HETATM    9  C   UNL     1      -9.970  11.190  68.957  1.00  0.00    -0.137 A  
HETATM   10  N   UNL     1      -9.219  10.182  69.507  1.00  0.00    -0.214 NA 
HETATM   11  O   UNL     1      -7.866  11.273  68.229  1.00  0.00    -0.115 OA 
HETATM   12  N   UNL     1      -7.949  10.201  69.134  1.00  0.00    -0.113 NA 
BRANCH  10  13
HETATM   13  N   UNL     1      -9.743   9.087  70.254  1.00  0.00    -0.184 NA 
HETATM   14  C   UNL     1     -10.814   8.250  69.738  1.00  0.00    -0.185 C  
HETATM   15  C   UNL     1     -10.599   6.824  70.262  1.00  0.00    -0.215 C  
HETATM   16  O   UNL     1     -10.508   6.812  71.691  1.00  0.00    -0.208 OA 
HETATM   17  C   UNL     1      -9.422   7.628  72.149  1.00  0.00    -0.155 C  
HETATM   18  C   UNL     1      -9.611   9.080  71.703  1.00  0.00    -0.248 C  
ENDBRANCH  10  13
ENDBRANCH   6   8
ENDBRANCH   3   4
ENDBRANCH   2   3
TORSDOF 4
ENDMDL
MODEL      168
REMARK 921   NORMALIZED FREE ENERGY PREDICTED BY IDOCK:   -2.26 KCAL/MOL
REMARK 922        TOTAL FREE ENERGY PREDICTED BY IDOCK:   -3.06 KCAL/MOL
REMARK 923 INTER-LIGAND FREE ENERGY PREDICTED BY IDOCK:   -2.69 KCAL/MOL
REMARK 924 INTRA-LIGAND FREE ENERGY PREDICTED BY IDOCK:   -0.37 KCAL/MOL
REMARK 927      BINDING AFFINITY PREDICTED BY RF-SCORE:    0.00 PKD
ROOT
HETATM    1  C   UNL     1      -7.957  14.170  68.282  1.00  0.00    -0.140 C  
HETATM    2  C   UNL     1      -8.391  12.967  67.466  1.00  0.00    -0.183 C  
ENDROOT
BRANCH   2   3
HETATM    3  O   UNL     1      -9.675  12.513  67.917  1.00  0.00    -0.192 OA 
BRANCH   3   4
HETATM    4  C   UNL     1      -9.909  11.175  67.815  1.00  0.00    -0.171 C  
HETATM    5  O   UNL     1     -11.013  10.672  68.017  1.00  0.00    -0.238 OA 
HETATM    6  N   UNL     1      -8.777  10.558  67.452  1.00  0.00    -0.126 N  
HETATM    7  H   UNL     1      -7.919  11.071  67.251  1.00  0.00     0.000 HD 
BRANCH   6   8
HETATM    8  C   UNL     1      -8.848   9.220  67.371  1.00  0.00    -0.117 A  
HETATM    9  C   UNL     1      -8.476   8.302  68.324  1.00  0.00    -0.136 A  
HETATM   10  N   UNL     1      -8.899   7.094  67.829  1.00  0.00    -0.124 NA 
HETATM   11  O   UNL     1      -9.370   8.537  66.296  1.00  0.00    -0.193 OA 
HETATM   12  N   UNL     1      -9.411   7.168  66.612  1.00  0.00    -0.168 NA 
BRANCH  10  13
HETATM   13  N   UNL     1      -8.981   5.888  68.584  1.00  0.00    -0.117 NA 
HETATM   14  C   UNL     1      -9.105   5.895  70.032  1.00  0.00    -0.144 C  
HETATM   15  C   UNL     1      -9.955   4.686  70.444  1.00  0.00    -0.230 C  
HETATM   16  O   UNL     1      -9.398   3.471  69.929  1.00  0.00    -0.146 OA 
HETATM   17  C   UNL     1      -9.323   3.500  68.499  1.00  0.00    -0.166 C  
HETATM   18  C   UNL     1      -8.438   4.658  68.027  1.00  0.00    -0.102 C  
ENDBRANCH  10  13
ENDBRANCH   6   8
ENDBRANCH   3   4
ENDBRANCH   2   3
TORSDOF 4
ENDMDL
MODEL      169
REMARK 921   NORMALIZED FREE ENERGY PREDICTED BY IDOCK:   -2.22 KCAL/MOL
REMARK 922        TOTAL FREE ENERGY PREDICTED BY IDOCK:   -3.01 KCAL/MOL
REMARK 923 INTER-LIGAND FREE ENERGY PREDICTED BY IDOCK:   -2.66 KCAL/MOL
REMARK 924 INTRA-LIGAND FREE ENERGY PREDICTED BY IDOCK:   -0.35 KCAL/MOL
REMARK 927      BINDING AFFINITY PREDICTED BY RF-SCORE:    0.00 PKD
ROOT
HETATM    1  C   UNL     1      -5.882  13.241  70.298  1.00  0.00    -0.158 C  
HETATM    2  C   UNL     1      -6.405  12.124  69.414  1.00  0.00    -0.116 C  
ENDROOT
BRANCH   2   3
HETATM    3  O   UNL     1      -7.552  12.580  68.683  1.00  0.00    -0.119 OA 
BRANCH   3   4
HETATM    4  C   UNL     1      -8.112  11.684  67.824  1.00  0.00    -0.139 C  
HETATM    5  O   UNL     1      -8.411  11.965  66.664  1.00  0.00    -0.185 OA 
HETATM    6  N   UNL     1      -8.241  10.504  68.444  1.00  0.00    -0.116 N  
HETATM    7  H   UNL     1      -7.908  10.350  69.396  1.00  0.00     0.000 HD 
BRANCH   6   8
HETATM    8  C   UNL     1      -8.837   9.536  67.729  1.00  0.00    -0.119 A  
HETATM    9  C   UNL     1      -8.234   8.508  67.045  1.00  0.00    -0.107 A  
HETATM   10  N   UNL     1      -9.270   7.710  66.630  1.00  0.00    -0.162 NA 
HETATM   11  O   UNL     1     -10.201   9.393  67.607  1.00  0.00    -0.197 OA 
HETATM   12  N   UNL     1     -10.466   8.202  66.909  1.00  0.00    -0.333 NA 
BRANCH  10  13
HETATM   13  N   UNL     1      -9.127   6.386  66.120  1.00  0.00    -0.153 NA 
HETATM   14  C   UNL     1      -9.778   5.248  66.748  1.00  0.00    -0.160 C  
HETATM   15  C   UNL     1     -10.143   4.242  65.649  1.00  0.00    -0.219 C  
HETATM   16  O   UNL     1      -8.989   3.882  64.881  1.00  0.00    -0.121 OA 
HETATM   17  C   UNL     1      -8.401   5.032  64.260  1.00  0.00    -0.136 C  
HETATM   18  C   UNL     1      -7.962   6.052  65.314  1.00  0.00    -0.117 C  
ENDBRANCH  10  13
ENDBRANCH   6   8
ENDBRANCH   3   4
ENDBRANCH   2   3
TORSDOF 4
ENDMDL
MODEL      170
REMARK 921   NORMALIZED FREE ENERGY PREDICTED BY IDOCK:   -2.15 KCAL/MOL
REMARK 922        TOTAL FREE ENERGY PREDICTED BY IDOCK:   -2.92 KCAL/MOL
REMARK 923 INTER-LIGAND FREE ENERGY PREDICTED BY IDOCK:   -2.55 KCAL/MOL
REMARK 924 INTRA-LIGAND FREE ENERGY PREDICTED BY IDOCK:   -0.38 KCAL/MOL
REMARK 927      BINDING AFFINITY PREDICTED BY RF-SCORE:    0.00 PKD
ROOT
HETATM    1  C   UNL     1     -10.557   4.638  71.075  1.00  0.00     0.082 C  
HETATM    2  C   UNL     1      -9.640   5.520  70.249  1.00  0.00    -0.174 C  
ENDROOT
BRANCH   2   3
HETATM    3  O   UNL     1     -10.237   5.778  68.970  1.00  0.00    -0.179 OA 
BRANCH   3   4
HETATM    4  C   UNL     1     -10.144   7.056  68.510  1.00  0.00    -0.165 C  
HETATM    5  O   UNL     1      -9.892   7.329  67.337  1.00  0.00    -0.140 OA 
HETATM    6  N   UNL     1     -10.392   7.904  69.517  1.00  0.00    -0.213 N  
HETATM    7  H   UNL     1     -10.651   7.580  70.449  1.00  0.00     0.000 HD 
BRANCH   6   8
HETATM    8  C   UNL     1     -10.276   9.207  69.218  1.00  0.00    -0.210 A  
HETATM    9  C   UNL     1      -9.165  10.004  69.361  1.00  0.00    -0.216 A  
HETATM   10  N   UNL     1      -9.508  11.192  68.766  1.00  0.00    -0.187 NA 
HETATM   11  O   UNL     1     -11.279   9.964  68.655  1.00  0.00    -0.175 OA 
HETATM   12  N   UNL     1     -10.765  11.237  68.354  1.00  0.00    -0.191 NA 
BRANCH  10  13
HETATM   13  N   UNL     1      -8.591  12.228  68.425  1.00  0.00    -0.164 NA 
HETATM   14  C   UNL     1      -8.676  12.943  67.162  1.00  0.00    -0.205 C  
HETATM   15  C   UNL     1      -8.214  14.386  67.399  1.00  0.00    -0.199 C  
HETATM   16  O   UNL     1      -6.905  14.416  67.980  1.00  0.00    -0.110 OA 
HETATM   17  C   UNL     1      -6.880  13.725  69.235  1.00  0.00    -0.078 C  
HETATM   18  C   UNL     1      -7.279  12.257  69.053  1.00  0.00    -0.023 C  
ENDBRANCH  10  13
ENDBRANCH   6   8
ENDBRANCH   3   4
ENDBRANCH   2   3
TORSDOF 4
ENDMDL
MODEL      171
REMARK 921   NORMALIZED FREE ENERGY PREDICTED BY IDOCK:   -2.13 KCAL/MOL
REMARK 922        TOTAL FREE ENERGY PREDICTED BY IDOCK:   -2.90 KCAL/MOL
REMARK 923 INTER-LIGAND FREE ENERGY PREDICTED BY IDOCK:   -2.61 KCAL/MOL
REMARK 924 INTRA-LIGAND FREE ENERGY PREDICTED BY IDOCK:   -0.29 KCAL/MOL
REMARK 927      BINDING AFFINITY PREDICTED BY RF-SCORE:    0.00 PKD
ROOT
HETATM    1  C   UNL     1      -9.226  11.101  62.584  1.00  0.00    -0.357 C  
HETATM    2  C   UNL     1      -9.413  10.063  63.674  1.00  0.00    -0.197 C  
ENDROOT
BRANCH   2   3
HETATM    3  O   UNL     1      -9.515  10.711  64.950  1.00  0.00    -0.204 OA 
BRANCH   3   4
HETATM    4  C   UNL     1      -9.296   9.927  66.042  1.00  0.00    -0.188 C  
HETATM    5  O   UNL     1      -9.457  10.325  67.195  1.00  0.00    -0.155 OA 
HETATM    6  N   UNL     1      -8.921   8.706  65.637  1.00  0.00    -0.253 N  
HETATM    7  H   UNL     1      -8.871   8.452  64.650  1.00  0.00     0.000 HD 
BRANCH   6   8
HETATM    8  C   UNL     1      -8.614   7.841  66.616  1.00  0.00    -0.136 A  
HETATM    9  C   UNL     1      -9.273   6.681  66.946  1.00  0.00    -0.142 A  
HETATM   10  N   UNL     1      -8.477   6.083  67.890  1.00  0.00    -0.115 NA 
HETATM   11  O   UNL     1      -7.519   7.962  67.442  1.00  0.00    -0.090 OA 
HETATM   12  N   UNL     1      -7.434   6.814  68.247  1.00  0.00    -0.096 NA 
BRANCH  10  13
HETATM   13  N   UNL     1      -8.607   4.733  68.330  1.00  0.00    -0.101 NA 
HETATM   14  C   UNL     1      -8.575   4.380  69.740  1.00  0.00    -0.069 C  
HETATM   15  C   UNL     1      -9.501   3.174  69.950  1.00  0.00    -0.133 C  
HETATM   16  O   UNL     1      -9.135   2.092  69.085  1.00  0.00    -0.094 OA 
HETATM   17  C   UNL     1      -9.209   2.480  67.708  1.00  0.00    -0.197 C  
HETATM   18  C   UNL     1      -8.261   3.649  67.423  1.00  0.00    -0.090 C  
ENDBRANCH  10  13
ENDBRANCH   6   8
ENDBRANCH   3   4
ENDBRANCH   2   3
TORSDOF 4
ENDMDL
MODEL      172
REMARK 921   NORMALIZED FREE ENERGY PREDICTED BY IDOCK:   -2.04 KCAL/MOL
REMARK 922        TOTAL FREE ENERGY PREDICTED BY IDOCK:   -2.78 KCAL/MOL
REMARK 923 INTER-LIGAND FREE ENERGY PREDICTED BY IDOCK:   -2.45 KCAL/MOL
REMARK 924 INTRA-LIGAND FREE ENERGY PREDICTED BY IDOCK:   -0.33 KCAL/MOL
REMARK 927      BINDING AFFINITY PREDICTED BY RF-SCORE:    0.00 PKD
ROOT
HETATM    1  C   UNL     1      -9.573  11.288  62.444  1.00  0.00     0.038 C  
HETATM    2  C   UNL     1      -9.763  10.479  63.713  1.00  0.00    -0.326 C  
ENDROOT
BRANCH   2   3
HETATM    3  O   UNL     1      -9.900  11.362  64.836  1.00  0.00    -0.240 OA 
BRANCH   3   4
HETATM    4  C   UNL     1      -9.634  10.825  66.059  1.00  0.00    -0.201 C  
HETATM    5  O   UNL     1      -9.724  11.465  67.105  1.00  0.00    -0.180 OA 
HETATM    6  N   UNL     1      -9.299   9.537  65.909  1.00  0.00    -0.206 N  
HETATM    7  H   UNL     1      -9.308   9.075  64.999  1.00  0.00     0.000 HD 
BRANCH   6   8
HETATM    8  C   UNL     1      -8.951   8.894  67.035  1.00  0.00    -0.127 A  
HETATM    9  C   UNL     1      -9.674   7.941  67.712  1.00  0.00    -0.155 A  
HETATM   10  N   UNL     1      -8.822   7.483  68.686  1.00  0.00    -0.128 NA 
HETATM   11  O   UNL     1      -7.748   9.062  67.682  1.00  0.00    -0.095 OA 
HETATM   12  N   UNL     1      -7.672   8.135  68.735  1.00  0.00    -0.105 NA 
BRANCH  10  13
HETATM   13  N   UNL     1      -9.027   6.305  69.461  1.00  0.00    -0.134 NA 
HETATM   14  C   UNL     1      -9.276   5.013  68.841  1.00  0.00    -0.115 C  
HETATM   15  C   UNL     1      -8.654   3.930  69.731  1.00  0.00    -0.065 C  
HETATM   16  O   UNL     1      -9.150   4.021  71.072  1.00  0.00    -0.101 OA 
HETATM   17  C   UNL     1      -8.856   5.299  71.648  1.00  0.00    -0.135 C  
HETATM   18  C   UNL     1      -9.501   6.423  70.832  1.00  0.00    -0.175 C  
ENDBRANCH  10  13
ENDBRANCH   6   8
ENDBRANCH   3   4
ENDBRANCH   2   3
TORSDOF 4
ENDMDL
MODEL      173
REMARK 921   NORMALIZED FREE ENERGY PREDICTED BY IDOCK:   -1.80 KCAL/MOL
REMARK 922        TOTAL FREE ENERGY PREDICTED BY IDOCK:   -2.49 KCAL/MOL
REMARK 923 INTER-LIGAND FREE ENERGY PREDICTED BY IDOCK:   -2.13 KCAL/MOL
REMARK 924 INTRA-LIGAND FREE ENERGY PREDICTED BY IDOCK:   -0.36 KCAL/MOL
REMARK 927      BINDING AFFINITY PREDICTED BY RF-SCORE:    0.00 PKD
ROOT
HETATM    1  C   UNL     1      -7.767   9.239  70.852  1.00  0.00    -0.134 C  
HETATM    2  C   UNL     1      -8.176   7.815  70.526  1.00  0.00    -0.120 C  
ENDROOT
BRANCH   2   3
HETATM    3  O   UNL     1      -7.033   7.072  70.079  1.00  0.00    -0.058 OA 
BRANCH   3   4
HETATM    4  C   UNL     1      -7.284   6.029  69.240  1.00  0.00    -0.074 C  
HETATM    5  O   UNL     1      -6.399   5.303  68.792  1.00  0.00    -0.032 OA 
HETATM    6  N   UNL     1      -8.604   5.941  69.033  1.00  0.00    -0.114 N  
HETATM    7  H   UNL     1      -9.270   6.559  69.498  1.00  0.00     0.000 HD 
BRANCH   6   8
HETATM    8  C   UNL     1      -8.993   4.987  68.173  1.00  0.00    -0.108 A  
HETATM    9  C   UNL     1      -9.209   5.115  66.821  1.00  0.00    -0.123 A  
HETATM   10  N   UNL     1      -9.423   3.834  66.378  1.00  0.00    -0.187 NA 
HETATM   11  O   UNL     1      -9.195   3.670  68.517  1.00  0.00    -0.135 OA 
HETATM   12  N   UNL     1      -9.457   2.935  67.348  1.00  0.00    -0.157 NA 
BRANCH  10  13
HETATM   13  N   UNL     1      -9.421   3.433  65.011  1.00  0.00    -0.154 NA 
HETATM   14  C   UNL     1      -8.186   3.166  64.292  1.00  0.00    -0.083 C  
HETATM   15  C   UNL     1      -8.458   2.051  63.274  1.00  0.00    -0.083 C  
HETATM   16  O   UNL     1      -9.551   2.398  62.415  1.00  0.00    -0.090 OA 
HETATM   17  C   UNL     1     -10.750   2.623  63.167  1.00  0.00    -0.225 C  
HETATM   18  C   UNL     1     -10.557   3.768  64.165  1.00  0.00    -0.250 C  
ENDBRANCH  10  13
ENDBRANCH   6   8
ENDBRANCH   3   4
ENDBRANCH   2   3
TORSDOF 4
ENDMDL
MODEL      174
REMARK 921   NORMALIZED FREE ENERGY PREDICTED BY IDOCK:   -1.65 KCAL/MOL
REMARK 922        TOTAL FREE ENERGY PREDICTED BY IDOCK:   -2.31 KCAL/MOL
REMARK 923 INTER-LIGAND FREE ENERGY PREDICTED BY IDOCK:   -2.92 KCAL/MOL
REMARK 924 INTRA-LIGAND FREE ENERGY PREDICTED BY IDOCK:    0.61 KCAL/MOL
REMARK 927      BINDING AFFINITY PREDICTED BY RF-SCORE:    0.00 PKD
ROOT
HETATM    1  C   UNL     1      -9.668  11.260  65.039  1.00  0.00    -0.293 C  
HETATM    2  C   UNL     1      -9.900  10.797  66.466  1.00  0.00    -0.203 C  
ENDROOT
BRANCH   2   3
HETATM    3  O   UNL     1      -9.987   9.366  66.504  1.00  0.00    -0.231 OA 
BRANCH   3   4
HETATM    4  C   UNL     1      -9.690   8.777  67.695  1.00  0.00    -0.169 C  
HETATM    5  O   UNL     1      -8.784   7.956  67.829  1.00  0.00    -0.127 OA 
HETATM    6  N   UNL     1     -10.511   9.258  68.639  1.00  0.00    -0.212 N  
HETATM    7  H   UNL     1     -11.198   9.985  68.442  1.00  0.00     0.000 HD 
BRANCH   6   8
HETATM    8  C   UNL     1     -10.368   8.718  69.860  1.00  0.00    -0.206 A  
HETATM    9  C   UNL     1      -9.477   7.747  70.247  1.00  0.00    -0.160 A  
HETATM   10  N   UNL     1      -9.616   7.668  71.610  1.00  0.00    -0.152 NA 
HETATM   11  O   UNL     1     -11.089   9.106  70.966  1.00  0.00    -0.256 OA 
HETATM   12  N   UNL     1     -10.583   8.432  72.091  1.00  0.00    -0.304 NA 
BRANCH  10  13
HETATM   13  N   UNL     1      -8.713   6.997  72.485  1.00  0.00    -0.124 NA 
HETATM   14  C   UNL     1      -9.061   6.699  73.864  1.00  0.00    -0.160 C  
HETATM   15  C   UNL     1      -8.381   5.380  74.253  1.00  0.00    -0.107 C  
HETATM   16  O   UNL     1      -6.967   5.446  74.026  1.00  0.00    -0.076 OA 
HETATM   17  C   UNL     1      -6.676   5.713  72.649  1.00  0.00    -0.072 C  
HETATM   18  C   UNL     1      -7.284   7.051  72.216  1.00  0.00    -0.073 C  
ENDBRANCH  10  13
ENDBRANCH   6   8
ENDBRANCH   3   4
ENDBRANCH   2   3
TORSDOF 4
ENDMDL
MODEL      175
REMARK 921   NORMALIZED FREE ENERGY PREDICTED BY IDOCK:   -1.26 KCAL/MOL
REMARK 922        TOTAL FREE ENERGY PREDICTED BY IDOCK:   -1.82 KCAL/MOL
REMARK 923 INTER-LIGAND FREE ENERGY PREDICTED BY IDOCK:   -1.58 KCAL/MOL
REMARK 924 INTRA-LIGAND FREE ENERGY PREDICTED BY IDOCK:   -0.24 KCAL/MOL
REMARK 927      BINDING AFFINITY PREDICTED BY RF-SCORE:    0.00 PKD
ROOT
HETATM    1  C   UNL     1      -8.958   1.695  70.831  1.00  0.00    -0.123 C  
HETATM    2  C   UNL     1      -7.564   2.241  70.580  1.00  0.00    -0.039 C  
ENDROOT
BRANCH   2   3
HETATM    3  O   UNL     1      -7.616   3.256  69.568  1.00  0.00    -0.047 OA 
BRANCH   3   4
HETATM    4  C   UNL     1      -7.552   4.545  70.004  1.00  0.00    -0.054 C  
HETATM    5  O   UNL     1      -7.153   4.852  71.126  1.00  0.00    -0.048 OA 
HETATM    6  N   UNL     1      -7.961   5.361  69.024  1.00  0.00    -0.093 N  
HETATM    7  H   UNL     1      -8.220   5.014  68.100  1.00  0.00     0.000 HD 
BRANCH   6   8
HETATM    8  C   UNL     1      -8.005   6.665  69.338  1.00  0.00    -0.115 A  
HETATM    9  C   UNL     1      -7.272   7.686  68.781  1.00  0.00    -0.082 A  
HETATM   10  N   UNL     1      -7.802   8.831  69.320  1.00  0.00    -0.098 NA 
HETATM   11  O   UNL     1      -8.862   7.209  70.268  1.00  0.00    -0.146 OA 
HETATM   12  N   UNL     1      -8.731   8.607  70.235  1.00  0.00    -0.139 NA 
BRANCH  10  13
HETATM   13  N   UNL     1      -7.552  10.150  68.841  1.00  0.00    -0.084 NA 
HETATM   14  C   UNL     1      -8.256  10.694  67.691  1.00  0.00    -0.107 C  
HETATM   15  C   UNL     1      -8.434  12.202  67.911  1.00  0.00    -0.163 C  
HETATM   16  O   UNL     1      -7.173  12.836  68.156  1.00  0.00    -0.093 OA 
HETATM   17  C   UNL     1      -6.532  12.285  69.313  1.00  0.00    -0.109 C  
HETATM   18  C   UNL     1      -6.276  10.787  69.130  1.00  0.00    -0.045 C  
ENDBRANCH  10  13
ENDBRANCH   6   8
ENDBRANCH   3   4
ENDBRANCH   2   3
TORSDOF 4
ENDMDL
MODEL      176
REMARK 921   NORMALIZED FREE ENERGY PREDICTED BY IDOCK:    2.38 KCAL/MOL
REMARK 922        TOTAL FREE ENERGY PREDICTED BY IDOCK:    2.66 KCAL/MOL
REMARK 923 INTER-LIGAND FREE ENERGY PREDICTED BY IDOCK:    2.61 KCAL/MOL
REMARK 924 INTRA-LIGAND FREE ENERGY PREDICTED BY IDOCK:    0.05 KCAL/MOL
REMARK 927      BINDING AFFINITY PREDICTED BY RF-SCORE:    0.00 PKD
ROOT
HETATM    1  C   UNL     1     -10.207  11.090  62.533  1.00  0.00     0.260 C  
HETATM    2  C   UNL     1     -10.406  11.295  64.023  1.00  0.00    -0.371 C  
ENDROOT
BRANCH   2   3
HETATM    3  O   UNL     1     -10.148  12.665  64.364  1.00  0.00    -0.314 OA 
BRANCH   3   4
HETATM    4  C   UNL     1     -10.272  12.990  65.680  1.00  0.00    -0.287 C  
HETATM    5  O   UNL     1      -9.502  12.580  66.547  1.00  0.00    -0.232 OA 
HETATM    6  N   UNL     1     -11.318  13.813  65.831  1.00  0.00    -0.304 N  
HETATM    7  H   UNL     1     -11.867  14.146  65.038  1.00  0.00     0.000 HD 
BRANCH   6   8
HETATM    8  C   UNL     1     -11.596  14.170  67.095  1.00  0.00    -0.377 A  
HETATM    9  C   UNL     1     -10.769  14.813  67.985  1.00  0.00    -0.248 A  
HETATM   10  N   UNL     1     -11.568  15.096  69.064  1.00  0.00    -0.311 NA 
HETATM   11  O   UNL     1     -12.818  13.983  67.702  1.00  0.00     0.524 OA 
HETATM   12  N   UNL     1     -12.790  14.599  68.965  1.00  0.00     0.489 NA 
BRANCH  10  13
HETATM   13  N   UNL     1     -11.228  15.992  70.119  1.00  0.00    -0.350 NA 
HETATM   14  C   UNL     1     -10.303  17.095  69.919  1.00  0.00     0.224 C  
HETATM   15  C   UNL     1     -10.746  18.257  70.819  1.00  0.00     2.462 C  
HETATM   16  O   UNL     1     -10.842  17.838  72.185  1.00  0.00     1.767 OA 
HETATM   17  C   UNL     1     -11.786  16.769  72.334  1.00  0.00     0.079 C  
HETATM   18  C   UNL     1     -11.366  15.556  71.500  1.00  0.00    -0.397 C  
ENDBRANCH  10  13
ENDBRANCH   6   8
ENDBRANCH   3   4
ENDBRANCH   2   3
TORSDOF 4
ENDMDL
MODEL      177
REMARK 921   NORMALIZED FREE ENERGY PREDICTED BY IDOCK:    3.68 KCAL/MOL
REMARK 922        TOTAL FREE ENERGY PREDICTED BY IDOCK:    4.26 KCAL/MOL
REMARK 923 INTER-LIGAND FREE ENERGY PREDICTED BY IDOCK:    3.86 KCAL/MOL
REMARK 924 INTRA-LIGAND FREE ENERGY PREDICTED BY IDOCK:    0.41 KCAL/MOL
REMARK 927      BINDING AFFINITY PREDICTED BY RF-SCORE:    0.00 PKD
ROOT
HETATM    1  C   UNL     1     -12.278  10.234  63.706  1.00  0.00     5.760 C  
HETATM    2  C   UNL     1     -11.803  11.617  64.111  1.00  0.00    -0.172 C  
ENDROOT
BRANCH   2   3
HETATM    3  O   UNL     1     -10.424  11.782  63.748  1.00  0.00    -0.332 OA 
BRANCH   3   4
HETATM    4  C   UNL     1      -9.749  10.646  63.419  1.00  0.00    -0.339 C  
HETATM    5  O   UNL     1      -9.968  10.013  62.387  1.00  0.00     0.072 OA 
HETATM    6  N   UNL     1      -8.840  10.385  64.367  1.00  0.00    -0.195 N  
HETATM    7  H   UNL     1      -8.692  11.006  65.163  1.00  0.00     0.000 HD 
BRANCH   6   8
HETATM    8  C   UNL     1      -8.137   9.254  64.200  1.00  0.00    -0.145 A  
HETATM    9  C   UNL     1      -8.343   8.042  64.815  1.00  0.00    -0.077 A  
HETATM   10  N   UNL     1      -7.479   7.181  64.186  1.00  0.00    -0.091 NA 
HETATM   11  O   UNL     1      -7.092   9.116  63.316  1.00  0.00    -0.090 OA 
HETATM   12  N   UNL     1      -6.687   7.770  63.305  1.00  0.00    -0.069 NA 
BRANCH  10  13
HETATM   13  N   UNL     1      -7.523   5.760  64.292  1.00  0.00    -0.067 NA 
HETATM   14  C   UNL     1      -6.524   5.016  65.041  1.00  0.00    -0.036 C  
HETATM   15  C   UNL     1      -7.207   3.788  65.658  1.00  0.00    -0.071 C  
HETATM   16  O   UNL     1      -7.860   3.006  64.650  1.00  0.00    -0.077 OA 
HETATM   17  C   UNL     1      -8.853   3.774  63.960  1.00  0.00    -0.106 C  
HETATM   18  C   UNL     1      -8.220   4.988  63.274  1.00  0.00    -0.109 C  
ENDBRANCH  10  13
ENDBRANCH   6   8
ENDBRANCH   3   4
ENDBRANCH   2   3
TORSDOF 4
ENDMDL
MODEL      178
REMARK 921   NORMALIZED FREE ENERGY PREDICTED BY IDOCK:    8.56 KCAL/MOL
REMARK 922        TOTAL FREE ENERGY PREDICTED BY IDOCK:   10.29 KCAL/MOL
REMARK 923 INTER-LIGAND FREE ENERGY PREDICTED BY IDOCK:    7.16 KCAL/MOL
REMARK 924 INTRA-LIGAND FREE ENERGY PREDICTED BY IDOCK:    3.13 KCAL/MOL
REMARK 927      BINDING AFFINITY PREDICTED BY RF-SCORE:    0.00 PKD
ROOT
HETATM    1  C   UNL     1     -10.504  20.727  64.949  1.00  0.00     1.515 C  
HETATM    2  C   UNL     1     -11.916  20.752  65.504  1.00  0.00     4.261 C  
ENDROOT
BRANCH   2   3
HETATM    3  O   UNL     1     -12.228  19.482  66.095  1.00  0.00     2.550 OA 
BRANCH   3   4
HETATM    4  C   UNL     1     -11.166  18.728  66.493  1.00  0.00     0.564 C  
HETATM    5  O   UNL     1     -11.260  17.532  66.767  1.00  0.00     0.226 OA 
HETATM    6  N   UNL     1     -10.065  19.490  66.504  1.00  0.00    -0.400 N  
HETATM    7  H   UNL     1     -10.076  20.465  66.203  1.00  0.00     0.000 HD 
BRANCH   6   8
HETATM    8  C   UNL     1      -8.947  18.886  66.936  1.00  0.00    -0.298 A  
HETATM    9  C   UNL     1      -8.852  17.769  67.730  1.00  0.00    -0.249 A  
HETATM   10  N   UNL     1      -7.515  17.462  67.743  1.00  0.00    -0.185 NA 
HETATM   11  O   UNL     1      -7.673  19.282  66.596  1.00  0.00    -0.236 OA 
HETATM   12  N   UNL     1      -6.760  18.345  67.110  1.00  0.00    -0.191 NA 
BRANCH  10  13
HETATM   13  N   UNL     1      -6.964  16.232  68.208  1.00  0.00    -0.125 NA 
HETATM   14  C   UNL     1      -6.992  15.862  69.614  1.00  0.00    -0.147 C  
HETATM   15  C   UNL     1      -7.133  14.337  69.702  1.00  0.00    -0.007 C  
HETATM   16  O   UNL     1      -6.094  13.683  68.964  1.00  0.00    -0.079 OA 
HETATM   17  C   UNL     1      -6.126  14.057  67.581  1.00  0.00    -0.063 C  
HETATM   18  C   UNL     1      -5.933  15.568  67.425  1.00  0.00     0.023 C  
ENDBRANCH  10  13
ENDBRANCH   6   8
ENDBRANCH   3   4
ENDBRANCH   2   3
TORSDOF 4
ENDMDL
MODEL      179
REMARK 921   NORMALIZED FREE ENERGY PREDICTED BY IDOCK:   23.32 KCAL/MOL
REMARK 922        TOTAL FREE ENERGY PREDICTED BY IDOCK:   28.50 KCAL/MOL
REMARK 923 INTER-LIGAND FREE ENERGY PREDICTED BY IDOCK:   28.07 KCAL/MOL
REMARK 924 INTRA-LIGAND FREE ENERGY PREDICTED BY IDOCK:    0.44 KCAL/MOL
REMARK 927      BINDING AFFINITY PREDICTED BY RF-SCORE:    0.00 PKD
ROOT
HETATM    1  C   UNL     1     -13.622   3.572  71.351  1.00  0.00    13.335 C  
HETATM    2  C   UNL     1     -12.233   3.587  70.740  1.00  0.00    12.149 C  
ENDROOT
BRANCH   2   3
HETATM    3  O   UNL     1     -11.973   4.871  70.157  1.00  0.00     3.971 OA 
BRANCH   3   4
HETATM    4  C   UNL     1     -10.734   5.392  70.378  1.00  0.00    -0.206 C  
HETATM    5  O   UNL     1      -9.964   4.949  71.229  1.00  0.00    -0.182 OA 
HETATM    6  N   UNL     1     -10.524   6.402  69.524  1.00  0.00    -0.209 N  
HETATM    7  H   UNL     1     -11.205   6.661  68.810  1.00  0.00     0.000 HD 
BRANCH   6   8
HETATM    8  C   UNL     1      -9.358   7.050  69.669  1.00  0.00    -0.149 A  
HETATM    9  C   UNL     1      -8.887   8.106  68.925  1.00  0.00    -0.141 A  
HETATM   10  N   UNL     1      -7.745   8.508  69.571  1.00  0.00    -0.089 NA 
HETATM   11  O   UNL     1      -8.439   6.778  70.657  1.00  0.00    -0.134 OA 
HETATM   12  N   UNL     1      -7.412   7.735  70.592  1.00  0.00    -0.069 NA 
BRANCH  10  13
HETATM   13  N   UNL     1      -7.060   9.734  69.330  1.00  0.00    -0.062 NA 
HETATM   14  C   UNL     1      -7.001  10.789  70.329  1.00  0.00     0.132 C  
HETATM   15  C   UNL     1      -5.653  11.507  70.184  1.00  0.00    -0.123 C  
HETATM   16  O   UNL     1      -5.468  11.983  68.845  1.00  0.00    -0.050 OA 
HETATM   17  C   UNL     1      -5.506  10.904  67.902  1.00  0.00    -0.039 C  
HETATM   18  C   UNL     1      -6.854  10.181  67.960  1.00  0.00    -0.071 C  
ENDBRANCH  10  13
ENDBRANCH   6   8
ENDBRANCH   3   4
ENDBRANCH   2   3
TORSDOF 4
ENDMDL
MODEL      180
REMARK 921   NORMALIZED FREE ENERGY PREDICTED BY IDOCK:   38.79 KCAL/MOL
REMARK 922        TOTAL FREE ENERGY PREDICTED BY IDOCK:   47.58 KCAL/MOL
REMARK 923 INTER-LIGAND FREE ENERGY PREDICTED BY IDOCK:   47.23 KCAL/MOL
REMARK 924 INTRA-LIGAND FREE ENERGY PREDICTED BY IDOCK:    0.35 KCAL/MOL
REMARK 927      BINDING AFFINITY PREDICTED BY RF-SCORE:    0.00 PKD
ROOT
HETATM    1  C   UNL     1     -14.039   8.538  63.830  1.00  0.00    16.978 C  
HETATM    2  C   UNL     1     -14.346   9.953  64.283  1.00  0.00    12.867 C  
ENDROOT
BRANCH   2   3
HETATM    3  O   UNL     1     -13.169  10.765  64.170  1.00  0.00     2.734 OA 
BRANCH   3   4
HETATM    4  C   UNL     1     -11.992  10.099  64.010  1.00  0.00     6.079 C  
HETATM    5  O   UNL     1     -11.672   9.549  62.957  1.00  0.00     7.775 OA 
HETATM    6  N   UNL     1     -11.285  10.178  65.145  1.00  0.00     1.123 N  
HETATM    7  H   UNL     1     -11.611  10.709  65.953  1.00  0.00     0.000 HD 
BRANCH   6   8
HETATM    8  C   UNL     1     -10.120   9.511  65.150  1.00  0.00     0.313 A  
HETATM    9  C   UNL     1      -9.859   8.286  65.716  1.00  0.00     0.354 A  
HETATM   10  N   UNL     1      -8.588   7.974  65.303  1.00  0.00    -0.129 NA 
HETATM   11  O   UNL     1      -8.977   9.946  64.519  1.00  0.00    -0.199 OA 
HETATM   12  N   UNL     1      -8.001   8.939  64.613  1.00  0.00    -0.124 NA 
BRANCH  10  13
HETATM   13  N   UNL     1      -7.988   6.686  65.412  1.00  0.00    -0.114 NA 
HETATM   14  C   UNL     1      -6.926   6.413  66.366  1.00  0.00    -0.067 C  
HETATM   15  C   UNL     1      -7.067   4.958  66.833  1.00  0.00    -0.072 C  
HETATM   16  O   UNL     1      -7.072   4.060  65.717  1.00  0.00    -0.064 OA 
HETATM   17  C   UNL     1      -8.152   4.352  64.822  1.00  0.00    -0.099 C  
HETATM   18  C   UNL     1      -8.033   5.778  64.276  1.00  0.00    -0.125 C  
ENDBRANCH  10  13
ENDBRANCH   6   8
ENDBRANCH   3   4
ENDBRANCH   2   3
TORSDOF 4
ENDMDL
