MODEL        1
REMARK 921   NORMALIZED FREE ENERGY PREDICTED BY IDOCK:   -6.28 KCAL/MOL
REMARK 922        TOTAL FREE ENERGY PREDICTED BY IDOCK:   -7.82 KCAL/MOL
REMARK 923 INTER-LIGAND FREE ENERGY PREDICTED BY IDOCK:   -7.38 KCAL/MOL
REMARK 924 INTRA-LIGAND FREE ENERGY PREDICTED BY IDOCK:   -0.44 KCAL/MOL
REMARK 927      BINDING AFFINITY PREDICTED BY RF-SCORE:    0.00 PKD
ROOT
HETATM    1  O   UNL     1     -11.515  16.348  63.716  1.00  0.00    -1.590 OA 
HETATM    2  C   UNL     1     -11.552  15.501  64.783  1.00  0.00    -0.256 A  
HETATM    3  H   UNL     1     -12.039  16.185  62.940  1.00  0.00     0.000 HD 
HETATM    4  C   UNL     1     -10.785  15.741  65.919  1.00  0.00    -0.320 A  
HETATM    5  C   UNL     1     -10.860  14.858  66.998  1.00  0.00    -0.315 A  
HETATM    6  C   UNL     1     -11.717  13.755  66.946  1.00  0.00    -0.395 A  
HETATM    7  C   UNL     1     -12.457  13.509  65.787  1.00  0.00    -0.514 A  
HETATM    8  C   UNL     1     -12.380  14.387  64.705  1.00  0.00    -0.427 A  
ENDROOT
BRANCH   6   9
HETATM    9  O   UNL     1     -11.904  12.860  67.965  1.00  0.00    -0.346 OA 
BRANCH   9  10
HETATM   10  C   UNL     1     -11.196  13.156  69.171  1.00  0.00    -0.247 C  
BRANCH  10  11
HETATM   11  C   UNL     1     -12.174  13.571  70.241  1.00  0.00    -0.417 A  
HETATM   12  C   UNL     1     -12.662  12.639  71.166  1.00  0.00    -0.347 A  
HETATM   13  C   UNL     1     -13.528  13.043  72.182  1.00  0.00    -0.638 A  
HETATM   14  C   UNL     1     -13.907  14.381  72.286  1.00  0.00    -0.589 A  
HETATM   15  C   UNL     1     -13.423  15.318  71.376  1.00  0.00    -0.588 A  
HETATM   16  C   UNL     1     -12.557  14.916  70.360  1.00  0.00    -0.394 A  
ENDBRANCH  10  11
ENDBRANCH   9  10
ENDBRANCH   6   9
TORSDOF 3
ENDMDL
MODEL        2
REMARK 921   NORMALIZED FREE ENERGY PREDICTED BY IDOCK:   -6.25 KCAL/MOL
REMARK 922        TOTAL FREE ENERGY PREDICTED BY IDOCK:   -7.78 KCAL/MOL
REMARK 923 INTER-LIGAND FREE ENERGY PREDICTED BY IDOCK:   -7.40 KCAL/MOL
REMARK 924 INTRA-LIGAND FREE ENERGY PREDICTED BY IDOCK:   -0.39 KCAL/MOL
REMARK 927      BINDING AFFINITY PREDICTED BY RF-SCORE:    0.00 PKD
ROOT
HETATM    1  O   UNL     1     -11.313  16.497  63.891  1.00  0.00    -1.557 OA 
HETATM    2  C   UNL     1     -11.523  15.425  64.706  1.00  0.00    -0.336 A  
HETATM    3  H   UNL     1     -10.816  17.250  64.186  1.00  0.00     0.000 HD 
HETATM    4  C   UNL     1     -12.252  14.322  64.272  1.00  0.00    -0.451 A  
HETATM    5  C   UNL     1     -12.433  13.236  65.131  1.00  0.00    -0.525 A  
HETATM    6  C   UNL     1     -11.866  13.248  66.408  1.00  0.00    -0.396 A  
HETATM    7  C   UNL     1     -11.164  14.375  66.842  1.00  0.00    -0.340 A  
HETATM    8  C   UNL     1     -10.986  15.463  65.987  1.00  0.00    -0.286 A  
ENDROOT
BRANCH   6   9
HETATM    9  O   UNL     1     -11.940  12.218  67.307  1.00  0.00    -0.546 OA 
BRANCH   9  10
HETATM   10  C   UNL     1     -11.037  12.308  68.411  1.00  0.00    -0.243 C  
BRANCH  10  11
HETATM   11  C   UNL     1     -11.815  12.293  69.703  1.00  0.00    -0.393 A  
HETATM   12  C   UNL     1     -12.271  13.486  70.278  1.00  0.00    -0.417 A  
HETATM   13  C   UNL     1     -13.031  13.459  71.448  1.00  0.00    -0.412 A  
HETATM   14  C   UNL     1     -13.347  12.240  72.046  1.00  0.00    -0.491 A  
HETATM   15  C   UNL     1     -12.905  11.047  71.479  1.00  0.00    -0.555 A  
HETATM   16  C   UNL     1     -12.146  11.072  70.310  1.00  0.00    -0.448 A  
ENDBRANCH  10  11
ENDBRANCH   9  10
ENDBRANCH   6   9
TORSDOF 3
ENDMDL
MODEL        3
REMARK 921   NORMALIZED FREE ENERGY PREDICTED BY IDOCK:   -6.19 KCAL/MOL
REMARK 922        TOTAL FREE ENERGY PREDICTED BY IDOCK:   -7.71 KCAL/MOL
REMARK 923 INTER-LIGAND FREE ENERGY PREDICTED BY IDOCK:   -7.33 KCAL/MOL
REMARK 924 INTRA-LIGAND FREE ENERGY PREDICTED BY IDOCK:   -0.39 KCAL/MOL
REMARK 927      BINDING AFFINITY PREDICTED BY RF-SCORE:    0.00 PKD
ROOT
HETATM    1  O   UNL     1     -12.400  14.112  63.210  1.00  0.00    -1.140 OA 
HETATM    2  C   UNL     1     -11.984  14.293  64.496  1.00  0.00    -0.462 A  
HETATM    3  H   UNL     1     -13.090  13.495  62.999  1.00  0.00     0.000 HD 
HETATM    4  C   UNL     1     -10.974  15.198  64.805  1.00  0.00    -0.394 A  
HETATM    5  C   UNL     1     -10.585  15.367  66.136  1.00  0.00    -0.321 A  
HETATM    6  C   UNL     1     -11.224  14.649  67.151  1.00  0.00    -0.344 A  
HETATM    7  C   UNL     1     -12.214  13.720  66.823  1.00  0.00    -0.440 A  
HETATM    8  C   UNL     1     -12.601  13.547  65.493  1.00  0.00    -0.531 A  
ENDROOT
BRANCH   6   9
HETATM    9  O   UNL     1     -10.955  14.777  68.487  1.00  0.00    -0.242 OA 
BRANCH   9  10
HETATM   10  C   UNL     1     -11.857  15.617  69.211  1.00  0.00    -0.363 C  
BRANCH  10  11
HETATM   11  C   UNL     1     -12.504  14.827  70.321  1.00  0.00    -0.393 A  
HETATM   12  C   UNL     1     -12.222  13.465  70.488  1.00  0.00    -0.425 A  
HETATM   13  C   UNL     1     -12.787  12.754  71.548  1.00  0.00    -0.369 A  
HETATM   14  C   UNL     1     -13.632  13.400  72.450  1.00  0.00    -0.708 A  
HETATM   15  C   UNL     1     -13.914  14.755  72.297  1.00  0.00    -0.598 A  
HETATM   16  C   UNL     1     -13.350  15.467  71.239  1.00  0.00    -0.598 A  
ENDBRANCH  10  11
ENDBRANCH   9  10
ENDBRANCH   6   9
TORSDOF 3
ENDMDL
MODEL        4
REMARK 921   NORMALIZED FREE ENERGY PREDICTED BY IDOCK:   -6.18 KCAL/MOL
REMARK 922        TOTAL FREE ENERGY PREDICTED BY IDOCK:   -7.70 KCAL/MOL
REMARK 923 INTER-LIGAND FREE ENERGY PREDICTED BY IDOCK:   -7.37 KCAL/MOL
REMARK 924 INTRA-LIGAND FREE ENERGY PREDICTED BY IDOCK:   -0.33 KCAL/MOL
REMARK 927      BINDING AFFINITY PREDICTED BY RF-SCORE:    0.00 PKD
ROOT
HETATM    1  O   UNL     1     -12.472  14.126  63.228  1.00  0.00    -1.146 OA 
HETATM    2  C   UNL     1     -12.103  14.258  64.533  1.00  0.00    -0.480 A  
HETATM    3  H   UNL     1     -13.067  13.439  62.951  1.00  0.00     0.000 HD 
HETATM    4  C   UNL     1     -11.232  15.265  64.937  1.00  0.00    -0.422 A  
HETATM    5  C   UNL     1     -10.889  15.377  66.286  1.00  0.00    -0.301 A  
HETATM    6  C   UNL     1     -11.436  14.499  67.226  1.00  0.00    -0.365 A  
HETATM    7  C   UNL     1     -12.283  13.473  66.801  1.00  0.00    -0.392 A  
HETATM    8  C   UNL     1     -12.624  13.356  65.453  1.00  0.00    -0.528 A  
ENDROOT
BRANCH   6   9
HETATM    9  O   UNL     1     -11.206  14.554  68.575  1.00  0.00    -0.244 OA 
BRANCH   9  10
HETATM   10  C   UNL     1     -11.781  15.678  69.244  1.00  0.00    -0.375 C  
BRANCH  10  11
HETATM   11  C   UNL     1     -12.180  15.284  70.643  1.00  0.00    -0.412 A  
HETATM   12  C   UNL     1     -11.669  15.969  71.753  1.00  0.00    -0.593 A  
HETATM   13  C   UNL     1     -12.081  15.628  73.042  1.00  0.00    -0.590 A  
HETATM   14  C   UNL     1     -13.011  14.607  73.230  1.00  0.00    -0.569 A  
HETATM   15  C   UNL     1     -13.531  13.923  72.133  1.00  0.00    -0.578 A  
HETATM   16  C   UNL     1     -13.121  14.263  70.845  1.00  0.00    -0.368 A  
ENDBRANCH  10  11
ENDBRANCH   9  10
ENDBRANCH   6   9
TORSDOF 3
ENDMDL
MODEL        5
REMARK 921   NORMALIZED FREE ENERGY PREDICTED BY IDOCK:   -6.14 KCAL/MOL
REMARK 922        TOTAL FREE ENERGY PREDICTED BY IDOCK:   -7.66 KCAL/MOL
REMARK 923 INTER-LIGAND FREE ENERGY PREDICTED BY IDOCK:   -7.29 KCAL/MOL
REMARK 924 INTRA-LIGAND FREE ENERGY PREDICTED BY IDOCK:   -0.37 KCAL/MOL
REMARK 927      BINDING AFFINITY PREDICTED BY RF-SCORE:    0.00 PKD
ROOT
HETATM    1  O   UNL     1     -12.472  14.171  63.310  1.00  0.00    -1.146 OA 
HETATM    2  C   UNL     1     -12.052  14.215  64.606  1.00  0.00    -0.452 A  
HETATM    3  H   UNL     1     -12.996  13.446  62.987  1.00  0.00     0.000 HD 
HETATM    4  C   UNL     1     -11.286  15.275  65.078  1.00  0.00    -0.409 A  
HETATM    5  C   UNL     1     -10.886  15.293  66.416  1.00  0.00    -0.317 A  
HETATM    6  C   UNL     1     -11.273  14.264  67.279  1.00  0.00    -0.318 A  
HETATM    7  C   UNL     1     -12.015  13.189  66.783  1.00  0.00    -0.434 A  
HETATM    8  C   UNL     1     -12.412  13.167  65.446  1.00  0.00    -0.535 A  
ENDROOT
BRANCH   6   9
HETATM    9  O   UNL     1     -10.979  14.210  68.615  1.00  0.00    -0.241 OA 
BRANCH   9  10
HETATM   10  C   UNL     1     -11.917  13.487  69.415  1.00  0.00    -0.330 C  
BRANCH  10  11
HETATM   11  C   UNL     1     -12.181  14.244  70.692  1.00  0.00    -0.427 A  
HETATM   12  C   UNL     1     -12.967  13.682  71.707  1.00  0.00    -0.441 A  
HETATM   13  C   UNL     1     -13.167  14.370  72.905  1.00  0.00    -0.613 A  
HETATM   14  C   UNL     1     -12.577  15.619  73.099  1.00  0.00    -0.588 A  
HETATM   15  C   UNL     1     -11.789  16.183  72.100  1.00  0.00    -0.626 A  
HETATM   16  C   UNL     1     -11.588  15.498  70.903  1.00  0.00    -0.410 A  
ENDBRANCH  10  11
ENDBRANCH   9  10
ENDBRANCH   6   9
TORSDOF 3
ENDMDL
MODEL        6
REMARK 921   NORMALIZED FREE ENERGY PREDICTED BY IDOCK:   -6.07 KCAL/MOL
REMARK 922        TOTAL FREE ENERGY PREDICTED BY IDOCK:   -7.57 KCAL/MOL
REMARK 923 INTER-LIGAND FREE ENERGY PREDICTED BY IDOCK:   -7.17 KCAL/MOL
REMARK 924 INTRA-LIGAND FREE ENERGY PREDICTED BY IDOCK:   -0.40 KCAL/MOL
REMARK 927      BINDING AFFINITY PREDICTED BY RF-SCORE:    0.00 PKD
ROOT
HETATM    1  O   UNL     1     -12.414  13.875  62.973  1.00  0.00    -1.099 OA 
HETATM    2  C   UNL     1     -12.098  13.852  64.299  1.00  0.00    -0.440 A  
HETATM    3  H   UNL     1     -12.222  14.633  62.434  1.00  0.00     0.000 HD 
HETATM    4  C   UNL     1     -12.379  12.741  65.087  1.00  0.00    -0.555 A  
HETATM    5  C   UNL     1     -12.027  12.750  66.438  1.00  0.00    -0.443 A  
HETATM    6  C   UNL     1     -11.376  13.857  66.988  1.00  0.00    -0.326 A  
HETATM    7  C   UNL     1     -11.129  14.979  66.193  1.00  0.00    -0.329 A  
HETATM    8  C   UNL     1     -11.484  14.975  64.843  1.00  0.00    -0.399 A  
ENDROOT
BRANCH   6   9
HETATM    9  O   UNL     1     -10.943  13.948  68.284  1.00  0.00    -0.241 OA 
BRANCH   9  10
HETATM   10  C   UNL     1     -11.416  12.918  69.156  1.00  0.00    -0.306 C  
BRANCH  10  11
HETATM   11  C   UNL     1     -12.277  13.525  70.235  1.00  0.00    -0.417 A  
HETATM   12  C   UNL     1     -12.832  12.725  71.241  1.00  0.00    -0.355 A  
HETATM   13  C   UNL     1     -13.588  13.302  72.263  1.00  0.00    -0.703 A  
HETATM   14  C   UNL     1     -13.787  14.682  72.289  1.00  0.00    -0.583 A  
HETATM   15  C   UNL     1     -13.234  15.488  71.297  1.00  0.00    -0.588 A  
HETATM   16  C   UNL     1     -12.479  14.913  70.276  1.00  0.00    -0.386 A  
ENDBRANCH  10  11
ENDBRANCH   9  10
ENDBRANCH   6   9
TORSDOF 3
ENDMDL
MODEL        7
REMARK 921   NORMALIZED FREE ENERGY PREDICTED BY IDOCK:   -6.06 KCAL/MOL
REMARK 922        TOTAL FREE ENERGY PREDICTED BY IDOCK:   -7.56 KCAL/MOL
REMARK 923 INTER-LIGAND FREE ENERGY PREDICTED BY IDOCK:   -7.19 KCAL/MOL
REMARK 924 INTRA-LIGAND FREE ENERGY PREDICTED BY IDOCK:   -0.37 KCAL/MOL
REMARK 927      BINDING AFFINITY PREDICTED BY RF-SCORE:    0.00 PKD
ROOT
HETATM    1  O   UNL     1     -12.311  14.008  63.194  1.00  0.00    -1.133 OA 
HETATM    2  C   UNL     1     -12.061  14.083  64.531  1.00  0.00    -0.459 A  
HETATM    3  H   UNL     1     -12.050  14.706  62.605  1.00  0.00     0.000 HD 
HETATM    4  C   UNL     1     -12.442  13.060  65.393  1.00  0.00    -0.531 A  
HETATM    5  C   UNL     1     -12.156  13.165  66.756  1.00  0.00    -0.389 A  
HETATM    6  C   UNL     1     -11.470  14.280  67.246  1.00  0.00    -0.352 A  
HETATM    7  C   UNL     1     -11.121  15.314  66.374  1.00  0.00    -0.273 A  
HETATM    8  C   UNL     1     -11.410  15.213  65.013  1.00  0.00    -0.381 A  
ENDROOT
BRANCH   6   9
HETATM    9  O   UNL     1     -11.096  14.458  68.551  1.00  0.00    -0.235 OA 
BRANCH   9  10
HETATM   10  C   UNL     1     -11.479  15.708  69.128  1.00  0.00    -0.359 C  
BRANCH  10  11
HETATM   11  C   UNL     1     -12.049  15.475  70.504  1.00  0.00    -0.423 A  
HETATM   12  C   UNL     1     -12.863  14.366  70.764  1.00  0.00    -0.417 A  
HETATM   13  C   UNL     1     -13.347  14.132  72.052  1.00  0.00    -0.502 A  
HETATM   14  C   UNL     1     -13.014  15.002  73.090  1.00  0.00    -0.631 A  
HETATM   15  C   UNL     1     -12.200  16.105  72.845  1.00  0.00    -0.640 A  
HETATM   16  C   UNL     1     -11.716  16.339  71.558  1.00  0.00    -0.467 A  
ENDBRANCH  10  11
ENDBRANCH   9  10
ENDBRANCH   6   9
TORSDOF 3
ENDMDL
MODEL        8
REMARK 921   NORMALIZED FREE ENERGY PREDICTED BY IDOCK:   -5.90 KCAL/MOL
REMARK 922        TOTAL FREE ENERGY PREDICTED BY IDOCK:   -7.37 KCAL/MOL
REMARK 923 INTER-LIGAND FREE ENERGY PREDICTED BY IDOCK:   -7.07 KCAL/MOL
REMARK 924 INTRA-LIGAND FREE ENERGY PREDICTED BY IDOCK:   -0.30 KCAL/MOL
REMARK 927      BINDING AFFINITY PREDICTED BY RF-SCORE:    0.00 PKD
ROOT
HETATM    1  O   UNL     1     -11.459  16.249  63.824  1.00  0.00    -1.475 OA 
HETATM    2  C   UNL     1     -11.622  15.198  64.677  1.00  0.00    -0.357 A  
HETATM    3  H   UNL     1     -11.006  17.038  64.097  1.00  0.00     0.000 HD 
HETATM    4  C   UNL     1     -12.285  14.042  64.277  1.00  0.00    -0.453 A  
HETATM    5  C   UNL     1     -12.420  12.981  65.174  1.00  0.00    -0.552 A  
HETATM    6  C   UNL     1     -11.873  13.072  66.457  1.00  0.00    -0.403 A  
HETATM    7  C   UNL     1     -11.239  14.250  66.856  1.00  0.00    -0.333 A  
HETATM    8  C   UNL     1     -11.106  15.314  65.963  1.00  0.00    -0.278 A  
ENDROOT
BRANCH   6   9
HETATM    9  O   UNL     1     -11.904  12.073  67.394  1.00  0.00    -0.546 OA 
BRANCH   9  10
HETATM   10  C   UNL     1     -11.906  12.515  68.753  1.00  0.00    -0.303 C  
BRANCH  10  11
HETATM   11  C   UNL     1     -11.825  11.323  69.672  1.00  0.00    -0.430 A  
HETATM   12  C   UNL     1     -12.600  11.263  70.837  1.00  0.00    -0.467 A  
HETATM   13  C   UNL     1     -12.554  10.134  71.657  1.00  0.00    -0.533 A  
HETATM   14  C   UNL     1     -11.739   9.056  71.314  1.00  0.00    -0.382 A  
HETATM   15  C   UNL     1     -10.969   9.102  70.154  1.00  0.00    -0.267 A  
HETATM   16  C   UNL     1     -11.014  10.228  69.334  1.00  0.00    -0.289 A  
ENDBRANCH  10  11
ENDBRANCH   9  10
ENDBRANCH   6   9
TORSDOF 3
ENDMDL
MODEL        9
REMARK 921   NORMALIZED FREE ENERGY PREDICTED BY IDOCK:   -5.87 KCAL/MOL
REMARK 922        TOTAL FREE ENERGY PREDICTED BY IDOCK:   -7.34 KCAL/MOL
REMARK 923 INTER-LIGAND FREE ENERGY PREDICTED BY IDOCK:   -7.08 KCAL/MOL
REMARK 924 INTRA-LIGAND FREE ENERGY PREDICTED BY IDOCK:   -0.26 KCAL/MOL
REMARK 927      BINDING AFFINITY PREDICTED BY RF-SCORE:    0.00 PKD
ROOT
HETATM    1  O   UNL     1     -11.577  16.275  63.764  1.00  0.00    -1.539 OA 
HETATM    2  C   UNL     1     -11.605  15.338  64.753  1.00  0.00    -0.322 A  
HETATM    3  H   UNL     1     -12.040  16.140  62.945  1.00  0.00     0.000 HD 
HETATM    4  C   UNL     1     -10.928  15.536  65.952  1.00  0.00    -0.264 A  
HETATM    5  C   UNL     1     -10.992  14.559  66.948  1.00  0.00    -0.316 A  
HETATM    6  C   UNL     1     -11.750  13.402  66.749  1.00  0.00    -0.385 A  
HETATM    7  C   UNL     1     -12.398  13.201  65.528  1.00  0.00    -0.529 A  
HETATM    8  C   UNL     1     -12.332  14.174  64.530  1.00  0.00    -0.419 A  
ENDROOT
BRANCH   6   9
HETATM    9  O   UNL     1     -11.920  12.409  67.677  1.00  0.00    -0.454 OA 
BRANCH   9  10
HETATM   10  C   UNL     1     -11.537  12.751  69.011  1.00  0.00    -0.316 C  
BRANCH  10  11
HETATM   11  C   UNL     1     -11.666  11.540  69.900  1.00  0.00    -0.420 A  
HETATM   12  C   UNL     1     -10.795  10.452  69.759  1.00  0.00    -0.342 A  
HETATM   13  C   UNL     1     -10.891   9.357  70.619  1.00  0.00    -0.346 A  
HETATM   14  C   UNL     1     -11.854   9.344  71.628  1.00  0.00    -0.464 A  
HETATM   15  C   UNL     1     -12.720  10.424  71.781  1.00  0.00    -0.525 A  
HETATM   16  C   UNL     1     -12.625  11.519  70.924  1.00  0.00    -0.438 A  
ENDBRANCH  10  11
ENDBRANCH   9  10
ENDBRANCH   6   9
TORSDOF 3
ENDMDL
MODEL       10
REMARK 921   NORMALIZED FREE ENERGY PREDICTED BY IDOCK:   -5.86 KCAL/MOL
REMARK 922        TOTAL FREE ENERGY PREDICTED BY IDOCK:   -7.32 KCAL/MOL
REMARK 923 INTER-LIGAND FREE ENERGY PREDICTED BY IDOCK:   -6.94 KCAL/MOL
REMARK 924 INTRA-LIGAND FREE ENERGY PREDICTED BY IDOCK:   -0.38 KCAL/MOL
REMARK 927      BINDING AFFINITY PREDICTED BY RF-SCORE:    0.00 PKD
ROOT
HETATM    1  O   UNL     1     -13.271  16.124  74.175  1.00  0.00    -0.936 OA 
HETATM    2  C   UNL     1     -12.887  15.509  73.021  1.00  0.00    -0.472 A  
HETATM    3  H   UNL     1     -12.956  16.992  74.398  1.00  0.00     0.000 HD 
HETATM    4  C   UNL     1     -13.349  14.238  72.694  1.00  0.00    -0.619 A  
HETATM    5  C   UNL     1     -12.946  13.646  71.496  1.00  0.00    -0.443 A  
HETATM    6  C   UNL     1     -12.103  14.336  70.620  1.00  0.00    -0.346 A  
HETATM    7  C   UNL     1     -11.621  15.598  70.975  1.00  0.00    -0.434 A  
HETATM    8  C   UNL     1     -12.019  16.189  72.175  1.00  0.00    -0.623 A  
ENDROOT
BRANCH   6   9
HETATM    9  O   UNL     1     -11.690  13.869  69.401  1.00  0.00    -0.273 OA 
BRANCH   9  10
HETATM   10  C   UNL     1     -10.798  14.731  68.691  1.00  0.00    -0.253 C  
BRANCH  10  11
HETATM   11  C   UNL     1     -11.154  14.731  67.226  1.00  0.00    -0.334 A  
HETATM   12  C   UNL     1     -12.146  13.875  66.730  1.00  0.00    -0.476 A  
HETATM   13  C   UNL     1     -12.503  13.916  65.382  1.00  0.00    -0.528 A  
HETATM   14  C   UNL     1     -11.876  14.817  64.522  1.00  0.00    -0.428 A  
HETATM   15  C   UNL     1     -10.893  15.678  65.005  1.00  0.00    -0.468 A  
HETATM   16  C   UNL     1     -10.536  15.638  66.352  1.00  0.00    -0.309 A  
ENDBRANCH  10  11
ENDBRANCH   9  10
ENDBRANCH   6   9
TORSDOF 3
ENDMDL
MODEL       11
REMARK 921   NORMALIZED FREE ENERGY PREDICTED BY IDOCK:   -5.82 KCAL/MOL
REMARK 922        TOTAL FREE ENERGY PREDICTED BY IDOCK:   -7.28 KCAL/MOL
REMARK 923 INTER-LIGAND FREE ENERGY PREDICTED BY IDOCK:   -6.95 KCAL/MOL
REMARK 924 INTRA-LIGAND FREE ENERGY PREDICTED BY IDOCK:   -0.33 KCAL/MOL
REMARK 927      BINDING AFFINITY PREDICTED BY RF-SCORE:    0.00 PKD
ROOT
HETATM    1  O   UNL     1      -9.701  20.582  65.650  1.00  0.00    -0.607 OA 
HETATM    2  C   UNL     1      -9.947  19.603  66.566  1.00  0.00    -0.440 A  
HETATM    3  H   UNL     1      -9.387  21.438  65.917  1.00  0.00     0.000 HD 
HETATM    4  C   UNL     1     -10.407  18.350  66.174  1.00  0.00    -0.431 A  
HETATM    5  C   UNL     1     -10.633  17.367  67.140  1.00  0.00    -0.264 A  
HETATM    6  C   UNL     1     -10.377  17.634  68.487  1.00  0.00    -0.370 A  
HETATM    7  C   UNL     1      -9.946  18.906  68.870  1.00  0.00    -0.437 A  
HETATM    8  C   UNL     1      -9.724  19.891  67.907  1.00  0.00    -0.510 A  
ENDROOT
BRANCH   6   9
HETATM    9  O   UNL     1     -10.516  16.728  69.505  1.00  0.00    -0.310 OA 
BRANCH   9  10
HETATM   10  C   UNL     1     -11.624  15.834  69.375  1.00  0.00    -0.365 C  
BRANCH  10  11
HETATM   11  C   UNL     1     -12.145  15.473  70.744  1.00  0.00    -0.435 A  
HETATM   12  C   UNL     1     -12.897  14.308  70.939  1.00  0.00    -0.416 A  
HETATM   13  C   UNL     1     -13.334  13.957  72.217  1.00  0.00    -0.599 A  
HETATM   14  C   UNL     1     -13.015  14.765  73.309  1.00  0.00    -0.608 A  
HETATM   15  C   UNL     1     -12.262  15.922  73.127  1.00  0.00    -0.622 A  
HETATM   16  C   UNL     1     -11.825  16.273  71.851  1.00  0.00    -0.538 A  
ENDBRANCH  10  11
ENDBRANCH   9  10
ENDBRANCH   6   9
TORSDOF 3
ENDMDL
MODEL       12
REMARK 921   NORMALIZED FREE ENERGY PREDICTED BY IDOCK:   -5.81 KCAL/MOL
REMARK 922        TOTAL FREE ENERGY PREDICTED BY IDOCK:   -7.26 KCAL/MOL
REMARK 923 INTER-LIGAND FREE ENERGY PREDICTED BY IDOCK:   -6.95 KCAL/MOL
REMARK 924 INTRA-LIGAND FREE ENERGY PREDICTED BY IDOCK:   -0.31 KCAL/MOL
REMARK 927      BINDING AFFINITY PREDICTED BY RF-SCORE:    0.00 PKD
ROOT
HETATM    1  O   UNL     1     -12.964  15.855  74.430  1.00  0.00    -0.884 OA 
HETATM    2  C   UNL     1     -12.726  15.421  73.161  1.00  0.00    -0.479 A  
HETATM    3  H   UNL     1     -13.438  15.317  75.054  1.00  0.00     0.000 HD 
HETATM    4  C   UNL     1     -12.032  16.209  72.249  1.00  0.00    -0.637 A  
HETATM    5  C   UNL     1     -11.794  15.723  70.961  1.00  0.00    -0.460 A  
HETATM    6  C   UNL     1     -12.231  14.446  70.600  1.00  0.00    -0.344 A  
HETATM    7  C   UNL     1     -12.955  13.679  71.515  1.00  0.00    -0.443 A  
HETATM    8  C   UNL     1     -13.198  14.163  72.801  1.00  0.00    -0.604 A  
ENDROOT
BRANCH   6   9
HETATM    9  O   UNL     1     -12.006  13.856  69.384  1.00  0.00    -0.315 OA 
BRANCH   9  10
HETATM   10  C   UNL     1     -10.989  14.470  68.590  1.00  0.00    -0.251 C  
BRANCH  10  11
HETATM   11  C   UNL     1     -11.318  14.302  67.128  1.00  0.00    -0.352 A  
HETATM   12  C   UNL     1     -12.098  13.224  66.690  1.00  0.00    -0.421 A  
HETATM   13  C   UNL     1     -12.438  13.103  65.341  1.00  0.00    -0.535 A  
HETATM   14  C   UNL     1     -12.007  14.062  64.425  1.00  0.00    -0.480 A  
HETATM   15  C   UNL     1     -11.237  15.141  64.851  1.00  0.00    -0.424 A  
HETATM   16  C   UNL     1     -10.897  15.263  66.197  1.00  0.00    -0.320 A  
ENDBRANCH  10  11
ENDBRANCH   9  10
ENDBRANCH   6   9
TORSDOF 3
ENDMDL
MODEL       13
REMARK 921   NORMALIZED FREE ENERGY PREDICTED BY IDOCK:   -5.79 KCAL/MOL
REMARK 922        TOTAL FREE ENERGY PREDICTED BY IDOCK:   -7.24 KCAL/MOL
REMARK 923 INTER-LIGAND FREE ENERGY PREDICTED BY IDOCK:   -6.90 KCAL/MOL
REMARK 924 INTRA-LIGAND FREE ENERGY PREDICTED BY IDOCK:   -0.35 KCAL/MOL
REMARK 927      BINDING AFFINITY PREDICTED BY RF-SCORE:    0.00 PKD
ROOT
HETATM    1  O   UNL     1     -13.076  16.264  74.202  1.00  0.00    -0.934 OA 
HETATM    2  C   UNL     1     -12.856  15.581  73.043  1.00  0.00    -0.472 A  
HETATM    3  H   UNL     1     -12.654  17.099  74.368  1.00  0.00     0.000 HD 
HETATM    4  C   UNL     1     -13.474  14.359  72.799  1.00  0.00    -0.582 A  
HETATM    5  C   UNL     1     -13.236  13.696  71.594  1.00  0.00    -0.447 A  
HETATM    6  C   UNL     1     -12.402  14.269  70.629  1.00  0.00    -0.361 A  
HETATM    7  C   UNL     1     -11.764  15.481  70.900  1.00  0.00    -0.413 A  
HETATM    8  C   UNL     1     -11.996  16.143  72.106  1.00  0.00    -0.623 A  
ENDROOT
BRANCH   6   9
HETATM    9  O   UNL     1     -12.144  13.729  69.398  1.00  0.00    -0.326 OA 
BRANCH   9  10
HETATM   10  C   UNL     1     -11.085  14.355  68.670  1.00  0.00    -0.251 C  
BRANCH  10  11
HETATM   11  C   UNL     1     -11.391  14.309  67.194  1.00  0.00    -0.352 A  
HETATM   12  C   UNL     1     -10.750  15.180  66.303  1.00  0.00    -0.320 A  
HETATM   13  C   UNL     1     -11.003  15.097  64.933  1.00  0.00    -0.434 A  
HETATM   14  C   UNL     1     -11.892  14.140  64.444  1.00  0.00    -0.447 A  
HETATM   15  C   UNL     1     -12.529  13.265  65.320  1.00  0.00    -0.543 A  
HETATM   16  C   UNL     1     -12.277  13.346  66.689  1.00  0.00    -0.391 A  
ENDBRANCH  10  11
ENDBRANCH   9  10
ENDBRANCH   6   9
TORSDOF 3
ENDMDL
MODEL       14
REMARK 921   NORMALIZED FREE ENERGY PREDICTED BY IDOCK:   -5.67 KCAL/MOL
REMARK 922        TOTAL FREE ENERGY PREDICTED BY IDOCK:   -7.10 KCAL/MOL
REMARK 923 INTER-LIGAND FREE ENERGY PREDICTED BY IDOCK:   -6.76 KCAL/MOL
REMARK 924 INTRA-LIGAND FREE ENERGY PREDICTED BY IDOCK:   -0.34 KCAL/MOL
REMARK 927      BINDING AFFINITY PREDICTED BY RF-SCORE:    0.00 PKD
ROOT
HETATM    1  O   UNL     1     -14.042  13.087  72.819  1.00  0.00    -0.737 OA 
HETATM    2  C   UNL     1     -13.223  13.952  72.156  1.00  0.00    -0.444 A  
HETATM    3  H   UNL     1     -14.223  12.220  72.475  1.00  0.00     0.000 HD 
HETATM    4  C   UNL     1     -12.957  15.221  72.661  1.00  0.00    -0.504 A  
HETATM    5  C   UNL     1     -12.102  16.073  71.961  1.00  0.00    -0.606 A  
HETATM    6  C   UNL     1     -11.499  15.646  70.775  1.00  0.00    -0.379 A  
HETATM    7  C   UNL     1     -11.800  14.382  70.263  1.00  0.00    -0.382 A  
HETATM    8  C   UNL     1     -12.658  13.529  70.958  1.00  0.00    -0.438 A  
ENDROOT
BRANCH   6   9
HETATM    9  O   UNL     1     -10.608  16.382  70.040  1.00  0.00    -0.287 OA 
BRANCH   9  10
HETATM   10  C   UNL     1     -10.857  16.411  68.633  1.00  0.00    -0.331 C  
BRANCH  10  11
HETATM   11  C   UNL     1     -10.458  17.753  68.076  1.00  0.00    -0.399 A  
HETATM   12  C   UNL     1     -10.585  18.027  66.708  1.00  0.00    -0.281 A  
HETATM   13  C   UNL     1     -10.259  19.289  66.209  1.00  0.00    -0.546 A  
HETATM   14  C   UNL     1      -9.810  20.287  67.074  1.00  0.00    -0.607 A  
HETATM   15  C   UNL     1      -9.687  20.028  68.437  1.00  0.00    -0.393 A  
HETATM   16  C   UNL     1     -10.012  18.768  68.937  1.00  0.00    -0.423 A  
ENDBRANCH  10  11
ENDBRANCH   9  10
ENDBRANCH   6   9
TORSDOF 3
ENDMDL
MODEL       15
REMARK 921   NORMALIZED FREE ENERGY PREDICTED BY IDOCK:   -5.63 KCAL/MOL
REMARK 922        TOTAL FREE ENERGY PREDICTED BY IDOCK:   -7.06 KCAL/MOL
REMARK 923 INTER-LIGAND FREE ENERGY PREDICTED BY IDOCK:   -6.72 KCAL/MOL
REMARK 924 INTRA-LIGAND FREE ENERGY PREDICTED BY IDOCK:   -0.33 KCAL/MOL
REMARK 927      BINDING AFFINITY PREDICTED BY RF-SCORE:    0.00 PKD
ROOT
HETATM    1  O   UNL     1     -10.995  11.254  63.006  1.00  0.00    -0.804 OA 
HETATM    2  C   UNL     1     -11.325  11.916  64.151  1.00  0.00    -0.380 A  
HETATM    3  H   UNL     1     -11.405  11.471  62.177  1.00  0.00     0.000 HD 
HETATM    4  C   UNL     1     -10.724  11.599  65.365  1.00  0.00    -0.341 A  
HETATM    5  C   UNL     1     -11.078  12.309  66.514  1.00  0.00    -0.343 A  
HETATM    6  C   UNL     1     -12.011  13.346  66.440  1.00  0.00    -0.406 A  
HETATM    7  C   UNL     1     -12.631  13.632  65.221  1.00  0.00    -0.512 A  
HETATM    8  C   UNL     1     -12.283  12.921  64.072  1.00  0.00    -0.500 A  
ENDROOT
BRANCH   6   9
HETATM    9  O   UNL     1     -12.390  14.135  67.493  1.00  0.00    -0.296 OA 
BRANCH   9  10
HETATM   10  C   UNL     1     -11.457  14.193  68.575  1.00  0.00    -0.300 C  
BRANCH  10  11
HETATM   11  C   UNL     1     -12.202  14.170  69.886  1.00  0.00    -0.416 A  
HETATM   12  C   UNL     1     -12.808  15.330  70.385  1.00  0.00    -0.360 A  
HETATM   13  C   UNL     1     -13.536  15.288  71.575  1.00  0.00    -0.577 A  
HETATM   14  C   UNL     1     -13.669  14.086  72.269  1.00  0.00    -0.646 A  
HETATM   15  C   UNL     1     -13.077  12.925  71.778  1.00  0.00    -0.458 A  
HETATM   16  C   UNL     1     -12.350  12.965  70.590  1.00  0.00    -0.385 A  
ENDBRANCH  10  11
ENDBRANCH   9  10
ENDBRANCH   6   9
TORSDOF 3
ENDMDL
MODEL       16
REMARK 921   NORMALIZED FREE ENERGY PREDICTED BY IDOCK:   -5.62 KCAL/MOL
REMARK 922        TOTAL FREE ENERGY PREDICTED BY IDOCK:   -7.05 KCAL/MOL
REMARK 923 INTER-LIGAND FREE ENERGY PREDICTED BY IDOCK:   -6.68 KCAL/MOL
REMARK 924 INTRA-LIGAND FREE ENERGY PREDICTED BY IDOCK:   -0.36 KCAL/MOL
REMARK 927      BINDING AFFINITY PREDICTED BY RF-SCORE:    0.00 PKD
ROOT
HETATM    1  O   UNL     1     -11.686  11.377  62.985  1.00  0.00    -0.887 OA 
HETATM    2  C   UNL     1     -11.569  12.327  63.955  1.00  0.00    -0.444 A  
HETATM    3  H   UNL     1     -12.527  10.985  62.779  1.00  0.00     0.000 HD 
HETATM    4  C   UNL     1     -10.337  12.900  64.256  1.00  0.00    -0.396 A  
HETATM    5  C   UNL     1     -10.259  13.881  65.247  1.00  0.00    -0.366 A  
HETATM    6  C   UNL     1     -11.414  14.300  65.913  1.00  0.00    -0.335 A  
HETATM    7  C   UNL     1     -12.638  13.693  65.623  1.00  0.00    -0.531 A  
HETATM    8  C   UNL     1     -12.718  12.709  64.637  1.00  0.00    -0.458 A  
ENDROOT
BRANCH   6   9
HETATM    9  O   UNL     1     -11.455  15.287  66.861  1.00  0.00    -0.271 OA 
BRANCH   9  10
HETATM   10  C   UNL     1     -10.182  15.800  67.261  1.00  0.00    -0.268 C  
BRANCH  10  11
HETATM   11  C   UNL     1     -10.227  17.307  67.277  1.00  0.00    -0.320 A  
HETATM   12  C   UNL     1     -10.028  18.017  68.468  1.00  0.00    -0.395 A  
HETATM   13  C   UNL     1     -10.023  19.412  68.465  1.00  0.00    -0.520 A  
HETATM   14  C   UNL     1     -10.210  20.107  67.270  1.00  0.00    -0.540 A  
HETATM   15  C   UNL     1     -10.402  19.412  66.079  1.00  0.00    -0.584 A  
HETATM   16  C   UNL     1     -10.407  18.018  66.081  1.00  0.00    -0.368 A  
ENDBRANCH  10  11
ENDBRANCH   9  10
ENDBRANCH   6   9
TORSDOF 3
ENDMDL
MODEL       17
REMARK 921   NORMALIZED FREE ENERGY PREDICTED BY IDOCK:   -5.58 KCAL/MOL
REMARK 922        TOTAL FREE ENERGY PREDICTED BY IDOCK:   -6.99 KCAL/MOL
REMARK 923 INTER-LIGAND FREE ENERGY PREDICTED BY IDOCK:   -6.68 KCAL/MOL
REMARK 924 INTRA-LIGAND FREE ENERGY PREDICTED BY IDOCK:   -0.32 KCAL/MOL
REMARK 927      BINDING AFFINITY PREDICTED BY RF-SCORE:    0.00 PKD
ROOT
HETATM    1  O   UNL     1     -12.518  14.088  63.053  1.00  0.00    -1.101 OA 
HETATM    2  C   UNL     1     -12.109  13.389  64.149  1.00  0.00    -0.433 A  
HETATM    3  H   UNL     1     -13.093  14.839  63.134  1.00  0.00     0.000 HD 
HETATM    4  C   UNL     1     -11.266  12.289  64.029  1.00  0.00    -0.456 A  
HETATM    5  C   UNL     1     -10.858  11.607  65.177  1.00  0.00    -0.346 A  
HETATM    6  C   UNL     1     -11.274  12.041  66.438  1.00  0.00    -0.337 A  
HETATM    7  C   UNL     1     -12.146  13.127  66.542  1.00  0.00    -0.423 A  
HETATM    8  C   UNL     1     -12.560  13.808  65.396  1.00  0.00    -0.534 A  
ENDROOT
BRANCH   6   9
HETATM    9  O   UNL     1     -10.891  11.477  67.626  1.00  0.00    -0.203 OA 
BRANCH   9  10
HETATM   10  C   UNL     1     -11.626  11.915  68.771  1.00  0.00    -0.309 C  
BRANCH  10  11
HETATM   11  C   UNL     1     -11.563  10.860  69.847  1.00  0.00    -0.410 A  
HETATM   12  C   UNL     1     -10.422  10.062  70.000  1.00  0.00    -0.337 A  
HETATM   13  C   UNL     1     -10.353   9.122  71.028  1.00  0.00    -0.363 A  
HETATM   14  C   UNL     1     -11.420   8.978  71.914  1.00  0.00    -0.440 A  
HETATM   15  C   UNL     1     -12.557   9.771  71.776  1.00  0.00    -0.506 A  
HETATM   16  C   UNL     1     -12.627  10.711  70.749  1.00  0.00    -0.479 A  
ENDBRANCH  10  11
ENDBRANCH   9  10
ENDBRANCH   6   9
TORSDOF 3
ENDMDL
MODEL       18
REMARK 921   NORMALIZED FREE ENERGY PREDICTED BY IDOCK:   -5.58 KCAL/MOL
REMARK 922        TOTAL FREE ENERGY PREDICTED BY IDOCK:   -6.99 KCAL/MOL
REMARK 923 INTER-LIGAND FREE ENERGY PREDICTED BY IDOCK:   -6.71 KCAL/MOL
REMARK 924 INTRA-LIGAND FREE ENERGY PREDICTED BY IDOCK:   -0.28 KCAL/MOL
REMARK 927      BINDING AFFINITY PREDICTED BY RF-SCORE:    0.00 PKD
ROOT
HETATM    1  O   UNL     1     -12.420  14.170  63.258  1.00  0.00    -1.146 OA 
HETATM    2  C   UNL     1     -12.143  13.560  64.444  1.00  0.00    -0.420 A  
HETATM    3  H   UNL     1     -12.165  13.778  62.431  1.00  0.00     0.000 HD 
HETATM    4  C   UNL     1     -12.516  14.135  65.655  1.00  0.00    -0.490 A  
HETATM    5  C   UNL     1     -12.228  13.472  66.849  1.00  0.00    -0.377 A  
HETATM    6  C   UNL     1     -11.591  12.229  66.827  1.00  0.00    -0.369 A  
HETATM    7  C   UNL     1     -11.193  11.678  65.607  1.00  0.00    -0.275 A  
HETATM    8  C   UNL     1     -11.475  12.341  64.412  1.00  0.00    -0.417 A  
ENDROOT
BRANCH   6   9
HETATM    9  O   UNL     1     -11.309  11.474  67.934  1.00  0.00    -0.259 OA 
BRANCH   9  10
HETATM   10  C   UNL     1     -11.769  12.017  69.174  1.00  0.00    -0.330 C  
BRANCH  10  11
HETATM   11  C   UNL     1     -11.818  10.928  70.215  1.00  0.00    -0.450 A  
HETATM   12  C   UNL     1     -12.981  10.705  70.964  1.00  0.00    -0.456 A  
HETATM   13  C   UNL     1     -13.032   9.664  71.892  1.00  0.00    -0.527 A  
HETATM   14  C   UNL     1     -11.926   8.835  72.072  1.00  0.00    -0.446 A  
HETATM   15  C   UNL     1     -10.767   9.043  71.329  1.00  0.00    -0.379 A  
HETATM   16  C   UNL     1     -10.714  10.082  70.401  1.00  0.00    -0.369 A  
ENDBRANCH  10  11
ENDBRANCH   9  10
ENDBRANCH   6   9
TORSDOF 3
ENDMDL
MODEL       19
REMARK 921   NORMALIZED FREE ENERGY PREDICTED BY IDOCK:   -5.54 KCAL/MOL
REMARK 922        TOTAL FREE ENERGY PREDICTED BY IDOCK:   -6.95 KCAL/MOL
REMARK 923 INTER-LIGAND FREE ENERGY PREDICTED BY IDOCK:   -6.55 KCAL/MOL
REMARK 924 INTRA-LIGAND FREE ENERGY PREDICTED BY IDOCK:   -0.40 KCAL/MOL
REMARK 927      BINDING AFFINITY PREDICTED BY RF-SCORE:    0.00 PKD
ROOT
HETATM    1  O   UNL     1     -13.889   8.940  73.326  1.00  0.00    -1.163 OA 
HETATM    2  C   UNL     1     -13.108   9.463  72.339  1.00  0.00    -0.379 A  
HETATM    3  H   UNL     1     -14.576   9.454  73.734  1.00  0.00     0.000 HD 
HETATM    4  C   UNL     1     -12.103   8.710  71.741  1.00  0.00    -0.403 A  
HETATM    5  C   UNL     1     -11.333   9.275  70.723  1.00  0.00    -0.349 A  
HETATM    6  C   UNL     1     -11.587  10.580  70.291  1.00  0.00    -0.332 A  
HETATM    7  C   UNL     1     -12.578  11.336  70.923  1.00  0.00    -0.467 A  
HETATM    8  C   UNL     1     -13.345  10.775  71.944  1.00  0.00    -0.445 A  
ENDROOT
BRANCH   6   9
HETATM    9  O   UNL     1     -10.927  11.209  69.270  1.00  0.00    -0.224 OA 
BRANCH   9  10
HETATM   10  C   UNL     1     -11.346  12.551  69.011  1.00  0.00    -0.290 C  
BRANCH  10  11
HETATM   11  C   UNL     1     -11.638  12.715  67.541  1.00  0.00    -0.418 A  
HETATM   12  C   UNL     1     -12.263  13.872  67.060  1.00  0.00    -0.392 A  
HETATM   13  C   UNL     1     -12.486  14.036  65.692  1.00  0.00    -0.531 A  
HETATM   14  C   UNL     1     -12.078  13.048  64.796  1.00  0.00    -0.465 A  
HETATM   15  C   UNL     1     -11.449  11.897  65.262  1.00  0.00    -0.313 A  
HETATM   16  C   UNL     1     -11.226  11.731  66.628  1.00  0.00    -0.383 A  
ENDBRANCH  10  11
ENDBRANCH   9  10
ENDBRANCH   6   9
TORSDOF 3
ENDMDL
MODEL       20
REMARK 921   NORMALIZED FREE ENERGY PREDICTED BY IDOCK:   -5.50 KCAL/MOL
REMARK 922        TOTAL FREE ENERGY PREDICTED BY IDOCK:   -6.90 KCAL/MOL
REMARK 923 INTER-LIGAND FREE ENERGY PREDICTED BY IDOCK:   -6.56 KCAL/MOL
REMARK 924 INTRA-LIGAND FREE ENERGY PREDICTED BY IDOCK:   -0.34 KCAL/MOL
REMARK 927      BINDING AFFINITY PREDICTED BY RF-SCORE:    0.00 PKD
ROOT
HETATM    1  O   UNL     1     -12.484  11.521  62.937  1.00  0.00    -0.964 OA 
HETATM    2  C   UNL     1     -11.844  12.452  63.700  1.00  0.00    -0.526 A  
HETATM    3  H   UNL     1     -13.281  11.735  62.466  1.00  0.00     0.000 HD 
HETATM    4  C   UNL     1     -10.676  12.139  64.388  1.00  0.00    -0.366 A  
HETATM    5  C   UNL     1     -10.041  13.123  65.148  1.00  0.00    -0.239 A  
HETATM    6  C   UNL     1     -10.562  14.419  65.197  1.00  0.00    -0.410 A  
HETATM    7  C   UNL     1     -11.752  14.711  64.527  1.00  0.00    -0.410 A  
HETATM    8  C   UNL     1     -12.392  13.728  63.771  1.00  0.00    -0.313 A  
ENDROOT
BRANCH   6   9
HETATM    9  O   UNL     1      -9.991  15.467  65.868  1.00  0.00    -0.296 OA 
BRANCH   9  10
HETATM   10  C   UNL     1     -10.758  15.978  66.961  1.00  0.00    -0.277 C  
BRANCH  10  11
HETATM   11  C   UNL     1     -10.447  17.441  67.156  1.00  0.00    -0.305 A  
HETATM   12  C   UNL     1     -10.413  18.317  66.064  1.00  0.00    -0.380 A  
HETATM   13  C   UNL     1     -10.172  19.678  66.260  1.00  0.00    -0.598 A  
HETATM   14  C   UNL     1      -9.971  20.172  67.548  1.00  0.00    -0.571 A  
HETATM   15  C   UNL     1     -10.009  19.311  68.642  1.00  0.00    -0.506 A  
HETATM   16  C   UNL     1     -10.250  17.952  68.448  1.00  0.00    -0.398 A  
ENDBRANCH  10  11
ENDBRANCH   9  10
ENDBRANCH   6   9
TORSDOF 3
ENDMDL
MODEL       21
REMARK 921   NORMALIZED FREE ENERGY PREDICTED BY IDOCK:   -5.48 KCAL/MOL
REMARK 922        TOTAL FREE ENERGY PREDICTED BY IDOCK:   -6.88 KCAL/MOL
REMARK 923 INTER-LIGAND FREE ENERGY PREDICTED BY IDOCK:   -6.50 KCAL/MOL
REMARK 924 INTRA-LIGAND FREE ENERGY PREDICTED BY IDOCK:   -0.38 KCAL/MOL
REMARK 927      BINDING AFFINITY PREDICTED BY RF-SCORE:    0.00 PKD
ROOT
HETATM    1  O   UNL     1      -9.043  20.498  66.303  1.00  0.00    -0.588 OA 
HETATM    2  C   UNL     1      -9.543  19.426  66.979  1.00  0.00    -0.329 A  
HETATM    3  H   UNL     1      -9.074  20.541  65.354  1.00  0.00     0.000 HD 
HETATM    4  C   UNL     1      -9.497  19.364  68.367  1.00  0.00    -0.439 A  
HETATM    5  C   UNL     1     -10.033  18.255  69.025  1.00  0.00    -0.293 A  
HETATM    6  C   UNL     1     -10.633  17.226  68.294  1.00  0.00    -0.383 A  
HETATM    7  C   UNL     1     -10.643  17.286  66.898  1.00  0.00    -0.213 A  
HETATM    8  C   UNL     1     -10.104  18.391  66.238  1.00  0.00    -0.409 A  
ENDROOT
BRANCH   6   9
HETATM    9  O   UNL     1     -11.231  16.123  68.841  1.00  0.00    -0.319 OA 
BRANCH   9  10
HETATM   10  C   UNL     1     -10.766  15.762  70.143  1.00  0.00    -0.344 C  
BRANCH  10  11
HETATM   11  C   UNL     1     -11.937  15.653  71.087  1.00  0.00    -0.457 A  
HETATM   12  C   UNL     1     -11.828  16.085  72.415  1.00  0.00    -0.639 A  
HETATM   13  C   UNL     1     -12.931  16.026  73.267  1.00  0.00    -0.653 A  
HETATM   14  C   UNL     1     -14.151  15.541  72.796  1.00  0.00    -0.432 A  
HETATM   15  C   UNL     1     -14.272  15.115  71.476  1.00  0.00    -0.647 A  
HETATM   16  C   UNL     1     -13.171  15.174  70.623  1.00  0.00    -0.354 A  
ENDBRANCH  10  11
ENDBRANCH   9  10
ENDBRANCH   6   9
TORSDOF 3
ENDMDL
MODEL       22
REMARK 921   NORMALIZED FREE ENERGY PREDICTED BY IDOCK:   -5.43 KCAL/MOL
REMARK 922        TOTAL FREE ENERGY PREDICTED BY IDOCK:   -6.82 KCAL/MOL
REMARK 923 INTER-LIGAND FREE ENERGY PREDICTED BY IDOCK:   -6.42 KCAL/MOL
REMARK 924 INTRA-LIGAND FREE ENERGY PREDICTED BY IDOCK:   -0.40 KCAL/MOL
REMARK 927      BINDING AFFINITY PREDICTED BY RF-SCORE:    0.00 PKD
ROOT
HETATM    1  O   UNL     1     -13.928   8.996  73.145  1.00  0.00    -1.130 OA 
HETATM    2  C   UNL     1     -13.173   9.559  72.160  1.00  0.00    -0.451 A  
HETATM    3  H   UNL     1     -13.853   8.073  73.356  1.00  0.00     0.000 HD 
HETATM    4  C   UNL     1     -13.284  10.911  71.851  1.00  0.00    -0.508 A  
HETATM    5  C   UNL     1     -12.483  11.455  70.845  1.00  0.00    -0.478 A  
HETATM    6  C   UNL     1     -11.560  10.652  70.170  1.00  0.00    -0.330 A  
HETATM    7  C   UNL     1     -11.482   9.289  70.468  1.00  0.00    -0.296 A  
HETATM    8  C   UNL     1     -12.285   8.742  71.470  1.00  0.00    -0.382 A  
ENDROOT
BRANCH   6   9
HETATM    9  O   UNL     1     -10.694  11.094  69.206  1.00  0.00    -0.217 OA 
BRANCH   9  10
HETATM   10  C   UNL     1     -10.896  12.444  68.782  1.00  0.00    -0.226 C  
BRANCH  10  11
HETATM   11  C   UNL     1     -11.178  12.472  67.301  1.00  0.00    -0.347 A  
HETATM   12  C   UNL     1     -10.555  11.563  66.437  1.00  0.00    -0.304 A  
HETATM   13  C   UNL     1     -10.859  11.565  65.075  1.00  0.00    -0.336 A  
HETATM   14  C   UNL     1     -11.791  12.470  64.569  1.00  0.00    -0.448 A  
HETATM   15  C   UNL     1     -12.421  13.374  65.421  1.00  0.00    -0.543 A  
HETATM   16  C   UNL     1     -12.119  13.374  66.782  1.00  0.00    -0.419 A  
ENDBRANCH  10  11
ENDBRANCH   9  10
ENDBRANCH   6   9
TORSDOF 3
ENDMDL
MODEL       23
REMARK 921   NORMALIZED FREE ENERGY PREDICTED BY IDOCK:   -5.41 KCAL/MOL
REMARK 922        TOTAL FREE ENERGY PREDICTED BY IDOCK:   -6.80 KCAL/MOL
REMARK 923 INTER-LIGAND FREE ENERGY PREDICTED BY IDOCK:   -6.50 KCAL/MOL
REMARK 924 INTRA-LIGAND FREE ENERGY PREDICTED BY IDOCK:   -0.30 KCAL/MOL
REMARK 927      BINDING AFFINITY PREDICTED BY RF-SCORE:    0.00 PKD
ROOT
HETATM    1  O   UNL     1     -12.001  10.425  68.377  1.00  0.00    -0.759 OA 
HETATM    2  C   UNL     1     -11.909  11.785  68.404  1.00  0.00    -0.282 A  
HETATM    3  H   UNL     1     -11.919   9.942  67.563  1.00  0.00     0.000 HD 
HETATM    4  C   UNL     1     -12.029  12.491  69.596  1.00  0.00    -0.339 A  
HETATM    5  C   UNL     1     -11.914  13.883  69.585  1.00  0.00    -0.399 A  
HETATM    6  C   UNL     1     -11.656  14.558  68.389  1.00  0.00    -0.326 A  
HETATM    7  C   UNL     1     -11.570  13.839  67.195  1.00  0.00    -0.392 A  
HETATM    8  C   UNL     1     -11.689  12.448  67.202  1.00  0.00    -0.415 A  
ENDROOT
BRANCH   6   9
HETATM    9  O   UNL     1     -11.475  15.910  68.277  1.00  0.00    -0.363 OA 
BRANCH   9  10
HETATM   10  C   UNL     1     -10.589  16.320  67.233  1.00  0.00    -0.298 C  
BRANCH  10  11
HETATM   11  C   UNL     1     -10.386  17.813  67.299  1.00  0.00    -0.364 A  
HETATM   12  C   UNL     1     -10.122  18.446  68.520  1.00  0.00    -0.413 A  
HETATM   13  C   UNL     1      -9.888  19.821  68.565  1.00  0.00    -0.506 A  
HETATM   14  C   UNL     1      -9.909  20.571  67.389  1.00  0.00    -0.574 A  
HETATM   15  C   UNL     1     -10.163  19.950  66.168  1.00  0.00    -0.611 A  
HETATM   16  C   UNL     1     -10.397  18.577  66.122  1.00  0.00    -0.457 A  
ENDBRANCH  10  11
ENDBRANCH   9  10
ENDBRANCH   6   9
TORSDOF 3
ENDMDL
MODEL       24
REMARK 921   NORMALIZED FREE ENERGY PREDICTED BY IDOCK:   -5.40 KCAL/MOL
REMARK 922        TOTAL FREE ENERGY PREDICTED BY IDOCK:   -6.78 KCAL/MOL
REMARK 923 INTER-LIGAND FREE ENERGY PREDICTED BY IDOCK:   -6.41 KCAL/MOL
REMARK 924 INTRA-LIGAND FREE ENERGY PREDICTED BY IDOCK:   -0.37 KCAL/MOL
REMARK 927      BINDING AFFINITY PREDICTED BY RF-SCORE:    0.00 PKD
ROOT
HETATM    1  O   UNL     1     -13.943   8.948  73.289  1.00  0.00    -1.203 OA 
HETATM    2  C   UNL     1     -13.185   9.466  72.280  1.00  0.00    -0.446 A  
HETATM    3  H   UNL     1     -13.894   8.027  73.517  1.00  0.00     0.000 HD 
HETATM    4  C   UNL     1     -13.256  10.814  71.946  1.00  0.00    -0.524 A  
HETATM    5  C   UNL     1     -12.454  11.311  70.917  1.00  0.00    -0.493 A  
HETATM    6  C   UNL     1     -11.569  10.464  70.244  1.00  0.00    -0.327 A  
HETATM    7  C   UNL     1     -11.532   9.105  70.568  1.00  0.00    -0.271 A  
HETATM    8  C   UNL     1     -12.336   8.606  71.593  1.00  0.00    -0.384 A  
ENDROOT
BRANCH   6   9
HETATM    9  O   UNL     1     -10.705  10.858  69.258  1.00  0.00    -0.214 OA 
BRANCH   9  10
HETATM   10  C   UNL     1     -10.944  12.163  68.726  1.00  0.00    -0.232 C  
BRANCH  10  11
HETATM   11  C   UNL     1     -11.105  12.077  67.229  1.00  0.00    -0.341 A  
HETATM   12  C   UNL     1     -11.981  12.935  66.553  1.00  0.00    -0.447 A  
HETATM   13  C   UNL     1     -12.087  12.881  65.162  1.00  0.00    -0.489 A  
HETATM   14  C   UNL     1     -11.313  11.974  64.439  1.00  0.00    -0.411 A  
HETATM   15  C   UNL     1     -10.433  11.121  65.100  1.00  0.00    -0.341 A  
HETATM   16  C   UNL     1     -10.326  11.174  66.489  1.00  0.00    -0.290 A  
ENDBRANCH  10  11
ENDBRANCH   9  10
ENDBRANCH   6   9
TORSDOF 3
ENDMDL
MODEL       25
REMARK 921   NORMALIZED FREE ENERGY PREDICTED BY IDOCK:   -5.39 KCAL/MOL
REMARK 922        TOTAL FREE ENERGY PREDICTED BY IDOCK:   -6.77 KCAL/MOL
REMARK 923 INTER-LIGAND FREE ENERGY PREDICTED BY IDOCK:   -6.44 KCAL/MOL
REMARK 924 INTRA-LIGAND FREE ENERGY PREDICTED BY IDOCK:   -0.33 KCAL/MOL
REMARK 927      BINDING AFFINITY PREDICTED BY RF-SCORE:    0.00 PKD
ROOT
HETATM    1  O   UNL     1     -12.479   6.363  72.013  1.00  0.00    -0.443 OA 
HETATM    2  C   UNL     1     -12.363   7.697  71.760  1.00  0.00    -0.319 A  
HETATM    3  H   UNL     1     -13.291   5.993  72.340  1.00  0.00     0.000 HD 
HETATM    4  C   UNL     1     -11.174   8.238  71.281  1.00  0.00    -0.302 A  
HETATM    5  C   UNL     1     -11.098   9.608  71.020  1.00  0.00    -0.438 A  
HETATM    6  C   UNL     1     -12.216  10.424  71.215  1.00  0.00    -0.389 A  
HETATM    7  C   UNL     1     -13.393   9.873  71.727  1.00  0.00    -0.501 A  
HETATM    8  C   UNL     1     -13.470   8.505  71.994  1.00  0.00    -0.409 A  
ENDROOT
BRANCH   6   9
HETATM    9  O   UNL     1     -12.263  11.765  70.942  1.00  0.00    -0.362 OA 
BRANCH   9  10
HETATM   10  C   UNL     1     -13.286  12.489  71.629  1.00  0.00    -0.196 C  
BRANCH  10  11
HETATM   11  C   UNL     1     -12.796  13.880  71.945  1.00  0.00    -0.411 A  
HETATM   12  C   UNL     1     -13.096  14.482  73.173  1.00  0.00    -0.553 A  
HETATM   13  C   UNL     1     -12.598  15.750  73.476  1.00  0.00    -0.680 A  
HETATM   14  C   UNL     1     -11.791  16.420  72.557  1.00  0.00    -0.547 A  
HETATM   15  C   UNL     1     -11.481  15.828  71.335  1.00  0.00    -0.496 A  
HETATM   16  C   UNL     1     -11.978  14.561  71.031  1.00  0.00    -0.394 A  
ENDBRANCH  10  11
ENDBRANCH   9  10
ENDBRANCH   6   9
TORSDOF 3
ENDMDL
MODEL       26
REMARK 921   NORMALIZED FREE ENERGY PREDICTED BY IDOCK:   -5.35 KCAL/MOL
REMARK 922        TOTAL FREE ENERGY PREDICTED BY IDOCK:   -6.73 KCAL/MOL
REMARK 923 INTER-LIGAND FREE ENERGY PREDICTED BY IDOCK:   -6.31 KCAL/MOL
REMARK 924 INTRA-LIGAND FREE ENERGY PREDICTED BY IDOCK:   -0.42 KCAL/MOL
REMARK 927      BINDING AFFINITY PREDICTED BY RF-SCORE:    0.00 PKD
ROOT
HETATM    1  O   UNL     1     -13.856  16.204  73.457  1.00  0.00    -0.868 OA 
HETATM    2  C   UNL     1     -13.369  15.237  72.629  1.00  0.00    -0.478 A  
HETATM    3  H   UNL     1     -14.588  16.032  74.037  1.00  0.00     0.000 HD 
HETATM    4  C   UNL     1     -12.297  15.489  71.779  1.00  0.00    -0.475 A  
HETATM    5  C   UNL     1     -11.817  14.469  70.956  1.00  0.00    -0.350 A  
HETATM    6  C   UNL     1     -12.395  13.197  71.003  1.00  0.00    -0.265 A  
HETATM    7  C   UNL     1     -13.492  12.967  71.837  1.00  0.00    -0.498 A  
HETATM    8  C   UNL     1     -13.976  13.987  72.657  1.00  0.00    -0.428 A  
ENDROOT
BRANCH   6   9
HETATM    9  O   UNL     1     -11.969  12.117  70.277  1.00  0.00    -0.348 OA 
BRANCH   9  10
HETATM   10  C   UNL     1     -12.732  10.922  70.462  1.00  0.00    -0.280 C  
BRANCH  10  11
HETATM   11  C   UNL     1     -11.845   9.838  71.019  1.00  0.00    -0.442 A  
HETATM   12  C   UNL     1     -10.492   9.766  70.663  1.00  0.00    -0.358 A  
HETATM   13  C   UNL     1      -9.667   8.788  71.221  1.00  0.00    -0.335 A  
HETATM   14  C   UNL     1     -10.187   7.880  72.143  1.00  0.00    -0.286 A  
HETATM   15  C   UNL     1     -11.529   7.946  72.509  1.00  0.00    -0.455 A  
HETATM   16  C   UNL     1     -12.354   8.923  71.953  1.00  0.00    -0.445 A  
ENDBRANCH  10  11
ENDBRANCH   9  10
ENDBRANCH   6   9
TORSDOF 3
ENDMDL
MODEL       27
REMARK 921   NORMALIZED FREE ENERGY PREDICTED BY IDOCK:   -5.34 KCAL/MOL
REMARK 922        TOTAL FREE ENERGY PREDICTED BY IDOCK:   -6.71 KCAL/MOL
REMARK 923 INTER-LIGAND FREE ENERGY PREDICTED BY IDOCK:   -6.35 KCAL/MOL
REMARK 924 INTRA-LIGAND FREE ENERGY PREDICTED BY IDOCK:   -0.36 KCAL/MOL
REMARK 927      BINDING AFFINITY PREDICTED BY RF-SCORE:    0.00 PKD
ROOT
HETATM    1  O   UNL     1     -11.969  10.649  67.996  1.00  0.00    -0.784 OA 
HETATM    2  C   UNL     1     -11.907  12.009  68.064  1.00  0.00    -0.269 A  
HETATM    3  H   UNL     1     -11.996  10.118  68.783  1.00  0.00     0.000 HD 
HETATM    4  C   UNL     1     -11.868  12.786  66.911  1.00  0.00    -0.440 A  
HETATM    5  C   UNL     1     -11.820  14.177  67.020  1.00  0.00    -0.458 A  
HETATM    6  C   UNL     1     -11.836  14.784  68.279  1.00  0.00    -0.284 A  
HETATM    7  C   UNL     1     -11.843  13.991  69.428  1.00  0.00    -0.381 A  
HETATM    8  C   UNL     1     -11.886  12.600  69.322  1.00  0.00    -0.358 A  
ENDROOT
BRANCH   6   9
HETATM    9  O   UNL     1     -11.843  16.136  68.496  1.00  0.00    -0.300 OA 
BRANCH   9  10
HETATM   10  C   UNL     1     -10.609  16.683  68.967  1.00  0.00    -0.340 C  
BRANCH  10  11
HETATM   11  C   UNL     1     -10.292  17.944  68.204  1.00  0.00    -0.395 A  
HETATM   12  C   UNL     1     -10.411  17.986  66.809  1.00  0.00    -0.373 A  
HETATM   13  C   UNL     1     -10.161  19.172  66.116  1.00  0.00    -0.535 A  
HETATM   14  C   UNL     1      -9.798  20.324  66.813  1.00  0.00    -0.586 A  
HETATM   15  C   UNL     1      -9.684  20.295  68.201  1.00  0.00    -0.362 A  
HETATM   16  C   UNL     1      -9.933  19.112  68.894  1.00  0.00    -0.481 A  
ENDBRANCH  10  11
ENDBRANCH   9  10
ENDBRANCH   6   9
TORSDOF 3
ENDMDL
MODEL       28
REMARK 921   NORMALIZED FREE ENERGY PREDICTED BY IDOCK:   -5.34 KCAL/MOL
REMARK 922        TOTAL FREE ENERGY PREDICTED BY IDOCK:   -6.71 KCAL/MOL
REMARK 923 INTER-LIGAND FREE ENERGY PREDICTED BY IDOCK:   -6.29 KCAL/MOL
REMARK 924 INTRA-LIGAND FREE ENERGY PREDICTED BY IDOCK:   -0.41 KCAL/MOL
REMARK 927      BINDING AFFINITY PREDICTED BY RF-SCORE:    0.00 PKD
ROOT
HETATM    1  O   UNL     1     -13.802  13.469  72.823  1.00  0.00    -0.730 OA 
HETATM    2  C   UNL     1     -13.148  12.992  71.727  1.00  0.00    -0.373 A  
HETATM    3  H   UNL     1     -14.162  12.880  73.476  1.00  0.00     0.000 HD 
HETATM    4  C   UNL     1     -12.620  13.854  70.772  1.00  0.00    -0.424 A  
HETATM    5  C   UNL     1     -11.943  13.329  69.670  1.00  0.00    -0.376 A  
HETATM    6  C   UNL     1     -11.777  11.947  69.540  1.00  0.00    -0.345 A  
HETATM    7  C   UNL     1     -12.340  11.091  70.490  1.00  0.00    -0.462 A  
HETATM    8  C   UNL     1     -13.021  11.614  71.590  1.00  0.00    -0.483 A  
ENDROOT
BRANCH   6   9
HETATM    9  O   UNL     1     -11.088  11.333  68.528  1.00  0.00    -0.197 OA 
BRANCH   9  10
HETATM   10  C   UNL     1     -10.357  12.211  67.670  1.00  0.00    -0.203 C  
BRANCH  10  11
HETATM   11  C   UNL     1     -10.930  12.149  66.277  1.00  0.00    -0.332 A  
HETATM   12  C   UNL     1     -11.980  12.995  65.897  1.00  0.00    -0.491 A  
HETATM   13  C   UNL     1     -12.472  12.965  64.591  1.00  0.00    -0.499 A  
HETATM   14  C   UNL     1     -11.913  12.094  63.656  1.00  0.00    -0.628 A  
HETATM   15  C   UNL     1     -10.865  11.254  64.021  1.00  0.00    -0.414 A  
HETATM   16  C   UNL     1     -10.372  11.284  65.324  1.00  0.00    -0.337 A  
ENDBRANCH  10  11
ENDBRANCH   9  10
ENDBRANCH   6   9
TORSDOF 3
ENDMDL
MODEL       29
REMARK 921   NORMALIZED FREE ENERGY PREDICTED BY IDOCK:   -5.32 KCAL/MOL
REMARK 922        TOTAL FREE ENERGY PREDICTED BY IDOCK:   -6.68 KCAL/MOL
REMARK 923 INTER-LIGAND FREE ENERGY PREDICTED BY IDOCK:   -6.24 KCAL/MOL
REMARK 924 INTRA-LIGAND FREE ENERGY PREDICTED BY IDOCK:   -0.44 KCAL/MOL
REMARK 927      BINDING AFFINITY PREDICTED BY RF-SCORE:    0.00 PKD
ROOT
HETATM    1  O   UNL     1      -7.755  21.331  67.060  1.00  0.00    -0.733 OA 
HETATM    2  C   UNL     1      -8.522  20.233  67.307  1.00  0.00    -0.347 A  
HETATM    3  H   UNL     1      -8.128  22.116  66.675  1.00  0.00     0.000 HD 
HETATM    4  C   UNL     1      -7.975  19.085  67.871  1.00  0.00    -0.307 A  
HETATM    5  C   UNL     1      -8.797  17.984  68.123  1.00  0.00    -0.277 A  
HETATM    6  C   UNL     1     -10.162  18.045  67.833  1.00  0.00    -0.378 A  
HETATM    7  C   UNL     1     -10.692  19.192  67.237  1.00  0.00    -0.585 A  
HETATM    8  C   UNL     1      -9.872  20.291  66.980  1.00  0.00    -0.607 A  
ENDROOT
BRANCH   6   9
HETATM    9  O   UNL     1     -11.062  17.044  68.087  1.00  0.00    -0.334 OA 
BRANCH   9  10
HETATM   10  C   UNL     1     -10.508  15.728  68.141  1.00  0.00    -0.263 C  
BRANCH  10  11
HETATM   11  C   UNL     1     -10.946  14.945  66.930  1.00  0.00    -0.327 A  
HETATM   12  C   UNL     1     -12.150  14.230  66.936  1.00  0.00    -0.440 A  
HETATM   13  C   UNL     1     -12.571  13.548  65.794  1.00  0.00    -0.490 A  
HETATM   14  C   UNL     1     -11.794  13.581  64.636  1.00  0.00    -0.428 A  
HETATM   15  C   UNL     1     -10.598  14.294  64.616  1.00  0.00    -0.364 A  
HETATM   16  C   UNL     1     -10.177  14.976  65.756  1.00  0.00    -0.361 A  
ENDBRANCH  10  11
ENDBRANCH   9  10
ENDBRANCH   6   9
TORSDOF 3
ENDMDL
MODEL       30
REMARK 921   NORMALIZED FREE ENERGY PREDICTED BY IDOCK:   -5.31 KCAL/MOL
REMARK 922        TOTAL FREE ENERGY PREDICTED BY IDOCK:   -6.68 KCAL/MOL
REMARK 923 INTER-LIGAND FREE ENERGY PREDICTED BY IDOCK:   -6.39 KCAL/MOL
REMARK 924 INTRA-LIGAND FREE ENERGY PREDICTED BY IDOCK:   -0.29 KCAL/MOL
REMARK 927      BINDING AFFINITY PREDICTED BY RF-SCORE:    0.00 PKD
ROOT
HETATM    1  O   UNL     1     -14.092  13.349  72.584  1.00  0.00    -0.767 OA 
HETATM    2  C   UNL     1     -13.169  14.044  71.861  1.00  0.00    -0.395 A  
HETATM    3  H   UNL     1     -14.514  13.734  73.342  1.00  0.00     0.000 HD 
HETATM    4  C   UNL     1     -12.551  13.480  70.750  1.00  0.00    -0.382 A  
HETATM    5  C   UNL     1     -11.622  14.228  70.025  1.00  0.00    -0.325 A  
HETATM    6  C   UNL     1     -11.333  15.543  70.400  1.00  0.00    -0.342 A  
HETATM    7  C   UNL     1     -11.936  16.086  71.537  1.00  0.00    -0.539 A  
HETATM    8  C   UNL     1     -12.862  15.338  72.265  1.00  0.00    -0.447 A  
ENDROOT
BRANCH   6   9
HETATM    9  O   UNL     1     -10.478  16.378  69.731  1.00  0.00    -0.290 OA 
BRANCH   9  10
HETATM   10  C   UNL     1     -11.020  16.989  68.558  1.00  0.00    -0.247 C  
BRANCH  10  11
HETATM   11  C   UNL     1     -10.182  18.183  68.177  1.00  0.00    -0.400 A  
HETATM   12  C   UNL     1      -8.894  18.351  68.701  1.00  0.00    -0.306 A  
HETATM   13  C   UNL     1      -8.108  19.434  68.305  1.00  0.00    -0.371 A  
HETATM   14  C   UNL     1      -8.601  20.351  67.378  1.00  0.00    -0.403 A  
HETATM   15  C   UNL     1      -9.877  20.191  66.845  1.00  0.00    -0.593 A  
HETATM   16  C   UNL     1     -10.663  19.109  67.239  1.00  0.00    -0.585 A  
ENDBRANCH  10  11
ENDBRANCH   9  10
ENDBRANCH   6   9
TORSDOF 3
ENDMDL
MODEL       31
REMARK 921   NORMALIZED FREE ENERGY PREDICTED BY IDOCK:   -5.30 KCAL/MOL
REMARK 922        TOTAL FREE ENERGY PREDICTED BY IDOCK:   -6.67 KCAL/MOL
REMARK 923 INTER-LIGAND FREE ENERGY PREDICTED BY IDOCK:   -6.26 KCAL/MOL
REMARK 924 INTRA-LIGAND FREE ENERGY PREDICTED BY IDOCK:   -0.41 KCAL/MOL
REMARK 927      BINDING AFFINITY PREDICTED BY RF-SCORE:    0.00 PKD
ROOT
HETATM    1  O   UNL     1     -13.655  16.301  73.771  1.00  0.00    -0.927 OA 
HETATM    2  C   UNL     1     -13.167  15.525  72.763  1.00  0.00    -0.508 A  
HETATM    3  H   UNL     1     -13.235  17.119  74.011  1.00  0.00     0.000 HD 
HETATM    4  C   UNL     1     -13.782  14.328  72.413  1.00  0.00    -0.616 A  
HETATM    5  C   UNL     1     -13.261  13.568  71.365  1.00  0.00    -0.348 A  
HETATM    6  C   UNL     1     -12.143  14.018  70.657  1.00  0.00    -0.354 A  
HETATM    7  C   UNL     1     -11.515  15.206  71.041  1.00  0.00    -0.372 A  
HETATM    8  C   UNL     1     -12.032  15.965  72.091  1.00  0.00    -0.612 A  
ENDROOT
BRANCH   6   9
HETATM    9  O   UNL     1     -11.584  13.377  69.584  1.00  0.00    -0.285 OA 
BRANCH   9  10
HETATM   10  C   UNL     1     -12.126  12.085  69.299  1.00  0.00    -0.190 C  
BRANCH  10  11
HETATM   11  C   UNL     1     -11.275  11.025  69.951  1.00  0.00    -0.327 A  
HETATM   12  C   UNL     1     -11.743  10.315  71.065  1.00  0.00    -0.461 A  
HETATM   13  C   UNL     1     -10.968   9.303  71.632  1.00  0.00    -0.433 A  
HETATM   14  C   UNL     1      -9.724   8.988  71.086  1.00  0.00    -0.369 A  
HETATM   15  C   UNL     1      -9.251   9.682  69.975  1.00  0.00    -0.275 A  
HETATM   16  C   UNL     1     -10.024  10.694  69.407  1.00  0.00    -0.183 A  
ENDBRANCH  10  11
ENDBRANCH   9  10
ENDBRANCH   6   9
TORSDOF 3
ENDMDL
MODEL       32
REMARK 921   NORMALIZED FREE ENERGY PREDICTED BY IDOCK:   -5.29 KCAL/MOL
REMARK 922        TOTAL FREE ENERGY PREDICTED BY IDOCK:   -6.66 KCAL/MOL
REMARK 923 INTER-LIGAND FREE ENERGY PREDICTED BY IDOCK:   -6.26 KCAL/MOL
REMARK 924 INTRA-LIGAND FREE ENERGY PREDICTED BY IDOCK:   -0.40 KCAL/MOL
REMARK 927      BINDING AFFINITY PREDICTED BY RF-SCORE:    0.00 PKD
ROOT
HETATM    1  O   UNL     1      -7.748  21.261  67.132  1.00  0.00    -0.732 OA 
HETATM    2  C   UNL     1      -8.597  20.211  67.317  1.00  0.00    -0.343 A  
HETATM    3  H   UNL     1      -6.832  21.202  67.374  1.00  0.00     0.000 HD 
HETATM    4  C   UNL     1      -9.939  20.299  66.962  1.00  0.00    -0.601 A  
HETATM    5  C   UNL     1     -10.775  19.197  67.153  1.00  0.00    -0.567 A  
HETATM    6  C   UNL     1     -10.261  18.007  67.676  1.00  0.00    -0.368 A  
HETATM    7  C   UNL     1      -8.919  17.944  68.059  1.00  0.00    -0.267 A  
HETATM    8  C   UNL     1      -8.083  19.045  67.873  1.00  0.00    -0.309 A  
ENDROOT
BRANCH   6   9
HETATM    9  O   UNL     1     -10.980  16.856  67.856  1.00  0.00    -0.342 OA 
BRANCH   9  10
HETATM   10  C   UNL     1     -10.229  15.645  67.735  1.00  0.00    -0.252 C  
BRANCH  10  11
HETATM   11  C   UNL     1     -10.822  14.790  66.645  1.00  0.00    -0.319 A  
HETATM   12  C   UNL     1     -12.156  14.367  66.711  1.00  0.00    -0.393 A  
HETATM   13  C   UNL     1     -12.709  13.616  65.674  1.00  0.00    -0.505 A  
HETATM   14  C   UNL     1     -11.936  13.289  64.560  1.00  0.00    -0.449 A  
HETATM   15  C   UNL     1     -10.611  13.709  64.480  1.00  0.00    -0.428 A  
HETATM   16  C   UNL     1     -10.057  14.460  65.515  1.00  0.00    -0.382 A  
ENDBRANCH  10  11
ENDBRANCH   9  10
ENDBRANCH   6   9
TORSDOF 3
ENDMDL
MODEL       33
REMARK 921   NORMALIZED FREE ENERGY PREDICTED BY IDOCK:   -5.26 KCAL/MOL
REMARK 922        TOTAL FREE ENERGY PREDICTED BY IDOCK:   -6.62 KCAL/MOL
REMARK 923 INTER-LIGAND FREE ENERGY PREDICTED BY IDOCK:   -6.26 KCAL/MOL
REMARK 924 INTRA-LIGAND FREE ENERGY PREDICTED BY IDOCK:   -0.36 KCAL/MOL
REMARK 927      BINDING AFFINITY PREDICTED BY RF-SCORE:    0.00 PKD
ROOT
HETATM    1  O   UNL     1     -13.601  10.147  72.547  1.00  0.00    -0.627 OA 
HETATM    2  C   UNL     1     -13.111  11.138  71.749  1.00  0.00    -0.431 A  
HETATM    3  H   UNL     1     -13.484   9.231  72.322  1.00  0.00     0.000 HD 
HETATM    4  C   UNL     1     -13.282  12.478  72.080  1.00  0.00    -0.524 A  
HETATM    5  C   UNL     1     -12.754  13.465  71.245  1.00  0.00    -0.424 A  
HETATM    6  C   UNL     1     -12.038  13.108  70.100  1.00  0.00    -0.321 A  
HETATM    7  C   UNL     1     -11.902  11.759  69.763  1.00  0.00    -0.420 A  
HETATM    8  C   UNL     1     -12.433  10.771  70.593  1.00  0.00    -0.461 A  
ENDROOT
BRANCH   6   9
HETATM    9  O   UNL     1     -11.437  13.992  69.244  1.00  0.00    -0.262 OA 
BRANCH   9  10
HETATM   10  C   UNL     1     -10.565  13.404  68.276  1.00  0.00    -0.254 C  
BRANCH  10  11
HETATM   11  C   UNL     1     -11.093  13.674  66.890  1.00  0.00    -0.314 A  
HETATM   12  C   UNL     1     -11.965  12.772  66.268  1.00  0.00    -0.460 A  
HETATM   13  C   UNL     1     -12.487  13.053  65.004  1.00  0.00    -0.534 A  
HETATM   14  C   UNL     1     -12.146  14.241  64.358  1.00  0.00    -0.490 A  
HETATM   15  C   UNL     1     -11.285  15.149  64.970  1.00  0.00    -0.414 A  
HETATM   16  C   UNL     1     -10.763  14.869  66.232  1.00  0.00    -0.320 A  
ENDBRANCH  10  11
ENDBRANCH   9  10
ENDBRANCH   6   9
TORSDOF 3
ENDMDL
MODEL       34
REMARK 921   NORMALIZED FREE ENERGY PREDICTED BY IDOCK:   -5.23 KCAL/MOL
REMARK 922        TOTAL FREE ENERGY PREDICTED BY IDOCK:   -6.59 KCAL/MOL
REMARK 923 INTER-LIGAND FREE ENERGY PREDICTED BY IDOCK:   -6.14 KCAL/MOL
REMARK 924 INTRA-LIGAND FREE ENERGY PREDICTED BY IDOCK:   -0.44 KCAL/MOL
REMARK 927      BINDING AFFINITY PREDICTED BY RF-SCORE:    0.00 PKD
ROOT
HETATM    1  O   UNL     1     -10.394  20.049  69.345  1.00  0.00    -0.612 OA 
HETATM    2  C   UNL     1     -10.310  19.163  68.313  1.00  0.00    -0.361 A  
HETATM    3  H   UNL     1     -10.598  20.964  69.193  1.00  0.00     0.000 HD 
HETATM    4  C   UNL     1     -10.012  17.823  68.537  1.00  0.00    -0.370 A  
HETATM    5  C   UNL     1      -9.949  16.942  67.456  1.00  0.00    -0.268 A  
HETATM    6  C   UNL     1     -10.208  17.399  66.160  1.00  0.00    -0.328 A  
HETATM    7  C   UNL     1     -10.474  18.753  65.946  1.00  0.00    -0.424 A  
HETATM    8  C   UNL     1     -10.533  19.637  67.025  1.00  0.00    -0.600 A  
ENDROOT
BRANCH   6   9
HETATM    9  O   UNL     1     -10.223  16.612  65.040  1.00  0.00    -0.561 OA 
BRANCH   9  10
HETATM   10  C   UNL     1     -11.459  15.942  64.785  1.00  0.00    -0.234 C  
BRANCH  10  11
HETATM   11  C   UNL     1     -11.366  14.512  65.254  1.00  0.00    -0.353 A  
HETATM   12  C   UNL     1     -10.579  13.582  64.563  1.00  0.00    -0.439 A  
HETATM   13  C   UNL     1     -10.460  12.273  65.032  1.00  0.00    -0.322 A  
HETATM   14  C   UNL     1     -11.122  11.887  66.198  1.00  0.00    -0.374 A  
HETATM   15  C   UNL     1     -11.902  12.805  66.896  1.00  0.00    -0.440 A  
HETATM   16  C   UNL     1     -12.021  14.113  66.429  1.00  0.00    -0.457 A  
ENDBRANCH  10  11
ENDBRANCH   9  10
ENDBRANCH   6   9
TORSDOF 3
ENDMDL
MODEL       35
REMARK 921   NORMALIZED FREE ENERGY PREDICTED BY IDOCK:   -5.21 KCAL/MOL
REMARK 922        TOTAL FREE ENERGY PREDICTED BY IDOCK:   -6.56 KCAL/MOL
REMARK 923 INTER-LIGAND FREE ENERGY PREDICTED BY IDOCK:   -6.16 KCAL/MOL
REMARK 924 INTRA-LIGAND FREE ENERGY PREDICTED BY IDOCK:   -0.39 KCAL/MOL
REMARK 927      BINDING AFFINITY PREDICTED BY RF-SCORE:    0.00 PKD
ROOT
HETATM    1  O   UNL     1     -13.631  12.400  72.809  1.00  0.00    -0.597 OA 
HETATM    2  C   UNL     1     -13.037  12.775  71.641  1.00  0.00    -0.331 A  
HETATM    3  H   UNL     1     -13.632  11.492  73.091  1.00  0.00     0.000 HD 
HETATM    4  C   UNL     1     -13.035  14.104  71.229  1.00  0.00    -0.426 A  
HETATM    5  C   UNL     1     -12.403  14.452  70.033  1.00  0.00    -0.391 A  
HETATM    6  C   UNL     1     -11.757  13.476  69.269  1.00  0.00    -0.330 A  
HETATM    7  C   UNL     1     -11.794  12.141  69.679  1.00  0.00    -0.391 A  
HETATM    8  C   UNL     1     -12.429  11.790  70.870  1.00  0.00    -0.416 A  
ENDROOT
BRANCH   6   9
HETATM    9  O   UNL     1     -11.066  13.718  68.112  1.00  0.00    -0.244 OA 
BRANCH   9  10
HETATM   10  C   UNL     1     -11.857  14.195  67.021  1.00  0.00    -0.429 C  
BRANCH  10  11
HETATM   11  C   UNL     1     -11.628  13.324  65.812  1.00  0.00    -0.368 A  
HETATM   12  C   UNL     1     -10.847  12.164  65.903  1.00  0.00    -0.316 A  
HETATM   13  C   UNL     1     -10.681  11.338  64.790  1.00  0.00    -0.352 A  
HETATM   14  C   UNL     1     -11.300  11.661  63.583  1.00  0.00    -0.485 A  
HETATM   15  C   UNL     1     -12.084  12.808  63.483  1.00  0.00    -0.642 A  
HETATM   16  C   UNL     1     -12.251  13.634  64.593  1.00  0.00    -0.448 A  
ENDBRANCH  10  11
ENDBRANCH   9  10
ENDBRANCH   6   9
TORSDOF 3
ENDMDL
MODEL       36
REMARK 921   NORMALIZED FREE ENERGY PREDICTED BY IDOCK:   -5.19 KCAL/MOL
REMARK 922        TOTAL FREE ENERGY PREDICTED BY IDOCK:   -6.54 KCAL/MOL
REMARK 923 INTER-LIGAND FREE ENERGY PREDICTED BY IDOCK:   -6.16 KCAL/MOL
REMARK 924 INTRA-LIGAND FREE ENERGY PREDICTED BY IDOCK:   -0.38 KCAL/MOL
REMARK 927      BINDING AFFINITY PREDICTED BY RF-SCORE:    0.00 PKD
ROOT
HETATM    1  O   UNL     1     -12.590   6.619  72.221  1.00  0.00    -0.538 OA 
HETATM    2  C   UNL     1     -12.411   7.900  71.790  1.00  0.00    -0.323 A  
HETATM    3  H   UNL     1     -12.057   5.908  71.886  1.00  0.00     0.000 HD 
HETATM    4  C   UNL     1     -13.192   8.941  72.283  1.00  0.00    -0.498 A  
HETATM    5  C   UNL     1     -12.970  10.242  71.827  1.00  0.00    -0.574 A  
HETATM    6  C   UNL     1     -11.955  10.499  70.902  1.00  0.00    -0.377 A  
HETATM    7  C   UNL     1     -11.200   9.440  70.392  1.00  0.00    -0.309 A  
HETATM    8  C   UNL     1     -11.424   8.138  70.841  1.00  0.00    -0.288 A  
ENDROOT
BRANCH   6   9
HETATM    9  O   UNL     1     -11.621  11.740  70.431  1.00  0.00    -0.237 OA 
BRANCH   9  10
HETATM   10  C   UNL     1     -12.722  12.627  70.222  1.00  0.00     0.171 C  
BRANCH  10  11
HETATM   11  C   UNL     1     -12.594  13.818  71.139  1.00  0.00    -0.452 A  
HETATM   12  C   UNL     1     -11.825  14.928  70.767  1.00  0.00    -0.368 A  
HETATM   13  C   UNL     1     -11.751  16.045  71.600  1.00  0.00    -0.583 A  
HETATM   14  C   UNL     1     -12.450  16.062  72.807  1.00  0.00    -0.582 A  
HETATM   15  C   UNL     1     -13.222  14.966  73.184  1.00  0.00    -0.568 A  
HETATM   16  C   UNL     1     -13.297  13.850  72.352  1.00  0.00    -0.629 A  
ENDBRANCH  10  11
ENDBRANCH   9  10
ENDBRANCH   6   9
TORSDOF 3
ENDMDL
MODEL       37
REMARK 921   NORMALIZED FREE ENERGY PREDICTED BY IDOCK:   -5.11 KCAL/MOL
REMARK 922        TOTAL FREE ENERGY PREDICTED BY IDOCK:   -6.44 KCAL/MOL
REMARK 923 INTER-LIGAND FREE ENERGY PREDICTED BY IDOCK:   -6.04 KCAL/MOL
REMARK 924 INTRA-LIGAND FREE ENERGY PREDICTED BY IDOCK:   -0.39 KCAL/MOL
REMARK 927      BINDING AFFINITY PREDICTED BY RF-SCORE:    0.00 PKD
ROOT
HETATM    1  O   UNL     1     -10.419   9.288  66.923  1.00  0.00    -0.248 OA 
HETATM    2  C   UNL     1     -10.883  10.511  67.306  1.00  0.00    -0.279 A  
HETATM    3  H   UNL     1     -10.395   8.558  67.530  1.00  0.00     0.000 HD 
HETATM    4  C   UNL     1     -10.917  11.579  66.415  1.00  0.00    -0.336 A  
HETATM    5  C   UNL     1     -11.413  12.813  66.841  1.00  0.00    -0.396 A  
HETATM    6  C   UNL     1     -11.894  12.967  68.144  1.00  0.00    -0.336 A  
HETATM    7  C   UNL     1     -11.823  11.895  69.037  1.00  0.00    -0.368 A  
HETATM    8  C   UNL     1     -11.323  10.662  68.616  1.00  0.00    -0.345 A  
ENDROOT
BRANCH   6   9
HETATM    9  O   UNL     1     -12.446  14.115  68.645  1.00  0.00    -0.145 OA 
BRANCH   9  10
HETATM   10  C   UNL     1     -11.562  14.924  69.426  1.00  0.00    -0.309 C  
BRANCH  10  11
HETATM   11  C   UNL     1     -12.219  15.266  70.739  1.00  0.00    -0.411 A  
HETATM   12  C   UNL     1     -13.570  14.972  70.962  1.00  0.00    -0.442 A  
HETATM   13  C   UNL     1     -14.156  15.249  72.198  1.00  0.00    -0.658 A  
HETATM   14  C   UNL     1     -13.394  15.814  73.221  1.00  0.00    -0.649 A  
HETATM   15  C   UNL     1     -12.048  16.104  73.012  1.00  0.00    -0.636 A  
HETATM   16  C   UNL     1     -11.461  15.828  71.778  1.00  0.00    -0.484 A  
ENDBRANCH  10  11
ENDBRANCH   9  10
ENDBRANCH   6   9
TORSDOF 3
ENDMDL
MODEL       38
REMARK 921   NORMALIZED FREE ENERGY PREDICTED BY IDOCK:   -5.10 KCAL/MOL
REMARK 922        TOTAL FREE ENERGY PREDICTED BY IDOCK:   -6.43 KCAL/MOL
REMARK 923 INTER-LIGAND FREE ENERGY PREDICTED BY IDOCK:   -6.04 KCAL/MOL
REMARK 924 INTRA-LIGAND FREE ENERGY PREDICTED BY IDOCK:   -0.39 KCAL/MOL
REMARK 927      BINDING AFFINITY PREDICTED BY RF-SCORE:    0.00 PKD
ROOT
HETATM    1  O   UNL     1     -12.651  13.679  63.263  1.00  0.00    -0.939 OA 
HETATM    2  C   UNL     1     -12.074  14.161  64.399  1.00  0.00    -0.463 A  
HETATM    3  H   UNL     1     -13.344  13.029  63.300  1.00  0.00     0.000 HD 
HETATM    4  C   UNL     1     -11.060  15.112  64.344  1.00  0.00    -0.124 A  
HETATM    5  C   UNL     1     -10.504  15.593  65.530  1.00  0.00    -0.426 A  
HETATM    6  C   UNL     1     -10.978  15.141  66.764  1.00  0.00    -0.321 A  
HETATM    7  C   UNL     1     -11.975  14.162  66.804  1.00  0.00    -0.475 A  
HETATM    8  C   UNL     1     -12.529  13.676  65.620  1.00  0.00    -0.540 A  
ENDROOT
BRANCH   6   9
HETATM    9  O   UNL     1     -10.539  15.584  67.983  1.00  0.00    -0.257 OA 
BRANCH   9  10
HETATM   10  C   UNL     1     -10.968  16.899  68.343  1.00  0.00    -0.296 C  
BRANCH  10  11
HETATM   11  C   UNL     1      -9.939  17.906  67.896  1.00  0.00    -0.329 A  
HETATM   12  C   UNL     1     -10.319  19.047  67.178  1.00  0.00    -0.496 A  
HETATM   13  C   UNL     1      -9.366  19.999  66.811  1.00  0.00    -0.510 A  
HETATM   14  C   UNL     1      -8.029  19.819  67.166  1.00  0.00    -0.323 A  
HETATM   15  C   UNL     1      -7.641  18.692  67.886  1.00  0.00    -0.264 A  
HETATM   16  C   UNL     1      -8.592  17.741  68.253  1.00  0.00    -0.277 A  
ENDBRANCH  10  11
ENDBRANCH   9  10
ENDBRANCH   6   9
TORSDOF 3
ENDMDL
MODEL       39
REMARK 921   NORMALIZED FREE ENERGY PREDICTED BY IDOCK:   -5.08 KCAL/MOL
REMARK 922        TOTAL FREE ENERGY PREDICTED BY IDOCK:   -6.41 KCAL/MOL
REMARK 923 INTER-LIGAND FREE ENERGY PREDICTED BY IDOCK:   -6.08 KCAL/MOL
REMARK 924 INTRA-LIGAND FREE ENERGY PREDICTED BY IDOCK:   -0.33 KCAL/MOL
REMARK 927      BINDING AFFINITY PREDICTED BY RF-SCORE:    0.00 PKD
ROOT
HETATM    1  O   UNL     1     -11.553  16.234  63.892  1.00  0.00    -1.489 OA 
HETATM    2  C   UNL     1     -11.566  15.161  64.732  1.00  0.00    -0.364 A  
HETATM    3  H   UNL     1     -11.866  16.163  62.998  1.00  0.00     0.000 HD 
HETATM    4  C   UNL     1     -11.109  15.266  66.042  1.00  0.00    -0.278 A  
HETATM    5  C   UNL     1     -11.151  14.148  66.877  1.00  0.00    -0.312 A  
HETATM    6  C   UNL     1     -11.672  12.939  66.407  1.00  0.00    -0.395 A  
HETATM    7  C   UNL     1     -12.098  12.839  65.080  1.00  0.00    -0.498 A  
HETATM    8  C   UNL     1     -12.052  13.954  64.242  1.00  0.00    -0.477 A  
ENDROOT
BRANCH   6   9
HETATM    9  O   UNL     1     -11.806  11.800  67.156  1.00  0.00    -0.599 OA 
BRANCH   9  10
HETATM   10  C   UNL     1     -11.031  10.685  66.711  1.00  0.00    -0.115 C  
BRANCH  10  11
HETATM   11  C   UNL     1     -10.585   9.872  67.900  1.00  0.00    -0.303 A  
HETATM   12  C   UNL     1     -10.466  10.461  69.165  1.00  0.00    -0.248 A  
HETATM   13  C   UNL     1     -10.100   9.690  70.269  1.00  0.00    -0.331 A  
HETATM   14  C   UNL     1      -9.857   8.325  70.117  1.00  0.00    -0.184 A  
HETATM   15  C   UNL     1      -9.980   7.728  68.865  1.00  0.00    -0.185 A  
HETATM   16  C   UNL     1     -10.346   8.497  67.761  1.00  0.00    -0.298 A  
ENDBRANCH  10  11
ENDBRANCH   9  10
ENDBRANCH   6   9
TORSDOF 3
ENDMDL
MODEL       40
REMARK 921   NORMALIZED FREE ENERGY PREDICTED BY IDOCK:   -5.06 KCAL/MOL
REMARK 922        TOTAL FREE ENERGY PREDICTED BY IDOCK:   -6.38 KCAL/MOL
REMARK 923 INTER-LIGAND FREE ENERGY PREDICTED BY IDOCK:   -6.08 KCAL/MOL
REMARK 924 INTRA-LIGAND FREE ENERGY PREDICTED BY IDOCK:   -0.30 KCAL/MOL
REMARK 927      BINDING AFFINITY PREDICTED BY RF-SCORE:    0.00 PKD
ROOT
HETATM    1  O   UNL     1      -9.215  17.466  65.795  1.00  0.00    -0.517 OA 
HETATM    2  C   UNL     1      -9.988  16.572  66.473  1.00  0.00    -0.285 A  
HETATM    3  H   UNL     1      -9.045  18.334  66.143  1.00  0.00     0.000 HD 
HETATM    4  C   UNL     1     -10.236  15.302  65.963  1.00  0.00    -0.335 A  
HETATM    5  C   UNL     1     -11.021  14.408  66.694  1.00  0.00    -0.318 A  
HETATM    6  C   UNL     1     -11.535  14.780  67.939  1.00  0.00    -0.342 A  
HETATM    7  C   UNL     1     -11.306  16.070  68.424  1.00  0.00    -0.355 A  
HETATM    8  C   UNL     1     -10.525  16.966  67.694  1.00  0.00    -0.332 A  
ENDROOT
BRANCH   6   9
HETATM    9  O   UNL     1     -12.272  13.966  68.757  1.00  0.00    -0.348 OA 
BRANCH   9  10
HETATM   10  C   UNL     1     -11.663  13.651  70.011  1.00  0.00    -0.249 C  
BRANCH  10  11
HETATM   11  C   UNL     1     -12.318  14.453  71.107  1.00  0.00    -0.428 A  
HETATM   12  C   UNL     1     -13.695  14.708  71.082  1.00  0.00    -0.374 A  
HETATM   13  C   UNL     1     -14.301  15.410  72.125  1.00  0.00    -0.642 A  
HETATM   14  C   UNL     1     -13.536  15.855  73.202  1.00  0.00    -0.650 A  
HETATM   15  C   UNL     1     -12.167  15.602  73.241  1.00  0.00    -0.616 A  
HETATM   16  C   UNL     1     -11.560  14.901  72.200  1.00  0.00    -0.288 A  
ENDBRANCH  10  11
ENDBRANCH   9  10
ENDBRANCH   6   9
TORSDOF 3
ENDMDL
MODEL       41
REMARK 921   NORMALIZED FREE ENERGY PREDICTED BY IDOCK:   -5.06 KCAL/MOL
REMARK 922        TOTAL FREE ENERGY PREDICTED BY IDOCK:   -6.38 KCAL/MOL
REMARK 923 INTER-LIGAND FREE ENERGY PREDICTED BY IDOCK:   -5.91 KCAL/MOL
REMARK 924 INTRA-LIGAND FREE ENERGY PREDICTED BY IDOCK:   -0.47 KCAL/MOL
REMARK 927      BINDING AFFINITY PREDICTED BY RF-SCORE:    0.00 PKD
ROOT
HETATM    1  O   UNL     1     -10.362   8.131  71.240  1.00  0.00    -0.193 OA 
HETATM    2  C   UNL     1     -10.775   9.326  70.731  1.00  0.00    -0.284 A  
HETATM    3  H   UNL     1     -10.832   7.711  71.952  1.00  0.00     0.000 HD 
HETATM    4  C   UNL     1     -10.087   9.940  69.689  1.00  0.00    -0.254 A  
HETATM    5  C   UNL     1     -10.548  11.157  69.184  1.00  0.00    -0.238 A  
HETATM    6  C   UNL     1     -11.706  11.742  69.705  1.00  0.00    -0.335 A  
HETATM    7  C   UNL     1     -12.367  11.131  70.773  1.00  0.00    -0.504 A  
HETATM    8  C   UNL     1     -11.906   9.917  71.283  1.00  0.00    -0.479 A  
ENDROOT
BRANCH   6   9
HETATM    9  O   UNL     1     -12.270  12.903  69.250  1.00  0.00    -0.215 OA 
BRANCH   9  10
HETATM   10  C   UNL     1     -11.584  14.100  69.624  1.00  0.00    -0.292 C  
BRANCH  10  11
HETATM   11  C   UNL     1     -12.236  14.696  70.846  1.00  0.00    -0.391 A  
HETATM   12  C   UNL     1     -11.463  15.274  71.860  1.00  0.00    -0.504 A  
HETATM   13  C   UNL     1     -12.078  15.866  72.964  1.00  0.00    -0.615 A  
HETATM   14  C   UNL     1     -13.469  15.890  73.058  1.00  0.00    -0.653 A  
HETATM   15  C   UNL     1     -14.248  15.324  72.052  1.00  0.00    -0.679 A  
HETATM   16  C   UNL     1     -13.635  14.732  70.949  1.00  0.00    -0.273 A  
ENDBRANCH  10  11
ENDBRANCH   9  10
ENDBRANCH   6   9
TORSDOF 3
ENDMDL
MODEL       42
REMARK 921   NORMALIZED FREE ENERGY PREDICTED BY IDOCK:   -5.04 KCAL/MOL
REMARK 922        TOTAL FREE ENERGY PREDICTED BY IDOCK:   -6.36 KCAL/MOL
REMARK 923 INTER-LIGAND FREE ENERGY PREDICTED BY IDOCK:   -6.01 KCAL/MOL
REMARK 924 INTRA-LIGAND FREE ENERGY PREDICTED BY IDOCK:   -0.35 KCAL/MOL
REMARK 927      BINDING AFFINITY PREDICTED BY RF-SCORE:    0.00 PKD
ROOT
HETATM    1  O   UNL     1     -11.662  12.394  63.060  1.00  0.00    -0.692 OA 
HETATM    2  C   UNL     1     -11.494  12.304  64.410  1.00  0.00    -0.354 A  
HETATM    3  H   UNL     1     -11.195  11.819  62.466  1.00  0.00     0.000 HD 
HETATM    4  C   UNL     1     -12.179  13.147  65.279  1.00  0.00    -0.502 A  
HETATM    5  C   UNL     1     -11.991  13.014  66.656  1.00  0.00    -0.453 A  
HETATM    6  C   UNL     1     -11.140  12.026  67.158  1.00  0.00    -0.290 A  
HETATM    7  C   UNL     1     -10.434  11.207  66.273  1.00  0.00    -0.312 A  
HETATM    8  C   UNL     1     -10.616  11.341  64.896  1.00  0.00    -0.364 A  
ENDROOT
BRANCH   6   9
HETATM    9  O   UNL     1     -10.926  11.778  68.487  1.00  0.00    -0.200 OA 
BRANCH   9  10
HETATM   10  C   UNL     1     -12.098  11.793  69.305  1.00  0.00    -0.229 C  
BRANCH  10  11
HETATM   11  C   UNL     1     -12.034  10.662  70.301  1.00  0.00    -0.425 A  
HETATM   12  C   UNL     1     -10.883   9.872  70.414  1.00  0.00    -0.380 A  
HETATM   13  C   UNL     1     -10.816   8.859  71.371  1.00  0.00    -0.378 A  
HETATM   14  C   UNL     1     -11.894   8.634  72.226  1.00  0.00    -0.436 A  
HETATM   15  C   UNL     1     -13.041   9.417  72.127  1.00  0.00    -0.526 A  
HETATM   16  C   UNL     1     -13.110  10.430  71.171  1.00  0.00    -0.474 A  
ENDBRANCH  10  11
ENDBRANCH   9  10
ENDBRANCH   6   9
TORSDOF 3
ENDMDL
MODEL       43
REMARK 921   NORMALIZED FREE ENERGY PREDICTED BY IDOCK:   -5.01 KCAL/MOL
REMARK 922        TOTAL FREE ENERGY PREDICTED BY IDOCK:   -6.32 KCAL/MOL
REMARK 923 INTER-LIGAND FREE ENERGY PREDICTED BY IDOCK:   -6.05 KCAL/MOL
REMARK 924 INTRA-LIGAND FREE ENERGY PREDICTED BY IDOCK:   -0.27 KCAL/MOL
REMARK 927      BINDING AFFINITY PREDICTED BY RF-SCORE:    0.00 PKD
ROOT
HETATM    1  O   UNL     1      -9.179   9.063  64.816  1.00  0.00    -0.438 OA 
HETATM    2  C   UNL     1      -9.914   9.752  65.734  1.00  0.00    -0.279 A  
HETATM    3  H   UNL     1      -8.953   9.447  63.977  1.00  0.00     0.000 HD 
HETATM    4  C   UNL     1     -10.244   9.189  66.962  1.00  0.00    -0.333 A  
HETATM    5  C   UNL     1     -10.985   9.932  67.883  1.00  0.00    -0.281 A  
HETATM    6  C   UNL     1     -11.371  11.241  67.581  1.00  0.00    -0.282 A  
HETATM    7  C   UNL     1     -11.060  11.783  66.332  1.00  0.00    -0.360 A  
HETATM    8  C   UNL     1     -10.324  11.040  65.408  1.00  0.00    -0.330 A  
ENDROOT
BRANCH   6   9
HETATM    9  O   UNL     1     -12.054  12.071  68.430  1.00  0.00    -0.412 OA 
BRANCH   9  10
HETATM   10  C   UNL     1     -11.658  11.997  69.801  1.00  0.00    -0.276 C  
BRANCH  10  11
HETATM   11  C   UNL     1     -12.340  13.090  70.584  1.00  0.00    -0.391 A  
HETATM   12  C   UNL     1     -12.273  14.423  70.160  1.00  0.00    -0.401 A  
HETATM   13  C   UNL     1     -12.947  15.421  70.865  1.00  0.00    -0.539 A  
HETATM   14  C   UNL     1     -13.699  15.093  71.992  1.00  0.00    -0.576 A  
HETATM   15  C   UNL     1     -13.779  13.770  72.419  1.00  0.00    -0.692 A  
HETATM   16  C   UNL     1     -13.106  12.771  71.716  1.00  0.00    -0.455 A  
ENDBRANCH  10  11
ENDBRANCH   9  10
ENDBRANCH   6   9
TORSDOF 3
ENDMDL
MODEL       44
REMARK 921   NORMALIZED FREE ENERGY PREDICTED BY IDOCK:   -4.98 KCAL/MOL
REMARK 922        TOTAL FREE ENERGY PREDICTED BY IDOCK:   -6.29 KCAL/MOL
REMARK 923 INTER-LIGAND FREE ENERGY PREDICTED BY IDOCK:   -5.90 KCAL/MOL
REMARK 924 INTRA-LIGAND FREE ENERGY PREDICTED BY IDOCK:   -0.39 KCAL/MOL
REMARK 927      BINDING AFFINITY PREDICTED BY RF-SCORE:    0.00 PKD
ROOT
HETATM    1  O   UNL     1      -9.558   6.977  72.105  1.00  0.00    -0.148 OA 
HETATM    2  C   UNL     1     -10.433   7.977  71.803  1.00  0.00    -0.229 A  
HETATM    3  H   UNL     1      -8.687   6.954  71.726  1.00  0.00     0.000 HD 
HETATM    4  C   UNL     1     -11.708   8.010  72.358  1.00  0.00    -0.444 A  
HETATM    5  C   UNL     1     -12.571   9.060  72.036  1.00  0.00    -0.464 A  
HETATM    6  C   UNL     1     -12.148  10.081  71.182  1.00  0.00    -0.380 A  
HETATM    7  C   UNL     1     -10.876  10.018  70.606  1.00  0.00    -0.367 A  
HETATM    8  C   UNL     1     -10.014   8.968  70.923  1.00  0.00    -0.326 A  
ENDROOT
BRANCH   6   9
HETATM    9  O   UNL     1     -12.894  11.178  70.843  1.00  0.00    -0.334 OA 
BRANCH   9  10
HETATM   10  C   UNL     1     -13.394  11.938  71.946  1.00  0.00    -0.300 C  
BRANCH  10  11
HETATM   11  C   UNL     1     -12.965  13.376  71.804  1.00  0.00    -0.435 A  
HETATM   12  C   UNL     1     -13.288  14.320  72.788  1.00  0.00    -0.621 A  
HETATM   13  C   UNL     1     -12.846  15.638  72.672  1.00  0.00    -0.541 A  
HETATM   14  C   UNL     1     -12.072  16.020  71.577  1.00  0.00    -0.513 A  
HETATM   15  C   UNL     1     -11.739  15.089  70.596  1.00  0.00    -0.357 A  
HETATM   16  C   UNL     1     -12.180  13.772  70.711  1.00  0.00    -0.437 A  
ENDBRANCH  10  11
ENDBRANCH   9  10
ENDBRANCH   6   9
TORSDOF 3
ENDMDL
MODEL       45
REMARK 921   NORMALIZED FREE ENERGY PREDICTED BY IDOCK:   -4.93 KCAL/MOL
REMARK 922        TOTAL FREE ENERGY PREDICTED BY IDOCK:   -6.23 KCAL/MOL
REMARK 923 INTER-LIGAND FREE ENERGY PREDICTED BY IDOCK:   -5.78 KCAL/MOL
REMARK 924 INTRA-LIGAND FREE ENERGY PREDICTED BY IDOCK:   -0.46 KCAL/MOL
REMARK 927      BINDING AFFINITY PREDICTED BY RF-SCORE:    0.00 PKD
ROOT
HETATM    1  O   UNL     1     -11.662  16.277  63.748  1.00  0.00    -1.511 OA 
HETATM    2  C   UNL     1     -11.747  15.235  64.623  1.00  0.00    -0.308 A  
HETATM    3  H   UNL     1     -11.364  17.134  64.031  1.00  0.00     0.000 HD 
HETATM    4  C   UNL     1     -12.182  13.981  64.209  1.00  0.00    -0.453 A  
HETATM    5  C   UNL     1     -12.243  12.934  65.131  1.00  0.00    -0.519 A  
HETATM    6  C   UNL     1     -11.846  13.141  66.455  1.00  0.00    -0.400 A  
HETATM    7  C   UNL     1     -11.442  14.413  66.865  1.00  0.00    -0.379 A  
HETATM    8  C   UNL     1     -11.385  15.462  65.946  1.00  0.00    -0.104 A  
ENDROOT
BRANCH   6   9
HETATM    9  O   UNL     1     -11.818  12.173  67.424  1.00  0.00    -0.515 OA 
BRANCH   9  10
HETATM   10  C   UNL     1     -10.514  11.818  67.891  1.00  0.00    -0.196 C  
BRANCH  10  11
HETATM   11  C   UNL     1     -10.143  10.454  67.367  1.00  0.00    -0.237 A  
HETATM   12  C   UNL     1     -10.856   9.316  67.766  1.00  0.00    -0.192 A  
HETATM   13  C   UNL     1     -10.537   8.064  67.238  1.00  0.00    -0.360 A  
HETATM   14  C   UNL     1      -9.508   7.943  66.304  1.00  0.00    -0.220 A  
HETATM   15  C   UNL     1      -8.797   9.068  65.896  1.00  0.00    -0.210 A  
HETATM   16  C   UNL     1      -9.115  10.320  66.422  1.00  0.00    -0.174 A  
ENDBRANCH  10  11
ENDBRANCH   9  10
ENDBRANCH   6   9
TORSDOF 3
ENDMDL
MODEL       46
REMARK 921   NORMALIZED FREE ENERGY PREDICTED BY IDOCK:   -4.91 KCAL/MOL
REMARK 922        TOTAL FREE ENERGY PREDICTED BY IDOCK:   -6.21 KCAL/MOL
REMARK 923 INTER-LIGAND FREE ENERGY PREDICTED BY IDOCK:   -5.86 KCAL/MOL
REMARK 924 INTRA-LIGAND FREE ENERGY PREDICTED BY IDOCK:   -0.35 KCAL/MOL
REMARK 927      BINDING AFFINITY PREDICTED BY RF-SCORE:    0.00 PKD
ROOT
HETATM    1  O   UNL     1      -8.151   7.639  71.552  1.00  0.00    -0.095 OA 
HETATM    2  C   UNL     1      -9.241   8.420  71.310  1.00  0.00    -0.178 A  
HETATM    3  H   UNL     1      -8.128   7.041  72.291  1.00  0.00     0.000 HD 
HETATM    4  C   UNL     1      -9.275   9.295  70.229  1.00  0.00    -0.273 A  
HETATM    5  C   UNL     1     -10.416  10.068  70.005  1.00  0.00    -0.337 A  
HETATM    6  C   UNL     1     -11.524   9.946  70.848  1.00  0.00    -0.376 A  
HETATM    7  C   UNL     1     -11.464   9.088  71.948  1.00  0.00    -0.440 A  
HETATM    8  C   UNL     1     -10.324   8.317  72.177  1.00  0.00    -0.370 A  
ENDROOT
BRANCH   6   9
HETATM    9  O   UNL     1     -12.707  10.618  70.688  1.00  0.00    -0.352 OA 
BRANCH   9  10
HETATM   10  C   UNL     1     -13.191  11.282  71.857  1.00  0.00    -0.386 C  
BRANCH  10  11
HETATM   11  C   UNL     1     -13.111  12.775  71.661  1.00  0.00    -0.428 A  
HETATM   12  C   UNL     1     -12.216  13.328  70.736  1.00  0.00    -0.390 A  
HETATM   13  C   UNL     1     -12.183  14.707  70.526  1.00  0.00    -0.389 A  
HETATM   14  C   UNL     1     -13.047  15.541  71.233  1.00  0.00    -0.581 A  
HETATM   15  C   UNL     1     -13.946  15.002  72.150  1.00  0.00    -0.610 A  
HETATM   16  C   UNL     1     -13.981  13.624  72.361  1.00  0.00    -0.651 A  
ENDBRANCH  10  11
ENDBRANCH   9  10
ENDBRANCH   6   9
TORSDOF 3
ENDMDL
MODEL       47
REMARK 921   NORMALIZED FREE ENERGY PREDICTED BY IDOCK:   -4.88 KCAL/MOL
REMARK 922        TOTAL FREE ENERGY PREDICTED BY IDOCK:   -6.17 KCAL/MOL
REMARK 923 INTER-LIGAND FREE ENERGY PREDICTED BY IDOCK:   -5.72 KCAL/MOL
REMARK 924 INTRA-LIGAND FREE ENERGY PREDICTED BY IDOCK:   -0.44 KCAL/MOL
REMARK 927      BINDING AFFINITY PREDICTED BY RF-SCORE:    0.00 PKD
ROOT
HETATM    1  O   UNL     1     -10.847  10.936  62.730  1.00  0.00    -0.750 OA 
HETATM    2  C   UNL     1     -11.108  11.725  63.811  1.00  0.00    -0.436 A  
HETATM    3  H   UNL     1     -11.377  10.988  61.944  1.00  0.00     0.000 HD 
HETATM    4  C   UNL     1     -10.330  11.650  64.962  1.00  0.00    -0.329 A  
HETATM    5  C   UNL     1     -10.620  12.485  66.043  1.00  0.00    -0.289 A  
HETATM    6  C   UNL     1     -11.668  13.405  65.959  1.00  0.00    -0.362 A  
HETATM    7  C   UNL     1     -12.460  13.447  64.810  1.00  0.00    -0.416 A  
HETATM    8  C   UNL     1     -12.176  12.611  63.730  1.00  0.00    -0.600 A  
ENDROOT
BRANCH   6   9
HETATM    9  O   UNL     1     -12.002  14.302  66.939  1.00  0.00    -0.416 OA 
BRANCH   9  10
HETATM   10  C   UNL     1     -10.950  14.627  67.850  1.00  0.00    -0.277 C  
BRANCH  10  11
HETATM   11  C   UNL     1     -10.377  15.977  67.500  1.00  0.00    -0.287 A  
HETATM   12  C   UNL     1     -10.810  17.132  68.163  1.00  0.00    -0.316 A  
HETATM   13  C   UNL     1     -10.239  18.370  67.866  1.00  0.00    -0.404 A  
HETATM   14  C   UNL     1      -9.228  18.461  66.911  1.00  0.00    -0.287 A  
HETATM   15  C   UNL     1      -8.784  17.318  66.251  1.00  0.00    -0.259 A  
HETATM   16  C   UNL     1      -9.353  16.080  66.546  1.00  0.00    -0.296 A  
ENDBRANCH  10  11
ENDBRANCH   9  10
ENDBRANCH   6   9
TORSDOF 3
ENDMDL
MODEL       48
REMARK 921   NORMALIZED FREE ENERGY PREDICTED BY IDOCK:   -4.86 KCAL/MOL
REMARK 922        TOTAL FREE ENERGY PREDICTED BY IDOCK:   -6.15 KCAL/MOL
REMARK 923 INTER-LIGAND FREE ENERGY PREDICTED BY IDOCK:   -5.76 KCAL/MOL
REMARK 924 INTRA-LIGAND FREE ENERGY PREDICTED BY IDOCK:   -0.39 KCAL/MOL
REMARK 927      BINDING AFFINITY PREDICTED BY RF-SCORE:    0.00 PKD
ROOT
HETATM    1  O   UNL     1     -14.110   8.856  73.382  1.00  0.00    -1.256 OA 
HETATM    2  C   UNL     1     -13.195   9.224  72.441  1.00  0.00    -0.426 A  
HETATM    3  H   UNL     1     -14.842   9.419  73.604  1.00  0.00     0.000 HD 
HETATM    4  C   UNL     1     -12.124   8.399  72.116  1.00  0.00    -0.435 A  
HETATM    5  C   UNL     1     -11.216   8.805  71.136  1.00  0.00    -0.339 A  
HETATM    6  C   UNL     1     -11.397  10.020  70.469  1.00  0.00    -0.335 A  
HETATM    7  C   UNL     1     -12.459  10.853  70.828  1.00  0.00    -0.489 A  
HETATM    8  C   UNL     1     -13.365  10.452  71.811  1.00  0.00    -0.456 A  
ENDROOT
BRANCH   6   9
HETATM    9  O   UNL     1     -10.597  10.486  69.460  1.00  0.00    -0.224 OA 
BRANCH   9  10
HETATM   10  C   UNL     1     -11.143  10.362  68.145  1.00  0.00    -0.285 C  
BRANCH  10  11
HETATM   11  C   UNL     1     -10.374   9.318  67.375  1.00  0.00    -0.327 A  
HETATM   12  C   UNL     1     -10.532   7.956  67.662  1.00  0.00    -0.303 A  
HETATM   13  C   UNL     1      -9.853   6.995  66.912  1.00  0.00    -0.259 A  
HETATM   14  C   UNL     1      -9.018   7.388  65.867  1.00  0.00    -0.114 A  
HETATM   15  C   UNL     1      -8.859   8.739  65.568  1.00  0.00    -0.229 A  
HETATM   16  C   UNL     1      -9.537   9.700  66.316  1.00  0.00    -0.281 A  
ENDBRANCH  10  11
ENDBRANCH   9  10
ENDBRANCH   6   9
TORSDOF 3
ENDMDL
MODEL       49
REMARK 921   NORMALIZED FREE ENERGY PREDICTED BY IDOCK:   -4.86 KCAL/MOL
REMARK 922        TOTAL FREE ENERGY PREDICTED BY IDOCK:   -6.15 KCAL/MOL
REMARK 923 INTER-LIGAND FREE ENERGY PREDICTED BY IDOCK:   -5.80 KCAL/MOL
REMARK 924 INTRA-LIGAND FREE ENERGY PREDICTED BY IDOCK:   -0.35 KCAL/MOL
REMARK 927      BINDING AFFINITY PREDICTED BY RF-SCORE:    0.00 PKD
ROOT
HETATM    1  O   UNL     1     -12.848  15.998  71.429  1.00  0.00    -0.538 OA 
HETATM    2  C   UNL     1     -12.781  14.643  71.306  1.00  0.00    -0.332 A  
HETATM    3  H   UNL     1     -12.405  16.571  70.814  1.00  0.00     0.000 HD 
HETATM    4  C   UNL     1     -13.430  13.805  72.207  1.00  0.00    -0.638 A  
HETATM    5  C   UNL     1     -13.351  12.421  72.039  1.00  0.00    -0.511 A  
HETATM    6  C   UNL     1     -12.645  11.883  70.960  1.00  0.00    -0.283 A  
HETATM    7  C   UNL     1     -11.971  12.735  70.082  1.00  0.00    -0.371 A  
HETATM    8  C   UNL     1     -12.045  14.118  70.250  1.00  0.00    -0.412 A  
ENDROOT
BRANCH   6   9
HETATM    9  O   UNL     1     -12.547  10.547  70.676  1.00  0.00    -0.332 OA 
BRANCH   9  10
HETATM   10  C   UNL     1     -13.008   9.671  71.708  1.00  0.00    -0.420 C  
BRANCH  10  11
HETATM   11  C   UNL     1     -12.030   8.537  71.882  1.00  0.00    -0.409 A  
HETATM   12  C   UNL     1     -10.677   8.793  72.143  1.00  0.00    -0.383 A  
HETATM   13  C   UNL     1      -9.789   7.737  72.352  1.00  0.00    -0.264 A  
HETATM   14  C   UNL     1     -10.247   6.421  72.308  1.00  0.00    -0.205 A  
HETATM   15  C   UNL     1     -11.591   6.155  72.056  1.00  0.00    -0.364 A  
HETATM   16  C   UNL     1     -12.480   7.209  71.848  1.00  0.00    -0.341 A  
ENDBRANCH  10  11
ENDBRANCH   9  10
ENDBRANCH   6   9
TORSDOF 3
ENDMDL
MODEL       50
REMARK 921   NORMALIZED FREE ENERGY PREDICTED BY IDOCK:   -4.83 KCAL/MOL
REMARK 922        TOTAL FREE ENERGY PREDICTED BY IDOCK:   -6.12 KCAL/MOL
REMARK 923 INTER-LIGAND FREE ENERGY PREDICTED BY IDOCK:   -5.84 KCAL/MOL
REMARK 924 INTRA-LIGAND FREE ENERGY PREDICTED BY IDOCK:   -0.27 KCAL/MOL
REMARK 927      BINDING AFFINITY PREDICTED BY RF-SCORE:    0.00 PKD
ROOT
HETATM    1  O   UNL     1     -13.769   9.788  72.737  1.00  0.00    -0.664 OA 
HETATM    2  C   UNL     1     -13.218  10.741  71.932  1.00  0.00    -0.419 A  
HETATM    3  H   UNL     1     -13.638   8.863  72.565  1.00  0.00     0.000 HD 
HETATM    4  C   UNL     1     -13.410  12.095  72.185  1.00  0.00    -0.438 A  
HETATM    5  C   UNL     1     -12.818  13.042  71.346  1.00  0.00    -0.385 A  
HETATM    6  C   UNL     1     -12.019  12.631  70.276  1.00  0.00    -0.284 A  
HETATM    7  C   UNL     1     -11.861  11.268  70.015  1.00  0.00    -0.448 A  
HETATM    8  C   UNL     1     -12.456  10.320  70.848  1.00  0.00    -0.466 A  
ENDROOT
BRANCH   6   9
HETATM    9  O   UNL     1     -11.353  13.474  69.427  1.00  0.00    -0.260 OA 
BRANCH   9  10
HETATM   10  C   UNL     1     -12.025  13.752  68.196  1.00  0.00    -0.358 C  
BRANCH  10  11
HETATM   11  C   UNL     1     -11.405  14.962  67.544  1.00  0.00    -0.351 A  
HETATM   12  C   UNL     1     -11.194  16.139  68.274  1.00  0.00    -0.343 A  
HETATM   13  C   UNL     1     -10.575  17.237  67.675  1.00  0.00    -0.350 A  
HETATM   14  C   UNL     1     -10.158  17.164  66.346  1.00  0.00    -0.326 A  
HETATM   15  C   UNL     1     -10.357  15.997  65.613  1.00  0.00    -0.414 A  
HETATM   16  C   UNL     1     -10.975  14.899  66.210  1.00  0.00    -0.338 A  
ENDBRANCH  10  11
ENDBRANCH   9  10
ENDBRANCH   6   9
TORSDOF 3
ENDMDL
MODEL       51
REMARK 921   NORMALIZED FREE ENERGY PREDICTED BY IDOCK:   -4.76 KCAL/MOL
REMARK 922        TOTAL FREE ENERGY PREDICTED BY IDOCK:   -6.03 KCAL/MOL
REMARK 923 INTER-LIGAND FREE ENERGY PREDICTED BY IDOCK:   -5.81 KCAL/MOL
REMARK 924 INTRA-LIGAND FREE ENERGY PREDICTED BY IDOCK:   -0.22 KCAL/MOL
REMARK 927      BINDING AFFINITY PREDICTED BY RF-SCORE:    0.00 PKD
ROOT
HETATM    1  O   UNL     1     -13.240  15.986  74.563  1.00  0.00    -0.782 OA 
HETATM    2  C   UNL     1     -12.970  15.831  73.236  1.00  0.00    -0.565 A  
HETATM    3  H   UNL     1     -14.017  15.606  74.955  1.00  0.00     0.000 HD 
HETATM    4  C   UNL     1     -11.831  16.388  72.664  1.00  0.00    -0.544 A  
HETATM    5  C   UNL     1     -11.581  16.196  71.303  1.00  0.00    -0.470 A  
HETATM    6  C   UNL     1     -12.457  15.430  70.529  1.00  0.00    -0.422 A  
HETATM    7  C   UNL     1     -13.613  14.904  71.110  1.00  0.00    -0.467 A  
HETATM    8  C   UNL     1     -13.868  15.099  72.468  1.00  0.00    -0.602 A  
ENDROOT
BRANCH   6   9
HETATM    9  O   UNL     1     -12.279  15.138  69.203  1.00  0.00    -0.246 OA 
BRANCH   9  10
HETATM   10  C   UNL     1     -11.047  14.488  68.884  1.00  0.00    -0.256 C  
BRANCH  10  11
HETATM   11  C   UNL     1      -9.993  15.523  68.582  1.00  0.00    -0.208 A  
HETATM   12  C   UNL     1     -10.334  16.735  67.969  1.00  0.00    -0.317 A  
HETATM   13  C   UNL     1      -9.359  17.707  67.738  1.00  0.00    -0.255 A  
HETATM   14  C   UNL     1      -8.040  17.477  68.125  1.00  0.00    -0.249 A  
HETATM   15  C   UNL     1      -7.690  16.278  68.742  1.00  0.00    -0.202 A  
HETATM   16  C   UNL     1      -8.662  15.307  68.973  1.00  0.00    -0.226 A  
ENDBRANCH  10  11
ENDBRANCH   9  10
ENDBRANCH   6   9
TORSDOF 3
ENDMDL
MODEL       52
REMARK 921   NORMALIZED FREE ENERGY PREDICTED BY IDOCK:   -4.74 KCAL/MOL
REMARK 922        TOTAL FREE ENERGY PREDICTED BY IDOCK:   -6.01 KCAL/MOL
REMARK 923 INTER-LIGAND FREE ENERGY PREDICTED BY IDOCK:   -5.59 KCAL/MOL
REMARK 924 INTRA-LIGAND FREE ENERGY PREDICTED BY IDOCK:   -0.42 KCAL/MOL
REMARK 927      BINDING AFFINITY PREDICTED BY RF-SCORE:    0.00 PKD
ROOT
HETATM    1  O   UNL     1      -8.265  20.918  66.775  1.00  0.00    -0.556 OA 
HETATM    2  C   UNL     1      -8.794  19.780  67.307  1.00  0.00    -0.326 A  
HETATM    3  H   UNL     1      -7.343  21.125  66.874  1.00  0.00     0.000 HD 
HETATM    4  C   UNL     1     -10.144  19.477  67.161  1.00  0.00    -0.515 A  
HETATM    5  C   UNL     1     -10.646  18.294  67.707  1.00  0.00    -0.415 A  
HETATM    6  C   UNL     1      -9.793  17.410  68.374  1.00  0.00    -0.316 A  
HETATM    7  C   UNL     1      -8.447  17.743  68.541  1.00  0.00    -0.296 A  
HETATM    8  C   UNL     1      -7.944  18.926  68.000  1.00  0.00    -0.315 A  
ENDROOT
BRANCH   6   9
HETATM    9  O   UNL     1     -10.172  16.204  68.900  1.00  0.00    -0.220 OA 
BRANCH   9  10
HETATM   10  C   UNL     1     -11.544  15.858  68.700  1.00  0.00    -0.380 C  
BRANCH  10  11
HETATM   11  C   UNL     1     -11.635  14.640  67.816  1.00  0.00    -0.382 A  
HETATM   12  C   UNL     1     -11.592  13.352  68.365  1.00  0.00    -0.368 A  
HETATM   13  C   UNL     1     -11.725  12.232  67.543  1.00  0.00    -0.402 A  
HETATM   14  C   UNL     1     -11.908  12.391  66.170  1.00  0.00    -0.442 A  
HETATM   15  C   UNL     1     -11.959  13.667  65.615  1.00  0.00    -0.422 A  
HETATM   16  C   UNL     1     -11.827  14.787  66.434  1.00  0.00    -0.231 A  
ENDBRANCH  10  11
ENDBRANCH   9  10
ENDBRANCH   6   9
TORSDOF 3
ENDMDL
MODEL       53
REMARK 921   NORMALIZED FREE ENERGY PREDICTED BY IDOCK:   -4.73 KCAL/MOL
REMARK 922        TOTAL FREE ENERGY PREDICTED BY IDOCK:   -6.00 KCAL/MOL
REMARK 923 INTER-LIGAND FREE ENERGY PREDICTED BY IDOCK:   -5.61 KCAL/MOL
REMARK 924 INTRA-LIGAND FREE ENERGY PREDICTED BY IDOCK:   -0.39 KCAL/MOL
REMARK 927      BINDING AFFINITY PREDICTED BY RF-SCORE:    0.00 PKD
ROOT
HETATM    1  O   UNL     1     -13.059  16.007  71.399  1.00  0.00    -0.536 OA 
HETATM    2  C   UNL     1     -12.293  15.357  70.478  1.00  0.00    -0.408 A  
HETATM    3  H   UNL     1     -13.713  15.544  71.909  1.00  0.00     0.000 HD 
HETATM    4  C   UNL     1     -11.334  16.035  69.732  1.00  0.00    -0.331 A  
HETATM    5  C   UNL     1     -10.558  15.332  68.808  1.00  0.00    -0.240 A  
HETATM    6  C   UNL     1     -10.727  13.953  68.652  1.00  0.00    -0.260 A  
HETATM    7  C   UNL     1     -11.716  13.291  69.384  1.00  0.00    -0.383 A  
HETATM    8  C   UNL     1     -12.496  13.992  70.305  1.00  0.00    -0.403 A  
ENDROOT
BRANCH   6   9
HETATM    9  O   UNL     1      -9.986  13.163  67.814  1.00  0.00    -0.216 OA 
BRANCH   9  10
HETATM   10  C   UNL     1      -9.693  13.738  66.539  1.00  0.00    -0.293 C  
BRANCH  10  11
HETATM   11  C   UNL     1     -10.597  13.137  65.492  1.00  0.00    -0.299 A  
HETATM   12  C   UNL     1     -11.965  13.436  65.471  1.00  0.00    -0.433 A  
HETATM   13  C   UNL     1     -12.785  12.913  64.470  1.00  0.00    -0.359 A  
HETATM   14  C   UNL     1     -12.242  12.094  63.481  1.00  0.00    -0.670 A  
HETATM   15  C   UNL     1     -10.881  11.796  63.488  1.00  0.00    -0.496 A  
HETATM   16  C   UNL     1     -10.061  12.318  64.487  1.00  0.00    -0.280 A  
ENDBRANCH  10  11
ENDBRANCH   9  10
ENDBRANCH   6   9
TORSDOF 3
ENDMDL
MODEL       54
REMARK 921   NORMALIZED FREE ENERGY PREDICTED BY IDOCK:   -4.73 KCAL/MOL
REMARK 922        TOTAL FREE ENERGY PREDICTED BY IDOCK:   -6.00 KCAL/MOL
REMARK 923 INTER-LIGAND FREE ENERGY PREDICTED BY IDOCK:   -5.64 KCAL/MOL
REMARK 924 INTRA-LIGAND FREE ENERGY PREDICTED BY IDOCK:   -0.36 KCAL/MOL
REMARK 927      BINDING AFFINITY PREDICTED BY RF-SCORE:    0.00 PKD
ROOT
HETATM    1  O   UNL     1     -12.748  16.486  74.349  1.00  0.00    -0.799 OA 
HETATM    2  C   UNL     1     -12.681  16.003  73.076  1.00  0.00    -0.493 A  
HETATM    3  H   UNL     1     -13.523  16.361  74.882  1.00  0.00     0.000 HD 
HETATM    4  C   UNL     1     -11.544  16.187  72.295  1.00  0.00    -0.435 A  
HETATM    5  C   UNL     1     -11.507  15.665  71.001  1.00  0.00    -0.439 A  
HETATM    6  C   UNL     1     -12.596  14.944  70.502  1.00  0.00    -0.360 A  
HETATM    7  C   UNL     1     -13.743  14.795  71.285  1.00  0.00    -0.476 A  
HETATM    8  C   UNL     1     -13.784  15.319  72.578  1.00  0.00    -0.627 A  
ENDROOT
BRANCH   6   9
HETATM    9  O   UNL     1     -12.642  14.349  69.270  1.00  0.00    -0.138 OA 
BRANCH   9  10
HETATM   10  C   UNL     1     -11.379  14.204  68.616  1.00  0.00    -0.277 C  
BRANCH  10  11
HETATM   11  C   UNL     1     -10.935  12.765  68.689  1.00  0.00    -0.295 A  
HETATM   12  C   UNL     1     -11.667  11.826  69.425  1.00  0.00    -0.405 A  
HETATM   13  C   UNL     1     -11.275  10.486  69.446  1.00  0.00    -0.327 A  
HETATM   14  C   UNL     1     -10.153  10.077  68.726  1.00  0.00    -0.197 A  
HETATM   15  C   UNL     1      -9.421  11.001  67.985  1.00  0.00    -0.169 A  
HETATM   16  C   UNL     1      -9.812  12.339  67.963  1.00  0.00    -0.204 A  
ENDBRANCH  10  11
ENDBRANCH   9  10
ENDBRANCH   6   9
TORSDOF 3
ENDMDL
MODEL       55
REMARK 921   NORMALIZED FREE ENERGY PREDICTED BY IDOCK:   -4.73 KCAL/MOL
REMARK 922        TOTAL FREE ENERGY PREDICTED BY IDOCK:   -5.99 KCAL/MOL
REMARK 923 INTER-LIGAND FREE ENERGY PREDICTED BY IDOCK:   -5.62 KCAL/MOL
REMARK 924 INTRA-LIGAND FREE ENERGY PREDICTED BY IDOCK:   -0.37 KCAL/MOL
REMARK 927      BINDING AFFINITY PREDICTED BY RF-SCORE:    0.00 PKD
ROOT
HETATM    1  O   UNL     1     -10.889  17.412  68.043  1.00  0.00    -0.384 OA 
HETATM    2  C   UNL     1     -11.163  16.097  68.269  1.00  0.00    -0.343 A  
HETATM    3  H   UNL     1     -10.403  17.689  67.275  1.00  0.00     0.000 HD 
HETATM    4  C   UNL     1     -11.874  15.692  69.394  1.00  0.00    -0.391 A  
HETATM    5  C   UNL     1     -12.149  14.336  69.583  1.00  0.00    -0.396 A  
HETATM    6  C   UNL     1     -11.734  13.396  68.636  1.00  0.00    -0.349 A  
HETATM    7  C   UNL     1     -10.993  13.813  67.528  1.00  0.00    -0.285 A  
HETATM    8  C   UNL     1     -10.713  15.166  67.339  1.00  0.00    -0.286 A  
ENDROOT
BRANCH   6   9
HETATM    9  O   UNL     1     -11.994  12.053  68.699  1.00  0.00    -0.316 OA 
BRANCH   9  10
HETATM   10  C   UNL     1     -10.966  11.262  69.300  1.00  0.00    -0.243 C  
BRANCH  10  11
HETATM   11  C   UNL     1     -11.558  10.411  70.395  1.00  0.00    -0.423 A  
HETATM   12  C   UNL     1     -12.831  10.689  70.909  1.00  0.00    -0.473 A  
HETATM   13  C   UNL     1     -13.390   9.867  71.888  1.00  0.00    -0.524 A  
HETATM   14  C   UNL     1     -12.685   8.758  72.354  1.00  0.00    -0.433 A  
HETATM   15  C   UNL     1     -11.422   8.468  71.845  1.00  0.00    -0.405 A  
HETATM   16  C   UNL     1     -10.862   9.288  70.867  1.00  0.00    -0.365 A  
ENDBRANCH  10  11
ENDBRANCH   9  10
ENDBRANCH   6   9
TORSDOF 3
ENDMDL
MODEL       56
REMARK 921   NORMALIZED FREE ENERGY PREDICTED BY IDOCK:   -4.69 KCAL/MOL
REMARK 922        TOTAL FREE ENERGY PREDICTED BY IDOCK:   -5.95 KCAL/MOL
REMARK 923 INTER-LIGAND FREE ENERGY PREDICTED BY IDOCK:   -5.57 KCAL/MOL
REMARK 924 INTRA-LIGAND FREE ENERGY PREDICTED BY IDOCK:   -0.38 KCAL/MOL
REMARK 927      BINDING AFFINITY PREDICTED BY RF-SCORE:    0.00 PKD
ROOT
HETATM    1  O   UNL     1      -9.051   9.378  63.684  1.00  0.00    -0.406 OA 
HETATM    2  C   UNL     1      -9.837  10.262  64.361  1.00  0.00    -0.305 A  
HETATM    3  H   UNL     1      -8.494   8.761  64.145  1.00  0.00     0.000 HD 
HETATM    4  C   UNL     1     -10.652  11.164  63.685  1.00  0.00    -0.414 A  
HETATM    5  C   UNL     1     -11.455  12.045  64.414  1.00  0.00    -0.413 A  
HETATM    6  C   UNL     1     -11.456  12.003  65.811  1.00  0.00    -0.320 A  
HETATM    7  C   UNL     1     -10.609  11.114  66.476  1.00  0.00    -0.314 A  
HETATM    8  C   UNL     1      -9.802  10.236  65.750  1.00  0.00    -0.320 A  
ENDROOT
BRANCH   6   9
HETATM    9  O   UNL     1     -12.240  12.784  66.616  1.00  0.00    -0.481 OA 
BRANCH   9  10
HETATM   10  C   UNL     1     -11.970  14.186  66.552  1.00  0.00    -0.442 C  
BRANCH  10  11
HETATM   11  C   UNL     1     -11.717  14.717  67.940  1.00  0.00    -0.379 A  
HETATM   12  C   UNL     1     -12.117  13.989  69.069  1.00  0.00    -0.358 A  
HETATM   13  C   UNL     1     -11.835  14.465  70.350  1.00  0.00    -0.381 A  
HETATM   14  C   UNL     1     -11.147  15.667  70.512  1.00  0.00    -0.375 A  
HETATM   15  C   UNL     1     -10.739  16.396  69.397  1.00  0.00    -0.324 A  
HETATM   16  C   UNL     1     -11.019  15.921  68.117  1.00  0.00    -0.335 A  
ENDBRANCH  10  11
ENDBRANCH   9  10
ENDBRANCH   6   9
TORSDOF 3
ENDMDL
MODEL       57
REMARK 921   NORMALIZED FREE ENERGY PREDICTED BY IDOCK:   -4.69 KCAL/MOL
REMARK 922        TOTAL FREE ENERGY PREDICTED BY IDOCK:   -5.94 KCAL/MOL
REMARK 923 INTER-LIGAND FREE ENERGY PREDICTED BY IDOCK:   -5.62 KCAL/MOL
REMARK 924 INTRA-LIGAND FREE ENERGY PREDICTED BY IDOCK:   -0.32 KCAL/MOL
REMARK 927      BINDING AFFINITY PREDICTED BY RF-SCORE:    0.00 PKD
ROOT
HETATM    1  O   UNL     1      -8.282  21.007  66.936  1.00  0.00    -0.560 OA 
HETATM    2  C   UNL     1      -8.973  19.843  67.089  1.00  0.00    -0.338 A  
HETATM    3  H   UNL     1      -7.699  21.326  67.615  1.00  0.00     0.000 HD 
HETATM    4  C   UNL     1      -9.826  19.376  66.095  1.00  0.00    -0.461 A  
HETATM    5  C   UNL     1     -10.506  18.171  66.282  1.00  0.00    -0.374 A  
HETATM    6  C   UNL     1     -10.312  17.428  67.450  1.00  0.00    -0.343 A  
HETATM    7  C   UNL     1      -9.477  17.925  68.454  1.00  0.00    -0.304 A  
HETATM    8  C   UNL     1      -8.800  19.131  68.271  1.00  0.00    -0.377 A  
ENDROOT
BRANCH   6   9
HETATM    9  O   UNL     1     -10.888  16.213  67.710  1.00  0.00    -0.321 OA 
BRANCH   9  10
HETATM   10  C   UNL     1     -11.414  16.061  69.031  1.00  0.00    -0.360 C  
BRANCH  10  11
HETATM   11  C   UNL     1     -11.610  14.596  69.331  1.00  0.00    -0.342 A  
HETATM   12  C   UNL     1     -12.121  14.181  70.567  1.00  0.00    -0.420 A  
HETATM   13  C   UNL     1     -12.345  12.826  70.817  1.00  0.00    -0.375 A  
HETATM   14  C   UNL     1     -12.066  11.879  69.832  1.00  0.00    -0.344 A  
HETATM   15  C   UNL     1     -11.563  12.282  68.597  1.00  0.00    -0.372 A  
HETATM   16  C   UNL     1     -11.340  13.634  68.345  1.00  0.00    -0.329 A  
ENDBRANCH  10  11
ENDBRANCH   9  10
ENDBRANCH   6   9
TORSDOF 3
ENDMDL
MODEL       58
REMARK 921   NORMALIZED FREE ENERGY PREDICTED BY IDOCK:   -4.68 KCAL/MOL
REMARK 922        TOTAL FREE ENERGY PREDICTED BY IDOCK:   -5.94 KCAL/MOL
REMARK 923 INTER-LIGAND FREE ENERGY PREDICTED BY IDOCK:   -5.56 KCAL/MOL
REMARK 924 INTRA-LIGAND FREE ENERGY PREDICTED BY IDOCK:   -0.38 KCAL/MOL
REMARK 927      BINDING AFFINITY PREDICTED BY RF-SCORE:    0.00 PKD
ROOT
HETATM    1  O   UNL     1      -9.877  20.389  67.753  1.00  0.00    -0.403 OA 
HETATM    2  C   UNL     1     -10.102  19.070  67.496  1.00  0.00    -0.373 A  
HETATM    3  H   UNL     1      -9.828  20.716  68.643  1.00  0.00     0.000 HD 
HETATM    4  C   UNL     1     -10.174  18.592  66.192  1.00  0.00    -0.450 A  
HETATM    5  C   UNL     1     -10.391  17.231  65.969  1.00  0.00    -0.312 A  
HETATM    6  C   UNL     1     -10.513  16.352  67.049  1.00  0.00    -0.291 A  
HETATM    7  C   UNL     1     -10.471  16.851  68.353  1.00  0.00    -0.355 A  
HETATM    8  C   UNL     1     -10.258  18.211  68.579  1.00  0.00    -0.399 A  
ENDROOT
BRANCH   6   9
HETATM    9  O   UNL     1     -10.676  14.997  66.941  1.00  0.00    -0.295 OA 
BRANCH   9  10
HETATM   10  C   UNL     1      -9.740  14.338  66.086  1.00  0.00    -0.303 C  
BRANCH  10  11
HETATM   11  C   UNL     1     -10.477  13.426  65.138  1.00  0.00    -0.358 A  
HETATM   12  C   UNL     1     -11.634  13.862  64.480  1.00  0.00    -0.409 A  
HETATM   13  C   UNL     1     -12.282  13.028  63.568  1.00  0.00    -0.580 A  
HETATM   14  C   UNL     1     -11.773  11.757  63.301  1.00  0.00    -0.340 A  
HETATM   15  C   UNL     1     -10.618  11.317  63.943  1.00  0.00    -0.455 A  
HETATM   16  C   UNL     1      -9.970  12.148  64.855  1.00  0.00    -0.235 A  
ENDBRANCH  10  11
ENDBRANCH   9  10
ENDBRANCH   6   9
TORSDOF 3
ENDMDL
MODEL       59
REMARK 921   NORMALIZED FREE ENERGY PREDICTED BY IDOCK:   -4.67 KCAL/MOL
REMARK 922        TOTAL FREE ENERGY PREDICTED BY IDOCK:   -5.92 KCAL/MOL
REMARK 923 INTER-LIGAND FREE ENERGY PREDICTED BY IDOCK:   -5.58 KCAL/MOL
REMARK 924 INTRA-LIGAND FREE ENERGY PREDICTED BY IDOCK:   -0.34 KCAL/MOL
REMARK 927      BINDING AFFINITY PREDICTED BY RF-SCORE:    0.00 PKD
ROOT
HETATM    1  O   UNL     1      -9.782  18.192  65.777  1.00  0.00    -0.503 OA 
HETATM    2  C   UNL     1     -10.268  17.073  66.384  1.00  0.00    -0.326 A  
HETATM    3  H   UNL     1      -9.725  18.253  64.831  1.00  0.00     0.000 HD 
HETATM    4  C   UNL     1     -10.351  16.984  67.770  1.00  0.00    -0.335 A  
HETATM    5  C   UNL     1     -10.868  15.826  68.354  1.00  0.00    -0.297 A  
HETATM    6  C   UNL     1     -11.321  14.775  67.552  1.00  0.00    -0.344 A  
HETATM    7  C   UNL     1     -11.201  14.865  66.164  1.00  0.00    -0.325 A  
HETATM    8  C   UNL     1     -10.681  16.018  65.577  1.00  0.00    -0.374 A  
ENDROOT
BRANCH   6   9
HETATM    9  O   UNL     1     -11.890  13.621  68.021  1.00  0.00    -0.335 OA 
BRANCH   9  10
HETATM   10  C   UNL     1     -11.097  12.889  68.959  1.00  0.00    -0.233 C  
BRANCH  10  11
HETATM   11  C   UNL     1     -11.978  12.357  70.060  1.00  0.00    -0.372 A  
HETATM   12  C   UNL     1     -12.137  10.978  70.247  1.00  0.00    -0.448 A  
HETATM   13  C   UNL     1     -12.916  10.495  71.299  1.00  0.00    -0.532 A  
HETATM   14  C   UNL     1     -13.535  11.386  72.175  1.00  0.00    -0.203 A  
HETATM   15  C   UNL     1     -13.379  12.759  72.003  1.00  0.00    -0.565 A  
HETATM   16  C   UNL     1     -12.601  13.244  70.953  1.00  0.00    -0.386 A  
ENDBRANCH  10  11
ENDBRANCH   9  10
ENDBRANCH   6   9
TORSDOF 3
ENDMDL
MODEL       60
REMARK 921   NORMALIZED FREE ENERGY PREDICTED BY IDOCK:   -4.67 KCAL/MOL
REMARK 922        TOTAL FREE ENERGY PREDICTED BY IDOCK:   -5.92 KCAL/MOL
REMARK 923 INTER-LIGAND FREE ENERGY PREDICTED BY IDOCK:   -5.54 KCAL/MOL
REMARK 924 INTRA-LIGAND FREE ENERGY PREDICTED BY IDOCK:   -0.38 KCAL/MOL
REMARK 927      BINDING AFFINITY PREDICTED BY RF-SCORE:    0.00 PKD
ROOT
HETATM    1  O   UNL     1     -13.782  12.219  72.757  1.00  0.00    -0.550 OA 
HETATM    2  C   UNL     1     -13.375  13.201  71.905  1.00  0.00    -0.455 A  
HETATM    3  H   UNL     1     -13.525  11.314  72.624  1.00  0.00     0.000 HD 
HETATM    4  C   UNL     1     -13.752  14.526  72.101  1.00  0.00    -0.547 A  
HETATM    5  C   UNL     1     -13.303  15.507  71.214  1.00  0.00    -0.588 A  
HETATM    6  C   UNL     1     -12.462  15.163  70.152  1.00  0.00    -0.318 A  
HETATM    7  C   UNL     1     -12.118  13.825  69.948  1.00  0.00    -0.412 A  
HETATM    8  C   UNL     1     -12.569  12.842  70.830  1.00  0.00    -0.342 A  
ENDROOT
BRANCH   6   9
HETATM    9  O   UNL     1     -11.926  16.052  69.259  1.00  0.00    -0.324 OA 
BRANCH   9  10
HETATM   10  C   UNL     1     -11.286  15.462  68.125  1.00  0.00    -0.348 C  
BRANCH  10  11
HETATM   11  C   UNL     1     -10.025  16.223  67.804  1.00  0.00    -0.246 A  
HETATM   12  C   UNL     1      -9.640  17.328  68.574  1.00  0.00    -0.291 A  
HETATM   13  C   UNL     1      -8.446  17.997  68.300  1.00  0.00    -0.293 A  
HETATM   14  C   UNL     1      -7.626  17.561  67.259  1.00  0.00    -0.217 A  
HETATM   15  C   UNL     1      -7.996  16.460  66.491  1.00  0.00    -0.342 A  
HETATM   16  C   UNL     1      -9.188  15.791  66.764  1.00  0.00    -0.268 A  
ENDBRANCH  10  11
ENDBRANCH   9  10
ENDBRANCH   6   9
TORSDOF 3
ENDMDL
MODEL       61
REMARK 921   NORMALIZED FREE ENERGY PREDICTED BY IDOCK:   -4.66 KCAL/MOL
REMARK 922        TOTAL FREE ENERGY PREDICTED BY IDOCK:   -5.92 KCAL/MOL
REMARK 923 INTER-LIGAND FREE ENERGY PREDICTED BY IDOCK:   -5.52 KCAL/MOL
REMARK 924 INTRA-LIGAND FREE ENERGY PREDICTED BY IDOCK:   -0.40 KCAL/MOL
REMARK 927      BINDING AFFINITY PREDICTED BY RF-SCORE:    0.00 PKD
ROOT
HETATM    1  O   UNL     1     -11.378  15.206  67.210  1.00  0.00    -0.338 OA 
HETATM    2  C   UNL     1     -11.617  14.356  68.248  1.00  0.00    -0.328 A  
HETATM    3  H   UNL     1     -11.199  14.878  66.337  1.00  0.00     0.000 HD 
HETATM    4  C   UNL     1     -11.878  14.837  69.527  1.00  0.00    -0.366 A  
HETATM    5  C   UNL     1     -12.134  13.935  70.562  1.00  0.00    -0.426 A  
HETATM    6  C   UNL     1     -12.150  12.561  70.309  1.00  0.00    -0.294 A  
HETATM    7  C   UNL     1     -11.854  12.091  69.028  1.00  0.00    -0.372 A  
HETATM    8  C   UNL     1     -11.594  12.989  67.993  1.00  0.00    -0.383 A  
ENDROOT
BRANCH   6   9
HETATM    9  O   UNL     1     -12.438  11.597  71.238  1.00  0.00    -0.339 OA 
BRANCH   9  10
HETATM   10  C   UNL     1     -12.560  10.270  70.720  1.00  0.00    -0.352 C  
BRANCH  10  11
HETATM   11  C   UNL     1     -11.557   9.370  71.397  1.00  0.00    -0.451 A  
HETATM   12  C   UNL     1     -10.197   9.442  71.072  1.00  0.00    -0.369 A  
HETATM   13  C   UNL     1      -9.270   8.639  71.738  1.00  0.00    -0.338 A  
HETATM   14  C   UNL     1      -9.696   7.764  72.736  1.00  0.00    -0.292 A  
HETATM   15  C   UNL     1     -11.045   7.688  73.072  1.00  0.00    -0.437 A  
HETATM   16  C   UNL     1     -11.972   8.490  72.408  1.00  0.00    -0.434 A  
ENDBRANCH  10  11
ENDBRANCH   9  10
ENDBRANCH   6   9
TORSDOF 3
ENDMDL
MODEL       62
REMARK 921   NORMALIZED FREE ENERGY PREDICTED BY IDOCK:   -4.66 KCAL/MOL
REMARK 922        TOTAL FREE ENERGY PREDICTED BY IDOCK:   -5.91 KCAL/MOL
REMARK 923 INTER-LIGAND FREE ENERGY PREDICTED BY IDOCK:   -5.42 KCAL/MOL
REMARK 924 INTRA-LIGAND FREE ENERGY PREDICTED BY IDOCK:   -0.49 KCAL/MOL
REMARK 927      BINDING AFFINITY PREDICTED BY RF-SCORE:    0.00 PKD
ROOT
HETATM    1  O   UNL     1     -14.114   8.964  73.346  1.00  0.00    -1.256 OA 
HETATM    2  C   UNL     1     -13.107   9.196  72.457  1.00  0.00    -0.377 A  
HETATM    3  H   UNL     1     -14.198   8.127  73.786  1.00  0.00     0.000 HD 
HETATM    4  C   UNL     1     -12.984  10.423  71.813  1.00  0.00    -0.580 A  
HETATM    5  C   UNL     1     -11.931  10.629  70.920  1.00  0.00    -0.469 A  
HETATM    6  C   UNL     1     -10.994   9.617  70.693  1.00  0.00    -0.320 A  
HETATM    7  C   UNL     1     -11.147   8.379  71.322  1.00  0.00    -0.307 A  
HETATM    8  C   UNL     1     -12.202   8.170  72.212  1.00  0.00    -0.397 A  
ENDROOT
BRANCH   6   9
HETATM    9  O   UNL     1      -9.898   9.732  69.880  1.00  0.00    -0.216 OA 
BRANCH   9  10
HETATM   10  C   UNL     1     -10.161   9.585  68.482  1.00  0.00    -0.199 C  
BRANCH  10  11
HETATM   11  C   UNL     1      -9.921   8.155  68.070  1.00  0.00    -0.222 A  
HETATM   12  C   UNL     1      -8.741   7.494  68.434  1.00  0.00    -0.123 A  
HETATM   13  C   UNL     1      -8.548   6.156  68.090  1.00  0.00    -0.115 A  
HETATM   14  C   UNL     1      -9.535   5.468  67.386  1.00  0.00    -0.121 A  
HETATM   15  C   UNL     1     -10.716   6.113  67.024  1.00  0.00    -0.423 A  
HETATM   16  C   UNL     1     -10.910   7.450  67.368  1.00  0.00    -0.299 A  
ENDBRANCH  10  11
ENDBRANCH   9  10
ENDBRANCH   6   9
TORSDOF 3
ENDMDL
MODEL       63
REMARK 921   NORMALIZED FREE ENERGY PREDICTED BY IDOCK:   -4.66 KCAL/MOL
REMARK 922        TOTAL FREE ENERGY PREDICTED BY IDOCK:   -5.91 KCAL/MOL
REMARK 923 INTER-LIGAND FREE ENERGY PREDICTED BY IDOCK:   -5.60 KCAL/MOL
REMARK 924 INTRA-LIGAND FREE ENERGY PREDICTED BY IDOCK:   -0.31 KCAL/MOL
REMARK 927      BINDING AFFINITY PREDICTED BY RF-SCORE:    0.00 PKD
ROOT
HETATM    1  O   UNL     1     -13.842   6.463  72.278  1.00  0.00    -0.462 OA 
HETATM    2  C   UNL     1     -13.235   7.611  71.864  1.00  0.00    -0.253 A  
HETATM    3  H   UNL     1     -14.648   6.486  72.779  1.00  0.00     0.000 HD 
HETATM    4  C   UNL     1     -12.053   7.576  71.130  1.00  0.00    -0.335 A  
HETATM    5  C   UNL     1     -11.469   8.773  70.710  1.00  0.00    -0.309 A  
HETATM    6  C   UNL     1     -12.080   9.995  71.005  1.00  0.00    -0.373 A  
HETATM    7  C   UNL     1     -13.248  10.016  71.771  1.00  0.00    -0.540 A  
HETATM    8  C   UNL     1     -13.832   8.822  72.195  1.00  0.00    -0.513 A  
ENDROOT
BRANCH   6   9
HETATM    9  O   UNL     1     -11.619  11.219  70.599  1.00  0.00    -0.262 OA 
BRANCH   9  10
HETATM   10  C   UNL     1     -11.793  11.503  69.209  1.00  0.00    -0.348 C  
BRANCH  10  11
HETATM   11  C   UNL     1     -11.742  12.994  68.988  1.00  0.00    -0.376 A  
HETATM   12  C   UNL     1     -11.651  13.523  67.694  1.00  0.00    -0.374 A  
HETATM   13  C   UNL     1     -11.654  14.904  67.497  1.00  0.00    -0.355 A  
HETATM   14  C   UNL     1     -11.755  15.765  68.589  1.00  0.00    -0.353 A  
HETATM   15  C   UNL     1     -11.853  15.250  69.879  1.00  0.00    -0.363 A  
HETATM   16  C   UNL     1     -11.851  13.871  70.078  1.00  0.00    -0.384 A  
ENDBRANCH  10  11
ENDBRANCH   9  10
ENDBRANCH   6   9
TORSDOF 3
ENDMDL
MODEL       64
REMARK 921   NORMALIZED FREE ENERGY PREDICTED BY IDOCK:   -4.65 KCAL/MOL
REMARK 922        TOTAL FREE ENERGY PREDICTED BY IDOCK:   -5.91 KCAL/MOL
REMARK 923 INTER-LIGAND FREE ENERGY PREDICTED BY IDOCK:   -5.53 KCAL/MOL
REMARK 924 INTRA-LIGAND FREE ENERGY PREDICTED BY IDOCK:   -0.37 KCAL/MOL
REMARK 927      BINDING AFFINITY PREDICTED BY RF-SCORE:    0.00 PKD
ROOT
HETATM    1  O   UNL     1     -10.826   5.414  66.748  1.00  0.00    -0.427 OA 
HETATM    2  C   UNL     1     -10.770   6.496  67.575  1.00  0.00    -0.321 A  
HETATM    3  H   UNL     1     -10.963   4.539  67.091  1.00  0.00     0.000 HD 
HETATM    4  C   UNL     1     -10.570   7.777  67.071  1.00  0.00    -0.396 A  
HETATM    5  C   UNL     1     -10.534   8.862  67.949  1.00  0.00    -0.281 A  
HETATM    6  C   UNL     1     -10.721   8.665  69.319  1.00  0.00    -0.136 A  
HETATM    7  C   UNL     1     -10.889   7.370  69.814  1.00  0.00    -0.246 A  
HETATM    8  C   UNL     1     -10.920   6.283  68.940  1.00  0.00    -0.435 A  
ENDROOT
BRANCH   6   9
HETATM    9  O   UNL     1     -10.754   9.663  70.257  1.00  0.00    -0.237 OA 
BRANCH   9  10
HETATM   10  C   UNL     1     -12.012   9.840  70.912  1.00  0.00    -0.328 C  
BRANCH  10  11
HETATM   11  C   UNL     1     -12.336  11.310  70.996  1.00  0.00    -0.472 A  
HETATM   12  C   UNL     1     -11.890  12.199  70.010  1.00  0.00    -0.383 A  
HETATM   13  C   UNL     1     -12.235  13.550  70.071  1.00  0.00    -0.381 A  
HETATM   14  C   UNL     1     -13.035  14.019  71.113  1.00  0.00    -0.402 A  
HETATM   15  C   UNL     1     -13.490  13.142  72.095  1.00  0.00    -0.653 A  
HETATM   16  C   UNL     1     -13.146  11.793  72.036  1.00  0.00    -0.436 A  
ENDBRANCH  10  11
ENDBRANCH   9  10
ENDBRANCH   6   9
TORSDOF 3
ENDMDL
MODEL       65
REMARK 921   NORMALIZED FREE ENERGY PREDICTED BY IDOCK:   -4.61 KCAL/MOL
REMARK 922        TOTAL FREE ENERGY PREDICTED BY IDOCK:   -5.85 KCAL/MOL
REMARK 923 INTER-LIGAND FREE ENERGY PREDICTED BY IDOCK:   -5.47 KCAL/MOL
REMARK 924 INTRA-LIGAND FREE ENERGY PREDICTED BY IDOCK:   -0.38 KCAL/MOL
REMARK 927      BINDING AFFINITY PREDICTED BY RF-SCORE:    0.00 PKD
ROOT
HETATM    1  O   UNL     1     -10.519  16.116  65.099  1.00  0.00    -0.560 OA 
HETATM    2  C   UNL     1     -10.958  14.984  65.717  1.00  0.00    -0.350 A  
HETATM    3  H   UNL     1      -9.889  16.692  65.515  1.00  0.00     0.000 HD 
HETATM    4  C   UNL     1     -11.882  14.142  65.106  1.00  0.00    -0.372 A  
HETATM    5  C   UNL     1     -12.296  12.982  65.765  1.00  0.00    -0.477 A  
HETATM    6  C   UNL     1     -11.769  12.659  67.018  1.00  0.00    -0.369 A  
HETATM    7  C   UNL     1     -10.867  13.530  67.633  1.00  0.00    -0.273 A  
HETATM    8  C   UNL     1     -10.455  14.691  66.979  1.00  0.00    -0.269 A  
ENDROOT
BRANCH   6   9
HETATM    9  O   UNL     1     -12.068  11.525  67.724  1.00  0.00    -0.626 OA 
BRANCH   9  10
HETATM   10  C   UNL     1     -12.260  11.716  69.128  1.00  0.00    -0.137 C  
BRANCH  10  11
HETATM   11  C   UNL     1     -11.726  10.522  69.878  1.00  0.00    -0.372 A  
HETATM   12  C   UNL     1     -10.680   9.754  69.351  1.00  0.00    -0.250 A  
HETATM   13  C   UNL     1     -10.161   8.680  70.075  1.00  0.00    -0.195 A  
HETATM   14  C   UNL     1     -10.678   8.371  71.332  1.00  0.00    -0.298 A  
HETATM   15  C   UNL     1     -11.713   9.132  71.869  1.00  0.00    -0.436 A  
HETATM   16  C   UNL     1     -12.233  10.205  71.148  1.00  0.00    -0.490 A  
ENDBRANCH  10  11
ENDBRANCH   9  10
ENDBRANCH   6   9
TORSDOF 3
ENDMDL
MODEL       66
REMARK 921   NORMALIZED FREE ENERGY PREDICTED BY IDOCK:   -4.61 KCAL/MOL
REMARK 922        TOTAL FREE ENERGY PREDICTED BY IDOCK:   -5.85 KCAL/MOL
REMARK 923 INTER-LIGAND FREE ENERGY PREDICTED BY IDOCK:   -5.28 KCAL/MOL
REMARK 924 INTRA-LIGAND FREE ENERGY PREDICTED BY IDOCK:   -0.57 KCAL/MOL
REMARK 927      BINDING AFFINITY PREDICTED BY RF-SCORE:    0.00 PKD
ROOT
HETATM    1  O   UNL     1     -11.478  11.482  70.352  1.00  0.00    -0.495 OA 
HETATM    2  C   UNL     1     -11.615  12.259  69.241  1.00  0.00    -0.324 A  
HETATM    3  H   UNL     1     -11.273  10.557  70.283  1.00  0.00     0.000 HD 
HETATM    4  C   UNL     1     -11.915  13.614  69.343  1.00  0.00    -0.394 A  
HETATM    5  C   UNL     1     -12.033  14.381  68.183  1.00  0.00    -0.320 A  
HETATM    6  C   UNL     1     -11.827  13.798  66.930  1.00  0.00    -0.413 A  
HETATM    7  C   UNL     1     -11.558  12.430  66.841  1.00  0.00    -0.437 A  
HETATM    8  C   UNL     1     -11.444  11.660  67.998  1.00  0.00    -0.385 A  
ENDROOT
BRANCH   6   9
HETATM    9  O   UNL     1     -11.868  14.469  65.737  1.00  0.00    -0.362 OA 
BRANCH   9  10
HETATM   10  C   UNL     1     -10.597  14.695  65.123  1.00  0.00    -0.421 C  
BRANCH  10  11
HETATM   11  C   UNL     1      -9.835  15.734  65.906  1.00  0.00    -0.381 A  
HETATM   12  C   UNL     1      -8.627  15.410  66.537  1.00  0.00    -0.294 A  
HETATM   13  C   UNL     1      -7.904  16.390  67.219  1.00  0.00    -0.195 A  
HETATM   14  C   UNL     1      -8.380  17.699  67.269  1.00  0.00    -0.225 A  
HETATM   15  C   UNL     1      -9.576  18.034  66.640  1.00  0.00    -0.315 A  
HETATM   16  C   UNL     1     -10.299  17.057  65.958  1.00  0.00    -0.324 A  
ENDBRANCH  10  11
ENDBRANCH   9  10
ENDBRANCH   6   9
TORSDOF 3
ENDMDL
MODEL       67
REMARK 921   NORMALIZED FREE ENERGY PREDICTED BY IDOCK:   -4.60 KCAL/MOL
REMARK 922        TOTAL FREE ENERGY PREDICTED BY IDOCK:   -5.84 KCAL/MOL
REMARK 923 INTER-LIGAND FREE ENERGY PREDICTED BY IDOCK:   -5.53 KCAL/MOL
REMARK 924 INTRA-LIGAND FREE ENERGY PREDICTED BY IDOCK:   -0.31 KCAL/MOL
REMARK 927      BINDING AFFINITY PREDICTED BY RF-SCORE:    0.00 PKD
ROOT
HETATM    1  O   UNL     1     -13.147   6.377  72.287  1.00  0.00    -0.532 OA 
HETATM    2  C   UNL     1     -12.843   7.633  71.856  1.00  0.00    -0.282 A  
HETATM    3  H   UNL     1     -12.604   5.632  72.057  1.00  0.00     0.000 HD 
HETATM    4  C   UNL     1     -13.638   8.723  72.194  1.00  0.00    -0.480 A  
HETATM    5  C   UNL     1     -13.286   9.997  71.745  1.00  0.00    -0.540 A  
HETATM    6  C   UNL     1     -12.129  10.179  70.981  1.00  0.00    -0.377 A  
HETATM    7  C   UNL     1     -11.358   9.071  70.622  1.00  0.00    -0.311 A  
HETATM    8  C   UNL     1     -11.710   7.796  71.066  1.00  0.00    -0.299 A  
ENDROOT
BRANCH   6   9
HETATM    9  O   UNL     1     -11.667  11.388  70.535  1.00  0.00    -0.320 OA 
BRANCH   9  10
HETATM   10  C   UNL     1     -12.440  12.521  70.939  1.00  0.00    -0.269 C  
BRANCH  10  11
HETATM   11  C   UNL     1     -12.158  13.680  70.018  1.00  0.00    -0.417 A  
HETATM   12  C   UNL     1     -12.186  14.997  70.495  1.00  0.00    -0.391 A  
HETATM   13  C   UNL     1     -11.876  16.061  69.647  1.00  0.00    -0.234 A  
HETATM   14  C   UNL     1     -11.529  15.815  68.319  1.00  0.00    -0.338 A  
HETATM   15  C   UNL     1     -11.490  14.509  67.835  1.00  0.00    -0.348 A  
HETATM   16  C   UNL     1     -11.799  13.446  68.682  1.00  0.00    -0.397 A  
ENDBRANCH  10  11
ENDBRANCH   9  10
ENDBRANCH   6   9
TORSDOF 3
ENDMDL
MODEL       68
REMARK 921   NORMALIZED FREE ENERGY PREDICTED BY IDOCK:   -4.60 KCAL/MOL
REMARK 922        TOTAL FREE ENERGY PREDICTED BY IDOCK:   -5.84 KCAL/MOL
REMARK 923 INTER-LIGAND FREE ENERGY PREDICTED BY IDOCK:   -5.39 KCAL/MOL
REMARK 924 INTRA-LIGAND FREE ENERGY PREDICTED BY IDOCK:   -0.45 KCAL/MOL
REMARK 927      BINDING AFFINITY PREDICTED BY RF-SCORE:    0.00 PKD
ROOT
HETATM    1  O   UNL     1     -12.514  16.094  71.557  1.00  0.00    -0.575 OA 
HETATM    2  C   UNL     1     -12.644  14.743  71.428  1.00  0.00    -0.326 A  
HETATM    3  H   UNL     1     -12.012  16.602  70.931  1.00  0.00     0.000 HD 
HETATM    4  C   UNL     1     -13.379  14.000  72.345  1.00  0.00    -0.617 A  
HETATM    5  C   UNL     1     -13.502  12.620  72.171  1.00  0.00    -0.561 A  
HETATM    6  C   UNL     1     -12.910  11.994  71.070  1.00  0.00    -0.187 A  
HETATM    7  C   UNL     1     -12.147  12.748  70.175  1.00  0.00    -0.370 A  
HETATM    8  C   UNL     1     -12.019  14.127  70.349  1.00  0.00    -0.400 A  
ENDROOT
BRANCH   6   9
HETATM    9  O   UNL     1     -13.011  10.660  70.779  1.00  0.00    -0.364 OA 
BRANCH   9  10
HETATM   10  C   UNL     1     -12.361   9.786  71.704  1.00  0.00    -0.408 C  
BRANCH  10  11
HETATM   11  C   UNL     1     -11.073   9.281  71.104  1.00  0.00    -0.411 A  
HETATM   12  C   UNL     1     -10.863   9.326  69.720  1.00  0.00    -0.239 A  
HETATM   13  C   UNL     1      -9.649   8.902  69.178  1.00  0.00    -0.162 A  
HETATM   14  C   UNL     1      -8.635   8.438  70.015  1.00  0.00    -0.131 A  
HETATM   15  C   UNL     1      -8.831   8.395  71.393  1.00  0.00    -0.230 A  
HETATM   16  C   UNL     1     -10.043   8.818  71.936  1.00  0.00    -0.409 A  
ENDBRANCH  10  11
ENDBRANCH   9  10
ENDBRANCH   6   9
TORSDOF 3
ENDMDL
MODEL       69
REMARK 921   NORMALIZED FREE ENERGY PREDICTED BY IDOCK:   -4.59 KCAL/MOL
REMARK 922        TOTAL FREE ENERGY PREDICTED BY IDOCK:   -5.84 KCAL/MOL
REMARK 923 INTER-LIGAND FREE ENERGY PREDICTED BY IDOCK:   -5.43 KCAL/MOL
REMARK 924 INTRA-LIGAND FREE ENERGY PREDICTED BY IDOCK:   -0.40 KCAL/MOL
REMARK 927      BINDING AFFINITY PREDICTED BY RF-SCORE:    0.00 PKD
ROOT
HETATM    1  O   UNL     1     -12.437  14.434  63.233  1.00  0.00    -1.099 OA 
HETATM    2  C   UNL     1     -11.947  13.842  64.359  1.00  0.00    -0.450 A  
HETATM    3  H   UNL     1     -12.034  14.287  62.385  1.00  0.00     0.000 HD 
HETATM    4  C   UNL     1     -12.538  14.057  65.600  1.00  0.00    -0.542 A  
HETATM    5  C   UNL     1     -12.017  13.422  66.729  1.00  0.00    -0.447 A  
HETATM    6  C   UNL     1     -10.925  12.558  66.608  1.00  0.00    -0.266 A  
HETATM    7  C   UNL     1     -10.322  12.377  65.361  1.00  0.00    -0.303 A  
HETATM    8  C   UNL     1     -10.838  13.014  64.233  1.00  0.00    -0.430 A  
ENDROOT
BRANCH   6   9
HETATM    9  O   UNL     1     -10.370  11.849  67.640  1.00  0.00    -0.196 OA 
BRANCH   9  10
HETATM   10  C   UNL     1     -11.265  10.967  68.321  1.00  0.00    -0.277 C  
BRANCH  10  11
HETATM   11  C   UNL     1     -10.749   9.553  68.232  1.00  0.00    -0.241 A  
HETATM   12  C   UNL     1     -10.525   8.951  66.987  1.00  0.00    -0.326 A  
HETATM   13  C   UNL     1     -10.001   7.659  66.914  1.00  0.00    -0.325 A  
HETATM   14  C   UNL     1      -9.691   6.965  68.083  1.00  0.00    -0.134 A  
HETATM   15  C   UNL     1      -9.903   7.557  69.325  1.00  0.00    -0.170 A  
HETATM   16  C   UNL     1     -10.426   8.847  69.400  1.00  0.00    -0.228 A  
ENDBRANCH  10  11
ENDBRANCH   9  10
ENDBRANCH   6   9
TORSDOF 3
ENDMDL
MODEL       70
REMARK 921   NORMALIZED FREE ENERGY PREDICTED BY IDOCK:   -4.59 KCAL/MOL
REMARK 922        TOTAL FREE ENERGY PREDICTED BY IDOCK:   -5.83 KCAL/MOL
REMARK 923 INTER-LIGAND FREE ENERGY PREDICTED BY IDOCK:   -5.43 KCAL/MOL
REMARK 924 INTRA-LIGAND FREE ENERGY PREDICTED BY IDOCK:   -0.40 KCAL/MOL
REMARK 927      BINDING AFFINITY PREDICTED BY RF-SCORE:    0.00 PKD
ROOT
HETATM    1  O   UNL     1     -13.408  11.261  72.205  1.00  0.00    -0.625 OA 
HETATM    2  C   UNL     1     -13.053   9.991  71.861  1.00  0.00    -0.460 A  
HETATM    3  H   UNL     1     -12.800  11.985  72.109  1.00  0.00     0.000 HD 
HETATM    4  C   UNL     1     -13.943   8.931  72.003  1.00  0.00    -0.497 A  
HETATM    5  C   UNL     1     -13.548   7.646  71.625  1.00  0.00    -0.431 A  
HETATM    6  C   UNL     1     -12.276   7.431  71.087  1.00  0.00    -0.324 A  
HETATM    7  C   UNL     1     -11.382   8.499  70.980  1.00  0.00    -0.313 A  
HETATM    8  C   UNL     1     -11.772   9.783  71.361  1.00  0.00    -0.475 A  
ENDROOT
BRANCH   6   9
HETATM    9  O   UNL     1     -11.809   6.224  70.640  1.00  0.00    -0.313 OA 
BRANCH   9  10
HETATM   10  C   UNL     1     -10.432   6.209  70.259  1.00  0.00    -0.229 C  
BRANCH  10  11
HETATM   11  C   UNL     1     -10.287   5.551  68.910  1.00  0.00    -0.289 A  
HETATM   12  C   UNL     1     -10.826   6.146  67.762  1.00  0.00    -0.413 A  
HETATM   13  C   UNL     1     -10.646   5.555  66.511  1.00  0.00    -0.343 A  
HETATM   14  C   UNL     1      -9.919   4.370  66.398  1.00  0.00    -0.252 A  
HETATM   15  C   UNL     1      -9.373   3.773  67.532  1.00  0.00    -0.238 A  
HETATM   16  C   UNL     1      -9.552   4.363  68.782  1.00  0.00    -0.224 A  
ENDBRANCH  10  11
ENDBRANCH   9  10
ENDBRANCH   6   9
TORSDOF 3
ENDMDL
MODEL       71
REMARK 921   NORMALIZED FREE ENERGY PREDICTED BY IDOCK:   -4.58 KCAL/MOL
REMARK 922        TOTAL FREE ENERGY PREDICTED BY IDOCK:   -5.82 KCAL/MOL
REMARK 923 INTER-LIGAND FREE ENERGY PREDICTED BY IDOCK:   -5.46 KCAL/MOL
REMARK 924 INTRA-LIGAND FREE ENERGY PREDICTED BY IDOCK:   -0.36 KCAL/MOL
REMARK 927      BINDING AFFINITY PREDICTED BY RF-SCORE:    0.00 PKD
ROOT
HETATM    1  O   UNL     1     -13.519  10.401  72.372  1.00  0.00    -0.612 OA 
HETATM    2  C   UNL     1     -13.190  11.612  71.841  1.00  0.00    -0.369 A  
HETATM    3  H   UNL     1     -14.092  10.334  73.127  1.00  0.00     0.000 HD 
HETATM    4  C   UNL     1     -12.351  11.710  70.735  1.00  0.00    -0.454 A  
HETATM    5  C   UNL     1     -12.048  12.968  70.211  1.00  0.00    -0.388 A  
HETATM    6  C   UNL     1     -12.602  14.119  70.779  1.00  0.00    -0.362 A  
HETATM    7  C   UNL     1     -13.416  14.008  71.909  1.00  0.00    -0.506 A  
HETATM    8  C   UNL     1     -13.717  12.752  72.437  1.00  0.00    -0.457 A  
ENDROOT
BRANCH   6   9
HETATM    9  O   UNL     1     -12.411  15.392  70.313  1.00  0.00    -0.376 OA 
BRANCH   9  10
HETATM   10  C   UNL     1     -11.071  15.879  70.407  1.00  0.00    -0.370 C  
BRANCH  10  11
HETATM   11  C   UNL     1     -10.358  15.653  69.097  1.00  0.00    -0.241 A  
HETATM   12  C   UNL     1     -11.000  15.908  67.879  1.00  0.00    -0.327 A  
HETATM   13  C   UNL     1     -10.317  15.742  66.674  1.00  0.00    -0.292 A  
HETATM   14  C   UNL     1      -8.985  15.327  66.679  1.00  0.00    -0.324 A  
HETATM   15  C   UNL     1      -8.334  15.078  67.884  1.00  0.00    -0.151 A  
HETATM   16  C   UNL     1      -9.016  15.243  69.089  1.00  0.00    -0.233 A  
ENDBRANCH  10  11
ENDBRANCH   9  10
ENDBRANCH   6   9
TORSDOF 3
ENDMDL
MODEL       72
REMARK 921   NORMALIZED FREE ENERGY PREDICTED BY IDOCK:   -4.56 KCAL/MOL
REMARK 922        TOTAL FREE ENERGY PREDICTED BY IDOCK:   -5.80 KCAL/MOL
REMARK 923 INTER-LIGAND FREE ENERGY PREDICTED BY IDOCK:   -5.53 KCAL/MOL
REMARK 924 INTRA-LIGAND FREE ENERGY PREDICTED BY IDOCK:   -0.27 KCAL/MOL
REMARK 927      BINDING AFFINITY PREDICTED BY RF-SCORE:    0.00 PKD
ROOT
HETATM    1  O   UNL     1      -9.170  21.059  67.032  1.00  0.00    -0.646 OA 
HETATM    2  C   UNL     1      -9.451  19.727  67.072  1.00  0.00    -0.363 A  
HETATM    3  H   UNL     1      -8.679  21.480  67.728  1.00  0.00     0.000 HD 
HETATM    4  C   UNL     1     -10.169  19.111  66.051  1.00  0.00    -0.494 A  
HETATM    5  C   UNL     1     -10.425  17.741  66.121  1.00  0.00    -0.301 A  
HETATM    6  C   UNL     1      -9.943  16.988  67.195  1.00  0.00    -0.281 A  
HETATM    7  C   UNL     1      -9.251  17.625  68.229  1.00  0.00    -0.283 A  
HETATM    8  C   UNL     1      -8.998  18.996  68.164  1.00  0.00    -0.355 A  
ENDROOT
BRANCH   6   9
HETATM    9  O   UNL     1     -10.094  15.635  67.334  1.00  0.00    -0.244 OA 
BRANCH   9  10
HETATM   10  C   UNL     1     -11.438  15.159  67.231  1.00  0.00    -0.279 C  
BRANCH  10  11
HETATM   11  C   UNL     1     -11.577  13.867  67.996  1.00  0.00    -0.368 A  
HETATM   12  C   UNL     1     -11.382  12.634  67.360  1.00  0.00    -0.367 A  
HETATM   13  C   UNL     1     -11.466  11.446  68.087  1.00  0.00    -0.375 A  
HETATM   14  C   UNL     1     -11.736  11.482  69.454  1.00  0.00    -0.413 A  
HETATM   15  C   UNL     1     -11.924  12.703  70.098  1.00  0.00    -0.375 A  
HETATM   16  C   UNL     1     -11.841  13.891  69.374  1.00  0.00    -0.384 A  
ENDBRANCH  10  11
ENDBRANCH   9  10
ENDBRANCH   6   9
TORSDOF 3
ENDMDL
MODEL       73
REMARK 921   NORMALIZED FREE ENERGY PREDICTED BY IDOCK:   -4.55 KCAL/MOL
REMARK 922        TOTAL FREE ENERGY PREDICTED BY IDOCK:   -5.78 KCAL/MOL
REMARK 923 INTER-LIGAND FREE ENERGY PREDICTED BY IDOCK:   -5.17 KCAL/MOL
REMARK 924 INTRA-LIGAND FREE ENERGY PREDICTED BY IDOCK:   -0.61 KCAL/MOL
REMARK 927      BINDING AFFINITY PREDICTED BY RF-SCORE:    0.00 PKD
ROOT
HETATM    1  O   UNL     1      -8.847   9.490  63.710  1.00  0.00    -0.222 OA 
HETATM    2  C   UNL     1      -9.807  10.369  64.116  1.00  0.00    -0.313 A  
HETATM    3  H   UNL     1      -8.594   9.425  62.796  1.00  0.00     0.000 HD 
HETATM    4  C   UNL     1     -10.176  10.463  65.454  1.00  0.00    -0.329 A  
HETATM    5  C   UNL     1     -11.153  11.385  65.834  1.00  0.00    -0.225 A  
HETATM    6  C   UNL     1     -11.737  12.224  64.881  1.00  0.00    -0.352 A  
HETATM    7  C   UNL     1     -11.380  12.096  63.537  1.00  0.00    -0.535 A  
HETATM    8  C   UNL     1     -10.407  11.172  63.153  1.00  0.00    -0.309 A  
ENDROOT
BRANCH   6   9
HETATM    9  O   UNL     1     -12.664  13.194  65.154  1.00  0.00    -0.591 OA 
BRANCH   9  10
HETATM   10  C   UNL     1     -12.281  14.521  64.787  1.00  0.00    -0.431 C  
BRANCH  10  11
HETATM   11  C   UNL     1     -11.271  15.049  65.775  1.00  0.00    -0.318 A  
HETATM   12  C   UNL     1     -11.508  14.966  67.153  1.00  0.00    -0.344 A  
HETATM   13  C   UNL     1     -10.547  15.412  68.061  1.00  0.00    -0.263 A  
HETATM   14  C   UNL     1      -9.341  15.938  67.598  1.00  0.00    -0.217 A  
HETATM   15  C   UNL     1      -9.092  16.018  66.230  1.00  0.00    -0.379 A  
HETATM   16  C   UNL     1     -10.051  15.572  65.322  1.00  0.00    -0.337 A  
ENDBRANCH  10  11
ENDBRANCH   9  10
ENDBRANCH   6   9
TORSDOF 3
ENDMDL
MODEL       74
REMARK 921   NORMALIZED FREE ENERGY PREDICTED BY IDOCK:   -4.54 KCAL/MOL
REMARK 922        TOTAL FREE ENERGY PREDICTED BY IDOCK:   -5.77 KCAL/MOL
REMARK 923 INTER-LIGAND FREE ENERGY PREDICTED BY IDOCK:   -5.31 KCAL/MOL
REMARK 924 INTRA-LIGAND FREE ENERGY PREDICTED BY IDOCK:   -0.46 KCAL/MOL
REMARK 927      BINDING AFFINITY PREDICTED BY RF-SCORE:    0.00 PKD
ROOT
HETATM    1  O   UNL     1      -8.997   5.303  70.744  1.00  0.00    -0.131 OA 
HETATM    2  C   UNL     1      -9.930   6.183  71.205  1.00  0.00    -0.183 A  
HETATM    3  H   UNL     1      -8.086   5.372  71.004  1.00  0.00     0.000 HD 
HETATM    4  C   UNL     1     -11.264   6.082  70.823  1.00  0.00    -0.340 A  
HETATM    5  C   UNL     1     -12.195   6.992  71.328  1.00  0.00    -0.419 A  
HETATM    6  C   UNL     1     -11.792   7.983  72.228  1.00  0.00    -0.369 A  
HETATM    7  C   UNL     1     -10.444   8.092  72.577  1.00  0.00    -0.409 A  
HETATM    8  C   UNL     1      -9.512   7.187  72.070  1.00  0.00    -0.151 A  
ENDROOT
BRANCH   6   9
HETATM    9  O   UNL     1     -12.630   8.890  72.819  1.00  0.00    -0.306 OA 
BRANCH   9  10
HETATM   10  C   UNL     1     -13.590   9.490  71.946  1.00  0.00    -0.391 C  
BRANCH  10  11
HETATM   11  C   UNL     1     -13.024  10.765  71.373  1.00  0.00    -0.535 A  
HETATM   12  C   UNL     1     -12.265  10.745  70.196  1.00  0.00    -0.425 A  
HETATM   13  C   UNL     1     -11.787  11.935  69.646  1.00  0.00    -0.406 A  
HETATM   14  C   UNL     1     -12.070  13.152  70.264  1.00  0.00    -0.399 A  
HETATM   15  C   UNL     1     -12.830  13.184  71.431  1.00  0.00    -0.401 A  
HETATM   16  C   UNL     1     -13.308  11.997  71.981  1.00  0.00    -0.447 A  
ENDBRANCH  10  11
ENDBRANCH   9  10
ENDBRANCH   6   9
TORSDOF 3
ENDMDL
MODEL       75
REMARK 921   NORMALIZED FREE ENERGY PREDICTED BY IDOCK:   -4.54 KCAL/MOL
REMARK 922        TOTAL FREE ENERGY PREDICTED BY IDOCK:   -5.77 KCAL/MOL
REMARK 923 INTER-LIGAND FREE ENERGY PREDICTED BY IDOCK:   -5.42 KCAL/MOL
REMARK 924 INTRA-LIGAND FREE ENERGY PREDICTED BY IDOCK:   -0.35 KCAL/MOL
REMARK 927      BINDING AFFINITY PREDICTED BY RF-SCORE:    0.00 PKD
ROOT
HETATM    1  O   UNL     1      -9.975  10.105  63.121  1.00  0.00    -0.497 OA 
HETATM    2  C   UNL     1     -10.550  11.101  63.852  1.00  0.00    -0.364 A  
HETATM    3  H   UNL     1      -9.454   9.427  63.536  1.00  0.00     0.000 HD 
HETATM    4  C   UNL     1     -11.312  12.092  63.242  1.00  0.00    -0.410 A  
HETATM    5  C   UNL     1     -11.897  13.089  64.026  1.00  0.00    -0.510 A  
HETATM    6  C   UNL     1     -11.737  13.076  65.414  1.00  0.00    -0.364 A  
HETATM    7  C   UNL     1     -10.942  12.094  66.009  1.00  0.00    -0.332 A  
HETATM    8  C   UNL     1     -10.353  11.099  65.228  1.00  0.00    -0.336 A  
ENDROOT
BRANCH   6   9
HETATM    9  O   UNL     1     -12.308  13.974  66.277  1.00  0.00    -0.456 OA 
BRANCH   9  10
HETATM   10  C   UNL     1     -11.542  14.264  67.448  1.00  0.00    -0.369 C  
BRANCH  10  11
HETATM   11  C   UNL     1     -10.749  15.528  67.233  1.00  0.00    -0.308 A  
HETATM   12  C   UNL     1      -9.660  15.550  66.353  1.00  0.00    -0.317 A  
HETATM   13  C   UNL     1      -8.962  16.737  66.124  1.00  0.00    -0.295 A  
HETATM   14  C   UNL     1      -9.353  17.910  66.767  1.00  0.00    -0.279 A  
HETATM   15  C   UNL     1     -10.439  17.902  67.639  1.00  0.00    -0.406 A  
HETATM   16  C   UNL     1     -11.137  16.718  67.868  1.00  0.00    -0.178 A  
ENDBRANCH  10  11
ENDBRANCH   9  10
ENDBRANCH   6   9
TORSDOF 3
ENDMDL
MODEL       76
REMARK 921   NORMALIZED FREE ENERGY PREDICTED BY IDOCK:   -4.53 KCAL/MOL
REMARK 922        TOTAL FREE ENERGY PREDICTED BY IDOCK:   -5.76 KCAL/MOL
REMARK 923 INTER-LIGAND FREE ENERGY PREDICTED BY IDOCK:   -5.47 KCAL/MOL
REMARK 924 INTRA-LIGAND FREE ENERGY PREDICTED BY IDOCK:   -0.29 KCAL/MOL
REMARK 927      BINDING AFFINITY PREDICTED BY RF-SCORE:    0.00 PKD
ROOT
HETATM    1  O   UNL     1     -14.087  13.720  72.734  1.00  0.00    -0.694 OA 
HETATM    2  C   UNL     1     -13.312  13.381  71.665  1.00  0.00    -0.338 A  
HETATM    3  H   UNL     1     -14.244  14.629  72.960  1.00  0.00     0.000 HD 
HETATM    4  C   UNL     1     -13.083  12.050  71.335  1.00  0.00    -0.295 A  
HETATM    5  C   UNL     1     -12.295  11.743  70.224  1.00  0.00    -0.320 A  
HETATM    6  C   UNL     1     -11.761  12.766  69.436  1.00  0.00    -0.319 A  
HETATM    7  C   UNL     1     -11.973  14.098  69.798  1.00  0.00    -0.396 A  
HETATM    8  C   UNL     1     -12.755  14.408  70.911  1.00  0.00    -0.425 A  
ENDROOT
BRANCH   6   9
HETATM    9  O   UNL     1     -11.021  12.574  68.300  1.00  0.00    -0.217 OA 
BRANCH   9  10
HETATM   10  C   UNL     1     -11.779  12.429  67.098  1.00  0.00    -0.345 C  
BRANCH  10  11
HETATM   11  C   UNL     1     -11.539  13.618  66.202  1.00  0.00    -0.369 A  
HETATM   12  C   UNL     1     -12.188  13.726  64.966  1.00  0.00    -0.448 A  
HETATM   13  C   UNL     1     -11.997  14.853  64.165  1.00  0.00    -0.256 A  
HETATM   14  C   UNL     1     -11.163  15.883  64.599  1.00  0.00    -0.361 A  
HETATM   15  C   UNL     1     -10.519  15.790  65.830  1.00  0.00    -0.384 A  
HETATM   16  C   UNL     1     -10.708  14.665  66.630  1.00  0.00    -0.305 A  
ENDBRANCH  10  11
ENDBRANCH   9  10
ENDBRANCH   6   9
TORSDOF 3
ENDMDL
MODEL       77
REMARK 921   NORMALIZED FREE ENERGY PREDICTED BY IDOCK:   -4.48 KCAL/MOL
REMARK 922        TOTAL FREE ENERGY PREDICTED BY IDOCK:   -5.70 KCAL/MOL
REMARK 923 INTER-LIGAND FREE ENERGY PREDICTED BY IDOCK:   -5.22 KCAL/MOL
REMARK 924 INTRA-LIGAND FREE ENERGY PREDICTED BY IDOCK:   -0.48 KCAL/MOL
REMARK 927      BINDING AFFINITY PREDICTED BY RF-SCORE:    0.00 PKD
ROOT
HETATM    1  O   UNL     1      -9.121   9.404  63.781  1.00  0.00    -0.403 OA 
HETATM    2  C   UNL     1      -9.862  10.203  64.600  1.00  0.00    -0.291 A  
HETATM    3  H   UNL     1      -9.144   9.510  62.837  1.00  0.00     0.000 HD 
HETATM    4  C   UNL     1      -9.827  10.047  65.982  1.00  0.00    -0.321 A  
HETATM    5  C   UNL     1     -10.588  10.894  66.789  1.00  0.00    -0.313 A  
HETATM    6  C   UNL     1     -11.361  11.907  66.214  1.00  0.00    -0.334 A  
HETATM    7  C   UNL     1     -11.412  12.031  64.823  1.00  0.00    -0.357 A  
HETATM    8  C   UNL     1     -10.655  11.183  64.014  1.00  0.00    -0.436 A  
ENDROOT
BRANCH   6   9
HETATM    9  O   UNL     1     -12.102  12.821  66.914  1.00  0.00    -0.444 OA 
BRANCH   9  10
HETATM   10  C   UNL     1     -12.364  14.046  66.227  1.00  0.00    -0.448 C  
BRANCH  10  11
HETATM   11  C   UNL     1     -11.349  15.083  66.637  1.00  0.00    -0.289 A  
HETATM   12  C   UNL     1     -10.464  15.629  65.699  1.00  0.00    -0.402 A  
HETATM   13  C   UNL     1      -9.561  16.623  66.078  1.00  0.00    -0.298 A  
HETATM   14  C   UNL     1      -9.542  17.083  67.394  1.00  0.00    -0.246 A  
HETATM   15  C   UNL     1     -10.423  16.553  68.334  1.00  0.00    -0.307 A  
HETATM   16  C   UNL     1     -11.325  15.560  67.957  1.00  0.00    -0.332 A  
ENDBRANCH  10  11
ENDBRANCH   9  10
ENDBRANCH   6   9
TORSDOF 3
ENDMDL
MODEL       78
REMARK 921   NORMALIZED FREE ENERGY PREDICTED BY IDOCK:   -4.46 KCAL/MOL
REMARK 922        TOTAL FREE ENERGY PREDICTED BY IDOCK:   -5.68 KCAL/MOL
REMARK 923 INTER-LIGAND FREE ENERGY PREDICTED BY IDOCK:   -5.33 KCAL/MOL
REMARK 924 INTRA-LIGAND FREE ENERGY PREDICTED BY IDOCK:   -0.36 KCAL/MOL
REMARK 927      BINDING AFFINITY PREDICTED BY RF-SCORE:    0.00 PKD
ROOT
HETATM    1  O   UNL     1      -8.047   8.085  67.742  1.00  0.00    -0.124 OA 
HETATM    2  C   UNL     1      -9.075   8.832  68.234  1.00  0.00    -0.141 A  
HETATM    3  H   UNL     1      -7.994   7.867  66.819  1.00  0.00     0.000 HD 
HETATM    4  C   UNL     1      -9.152   9.151  69.585  1.00  0.00    -0.163 A  
HETATM    5  C   UNL     1     -10.213   9.932  70.049  1.00  0.00    -0.319 A  
HETATM    6  C   UNL     1     -11.177  10.409  69.157  1.00  0.00    -0.246 A  
HETATM    7  C   UNL     1     -11.106  10.054  67.808  1.00  0.00    -0.246 A  
HETATM    8  C   UNL     1     -10.049   9.270  67.343  1.00  0.00    -0.280 A  
ENDROOT
BRANCH   6   9
HETATM    9  O   UNL     1     -12.226  11.221  69.498  1.00  0.00    -0.308 OA 
BRANCH   9  10
HETATM   10  C   UNL     1     -12.400  11.432  70.901  1.00  0.00    -0.381 C  
BRANCH  10  11
HETATM   11  C   UNL     1     -12.772  12.871  71.153  1.00  0.00    -0.366 A  
HETATM   12  C   UNL     1     -13.601  13.218  72.227  1.00  0.00    -0.703 A  
HETATM   13  C   UNL     1     -13.901  14.557  72.481  1.00  0.00    -0.555 A  
HETATM   14  C   UNL     1     -13.370  15.558  71.668  1.00  0.00    -0.585 A  
HETATM   15  C   UNL     1     -12.539  15.224  70.601  1.00  0.00    -0.471 A  
HETATM   16  C   UNL     1     -12.238  13.887  70.346  1.00  0.00    -0.438 A  
ENDBRANCH  10  11
ENDBRANCH   9  10
ENDBRANCH   6   9
TORSDOF 3
ENDMDL
MODEL       79
REMARK 921   NORMALIZED FREE ENERGY PREDICTED BY IDOCK:   -4.43 KCAL/MOL
REMARK 922        TOTAL FREE ENERGY PREDICTED BY IDOCK:   -5.65 KCAL/MOL
REMARK 923 INTER-LIGAND FREE ENERGY PREDICTED BY IDOCK:   -5.20 KCAL/MOL
REMARK 924 INTRA-LIGAND FREE ENERGY PREDICTED BY IDOCK:   -0.45 KCAL/MOL
REMARK 927      BINDING AFFINITY PREDICTED BY RF-SCORE:    0.00 PKD
ROOT
HETATM    1  O   UNL     1      -8.148  20.432  66.075  1.00  0.00    -0.532 OA 
HETATM    2  C   UNL     1      -8.584  19.175  66.368  1.00  0.00    -0.328 A  
HETATM    3  H   UNL     1      -7.225  20.654  66.109  1.00  0.00     0.000 HD 
HETATM    4  C   UNL     1      -9.936  18.851  66.318  1.00  0.00    -0.429 A  
HETATM    5  C   UNL     1     -10.342  17.548  66.611  1.00  0.00    -0.319 A  
HETATM    6  C   UNL     1      -9.395  16.571  66.930  1.00  0.00    -0.232 A  
HETATM    7  C   UNL     1      -8.044  16.918  67.009  1.00  0.00    -0.228 A  
HETATM    8  C   UNL     1      -7.636  18.221  66.721  1.00  0.00    -0.245 A  
ENDROOT
BRANCH   6   9
HETATM    9  O   UNL     1      -9.681  15.256  67.184  1.00  0.00    -0.214 OA 
BRANCH   9  10
HETATM   10  C   UNL     1     -11.047  14.882  66.986  1.00  0.00    -0.338 C  
BRANCH  10  11
HETATM   11  C   UNL     1     -11.165  14.045  65.738  1.00  0.00    -0.303 A  
HETATM   12  C   UNL     1     -10.497  12.818  65.633  1.00  0.00    -0.297 A  
HETATM   13  C   UNL     1     -10.651  12.027  64.493  1.00  0.00    -0.356 A  
HETATM   14  C   UNL     1     -11.479  12.453  63.455  1.00  0.00    -0.561 A  
HETATM   15  C   UNL     1     -12.153  13.668  63.552  1.00  0.00    -0.341 A  
HETATM   16  C   UNL     1     -12.000  14.459  64.689  1.00  0.00    -0.475 A  
ENDBRANCH  10  11
ENDBRANCH   9  10
ENDBRANCH   6   9
TORSDOF 3
ENDMDL
MODEL       80
REMARK 921   NORMALIZED FREE ENERGY PREDICTED BY IDOCK:   -4.43 KCAL/MOL
REMARK 922        TOTAL FREE ENERGY PREDICTED BY IDOCK:   -5.64 KCAL/MOL
REMARK 923 INTER-LIGAND FREE ENERGY PREDICTED BY IDOCK:   -5.43 KCAL/MOL
REMARK 924 INTRA-LIGAND FREE ENERGY PREDICTED BY IDOCK:   -0.22 KCAL/MOL
REMARK 927      BINDING AFFINITY PREDICTED BY RF-SCORE:    0.00 PKD
ROOT
HETATM    1  O   UNL     1     -14.032  13.037  72.822  1.00  0.00    -0.745 OA 
HETATM    2  C   UNL     1     -13.206  13.003  71.738  1.00  0.00    -0.392 A  
HETATM    3  H   UNL     1     -14.367  13.859  73.159  1.00  0.00     0.000 HD 
HETATM    4  C   UNL     1     -12.716  11.798  71.244  1.00  0.00    -0.420 A  
HETATM    5  C   UNL     1     -11.884  11.802  70.123  1.00  0.00    -0.408 A  
HETATM    6  C   UNL     1     -11.565  13.006  69.488  1.00  0.00    -0.276 A  
HETATM    7  C   UNL     1     -12.038  14.210  70.015  1.00  0.00    -0.409 A  
HETATM    8  C   UNL     1     -12.866  14.209  71.138  1.00  0.00    -0.431 A  
ENDROOT
BRANCH   6   9
HETATM    9  O   UNL     1     -10.802  13.116  68.357  1.00  0.00    -0.244 OA 
BRANCH   9  10
HETATM   10  C   UNL     1     -11.355  13.940  67.328  1.00  0.00    -0.323 C  
BRANCH  10  11
HETATM   11  C   UNL     1     -10.478  15.148  67.120  1.00  0.00    -0.280 A  
HETATM   12  C   UNL     1      -9.298  15.055  66.371  1.00  0.00    -0.334 A  
HETATM   13  C   UNL     1      -8.517  16.189  66.143  1.00  0.00    -0.288 A  
HETATM   14  C   UNL     1      -8.913  17.423  66.657  1.00  0.00    -0.274 A  
HETATM   15  C   UNL     1     -10.088  17.529  67.398  1.00  0.00    -0.325 A  
HETATM   16  C   UNL     1     -10.869  16.397  67.626  1.00  0.00    -0.280 A  
ENDBRANCH  10  11
ENDBRANCH   9  10
ENDBRANCH   6   9
TORSDOF 3
ENDMDL
MODEL       81
REMARK 921   NORMALIZED FREE ENERGY PREDICTED BY IDOCK:   -4.42 KCAL/MOL
REMARK 922        TOTAL FREE ENERGY PREDICTED BY IDOCK:   -5.63 KCAL/MOL
REMARK 923 INTER-LIGAND FREE ENERGY PREDICTED BY IDOCK:   -5.46 KCAL/MOL
REMARK 924 INTRA-LIGAND FREE ENERGY PREDICTED BY IDOCK:   -0.17 KCAL/MOL
REMARK 927      BINDING AFFINITY PREDICTED BY RF-SCORE:    0.00 PKD
ROOT
HETATM    1  O   UNL     1     -10.060  13.396  64.675  1.00  0.00    -0.578 OA 
HETATM    2  C   UNL     1     -10.254  12.953  65.949  1.00  0.00    -0.290 A  
HETATM    3  H   UNL     1     -10.751  13.342  64.025  1.00  0.00     0.000 HD 
HETATM    4  C   UNL     1      -9.242  13.033  66.901  1.00  0.00    -0.236 A  
HETATM    5  C   UNL     1      -9.483  12.581  68.200  1.00  0.00    -0.214 A  
HETATM    6  C   UNL     1     -10.739  12.075  68.547  1.00  0.00    -0.234 A  
HETATM    7  C   UNL     1     -11.735  11.971  67.573  1.00  0.00    -0.351 A  
HETATM    8  C   UNL     1     -11.495  12.417  66.273  1.00  0.00    -0.423 A  
ENDROOT
BRANCH   6   9
HETATM    9  O   UNL     1     -11.094  11.654  69.801  1.00  0.00    -0.177 OA 
BRANCH   9  10
HETATM   10  C   UNL     1     -12.467  11.856  70.143  1.00  0.00    -0.077 C  
BRANCH  10  11
HETATM   11  C   UNL     1     -12.630  13.197  70.811  1.00  0.00    -0.338 A  
HETATM   12  C   UNL     1     -12.224  14.373  70.166  1.00  0.00    -0.401 A  
HETATM   13  C   UNL     1     -12.423  15.614  70.773  1.00  0.00    -0.484 A  
HETATM   14  C   UNL     1     -13.035  15.688  72.024  1.00  0.00    -0.530 A  
HETATM   15  C   UNL     1     -13.449  14.527  72.671  1.00  0.00    -0.590 A  
HETATM   16  C   UNL     1     -13.251  13.287  72.067  1.00  0.00    -0.541 A  
ENDBRANCH  10  11
ENDBRANCH   9  10
ENDBRANCH   6   9
TORSDOF 3
ENDMDL
MODEL       82
REMARK 921   NORMALIZED FREE ENERGY PREDICTED BY IDOCK:   -4.42 KCAL/MOL
REMARK 922        TOTAL FREE ENERGY PREDICTED BY IDOCK:   -5.63 KCAL/MOL
REMARK 923 INTER-LIGAND FREE ENERGY PREDICTED BY IDOCK:   -5.07 KCAL/MOL
REMARK 924 INTRA-LIGAND FREE ENERGY PREDICTED BY IDOCK:   -0.55 KCAL/MOL
REMARK 927      BINDING AFFINITY PREDICTED BY RF-SCORE:    0.00 PKD
ROOT
HETATM    1  O   UNL     1     -10.122  20.583  65.672  1.00  0.00    -0.538 OA 
HETATM    2  C   UNL     1      -9.814  19.599  66.562  1.00  0.00    -0.420 A  
HETATM    3  H   UNL     1      -9.658  20.663  64.847  1.00  0.00     0.000 HD 
HETATM    4  C   UNL     1     -10.494  19.482  67.770  1.00  0.00    -0.574 A  
HETATM    5  C   UNL     1     -10.161  18.451  68.651  1.00  0.00    -0.407 A  
HETATM    6  C   UNL     1      -9.167  17.529  68.310  1.00  0.00    -0.277 A  
HETATM    7  C   UNL     1      -8.470  17.678  67.108  1.00  0.00    -0.239 A  
HETATM    8  C   UNL     1      -8.799  18.710  66.229  1.00  0.00    -0.227 A  
ENDROOT
BRANCH   6   9
HETATM    9  O   UNL     1      -8.799  16.455  69.075  1.00  0.00    -0.253 OA 
BRANCH   9  10
HETATM   10  C   UNL     1      -9.874  15.611  69.494  1.00  0.00    -0.289 C  
BRANCH  10  11
HETATM   11  C   UNL     1     -10.342  14.774  68.330  1.00  0.00    -0.233 A  
HETATM   12  C   UNL     1      -9.422  14.094  67.522  1.00  0.00    -0.210 A  
HETATM   13  C   UNL     1      -9.868  13.283  66.477  1.00  0.00    -0.281 A  
HETATM   14  C   UNL     1     -11.234  13.142  66.237  1.00  0.00    -0.328 A  
HETATM   15  C   UNL     1     -12.158  13.808  67.039  1.00  0.00    -0.436 A  
HETATM   16  C   UNL     1     -11.714  14.618  68.083  1.00  0.00    -0.360 A  
ENDBRANCH  10  11
ENDBRANCH   9  10
ENDBRANCH   6   9
TORSDOF 3
ENDMDL
MODEL       83
REMARK 921   NORMALIZED FREE ENERGY PREDICTED BY IDOCK:   -4.41 KCAL/MOL
REMARK 922        TOTAL FREE ENERGY PREDICTED BY IDOCK:   -5.62 KCAL/MOL
REMARK 923 INTER-LIGAND FREE ENERGY PREDICTED BY IDOCK:   -5.20 KCAL/MOL
REMARK 924 INTRA-LIGAND FREE ENERGY PREDICTED BY IDOCK:   -0.42 KCAL/MOL
REMARK 927      BINDING AFFINITY PREDICTED BY RF-SCORE:    0.00 PKD
ROOT
HETATM    1  O   UNL     1     -12.567  12.838  63.039  1.00  0.00    -0.660 OA 
HETATM    2  C   UNL     1     -11.865  12.275  64.063  1.00  0.00    -0.444 A  
HETATM    3  H   UNL     1     -12.409  12.587  62.137  1.00  0.00     0.000 HD 
HETATM    4  C   UNL     1     -12.097  12.643  65.384  1.00  0.00    -0.516 A  
HETATM    5  C   UNL     1     -11.368  12.033  66.406  1.00  0.00    -0.411 A  
HETATM    6  C   UNL     1     -10.429  11.043  66.106  1.00  0.00    -0.244 A  
HETATM    7  C   UNL     1     -10.183  10.706  64.773  1.00  0.00    -0.401 A  
HETATM    8  C   UNL     1     -10.907  11.318  63.749  1.00  0.00    -0.424 A  
ENDROOT
BRANCH   6   9
HETATM    9  O   UNL     1      -9.700  10.348  67.033  1.00  0.00    -0.169 OA 
BRANCH   9  10
HETATM   10  C   UNL     1      -9.491   8.967  66.731  1.00  0.00    -0.187 C  
BRANCH  10  11
HETATM   11  C   UNL     1     -10.075   8.115  67.830  1.00  0.00    -0.246 A  
HETATM   12  C   UNL     1     -10.422   8.679  69.064  1.00  0.00    -0.216 A  
HETATM   13  C   UNL     1     -11.007   7.892  70.058  1.00  0.00    -0.208 A  
HETATM   14  C   UNL     1     -11.255   6.540  69.822  1.00  0.00    -0.456 A  
HETATM   15  C   UNL     1     -10.920   5.971  68.596  1.00  0.00    -0.361 A  
HETATM   16  C   UNL     1     -10.336   6.755  67.602  1.00  0.00    -0.255 A  
ENDBRANCH  10  11
ENDBRANCH   9  10
ENDBRANCH   6   9
TORSDOF 3
ENDMDL
MODEL       84
REMARK 921   NORMALIZED FREE ENERGY PREDICTED BY IDOCK:   -4.39 KCAL/MOL
REMARK 922        TOTAL FREE ENERGY PREDICTED BY IDOCK:   -5.60 KCAL/MOL
REMARK 923 INTER-LIGAND FREE ENERGY PREDICTED BY IDOCK:   -5.27 KCAL/MOL
REMARK 924 INTRA-LIGAND FREE ENERGY PREDICTED BY IDOCK:   -0.33 KCAL/MOL
REMARK 927      BINDING AFFINITY PREDICTED BY RF-SCORE:    0.00 PKD
ROOT
HETATM    1  O   UNL     1      -9.714   7.852  70.444  1.00  0.00    -0.178 OA 
HETATM    2  C   UNL     1     -10.287   8.845  69.707  1.00  0.00    -0.207 A  
HETATM    3  H   UNL     1      -9.912   7.748  71.367  1.00  0.00     0.000 HD 
HETATM    4  C   UNL     1      -9.997   8.997  68.355  1.00  0.00    -0.200 A  
HETATM    5  C   UNL     1     -10.614  10.018  67.630  1.00  0.00    -0.323 A  
HETATM    6  C   UNL     1     -11.535  10.865  68.252  1.00  0.00    -0.305 A  
HETATM    7  C   UNL     1     -11.792  10.722  69.618  1.00  0.00    -0.392 A  
HETATM    8  C   UNL     1     -11.173   9.706  70.346  1.00  0.00    -0.342 A  
ENDROOT
BRANCH   6   9
HETATM    9  O   UNL     1     -12.232  11.862  67.623  1.00  0.00    -0.510 OA 
BRANCH   9  10
HETATM   10  C   UNL     1     -11.885  13.190  68.019  1.00  0.00    -0.358 C  
BRANCH  10  11
HETATM   11  C   UNL     1     -11.709  14.054  66.796  1.00  0.00    -0.430 A  
HETATM   12  C   UNL     1     -10.682  15.003  66.731  1.00  0.00    -0.308 A  
HETATM   13  C   UNL     1     -10.498  15.764  65.576  1.00  0.00    -0.425 A  
HETATM   14  C   UNL     1     -11.334  15.576  64.476  1.00  0.00    -0.322 A  
HETATM   15  C   UNL     1     -12.354  14.630  64.527  1.00  0.00    -0.416 A  
HETATM   16  C   UNL     1     -12.539  13.869  65.680  1.00  0.00    -0.553 A  
ENDBRANCH  10  11
ENDBRANCH   9  10
ENDBRANCH   6   9
TORSDOF 3
ENDMDL
MODEL       85
REMARK 921   NORMALIZED FREE ENERGY PREDICTED BY IDOCK:   -4.38 KCAL/MOL
REMARK 922        TOTAL FREE ENERGY PREDICTED BY IDOCK:   -5.59 KCAL/MOL
REMARK 923 INTER-LIGAND FREE ENERGY PREDICTED BY IDOCK:   -5.25 KCAL/MOL
REMARK 924 INTRA-LIGAND FREE ENERGY PREDICTED BY IDOCK:   -0.34 KCAL/MOL
REMARK 927      BINDING AFFINITY PREDICTED BY RF-SCORE:    0.00 PKD
ROOT
HETATM    1  O   UNL     1     -14.360   8.922  73.011  1.00  0.00    -1.115 OA 
HETATM    2  C   UNL     1     -13.342   8.594  72.167  1.00  0.00    -0.396 A  
HETATM    3  H   UNL     1     -15.035   8.293  73.236  1.00  0.00     0.000 HD 
HETATM    4  C   UNL     1     -12.353   9.516  71.838  1.00  0.00    -0.450 A  
HETATM    5  C   UNL     1     -11.318   9.138  70.981  1.00  0.00    -0.377 A  
HETATM    6  C   UNL     1     -11.262   7.836  70.477  1.00  0.00    -0.257 A  
HETATM    7  C   UNL     1     -12.278   6.930  70.790  1.00  0.00    -0.364 A  
HETATM    8  C   UNL     1     -13.317   7.307  71.642  1.00  0.00    -0.421 A  
ENDROOT
BRANCH   6   9
HETATM    9  O   UNL     1     -10.266   7.349  69.674  1.00  0.00    -0.199 OA 
BRANCH   9  10
HETATM   10  C   UNL     1     -10.711   6.668  68.499  1.00  0.00    -0.256 C  
BRANCH  10  11
HETATM   11  C   UNL     1     -10.091   5.295  68.446  1.00  0.00    -0.224 A  
HETATM   12  C   UNL     1      -9.790   4.599  69.623  1.00  0.00    -0.293 A  
HETATM   13  C   UNL     1      -9.262   3.309  69.564  1.00  0.00    -0.225 A  
HETATM   14  C   UNL     1      -9.038   2.703  68.328  1.00  0.00    -0.228 A  
HETATM   15  C   UNL     1      -9.340   3.383  67.151  1.00  0.00    -0.224 A  
HETATM   16  C   UNL     1      -9.868   4.671  67.208  1.00  0.00    -0.218 A  
ENDBRANCH  10  11
ENDBRANCH   9  10
ENDBRANCH   6   9
TORSDOF 3
ENDMDL
MODEL       86
REMARK 921   NORMALIZED FREE ENERGY PREDICTED BY IDOCK:   -4.37 KCAL/MOL
REMARK 922        TOTAL FREE ENERGY PREDICTED BY IDOCK:   -5.57 KCAL/MOL
REMARK 923 INTER-LIGAND FREE ENERGY PREDICTED BY IDOCK:   -5.05 KCAL/MOL
REMARK 924 INTRA-LIGAND FREE ENERGY PREDICTED BY IDOCK:   -0.52 KCAL/MOL
REMARK 927      BINDING AFFINITY PREDICTED BY RF-SCORE:    0.00 PKD
ROOT
HETATM    1  O   UNL     1     -10.933   4.635  65.454  1.00  0.00    -0.742 OA 
HETATM    2  C   UNL     1     -10.625   5.235  66.638  1.00  0.00    -0.270 A  
HETATM    3  H   UNL     1     -11.415   5.097  64.778  1.00  0.00     0.000 HD 
HETATM    4  C   UNL     1      -9.919   4.558  67.626  1.00  0.00    -0.138 A  
HETATM    5  C   UNL     1      -9.610   5.211  68.821  1.00  0.00    -0.198 A  
HETATM    6  C   UNL     1      -9.987   6.543  69.012  1.00  0.00    -0.145 A  
HETATM    7  C   UNL     1     -10.724   7.200  68.024  1.00  0.00    -0.232 A  
HETATM    8  C   UNL     1     -11.038   6.548  66.831  1.00  0.00    -0.342 A  
ENDROOT
BRANCH   6   9
HETATM    9  O   UNL     1      -9.691   7.289  70.121  1.00  0.00    -0.172 OA 
BRANCH   9  10
HETATM   10  C   UNL     1     -10.329   6.865  71.328  1.00  0.00    -0.203 C  
BRANCH  10  11
HETATM   11  C   UNL     1     -11.661   7.558  71.465  1.00  0.00    -0.309 A  
HETATM   12  C   UNL     1     -12.858   6.847  71.304  1.00  0.00    -0.336 A  
HETATM   13  C   UNL     1     -14.086   7.486  71.481  1.00  0.00    -0.550 A  
HETATM   14  C   UNL     1     -14.126   8.836  71.827  1.00  0.00    -0.468 A  
HETATM   15  C   UNL     1     -12.943   9.551  71.998  1.00  0.00    -0.514 A  
HETATM   16  C   UNL     1     -11.715   8.914  71.821  1.00  0.00    -0.432 A  
ENDBRANCH  10  11
ENDBRANCH   9  10
ENDBRANCH   6   9
TORSDOF 3
ENDMDL
MODEL       87
REMARK 921   NORMALIZED FREE ENERGY PREDICTED BY IDOCK:   -4.33 KCAL/MOL
REMARK 922        TOTAL FREE ENERGY PREDICTED BY IDOCK:   -5.53 KCAL/MOL
REMARK 923 INTER-LIGAND FREE ENERGY PREDICTED BY IDOCK:   -5.28 KCAL/MOL
REMARK 924 INTRA-LIGAND FREE ENERGY PREDICTED BY IDOCK:   -0.25 KCAL/MOL
REMARK 927      BINDING AFFINITY PREDICTED BY RF-SCORE:    0.00 PKD
ROOT
HETATM    1  O   UNL     1      -9.503   8.647  65.674  1.00  0.00    -0.410 OA 
HETATM    2  C   UNL     1     -10.103   9.814  66.039  1.00  0.00    -0.251 A  
HETATM    3  H   UNL     1      -9.259   7.996  66.322  1.00  0.00     0.000 HD 
HETATM    4  C   UNL     1     -10.461  10.767  65.090  1.00  0.00    -0.299 A  
HETATM    5  C   UNL     1     -11.088  11.945  65.500  1.00  0.00    -0.356 A  
HETATM    6  C   UNL     1     -11.376  12.154  66.851  1.00  0.00    -0.343 A  
HETATM    7  C   UNL     1     -10.982  11.204  67.797  1.00  0.00    -0.315 A  
HETATM    8  C   UNL     1     -10.351  10.028  67.390  1.00  0.00    -0.292 A  
ENDROOT
BRANCH   6   9
HETATM    9  O   UNL     1     -12.031  13.247  67.352  1.00  0.00    -0.363 OA 
BRANCH   9  10
HETATM   10  C   UNL     1     -11.198  14.212  67.998  1.00  0.00    -0.281 C  
BRANCH  10  11
HETATM   11  C   UNL     1     -11.687  14.441  69.406  1.00  0.00    -0.362 A  
HETATM   12  C   UNL     1     -11.737  15.733  69.945  1.00  0.00    -0.365 A  
HETATM   13  C   UNL     1     -12.236  15.940  71.231  1.00  0.00    -0.473 A  
HETATM   14  C   UNL     1     -12.695  14.860  71.984  1.00  0.00    -0.394 A  
HETATM   15  C   UNL     1     -12.657  13.572  71.455  1.00  0.00    -0.358 A  
HETATM   16  C   UNL     1     -12.158  13.363  70.170  1.00  0.00    -0.415 A  
ENDBRANCH  10  11
ENDBRANCH   9  10
ENDBRANCH   6   9
TORSDOF 3
ENDMDL
MODEL       88
REMARK 921   NORMALIZED FREE ENERGY PREDICTED BY IDOCK:   -4.32 KCAL/MOL
REMARK 922        TOTAL FREE ENERGY PREDICTED BY IDOCK:   -5.52 KCAL/MOL
REMARK 923 INTER-LIGAND FREE ENERGY PREDICTED BY IDOCK:   -5.07 KCAL/MOL
REMARK 924 INTRA-LIGAND FREE ENERGY PREDICTED BY IDOCK:   -0.44 KCAL/MOL
REMARK 927      BINDING AFFINITY PREDICTED BY RF-SCORE:    0.00 PKD
ROOT
HETATM    1  O   UNL     1     -10.117   4.064  66.516  1.00  0.00    -0.376 OA 
HETATM    2  C   UNL     1      -9.930   5.413  66.467  1.00  0.00    -0.196 A  
HETATM    3  H   UNL     1      -9.490   3.466  66.128  1.00  0.00     0.000 HD 
HETATM    4  C   UNL     1     -10.849   6.289  67.035  1.00  0.00    -0.458 A  
HETATM    5  C   UNL     1     -10.615   7.664  66.978  1.00  0.00    -0.406 A  
HETATM    6  C   UNL     1      -9.454   8.155  66.375  1.00  0.00    -0.218 A  
HETATM    7  C   UNL     1      -8.556   7.266  65.779  1.00  0.00    -0.143 A  
HETATM    8  C   UNL     1      -8.790   5.892  65.831  1.00  0.00    -0.154 A  
ENDROOT
BRANCH   6   9
HETATM    9  O   UNL     1      -9.104   9.478  66.310  1.00  0.00    -0.149 OA 
BRANCH   9  10
HETATM   10  C   UNL     1      -9.134  10.050  65.000  1.00  0.00    -0.211 C  
BRANCH  10  11
HETATM   11  C   UNL     1     -10.306  10.992  64.886  1.00  0.00    -0.378 A  
HETATM   12  C   UNL     1     -10.816  11.640  66.018  1.00  0.00    -0.339 A  
HETATM   13  C   UNL     1     -11.870  12.547  65.896  1.00  0.00    -0.489 A  
HETATM   14  C   UNL     1     -12.416  12.816  64.641  1.00  0.00    -0.525 A  
HETATM   15  C   UNL     1     -11.913  12.182  63.508  1.00  0.00    -0.619 A  
HETATM   16  C   UNL     1     -10.860  11.276  63.629  1.00  0.00    -0.410 A  
ENDBRANCH  10  11
ENDBRANCH   9  10
ENDBRANCH   6   9
TORSDOF 3
ENDMDL
MODEL       89
REMARK 921   NORMALIZED FREE ENERGY PREDICTED BY IDOCK:   -4.31 KCAL/MOL
REMARK 922        TOTAL FREE ENERGY PREDICTED BY IDOCK:   -5.51 KCAL/MOL
REMARK 923 INTER-LIGAND FREE ENERGY PREDICTED BY IDOCK:   -5.11 KCAL/MOL
REMARK 924 INTRA-LIGAND FREE ENERGY PREDICTED BY IDOCK:   -0.40 KCAL/MOL
REMARK 927      BINDING AFFINITY PREDICTED BY RF-SCORE:    0.00 PKD
ROOT
HETATM    1  O   UNL     1     -12.351  12.695  70.631  1.00  0.00    -0.359 OA 
HETATM    2  C   UNL     1     -11.803  13.411  69.609  1.00  0.00    -0.331 A  
HETATM    3  H   UNL     1     -12.285  11.748  70.659  1.00  0.00     0.000 HD 
HETATM    4  C   UNL     1     -11.900  14.798  69.569  1.00  0.00    -0.366 A  
HETATM    5  C   UNL     1     -11.313  15.498  68.513  1.00  0.00    -0.356 A  
HETATM    6  C   UNL     1     -10.612  14.812  67.518  1.00  0.00    -0.259 A  
HETATM    7  C   UNL     1     -10.550  13.417  67.553  1.00  0.00    -0.255 A  
HETATM    8  C   UNL     1     -11.140  12.714  68.605  1.00  0.00    -0.305 A  
ENDROOT
BRANCH   6   9
HETATM    9  O   UNL     1      -9.958  15.404  66.470  1.00  0.00    -0.249 OA 
BRANCH   9  10
HETATM   10  C   UNL     1     -10.637  16.515  65.880  1.00  0.00    -0.270 C  
BRANCH  10  11
HETATM   11  C   UNL     1      -9.936  17.795  66.257  1.00  0.00    -0.322 A  
HETATM   12  C   UNL     1     -10.660  18.980  66.441  1.00  0.00    -0.492 A  
HETATM   13  C   UNL     1     -10.009  20.149  66.838  1.00  0.00    -0.600 A  
HETATM   14  C   UNL     1      -8.632  20.139  67.060  1.00  0.00    -0.408 A  
HETATM   15  C   UNL     1      -7.904  18.965  66.887  1.00  0.00    -0.256 A  
HETATM   16  C   UNL     1      -8.553  17.797  66.491  1.00  0.00    -0.283 A  
ENDBRANCH  10  11
ENDBRANCH   9  10
ENDBRANCH   6   9
TORSDOF 3
ENDMDL
MODEL       90
REMARK 921   NORMALIZED FREE ENERGY PREDICTED BY IDOCK:   -4.31 KCAL/MOL
REMARK 922        TOTAL FREE ENERGY PREDICTED BY IDOCK:   -5.50 KCAL/MOL
REMARK 923 INTER-LIGAND FREE ENERGY PREDICTED BY IDOCK:   -5.10 KCAL/MOL
REMARK 924 INTRA-LIGAND FREE ENERGY PREDICTED BY IDOCK:   -0.40 KCAL/MOL
REMARK 927      BINDING AFFINITY PREDICTED BY RF-SCORE:    0.00 PKD
ROOT
HETATM    1  O   UNL     1     -13.514  11.044  72.359  1.00  0.00    -0.591 OA 
HETATM    2  C   UNL     1     -13.107   9.811  71.945  1.00  0.00    -0.446 A  
HETATM    3  H   UNL     1     -12.925  11.790  72.338  1.00  0.00     0.000 HD 
HETATM    4  C   UNL     1     -13.970   8.721  71.977  1.00  0.00    -0.511 A  
HETATM    5  C   UNL     1     -13.522   7.476  71.531  1.00  0.00    -0.426 A  
HETATM    6  C   UNL     1     -12.224   7.333  71.034  1.00  0.00    -0.313 A  
HETATM    7  C   UNL     1     -11.358   8.429  71.039  1.00  0.00    -0.303 A  
HETATM    8  C   UNL     1     -11.801   9.673  71.488  1.00  0.00    -0.483 A  
ENDROOT
BRANCH   6   9
HETATM    9  O   UNL     1     -11.703   6.172  70.527  1.00  0.00    -0.293 OA 
BRANCH   9  10
HETATM   10  C   UNL     1     -10.345   5.907  70.886  1.00  0.00    -0.229 C  
BRANCH  10  11
HETATM   11  C   UNL     1     -10.280   4.658  71.728  1.00  0.00    -0.242 A  
HETATM   12  C   UNL     1     -10.870   4.618  72.997  1.00  0.00    -0.321 A  
HETATM   13  C   UNL     1     -10.847   3.442  73.748  1.00  0.00    -0.314 A  
HETATM   14  C   UNL     1     -10.240   2.297  73.233  1.00  0.00    -0.199 A  
HETATM   15  C   UNL     1      -9.656   2.323  71.969  1.00  0.00    -0.191 A  
HETATM   16  C   UNL     1      -9.679   3.497  71.217  1.00  0.00    -0.237 A  
ENDBRANCH  10  11
ENDBRANCH   9  10
ENDBRANCH   6   9
TORSDOF 3
ENDMDL
MODEL       91
REMARK 921   NORMALIZED FREE ENERGY PREDICTED BY IDOCK:   -4.30 KCAL/MOL
REMARK 922        TOTAL FREE ENERGY PREDICTED BY IDOCK:   -5.49 KCAL/MOL
REMARK 923 INTER-LIGAND FREE ENERGY PREDICTED BY IDOCK:   -5.12 KCAL/MOL
REMARK 924 INTRA-LIGAND FREE ENERGY PREDICTED BY IDOCK:   -0.37 KCAL/MOL
REMARK 927      BINDING AFFINITY PREDICTED BY RF-SCORE:    0.00 PKD
ROOT
HETATM    1  O   UNL     1     -12.073  12.987  69.588  1.00  0.00    -0.297 OA 
HETATM    2  C   UNL     1     -12.137  11.843  70.326  1.00  0.00    -0.325 A  
HETATM    3  H   UNL     1     -11.465  13.073  68.864  1.00  0.00     0.000 HD 
HETATM    4  C   UNL     1     -13.028  11.718  71.387  1.00  0.00    -0.408 A  
HETATM    5  C   UNL     1     -13.074  10.525  72.109  1.00  0.00    -0.413 A  
HETATM    6  C   UNL     1     -12.248   9.455  71.754  1.00  0.00    -0.390 A  
HETATM    7  C   UNL     1     -11.335   9.605  70.707  1.00  0.00    -0.409 A  
HETATM    8  C   UNL     1     -11.284  10.799  69.986  1.00  0.00    -0.366 A  
ENDROOT
BRANCH   6   9
HETATM    9  O   UNL     1     -12.250   8.228  72.362  1.00  0.00    -0.361 OA 
BRANCH   9  10
HETATM   10  C   UNL     1     -12.548   7.125  71.503  1.00  0.00    -0.390 C  
BRANCH  10  11
HETATM   11  C   UNL     1     -11.531   6.032  71.714  1.00  0.00    -0.314 A  
HETATM   12  C   UNL     1     -11.518   5.285  72.899  1.00  0.00    -0.339 A  
HETATM   13  C   UNL     1     -10.604   4.243  73.065  1.00  0.00    -0.265 A  
HETATM   14  C   UNL     1      -9.702   3.937  72.046  1.00  0.00    -0.232 A  
HETATM   15  C   UNL     1      -9.711   4.669  70.861  1.00  0.00    -0.262 A  
HETATM   16  C   UNL     1     -10.623   5.710  70.694  1.00  0.00    -0.347 A  
ENDBRANCH  10  11
ENDBRANCH   9  10
ENDBRANCH   6   9
TORSDOF 3
ENDMDL
MODEL       92
REMARK 921   NORMALIZED FREE ENERGY PREDICTED BY IDOCK:   -4.28 KCAL/MOL
REMARK 922        TOTAL FREE ENERGY PREDICTED BY IDOCK:   -5.47 KCAL/MOL
REMARK 923 INTER-LIGAND FREE ENERGY PREDICTED BY IDOCK:   -5.13 KCAL/MOL
REMARK 924 INTRA-LIGAND FREE ENERGY PREDICTED BY IDOCK:   -0.34 KCAL/MOL
REMARK 927      BINDING AFFINITY PREDICTED BY RF-SCORE:    0.00 PKD
ROOT
HETATM    1  O   UNL     1      -6.895  16.932  68.005  1.00  0.00    -0.143 OA 
HETATM    2  C   UNL     1      -8.133  16.375  67.883  1.00  0.00    -0.158 A  
HETATM    3  H   UNL     1      -6.289  16.947  67.274  1.00  0.00     0.000 HD 
HETATM    4  C   UNL     1      -9.021  16.353  68.954  1.00  0.00    -0.256 A  
HETATM    5  C   UNL     1     -10.286  15.787  68.787  1.00  0.00    -0.220 A  
HETATM    6  C   UNL     1     -10.666  15.269  67.547  1.00  0.00    -0.285 A  
HETATM    7  C   UNL     1      -9.754  15.269  66.489  1.00  0.00    -0.287 A  
HETATM    8  C   UNL     1      -8.487  15.829  66.655  1.00  0.00    -0.323 A  
ENDROOT
BRANCH   6   9
HETATM    9  O   UNL     1     -11.897  14.740  67.263  1.00  0.00    -0.378 OA 
BRANCH   9  10
HETATM   10  C   UNL     1     -11.995  13.321  67.403  1.00  0.00    -0.335 C  
BRANCH  10  11
HETATM   11  C   UNL     1     -11.672  12.660  66.087  1.00  0.00    -0.461 A  
HETATM   12  C   UNL     1     -10.638  11.719  65.993  1.00  0.00    -0.302 A  
HETATM   13  C   UNL     1     -10.377  11.077  64.782  1.00  0.00    -0.389 A  
HETATM   14  C   UNL     1     -11.153  11.365  63.659  1.00  0.00    -0.411 A  
HETATM   15  C   UNL     1     -12.187  12.293  63.742  1.00  0.00    -0.642 A  
HETATM   16  C   UNL     1     -12.449  12.935  64.951  1.00  0.00    -0.540 A  
ENDBRANCH  10  11
ENDBRANCH   9  10
ENDBRANCH   6   9
TORSDOF 3
ENDMDL
MODEL       93
REMARK 921   NORMALIZED FREE ENERGY PREDICTED BY IDOCK:   -4.27 KCAL/MOL
REMARK 922        TOTAL FREE ENERGY PREDICTED BY IDOCK:   -5.45 KCAL/MOL
REMARK 923 INTER-LIGAND FREE ENERGY PREDICTED BY IDOCK:   -4.91 KCAL/MOL
REMARK 924 INTRA-LIGAND FREE ENERGY PREDICTED BY IDOCK:   -0.55 KCAL/MOL
REMARK 927      BINDING AFFINITY PREDICTED BY RF-SCORE:    0.00 PKD
ROOT
HETATM    1  O   UNL     1      -8.073  19.137  67.965  1.00  0.00    -0.280 OA 
HETATM    2  C   UNL     1      -8.711  18.149  67.276  1.00  0.00    -0.244 A  
HETATM    3  H   UNL     1      -7.202  19.006  68.320  1.00  0.00     0.000 HD 
HETATM    4  C   UNL     1      -9.987  18.343  66.756  1.00  0.00    -0.374 A  
HETATM    5  C   UNL     1     -10.602  17.312  66.043  1.00  0.00    -0.217 A  
HETATM    6  C   UNL     1      -9.931  16.104  65.833  1.00  0.00    -0.356 A  
HETATM    7  C   UNL     1      -8.664  15.912  66.389  1.00  0.00    -0.362 A  
HETATM    8  C   UNL     1      -8.049  16.939  67.106  1.00  0.00    -0.214 A  
ENDROOT
BRANCH   6   9
HETATM    9  O   UNL     1     -10.422  15.051  65.108  1.00  0.00    -0.373 OA 
BRANCH   9  10
HETATM   10  C   UNL     1     -11.760  14.663  65.429  1.00  0.00    -0.330 C  
BRANCH  10  11
HETATM   11  C   UNL     1     -11.749  13.768  66.642  1.00  0.00    -0.421 A  
HETATM   12  C   UNL     1     -12.123  14.260  67.899  1.00  0.00    -0.296 A  
HETATM   13  C   UNL     1     -12.156  13.412  69.007  1.00  0.00    -0.299 A  
HETATM   14  C   UNL     1     -11.825  12.065  68.864  1.00  0.00    -0.356 A  
HETATM   15  C   UNL     1     -11.459  11.563  67.617  1.00  0.00    -0.357 A  
HETATM   16  C   UNL     1     -11.425  12.409  66.510  1.00  0.00    -0.427 A  
ENDBRANCH  10  11
ENDBRANCH   9  10
ENDBRANCH   6   9
TORSDOF 3
ENDMDL
MODEL       94
REMARK 921   NORMALIZED FREE ENERGY PREDICTED BY IDOCK:   -4.26 KCAL/MOL
REMARK 922        TOTAL FREE ENERGY PREDICTED BY IDOCK:   -5.44 KCAL/MOL
REMARK 923 INTER-LIGAND FREE ENERGY PREDICTED BY IDOCK:   -5.08 KCAL/MOL
REMARK 924 INTRA-LIGAND FREE ENERGY PREDICTED BY IDOCK:   -0.36 KCAL/MOL
REMARK 927      BINDING AFFINITY PREDICTED BY RF-SCORE:    0.00 PKD
ROOT
HETATM    1  O   UNL     1      -6.469  17.368  66.791  1.00  0.00    -0.164 OA 
HETATM    2  C   UNL     1      -7.651  16.781  67.132  1.00  0.00    -0.188 A  
HETATM    3  H   UNL     1      -6.307  18.287  66.965  1.00  0.00     0.000 HD 
HETATM    4  C   UNL     1      -7.887  15.435  66.877  1.00  0.00    -0.196 A  
HETATM    5  C   UNL     1      -9.104  14.866  67.255  1.00  0.00    -0.211 A  
HETATM    6  C   UNL     1     -10.069  15.639  67.907  1.00  0.00    -0.225 A  
HETATM    7  C   UNL     1      -9.832  16.997  68.128  1.00  0.00    -0.273 A  
HETATM    8  C   UNL     1      -8.617  17.569  67.747  1.00  0.00    -0.230 A  
ENDROOT
BRANCH   6   9
HETATM    9  O   UNL     1     -11.271  15.169  68.364  1.00  0.00    -0.270 OA 
BRANCH   9  10
HETATM   10  C   UNL     1     -11.810  15.868  69.488  1.00  0.00    -0.301 C  
BRANCH  10  11
HETATM   11  C   UNL     1     -12.472  14.888  70.423  1.00  0.00    -0.403 A  
HETATM   12  C   UNL     1     -12.229  13.514  70.309  1.00  0.00    -0.417 A  
HETATM   13  C   UNL     1     -12.809  12.619  71.209  1.00  0.00    -0.344 A  
HETATM   14  C   UNL     1     -13.628  13.092  72.234  1.00  0.00    -0.677 A  
HETATM   15  C   UNL     1     -13.871  14.457  72.361  1.00  0.00    -0.595 A  
HETATM   16  C   UNL     1     -13.292  15.353  71.462  1.00  0.00    -0.586 A  
ENDBRANCH  10  11
ENDBRANCH   9  10
ENDBRANCH   6   9
TORSDOF 3
ENDMDL
MODEL       95
REMARK 921   NORMALIZED FREE ENERGY PREDICTED BY IDOCK:   -4.25 KCAL/MOL
REMARK 922        TOTAL FREE ENERGY PREDICTED BY IDOCK:   -5.44 KCAL/MOL
REMARK 923 INTER-LIGAND FREE ENERGY PREDICTED BY IDOCK:   -5.08 KCAL/MOL
REMARK 924 INTRA-LIGAND FREE ENERGY PREDICTED BY IDOCK:   -0.36 KCAL/MOL
REMARK 927      BINDING AFFINITY PREDICTED BY RF-SCORE:    0.00 PKD
ROOT
HETATM    1  O   UNL     1     -11.143  13.507  66.380  1.00  0.00    -0.298 OA 
HETATM    2  C   UNL     1     -10.962  14.842  66.586  1.00  0.00    -0.325 A  
HETATM    3  H   UNL     1     -11.087  13.132  65.509  1.00  0.00     0.000 HD 
HETATM    4  C   UNL     1     -11.044  15.391  67.862  1.00  0.00    -0.323 A  
HETATM    5  C   UNL     1     -10.839  16.761  68.035  1.00  0.00    -0.341 A  
HETATM    6  C   UNL     1     -10.530  17.570  66.939  1.00  0.00    -0.285 A  
HETATM    7  C   UNL     1     -10.483  17.011  65.659  1.00  0.00    -0.229 A  
HETATM    8  C   UNL     1     -10.693  15.643  65.483  1.00  0.00    -0.403 A  
ENDROOT
BRANCH   6   9
HETATM    9  O   UNL     1     -10.261  18.911  67.006  1.00  0.00    -0.334 OA 
BRANCH   9  10
HETATM   10  C   UNL     1      -9.097  19.334  66.292  1.00  0.00    -0.329 C  
BRANCH  10  11
HETATM   11  C   UNL     1      -8.032  19.763  67.269  1.00  0.00    -0.320 A  
HETATM   12  C   UNL     1      -7.878  19.103  68.495  1.00  0.00    -0.380 A  
HETATM   13  C   UNL     1      -6.858  19.475  69.372  1.00  0.00    -0.365 A  
HETATM   14  C   UNL     1      -5.983  20.504  69.027  1.00  0.00    -0.383 A  
HETATM   15  C   UNL     1      -6.122  21.163  67.808  1.00  0.00    -0.423 A  
HETATM   16  C   UNL     1      -7.140  20.792  66.931  1.00  0.00    -0.343 A  
ENDBRANCH  10  11
ENDBRANCH   9  10
ENDBRANCH   6   9
TORSDOF 3
ENDMDL
MODEL       96
REMARK 921   NORMALIZED FREE ENERGY PREDICTED BY IDOCK:   -4.24 KCAL/MOL
REMARK 922        TOTAL FREE ENERGY PREDICTED BY IDOCK:   -5.42 KCAL/MOL
REMARK 923 INTER-LIGAND FREE ENERGY PREDICTED BY IDOCK:   -5.03 KCAL/MOL
REMARK 924 INTRA-LIGAND FREE ENERGY PREDICTED BY IDOCK:   -0.39 KCAL/MOL
REMARK 927      BINDING AFFINITY PREDICTED BY RF-SCORE:    0.00 PKD
ROOT
HETATM    1  O   UNL     1      -9.845   7.727  65.968  1.00  0.00    -0.451 OA 
HETATM    2  C   UNL     1     -10.000   9.061  66.196  1.00  0.00    -0.241 A  
HETATM    3  H   UNL     1     -10.171   7.081  66.583  1.00  0.00     0.000 HD 
HETATM    4  C   UNL     1      -9.522  10.006  65.294  1.00  0.00    -0.323 A  
HETATM    5  C   UNL     1      -9.712  11.364  65.555  1.00  0.00    -0.263 A  
HETATM    6  C   UNL     1     -10.399  11.770  66.703  1.00  0.00    -0.218 A  
HETATM    7  C   UNL     1     -10.845  10.811  67.616  1.00  0.00    -0.332 A  
HETATM    8  C   UNL     1     -10.652   9.454  67.359  1.00  0.00    -0.326 A  
ENDROOT
BRANCH   6   9
HETATM    9  O   UNL     1     -10.684  13.070  67.027  1.00  0.00    -0.255 OA 
BRANCH   9  10
HETATM   10  C   UNL     1     -12.019  13.305  67.479  1.00  0.00    -0.324 C  
BRANCH  10  11
HETATM   11  C   UNL     1     -11.985  14.057  68.785  1.00  0.00    -0.382 A  
HETATM   12  C   UNL     1     -12.267  13.407  69.993  1.00  0.00    -0.367 A  
HETATM   13  C   UNL     1     -12.186  14.100  71.202  1.00  0.00    -0.435 A  
HETATM   14  C   UNL     1     -11.816  15.444  71.211  1.00  0.00    -0.437 A  
HETATM   15  C   UNL     1     -11.528  16.099  70.017  1.00  0.00    -0.294 A  
HETATM   16  C   UNL     1     -11.608  15.408  68.809  1.00  0.00    -0.382 A  
ENDBRANCH  10  11
ENDBRANCH   9  10
ENDBRANCH   6   9
TORSDOF 3
ENDMDL
MODEL       97
REMARK 921   NORMALIZED FREE ENERGY PREDICTED BY IDOCK:   -4.22 KCAL/MOL
REMARK 922        TOTAL FREE ENERGY PREDICTED BY IDOCK:   -5.40 KCAL/MOL
REMARK 923 INTER-LIGAND FREE ENERGY PREDICTED BY IDOCK:   -5.10 KCAL/MOL
REMARK 924 INTRA-LIGAND FREE ENERGY PREDICTED BY IDOCK:   -0.30 KCAL/MOL
REMARK 927      BINDING AFFINITY PREDICTED BY RF-SCORE:    0.00 PKD
ROOT
HETATM    1  O   UNL     1     -12.639  13.859  63.112  1.00  0.00    -1.057 OA 
HETATM    2  C   UNL     1     -12.096  14.215  64.311  1.00  0.00    -0.444 A  
HETATM    3  H   UNL     1     -13.112  13.041  63.010  1.00  0.00     0.000 HD 
HETATM    4  C   UNL     1     -11.404  15.413  64.460  1.00  0.00    -0.321 A  
HETATM    5  C   UNL     1     -10.874  15.750  65.707  1.00  0.00    -0.286 A  
HETATM    6  C   UNL     1     -11.060  14.902  66.802  1.00  0.00    -0.335 A  
HETATM    7  C   UNL     1     -11.728  13.688  66.630  1.00  0.00    -0.420 A  
HETATM    8  C   UNL     1     -12.254  13.346  65.384  1.00  0.00    -0.492 A  
ENDROOT
BRANCH   6   9
HETATM    9  O   UNL     1     -10.627  15.162  68.075  1.00  0.00    -0.249 OA 
BRANCH   9  10
HETATM   10  C   UNL     1      -9.391  14.541  68.436  1.00  0.00    -0.208 C  
BRANCH  10  11
HETATM   11  C   UNL     1      -8.340  15.599  68.657  1.00  0.00    -0.177 A  
HETATM   12  C   UNL     1      -8.474  16.871  68.087  1.00  0.00    -0.217 A  
HETATM   13  C   UNL     1      -7.519  17.859  68.337  1.00  0.00    -0.272 A  
HETATM   14  C   UNL     1      -6.430  17.583  69.162  1.00  0.00    -0.240 A  
HETATM   15  C   UNL     1      -6.290  16.323  69.739  1.00  0.00    -0.181 A  
HETATM   16  C   UNL     1      -7.242  15.336  69.491  1.00  0.00    -0.205 A  
ENDBRANCH  10  11
ENDBRANCH   9  10
ENDBRANCH   6   9
TORSDOF 3
ENDMDL
MODEL       98
REMARK 921   NORMALIZED FREE ENERGY PREDICTED BY IDOCK:   -4.22 KCAL/MOL
REMARK 922        TOTAL FREE ENERGY PREDICTED BY IDOCK:   -5.39 KCAL/MOL
REMARK 923 INTER-LIGAND FREE ENERGY PREDICTED BY IDOCK:   -4.98 KCAL/MOL
REMARK 924 INTRA-LIGAND FREE ENERGY PREDICTED BY IDOCK:   -0.41 KCAL/MOL
REMARK 927      BINDING AFFINITY PREDICTED BY RF-SCORE:    0.00 PKD
ROOT
HETATM    1  O   UNL     1     -13.507  12.628  72.763  1.00  0.00    -0.594 OA 
HETATM    2  C   UNL     1     -12.942  12.682  71.524  1.00  0.00    -0.282 A  
HETATM    3  H   UNL     1     -13.631  11.800  73.212  1.00  0.00     0.000 HD 
HETATM    4  C   UNL     1     -12.762  13.895  70.868  1.00  0.00    -0.410 A  
HETATM    5  C   UNL     1     -12.166  13.912  69.605  1.00  0.00    -0.374 A  
HETATM    6  C   UNL     1     -11.733  12.720  69.016  1.00  0.00    -0.323 A  
HETATM    7  C   UNL     1     -11.950  11.507  69.673  1.00  0.00    -0.407 A  
HETATM    8  C   UNL     1     -12.549  11.487  70.932  1.00  0.00    -0.438 A  
ENDROOT
BRANCH   6   9
HETATM    9  O   UNL     1     -11.093  12.631  67.809  1.00  0.00    -0.226 OA 
BRANCH   9  10
HETATM   10  C   UNL     1      -9.688  12.891  67.845  1.00  0.00    -0.218 C  
BRANCH  10  11
HETATM   11  C   UNL     1      -9.404  14.222  67.195  1.00  0.00    -0.233 A  
HETATM   12  C   UNL     1     -10.396  14.889  66.466  1.00  0.00    -0.295 A  
HETATM   13  C   UNL     1     -10.138  16.143  65.909  1.00  0.00    -0.379 A  
HETATM   14  C   UNL     1      -8.890  16.740  66.084  1.00  0.00    -0.298 A  
HETATM   15  C   UNL     1      -7.898  16.089  66.812  1.00  0.00    -0.288 A  
HETATM   16  C   UNL     1      -8.154  14.837  67.369  1.00  0.00    -0.220 A  
ENDBRANCH  10  11
ENDBRANCH   9  10
ENDBRANCH   6   9
TORSDOF 3
ENDMDL
MODEL       99
REMARK 921   NORMALIZED FREE ENERGY PREDICTED BY IDOCK:   -4.20 KCAL/MOL
REMARK 922        TOTAL FREE ENERGY PREDICTED BY IDOCK:   -5.38 KCAL/MOL
REMARK 923 INTER-LIGAND FREE ENERGY PREDICTED BY IDOCK:   -4.93 KCAL/MOL
REMARK 924 INTRA-LIGAND FREE ENERGY PREDICTED BY IDOCK:   -0.45 KCAL/MOL
REMARK 927      BINDING AFFINITY PREDICTED BY RF-SCORE:    0.00 PKD
ROOT
HETATM    1  O   UNL     1      -9.152   5.012  66.670  1.00  0.00    -0.117 OA 
HETATM    2  C   UNL     1      -9.668   5.238  67.911  1.00  0.00    -0.141 A  
HETATM    3  H   UNL     1      -9.548   5.394  65.895  1.00  0.00     0.000 HD 
HETATM    4  C   UNL     1      -9.088   4.679  69.045  1.00  0.00    -0.165 A  
HETATM    5  C   UNL     1      -9.638   4.945  70.301  1.00  0.00    -0.265 A  
HETATM    6  C   UNL     1     -10.747   5.786  70.419  1.00  0.00    -0.302 A  
HETATM    7  C   UNL     1     -11.339   6.315  69.269  1.00  0.00    -0.411 A  
HETATM    8  C   UNL     1     -10.795   6.046  68.013  1.00  0.00    -0.374 A  
ENDROOT
BRANCH   6   9
HETATM    9  O   UNL     1     -11.330   6.152  71.603  1.00  0.00    -0.278 OA 
BRANCH   9  10
HETATM   10  C   UNL     1     -10.714   7.256  72.268  1.00  0.00    -0.231 C  
BRANCH  10  11
HETATM   11  C   UNL     1     -11.456   8.526  71.936  1.00  0.00    -0.405 A  
HETATM   12  C   UNL     1     -10.894   9.479  71.077  1.00  0.00    -0.423 A  
HETATM   13  C   UNL     1     -11.608  10.629  70.737  1.00  0.00    -0.388 A  
HETATM   14  C   UNL     1     -12.891  10.829  71.246  1.00  0.00    -0.540 A  
HETATM   15  C   UNL     1     -13.462   9.884  72.095  1.00  0.00    -0.454 A  
HETATM   16  C   UNL     1     -12.750   8.735  72.436  1.00  0.00    -0.433 A  
ENDBRANCH  10  11
ENDBRANCH   9  10
ENDBRANCH   6   9
TORSDOF 3
ENDMDL
MODEL      100
REMARK 921   NORMALIZED FREE ENERGY PREDICTED BY IDOCK:   -4.19 KCAL/MOL
REMARK 922        TOTAL FREE ENERGY PREDICTED BY IDOCK:   -5.36 KCAL/MOL
REMARK 923 INTER-LIGAND FREE ENERGY PREDICTED BY IDOCK:   -4.99 KCAL/MOL
REMARK 924 INTRA-LIGAND FREE ENERGY PREDICTED BY IDOCK:   -0.36 KCAL/MOL
REMARK 927      BINDING AFFINITY PREDICTED BY RF-SCORE:    0.00 PKD
ROOT
HETATM    1  O   UNL     1     -11.687  13.828  68.320  1.00  0.00    -0.318 OA 
HETATM    2  C   UNL     1     -11.810  12.858  69.270  1.00  0.00    -0.309 A  
HETATM    3  H   UNL     1     -11.273  13.649  67.484  1.00  0.00     0.000 HD 
HETATM    4  C   UNL     1     -12.417  13.121  70.493  1.00  0.00    -0.322 A  
HETATM    5  C   UNL     1     -12.537  12.097  71.435  1.00  0.00    -0.314 A  
HETATM    6  C   UNL     1     -12.073  10.812  71.140  1.00  0.00    -0.309 A  
HETATM    7  C   UNL     1     -11.437  10.571  69.921  1.00  0.00    -0.384 A  
HETATM    8  C   UNL     1     -11.311  11.593  68.980  1.00  0.00    -0.337 A  
ENDROOT
BRANCH   6   9
HETATM    9  O   UNL     1     -12.187   9.729  71.970  1.00  0.00    -0.343 OA 
BRANCH   9  10
HETATM   10  C   UNL     1     -12.118   8.457  71.322  1.00  0.00    -0.284 C  
BRANCH  10  11
HETATM   11  C   UNL     1     -11.529   7.440  72.266  1.00  0.00    -0.329 A  
HETATM   12  C   UNL     1     -11.938   6.101  72.221  1.00  0.00    -0.285 A  
HETATM   13  C   UNL     1     -11.352   5.157  73.066  1.00  0.00    -0.381 A  
HETATM   14  C   UNL     1     -10.350   5.544  73.955  1.00  0.00    -0.297 A  
HETATM   15  C   UNL     1      -9.931   6.871  74.003  1.00  0.00    -0.371 A  
HETATM   16  C   UNL     1     -10.515   7.815  73.160  1.00  0.00    -0.413 A  
ENDBRANCH  10  11
ENDBRANCH   9  10
ENDBRANCH   6   9
TORSDOF 3
ENDMDL
MODEL      101
REMARK 921   NORMALIZED FREE ENERGY PREDICTED BY IDOCK:   -4.18 KCAL/MOL
REMARK 922        TOTAL FREE ENERGY PREDICTED BY IDOCK:   -5.35 KCAL/MOL
REMARK 923 INTER-LIGAND FREE ENERGY PREDICTED BY IDOCK:   -4.82 KCAL/MOL
REMARK 924 INTRA-LIGAND FREE ENERGY PREDICTED BY IDOCK:   -0.53 KCAL/MOL
REMARK 927      BINDING AFFINITY PREDICTED BY RF-SCORE:    0.00 PKD
ROOT
HETATM    1  O   UNL     1     -10.929   7.326  66.892  1.00  0.00    -0.519 OA 
HETATM    2  C   UNL     1     -10.421   8.567  67.132  1.00  0.00    -0.299 A  
HETATM    3  H   UNL     1     -11.313   6.808  67.590  1.00  0.00     0.000 HD 
HETATM    4  C   UNL     1      -9.859   9.325  66.110  1.00  0.00    -0.363 A  
HETATM    5  C   UNL     1      -9.361  10.599  66.393  1.00  0.00    -0.195 A  
HETATM    6  C   UNL     1      -9.449  11.117  67.688  1.00  0.00    -0.166 A  
HETATM    7  C   UNL     1      -9.986  10.332  68.711  1.00  0.00    -0.187 A  
HETATM    8  C   UNL     1     -10.480   9.057  68.432  1.00  0.00    -0.234 A  
ENDROOT
BRANCH   6   9
HETATM    9  O   UNL     1      -9.039  12.370  68.059  1.00  0.00    -0.183 OA 
BRANCH   9  10
HETATM   10  C   UNL     1     -10.092  13.302  68.314  1.00  0.00    -0.250 C  
BRANCH  10  11
HETATM   11  C   UNL     1     -10.676  13.776  67.007  1.00  0.00    -0.283 A  
HETATM   12  C   UNL     1      -9.967  14.662  66.186  1.00  0.00    -0.323 A  
HETATM   13  C   UNL     1     -10.494  15.057  64.956  1.00  0.00    -0.415 A  
HETATM   14  C   UNL     1     -11.729  14.564  64.535  1.00  0.00    -0.421 A  
HETATM   15  C   UNL     1     -12.439  13.677  65.341  1.00  0.00    -0.537 A  
HETATM   16  C   UNL     1     -11.914  13.281  66.570  1.00  0.00    -0.448 A  
ENDBRANCH  10  11
ENDBRANCH   9  10
ENDBRANCH   6   9
TORSDOF 3
ENDMDL
MODEL      102
REMARK 921   NORMALIZED FREE ENERGY PREDICTED BY IDOCK:   -4.16 KCAL/MOL
REMARK 922        TOTAL FREE ENERGY PREDICTED BY IDOCK:   -5.33 KCAL/MOL
REMARK 923 INTER-LIGAND FREE ENERGY PREDICTED BY IDOCK:   -4.90 KCAL/MOL
REMARK 924 INTRA-LIGAND FREE ENERGY PREDICTED BY IDOCK:   -0.43 KCAL/MOL
REMARK 927      BINDING AFFINITY PREDICTED BY RF-SCORE:    0.00 PKD
ROOT
HETATM    1  O   UNL     1     -14.008   8.891  73.154  1.00  0.00    -1.118 OA 
HETATM    2  C   UNL     1     -13.005   8.702  72.251  1.00  0.00    -0.381 A  
HETATM    3  H   UNL     1     -14.624   8.197  73.358  1.00  0.00     0.000 HD 
HETATM    4  C   UNL     1     -12.104   9.719  71.953  1.00  0.00    -0.331 A  
HETATM    5  C   UNL     1     -11.080   9.483  71.033  1.00  0.00    -0.433 A  
HETATM    6  C   UNL     1     -10.948   8.227  70.435  1.00  0.00    -0.239 A  
HETATM    7  C   UNL     1     -11.879   7.225  70.720  1.00  0.00    -0.324 A  
HETATM    8  C   UNL     1     -12.906   7.460  71.635  1.00  0.00    -0.406 A  
ENDROOT
BRANCH   6   9
HETATM    9  O   UNL     1      -9.953   7.876  69.562  1.00  0.00    -0.181 OA 
BRANCH   9  10
HETATM   10  C   UNL     1     -10.330   7.868  68.184  1.00  0.00    -0.200 C  
BRANCH  10  11
HETATM   11  C   UNL     1     -10.174   9.253  67.609  1.00  0.00    -0.285 A  
HETATM   12  C   UNL     1     -11.276  10.109  67.494  1.00  0.00    -0.123 A  
HETATM   13  C   UNL     1     -11.113  11.406  67.006  1.00  0.00    -0.364 A  
HETATM   14  C   UNL     1      -9.847  11.858  66.636  1.00  0.00    -0.219 A  
HETATM   15  C   UNL     1      -8.743  11.018  66.752  1.00  0.00    -0.152 A  
HETATM   16  C   UNL     1      -8.904   9.722  67.240  1.00  0.00    -0.139 A  
ENDBRANCH  10  11
ENDBRANCH   9  10
ENDBRANCH   6   9
TORSDOF 3
ENDMDL
MODEL      103
REMARK 921   NORMALIZED FREE ENERGY PREDICTED BY IDOCK:   -4.12 KCAL/MOL
REMARK 922        TOTAL FREE ENERGY PREDICTED BY IDOCK:   -5.28 KCAL/MOL
REMARK 923 INTER-LIGAND FREE ENERGY PREDICTED BY IDOCK:   -4.90 KCAL/MOL
REMARK 924 INTRA-LIGAND FREE ENERGY PREDICTED BY IDOCK:   -0.37 KCAL/MOL
REMARK 927      BINDING AFFINITY PREDICTED BY RF-SCORE:    0.00 PKD
ROOT
HETATM    1  O   UNL     1     -13.375  15.745  71.804  1.00  0.00    -0.481 OA 
HETATM    2  C   UNL     1     -13.082  14.456  71.474  1.00  0.00    -0.340 A  
HETATM    3  H   UNL     1     -13.094  16.469  71.257  1.00  0.00     0.000 HD 
HETATM    4  C   UNL     1     -13.494  13.396  72.277  1.00  0.00    -0.683 A  
HETATM    5  C   UNL     1     -13.188  12.088  71.898  1.00  0.00    -0.469 A  
HETATM    6  C   UNL     1     -12.494  11.844  70.709  1.00  0.00    -0.291 A  
HETATM    7  C   UNL     1     -12.059  12.919  69.930  1.00  0.00    -0.335 A  
HETATM    8  C   UNL     1     -12.359  14.227  70.309  1.00  0.00    -0.418 A  
ENDROOT
BRANCH   6   9
HETATM    9  O   UNL     1     -12.189  10.601  70.222  1.00  0.00    -0.294 OA 
BRANCH   9  10
HETATM   10  C   UNL     1     -10.878  10.129  70.540  1.00  0.00    -0.273 C  
BRANCH  10  11
HETATM   11  C   UNL     1     -10.289   9.426  69.343  1.00  0.00    -0.222 A  
HETATM   12  C   UNL     1      -9.324   8.424  69.504  1.00  0.00    -0.158 A  
HETATM   13  C   UNL     1      -8.820   7.746  68.393  1.00  0.00    -0.130 A  
HETATM   14  C   UNL     1      -9.283   8.060  67.115  1.00  0.00    -0.172 A  
HETATM   15  C   UNL     1     -10.247   9.051  66.944  1.00  0.00    -0.339 A  
HETATM   16  C   UNL     1     -10.751   9.728  68.053  1.00  0.00    -0.298 A  
ENDBRANCH  10  11
ENDBRANCH   9  10
ENDBRANCH   6   9
TORSDOF 3
ENDMDL
MODEL      104
REMARK 921   NORMALIZED FREE ENERGY PREDICTED BY IDOCK:   -4.11 KCAL/MOL
REMARK 922        TOTAL FREE ENERGY PREDICTED BY IDOCK:   -5.27 KCAL/MOL
REMARK 923 INTER-LIGAND FREE ENERGY PREDICTED BY IDOCK:   -4.86 KCAL/MOL
REMARK 924 INTRA-LIGAND FREE ENERGY PREDICTED BY IDOCK:   -0.41 KCAL/MOL
REMARK 927      BINDING AFFINITY PREDICTED BY RF-SCORE:    0.00 PKD
ROOT
HETATM    1  O   UNL     1     -11.968  12.014  68.966  1.00  0.00    -0.307 OA 
HETATM    2  C   UNL     1     -11.859  11.019  69.890  1.00  0.00    -0.353 A  
HETATM    3  H   UNL     1     -12.776  12.504  68.864  1.00  0.00     0.000 HD 
HETATM    4  C   UNL     1     -10.676  10.302  70.040  1.00  0.00    -0.345 A  
HETATM    5  C   UNL     1     -10.597   9.299  71.007  1.00  0.00    -0.386 A  
HETATM    6  C   UNL     1     -11.691   9.033  71.835  1.00  0.00    -0.374 A  
HETATM    7  C   UNL     1     -12.883   9.738  71.652  1.00  0.00    -0.519 A  
HETATM    8  C   UNL     1     -12.966  10.738  70.682  1.00  0.00    -0.313 A  
ENDROOT
BRANCH   6   9
HETATM    9  O   UNL     1     -11.702   8.109  72.845  1.00  0.00    -0.373 OA 
BRANCH   9  10
HETATM   10  C   UNL     1     -10.419   7.608  73.225  1.00  0.00    -0.355 C  
BRANCH  10  11
HETATM   11  C   UNL     1     -10.348   6.129  72.941  1.00  0.00    -0.217 A  
HETATM   12  C   UNL     1      -9.982   5.661  71.672  1.00  0.00    -0.222 A  
HETATM   13  C   UNL     1      -9.872   4.291  71.431  1.00  0.00    -0.260 A  
HETATM   14  C   UNL     1     -10.120   3.380  72.458  1.00  0.00    -0.232 A  
HETATM   15  C   UNL     1     -10.479   3.835  73.725  1.00  0.00    -0.268 A  
HETATM   16  C   UNL     1     -10.588   5.203  73.967  1.00  0.00    -0.335 A  
ENDBRANCH  10  11
ENDBRANCH   9  10
ENDBRANCH   6   9
TORSDOF 3
ENDMDL
MODEL      105
REMARK 921   NORMALIZED FREE ENERGY PREDICTED BY IDOCK:   -4.10 KCAL/MOL
REMARK 922        TOTAL FREE ENERGY PREDICTED BY IDOCK:   -5.26 KCAL/MOL
REMARK 923 INTER-LIGAND FREE ENERGY PREDICTED BY IDOCK:   -4.77 KCAL/MOL
REMARK 924 INTRA-LIGAND FREE ENERGY PREDICTED BY IDOCK:   -0.49 KCAL/MOL
REMARK 927      BINDING AFFINITY PREDICTED BY RF-SCORE:    0.00 PKD
ROOT
HETATM    1  O   UNL     1     -12.532  13.798  63.061  1.00  0.00    -1.068 OA 
HETATM    2  C   UNL     1     -12.151  14.102  64.334  1.00  0.00    -0.463 A  
HETATM    3  H   UNL     1     -12.187  14.276  62.316  1.00  0.00     0.000 HD 
HETATM    4  C   UNL     1     -12.656  13.401  65.424  1.00  0.00    -0.528 A  
HETATM    5  C   UNL     1     -12.230  13.733  66.712  1.00  0.00    -0.440 A  
HETATM    6  C   UNL     1     -11.285  14.745  66.901  1.00  0.00    -0.347 A  
HETATM    7  C   UNL     1     -10.810  15.461  65.800  1.00  0.00    -0.349 A  
HETATM    8  C   UNL     1     -11.238  15.136  64.513  1.00  0.00    -0.283 A  
ENDROOT
BRANCH   6   9
HETATM    9  O   UNL     1     -10.764  15.113  68.113  1.00  0.00    -0.244 OA 
BRANCH   9  10
HETATM   10  C   UNL     1     -10.005  14.102  68.780  1.00  0.00    -0.183 C  
BRANCH  10  11
HETATM   11  C   UNL     1      -8.545  14.256  68.437  1.00  0.00    -0.175 A  
HETATM   12  C   UNL     1      -7.992  15.524  68.216  1.00  0.00    -0.132 A  
HETATM   13  C   UNL     1      -6.630  15.661  67.947  1.00  0.00    -0.171 A  
HETATM   14  C   UNL     1      -5.810  14.533  67.904  1.00  0.00    -0.137 A  
HETATM   15  C   UNL     1      -6.348  13.268  68.129  1.00  0.00    -0.110 A  
HETATM   16  C   UNL     1      -7.709  13.130  68.398  1.00  0.00    -0.138 A  
ENDBRANCH  10  11
ENDBRANCH   9  10
ENDBRANCH   6   9
TORSDOF 3
ENDMDL
MODEL      106
REMARK 921   NORMALIZED FREE ENERGY PREDICTED BY IDOCK:   -4.10 KCAL/MOL
REMARK 922        TOTAL FREE ENERGY PREDICTED BY IDOCK:   -5.25 KCAL/MOL
REMARK 923 INTER-LIGAND FREE ENERGY PREDICTED BY IDOCK:   -4.79 KCAL/MOL
REMARK 924 INTRA-LIGAND FREE ENERGY PREDICTED BY IDOCK:   -0.46 KCAL/MOL
REMARK 927      BINDING AFFINITY PREDICTED BY RF-SCORE:    0.00 PKD
ROOT
HETATM    1  O   UNL     1      -5.574  20.540  68.644  1.00  0.00    -0.251 OA 
HETATM    2  C   UNL     1      -6.807  20.096  68.271  1.00  0.00    -0.300 A  
HETATM    3  H   UNL     1      -5.132  20.184  69.406  1.00  0.00     0.000 HD 
HETATM    4  C   UNL     1      -7.453  20.618  67.155  1.00  0.00    -0.381 A  
HETATM    5  C   UNL     1      -8.710  20.127  66.796  1.00  0.00    -0.390 A  
HETATM    6  C   UNL     1      -9.304  19.104  67.539  1.00  0.00    -0.303 A  
HETATM    7  C   UNL     1      -8.659  18.612  68.676  1.00  0.00    -0.338 A  
HETATM    8  C   UNL     1      -7.405  19.104  69.040  1.00  0.00    -0.360 A  
ENDROOT
BRANCH   6   9
HETATM    9  O   UNL     1     -10.506  18.518  67.244  1.00  0.00    -0.384 OA 
BRANCH   9  10
HETATM   10  C   UNL     1     -10.481  17.593  66.155  1.00  0.00    -0.295 C  
BRANCH  10  11
HETATM   11  C   UNL     1     -10.548  16.184  66.687  1.00  0.00    -0.274 A  
HETATM   12  C   UNL     1     -11.283  15.889  67.842  1.00  0.00    -0.297 A  
HETATM   13  C   UNL     1     -11.379  14.574  68.300  1.00  0.00    -0.319 A  
HETATM   14  C   UNL     1     -10.748  13.545  67.602  1.00  0.00    -0.257 A  
HETATM   15  C   UNL     1     -10.020  13.826  66.448  1.00  0.00    -0.301 A  
HETATM   16  C   UNL     1      -9.924  15.138  65.989  1.00  0.00    -0.335 A  
ENDBRANCH  10  11
ENDBRANCH   9  10
ENDBRANCH   6   9
TORSDOF 3
ENDMDL
MODEL      107
REMARK 921   NORMALIZED FREE ENERGY PREDICTED BY IDOCK:   -4.08 KCAL/MOL
REMARK 922        TOTAL FREE ENERGY PREDICTED BY IDOCK:   -5.23 KCAL/MOL
REMARK 923 INTER-LIGAND FREE ENERGY PREDICTED BY IDOCK:   -4.87 KCAL/MOL
REMARK 924 INTRA-LIGAND FREE ENERGY PREDICTED BY IDOCK:   -0.36 KCAL/MOL
REMARK 927      BINDING AFFINITY PREDICTED BY RF-SCORE:    0.00 PKD
ROOT
HETATM    1  O   UNL     1     -12.529  14.211  63.088  1.00  0.00    -1.126 OA 
HETATM    2  C   UNL     1     -12.196  13.547  64.231  1.00  0.00    -0.396 A  
HETATM    3  H   UNL     1     -13.033  15.016  63.116  1.00  0.00     0.000 HD 
HETATM    4  C   UNL     1     -11.458  12.369  64.191  1.00  0.00    -0.448 A  
HETATM    5  C   UNL     1     -11.123  11.726  65.384  1.00  0.00    -0.336 A  
HETATM    6  C   UNL     1     -11.507  12.275  66.610  1.00  0.00    -0.373 A  
HETATM    7  C   UNL     1     -12.275  13.441  66.635  1.00  0.00    -0.391 A  
HETATM    8  C   UNL     1     -12.615  14.083  65.444  1.00  0.00    -0.529 A  
ENDROOT
BRANCH   6   9
HETATM    9  O   UNL     1     -11.188  11.754  67.836  1.00  0.00    -0.229 OA 
BRANCH   9  10
HETATM   10  C   UNL     1     -11.256  10.329  67.927  1.00  0.00    -0.220 C  
BRANCH  10  11
HETATM   11  C   UNL     1      -9.861   9.758  67.972  1.00  0.00    -0.173 A  
HETATM   12  C   UNL     1      -9.397   8.921  66.949  1.00  0.00    -0.213 A  
HETATM   13  C   UNL     1      -8.088   8.437  66.976  1.00  0.00    -0.104 A  
HETATM   14  C   UNL     1      -7.234   8.791  68.019  1.00  0.00    -0.083 A  
HETATM   15  C   UNL     1      -7.683   9.627  69.038  1.00  0.00    -0.078 A  
HETATM   16  C   UNL     1      -8.990  10.112  69.013  1.00  0.00    -0.168 A  
ENDBRANCH  10  11
ENDBRANCH   9  10
ENDBRANCH   6   9
TORSDOF 3
ENDMDL
MODEL      108
REMARK 921   NORMALIZED FREE ENERGY PREDICTED BY IDOCK:   -4.05 KCAL/MOL
REMARK 922        TOTAL FREE ENERGY PREDICTED BY IDOCK:   -5.20 KCAL/MOL
REMARK 923 INTER-LIGAND FREE ENERGY PREDICTED BY IDOCK:   -4.75 KCAL/MOL
REMARK 924 INTRA-LIGAND FREE ENERGY PREDICTED BY IDOCK:   -0.46 KCAL/MOL
REMARK 927      BINDING AFFINITY PREDICTED BY RF-SCORE:    0.00 PKD
ROOT
HETATM    1  O   UNL     1      -6.345  19.021  69.258  1.00  0.00    -0.268 OA 
HETATM    2  C   UNL     1      -7.161  18.440  68.333  1.00  0.00    -0.264 A  
HETATM    3  H   UNL     1      -5.417  19.137  69.092  1.00  0.00     0.000 HD 
HETATM    4  C   UNL     1      -8.520  18.271  68.577  1.00  0.00    -0.325 A  
HETATM    5  C   UNL     1      -9.326  17.685  67.600  1.00  0.00    -0.246 A  
HETATM    6  C   UNL     1      -8.775  17.291  66.377  1.00  0.00    -0.250 A  
HETATM    7  C   UNL     1      -7.403  17.436  66.159  1.00  0.00    -0.331 A  
HETATM    8  C   UNL     1      -6.595  18.018  67.135  1.00  0.00    -0.201 A  
ENDROOT
BRANCH   6   9
HETATM    9  O   UNL     1      -9.484  16.754  65.336  1.00  0.00    -0.408 OA 
BRANCH   9  10
HETATM   10  C   UNL     1     -10.847  16.438  65.627  1.00  0.00    -0.178 C  
BRANCH  10  11
HETATM   11  C   UNL     1     -11.012  14.942  65.714  1.00  0.00    -0.345 A  
HETATM   12  C   UNL     1     -10.253  14.090  64.902  1.00  0.00    -0.377 A  
HETATM   13  C   UNL     1     -10.377  12.705  65.023  1.00  0.00    -0.320 A  
HETATM   14  C   UNL     1     -11.255  12.164  65.961  1.00  0.00    -0.382 A  
HETATM   15  C   UNL     1     -12.010  13.001  66.778  1.00  0.00    -0.434 A  
HETATM   16  C   UNL     1     -11.887  14.385  66.659  1.00  0.00    -0.417 A  
ENDBRANCH  10  11
ENDBRANCH   9  10
ENDBRANCH   6   9
TORSDOF 3
ENDMDL
MODEL      109
REMARK 921   NORMALIZED FREE ENERGY PREDICTED BY IDOCK:   -4.05 KCAL/MOL
REMARK 922        TOTAL FREE ENERGY PREDICTED BY IDOCK:   -5.19 KCAL/MOL
REMARK 923 INTER-LIGAND FREE ENERGY PREDICTED BY IDOCK:   -4.82 KCAL/MOL
REMARK 924 INTRA-LIGAND FREE ENERGY PREDICTED BY IDOCK:   -0.37 KCAL/MOL
REMARK 927      BINDING AFFINITY PREDICTED BY RF-SCORE:    0.00 PKD
ROOT
HETATM    1  O   UNL     1     -10.949  17.295  68.502  1.00  0.00    -0.290 OA 
HETATM    2  C   UNL     1     -11.239  15.964  68.468  1.00  0.00    -0.362 A  
HETATM    3  H   UNL     1     -10.561  17.734  67.754  1.00  0.00     0.000 HD 
HETATM    4  C   UNL     1     -11.808  15.322  69.563  1.00  0.00    -0.368 A  
HETATM    5  C   UNL     1     -12.104  13.960  69.485  1.00  0.00    -0.393 A  
HETATM    6  C   UNL     1     -11.852  13.252  68.307  1.00  0.00    -0.354 A  
HETATM    7  C   UNL     1     -11.251  13.902  67.226  1.00  0.00    -0.329 A  
HETATM    8  C   UNL     1     -10.950  15.262  67.303  1.00  0.00    -0.327 A  
ENDROOT
BRANCH   6   9
HETATM    9  O   UNL     1     -12.151  11.931  68.108  1.00  0.00    -0.516 OA 
BRANCH   9  10
HETATM   10  C   UNL     1     -11.326  11.007  68.822  1.00  0.00    -0.283 C  
BRANCH  10  11
HETATM   11  C   UNL     1     -10.690  10.044  67.852  1.00  0.00    -0.322 A  
HETATM   12  C   UNL     1     -10.518  10.391  66.506  1.00  0.00    -0.262 A  
HETATM   13  C   UNL     1      -9.885   9.512  65.627  1.00  0.00    -0.343 A  
HETATM   14  C   UNL     1      -9.413   8.283  66.088  1.00  0.00    -0.241 A  
HETATM   15  C   UNL     1      -9.572   7.930  67.426  1.00  0.00    -0.195 A  
HETATM   16  C   UNL     1     -10.204   8.808  68.306  1.00  0.00    -0.240 A  
ENDBRANCH  10  11
ENDBRANCH   9  10
ENDBRANCH   6   9
TORSDOF 3
ENDMDL
MODEL      110
REMARK 921   NORMALIZED FREE ENERGY PREDICTED BY IDOCK:   -4.04 KCAL/MOL
REMARK 922        TOTAL FREE ENERGY PREDICTED BY IDOCK:   -5.19 KCAL/MOL
REMARK 923 INTER-LIGAND FREE ENERGY PREDICTED BY IDOCK:   -4.77 KCAL/MOL
REMARK 924 INTRA-LIGAND FREE ENERGY PREDICTED BY IDOCK:   -0.41 KCAL/MOL
REMARK 927      BINDING AFFINITY PREDICTED BY RF-SCORE:    0.00 PKD
ROOT
HETATM    1  O   UNL     1     -10.318  10.533  62.579  1.00  0.00    -0.722 OA 
HETATM    2  C   UNL     1     -10.541  11.620  63.370  1.00  0.00    -0.409 A  
HETATM    3  H   UNL     1     -10.966  10.241  61.949  1.00  0.00     0.000 HD 
HETATM    4  C   UNL     1      -9.591  12.046  64.293  1.00  0.00    -0.006 A  
HETATM    5  C   UNL     1      -9.850  13.173  65.075  1.00  0.00    -0.064 A  
HETATM    6  C   UNL     1     -11.044  13.881  64.915  1.00  0.00    -0.369 A  
HETATM    7  C   UNL     1     -12.002  13.423  64.008  1.00  0.00    -0.520 A  
HETATM    8  C   UNL     1     -11.748  12.294  63.229  1.00  0.00    -0.451 A  
ENDROOT
BRANCH   6   9
HETATM    9  O   UNL     1     -11.373  15.024  65.593  1.00  0.00    -0.345 OA 
BRANCH   9  10
HETATM   10  C   UNL     1     -10.551  16.158  65.308  1.00  0.00    -0.369 C  
BRANCH  10  11
HETATM   11  C   UNL     1      -9.610  16.404  66.459  1.00  0.00    -0.291 A  
HETATM   12  C   UNL     1      -9.983  16.081  67.770  1.00  0.00    -0.234 A  
HETATM   13  C   UNL     1      -9.087  16.267  68.824  1.00  0.00    -0.245 A  
HETATM   14  C   UNL     1      -7.811  16.769  68.573  1.00  0.00    -0.229 A  
HETATM   15  C   UNL     1      -7.426  17.087  67.273  1.00  0.00    -0.190 A  
HETATM   16  C   UNL     1      -8.320  16.902  66.220  1.00  0.00    -0.331 A  
ENDBRANCH  10  11
ENDBRANCH   9  10
ENDBRANCH   6   9
TORSDOF 3
ENDMDL
MODEL      111
REMARK 921   NORMALIZED FREE ENERGY PREDICTED BY IDOCK:   -4.01 KCAL/MOL
REMARK 922        TOTAL FREE ENERGY PREDICTED BY IDOCK:   -5.15 KCAL/MOL
REMARK 923 INTER-LIGAND FREE ENERGY PREDICTED BY IDOCK:   -4.67 KCAL/MOL
REMARK 924 INTRA-LIGAND FREE ENERGY PREDICTED BY IDOCK:   -0.48 KCAL/MOL
REMARK 927      BINDING AFFINITY PREDICTED BY RF-SCORE:    0.00 PKD
ROOT
HETATM    1  O   UNL     1     -13.615  10.912  72.295  1.00  0.00    -0.546 OA 
HETATM    2  C   UNL     1     -12.945   9.797  71.888  1.00  0.00    -0.440 A  
HETATM    3  H   UNL     1     -13.205  11.768  72.271  1.00  0.00     0.000 HD 
HETATM    4  C   UNL     1     -13.546   8.543  71.925  1.00  0.00    -0.427 A  
HETATM    5  C   UNL     1     -12.833   7.425  71.486  1.00  0.00    -0.416 A  
HETATM    6  C   UNL     1     -11.534   7.570  70.991  1.00  0.00    -0.278 A  
HETATM    7  C   UNL     1     -10.931   8.831  70.991  1.00  0.00    -0.328 A  
HETATM    8  C   UNL     1     -11.640   9.948  71.434  1.00  0.00    -0.428 A  
ENDROOT
BRANCH   6   9
HETATM    9  O   UNL     1     -10.768   6.551  70.491  1.00  0.00    -0.229 OA 
BRANCH   9  10
HETATM   10  C   UNL     1     -11.136   6.099  69.186  1.00  0.00    -0.378 C  
BRANCH  10  11
HETATM   11  C   UNL     1     -10.160   6.638  68.170  1.00  0.00    -0.174 A  
HETATM   12  C   UNL     1      -8.936   5.995  67.944  1.00  0.00    -0.118 A  
HETATM   13  C   UNL     1      -8.060   6.473  66.968  1.00  0.00    -0.113 A  
HETATM   14  C   UNL     1      -8.405   7.590  66.208  1.00  0.00    -0.134 A  
HETATM   15  C   UNL     1      -9.622   8.233  66.421  1.00  0.00    -0.300 A  
HETATM   16  C   UNL     1     -10.498   7.757  67.395  1.00  0.00    -0.362 A  
ENDBRANCH  10  11
ENDBRANCH   9  10
ENDBRANCH   6   9
TORSDOF 3
ENDMDL
MODEL      112
REMARK 921   NORMALIZED FREE ENERGY PREDICTED BY IDOCK:   -3.99 KCAL/MOL
REMARK 922        TOTAL FREE ENERGY PREDICTED BY IDOCK:   -5.12 KCAL/MOL
REMARK 923 INTER-LIGAND FREE ENERGY PREDICTED BY IDOCK:   -4.61 KCAL/MOL
REMARK 924 INTRA-LIGAND FREE ENERGY PREDICTED BY IDOCK:   -0.51 KCAL/MOL
REMARK 927      BINDING AFFINITY PREDICTED BY RF-SCORE:    0.00 PKD
ROOT
HETATM    1  O   UNL     1     -11.185   7.201  73.613  1.00  0.00    -0.532 OA 
HETATM    2  C   UNL     1     -11.218   8.098  72.588  1.00  0.00    -0.378 A  
HETATM    3  H   UNL     1     -10.363   6.842  73.927  1.00  0.00     0.000 HD 
HETATM    4  C   UNL     1     -12.422   8.623  72.129  1.00  0.00    -0.453 A  
HETATM    5  C   UNL     1     -12.414   9.552  71.087  1.00  0.00    -0.399 A  
HETATM    6  C   UNL     1     -11.204   9.968  70.525  1.00  0.00    -0.336 A  
HETATM    7  C   UNL     1     -10.006   9.409  70.973  1.00  0.00    -0.334 A  
HETATM    8  C   UNL     1     -10.011   8.477  72.012  1.00  0.00    -0.383 A  
ENDROOT
BRANCH   6   9
HETATM    9  O   UNL     1     -11.082  10.908  69.536  1.00  0.00    -0.234 OA 
BRANCH   9  10
HETATM   10  C   UNL     1     -11.529  10.492  68.244  1.00  0.00    -0.199 C  
BRANCH  10  11
HETATM   11  C   UNL     1     -10.418   9.758  67.537  1.00  0.00    -0.309 A  
HETATM   12  C   UNL     1     -10.526   8.389  67.262  1.00  0.00    -0.373 A  
HETATM   13  C   UNL     1      -9.513   7.729  66.564  1.00  0.00    -0.262 A  
HETATM   14  C   UNL     1      -8.391   8.434  66.131  1.00  0.00    -0.127 A  
HETATM   15  C   UNL     1      -8.276   9.797  66.393  1.00  0.00    -0.120 A  
HETATM   16  C   UNL     1      -9.286  10.458  67.090  1.00  0.00    -0.177 A  
ENDBRANCH  10  11
ENDBRANCH   9  10
ENDBRANCH   6   9
TORSDOF 3
ENDMDL
MODEL      113
REMARK 921   NORMALIZED FREE ENERGY PREDICTED BY IDOCK:   -3.99 KCAL/MOL
REMARK 922        TOTAL FREE ENERGY PREDICTED BY IDOCK:   -5.12 KCAL/MOL
REMARK 923 INTER-LIGAND FREE ENERGY PREDICTED BY IDOCK:   -4.80 KCAL/MOL
REMARK 924 INTRA-LIGAND FREE ENERGY PREDICTED BY IDOCK:   -0.32 KCAL/MOL
REMARK 927      BINDING AFFINITY PREDICTED BY RF-SCORE:    0.00 PKD
ROOT
HETATM    1  O   UNL     1     -14.180   8.933  73.334  1.00  0.00    -1.241 OA 
HETATM    2  C   UNL     1     -13.227   9.208  72.400  1.00  0.00    -0.444 A  
HETATM    3  H   UNL     1     -14.765   9.609  73.655  1.00  0.00     0.000 HD 
HETATM    4  C   UNL     1     -12.371   8.217  71.931  1.00  0.00    -0.371 A  
HETATM    5  C   UNL     1     -11.416   8.534  70.963  1.00  0.00    -0.313 A  
HETATM    6  C   UNL     1     -11.337   9.832  70.452  1.00  0.00    -0.297 A  
HETATM    7  C   UNL     1     -12.181  10.825  70.955  1.00  0.00    -0.485 A  
HETATM    8  C   UNL     1     -13.133  10.512  71.926  1.00  0.00    -0.567 A  
ENDROOT
BRANCH   6   9
HETATM    9  O   UNL     1     -10.475  10.235  69.468  1.00  0.00    -0.214 OA 
BRANCH   9  10
HETATM   10  C   UNL     1      -9.135   9.755  69.600  1.00  0.00    -0.220 C  
BRANCH  10  11
HETATM   11  C   UNL     1      -8.167  10.863  69.269  1.00  0.00    -0.046 A  
HETATM   12  C   UNL     1      -6.875  10.868  69.810  1.00  0.00    -0.134 A  
HETATM   13  C   UNL     1      -5.969  11.872  69.461  1.00  0.00    -0.098 A  
HETATM   14  C   UNL     1      -6.347  12.870  68.564  1.00  0.00    -0.079 A  
HETATM   15  C   UNL     1      -7.627  12.871  68.015  1.00  0.00    -0.137 A  
HETATM   16  C   UNL     1      -8.532  11.869  68.363  1.00  0.00    -0.155 A  
ENDBRANCH  10  11
ENDBRANCH   9  10
ENDBRANCH   6   9
TORSDOF 3
ENDMDL
MODEL      114
REMARK 921   NORMALIZED FREE ENERGY PREDICTED BY IDOCK:   -3.99 KCAL/MOL
REMARK 922        TOTAL FREE ENERGY PREDICTED BY IDOCK:   -5.12 KCAL/MOL
REMARK 923 INTER-LIGAND FREE ENERGY PREDICTED BY IDOCK:   -4.77 KCAL/MOL
REMARK 924 INTRA-LIGAND FREE ENERGY PREDICTED BY IDOCK:   -0.35 KCAL/MOL
REMARK 927      BINDING AFFINITY PREDICTED BY RF-SCORE:    0.00 PKD
ROOT
HETATM    1  O   UNL     1     -10.028  18.002  65.766  1.00  0.00    -0.550 OA 
HETATM    2  C   UNL     1     -10.031  16.640  65.781  1.00  0.00    -0.243 A  
HETATM    3  H   UNL     1     -10.567  18.489  65.153  1.00  0.00     0.000 HD 
HETATM    4  C   UNL     1      -9.242  15.928  66.679  1.00  0.00    -0.280 A  
HETATM    5  C   UNL     1      -9.282  14.532  66.674  1.00  0.00    -0.290 A  
HETATM    6  C   UNL     1     -10.127  13.857  65.789  1.00  0.00    -0.320 A  
HETATM    7  C   UNL     1     -10.889  14.583  64.871  1.00  0.00    -0.436 A  
HETATM    8  C   UNL     1     -10.847  15.978  64.871  1.00  0.00    -0.391 A  
ENDROOT
BRANCH   6   9
HETATM    9  O   UNL     1     -10.280  12.497  65.737  1.00  0.00    -0.260 OA 
BRANCH   9  10
HETATM   10  C   UNL     1     -11.511  12.003  66.271  1.00  0.00    -0.345 C  
BRANCH  10  11
HETATM   11  C   UNL     1     -11.225  10.935  67.296  1.00  0.00    -0.307 A  
HETATM   12  C   UNL     1     -10.757   9.674  66.904  1.00  0.00    -0.185 A  
HETATM   13  C   UNL     1     -10.449   8.708  67.863  1.00  0.00    -0.269 A  
HETATM   14  C   UNL     1     -10.600   8.997  69.218  1.00  0.00    -0.226 A  
HETATM   15  C   UNL     1     -11.058  10.250  69.619  1.00  0.00    -0.323 A  
HETATM   16  C   UNL     1     -11.365  11.216  68.663  1.00  0.00    -0.342 A  
ENDBRANCH  10  11
ENDBRANCH   9  10
ENDBRANCH   6   9
TORSDOF 3
ENDMDL
MODEL      115
REMARK 921   NORMALIZED FREE ENERGY PREDICTED BY IDOCK:   -3.93 KCAL/MOL
REMARK 922        TOTAL FREE ENERGY PREDICTED BY IDOCK:   -5.06 KCAL/MOL
REMARK 923 INTER-LIGAND FREE ENERGY PREDICTED BY IDOCK:   -4.66 KCAL/MOL
REMARK 924 INTRA-LIGAND FREE ENERGY PREDICTED BY IDOCK:   -0.40 KCAL/MOL
REMARK 927      BINDING AFFINITY PREDICTED BY RF-SCORE:    0.00 PKD
ROOT
HETATM    1  O   UNL     1     -12.229  12.592  69.997  1.00  0.00    -0.272 OA 
HETATM    2  C   UNL     1     -11.903  13.795  69.446  1.00  0.00    -0.341 A  
HETATM    3  H   UNL     1     -12.285  11.806  69.466  1.00  0.00     0.000 HD 
HETATM    4  C   UNL     1     -11.822  14.945  70.224  1.00  0.00    -0.358 A  
HETATM    5  C   UNL     1     -11.470  16.157  69.627  1.00  0.00    -0.290 A  
HETATM    6  C   UNL     1     -11.179  16.208  68.261  1.00  0.00    -0.343 A  
HETATM    7  C   UNL     1     -11.297  15.053  67.485  1.00  0.00    -0.340 A  
HETATM    8  C   UNL     1     -11.652  13.841  68.079  1.00  0.00    -0.368 A  
ENDROOT
BRANCH   6   9
HETATM    9  O   UNL     1     -10.777  17.331  67.588  1.00  0.00    -0.359 OA 
BRANCH   9  10
HETATM   10  C   UNL     1     -10.105  18.309  68.385  1.00  0.00    -0.391 C  
BRANCH  10  11
HETATM   11  C   UNL     1      -8.701  18.503  67.870  1.00  0.00    -0.301 A  
HETATM   12  C   UNL     1      -7.619  18.579  68.756  1.00  0.00    -0.308 A  
HETATM   13  C   UNL     1      -6.318  18.710  68.268  1.00  0.00    -0.220 A  
HETATM   14  C   UNL     1      -6.090  18.759  66.893  1.00  0.00    -0.175 A  
HETATM   15  C   UNL     1      -7.158  18.679  66.004  1.00  0.00    -0.302 A  
HETATM   16  C   UNL     1      -8.458  18.547  66.489  1.00  0.00    -0.291 A  
ENDBRANCH  10  11
ENDBRANCH   9  10
ENDBRANCH   6   9
TORSDOF 3
ENDMDL
MODEL      116
REMARK 921   NORMALIZED FREE ENERGY PREDICTED BY IDOCK:   -3.92 KCAL/MOL
REMARK 922        TOTAL FREE ENERGY PREDICTED BY IDOCK:   -5.04 KCAL/MOL
REMARK 923 INTER-LIGAND FREE ENERGY PREDICTED BY IDOCK:   -4.65 KCAL/MOL
REMARK 924 INTRA-LIGAND FREE ENERGY PREDICTED BY IDOCK:   -0.40 KCAL/MOL
REMARK 927      BINDING AFFINITY PREDICTED BY RF-SCORE:    0.00 PKD
ROOT
HETATM    1  O   UNL     1     -10.509  17.528  65.400  1.00  0.00    -0.647 OA 
HETATM    2  C   UNL     1     -10.803  16.207  65.242  1.00  0.00    -0.336 A  
HETATM    3  H   UNL     1      -9.828  17.813  65.998  1.00  0.00     0.000 HD 
HETATM    4  C   UNL     1     -11.800  15.791  64.365  1.00  0.00    -0.148 A  
HETATM    5  C   UNL     1     -12.062  14.427  64.219  1.00  0.00    -0.461 A  
HETATM    6  C   UNL     1     -11.312  13.487  64.930  1.00  0.00    -0.334 A  
HETATM    7  C   UNL     1     -10.335  13.920  65.831  1.00  0.00    -0.318 A  
HETATM    8  C   UNL     1     -10.075  15.282  65.982  1.00  0.00    -0.340 A  
ENDROOT
BRANCH   6   9
HETATM    9  O   UNL     1     -11.452  12.129  64.822  1.00  0.00    -0.318 OA 
BRANCH   9  10
HETATM   10  C   UNL     1     -11.002  11.380  65.953  1.00  0.00    -0.207 C  
BRANCH  10  11
HETATM   11  C   UNL     1     -10.089  10.271  65.494  1.00  0.00    -0.351 A  
HETATM   12  C   UNL     1      -9.314  10.416  64.336  1.00  0.00    -0.321 A  
HETATM   13  C   UNL     1      -8.435   9.404  63.946  1.00  0.00    -0.204 A  
HETATM   14  C   UNL     1      -8.322   8.245  64.713  1.00  0.00    -0.129 A  
HETATM   15  C   UNL     1      -9.083   8.093  65.869  1.00  0.00    -0.183 A  
HETATM   16  C   UNL     1      -9.961   9.103  66.260  1.00  0.00    -0.352 A  
ENDBRANCH  10  11
ENDBRANCH   9  10
ENDBRANCH   6   9
TORSDOF 3
ENDMDL
MODEL      117
REMARK 921   NORMALIZED FREE ENERGY PREDICTED BY IDOCK:   -3.91 KCAL/MOL
REMARK 922        TOTAL FREE ENERGY PREDICTED BY IDOCK:   -5.04 KCAL/MOL
REMARK 923 INTER-LIGAND FREE ENERGY PREDICTED BY IDOCK:   -4.71 KCAL/MOL
REMARK 924 INTRA-LIGAND FREE ENERGY PREDICTED BY IDOCK:   -0.33 KCAL/MOL
REMARK 927      BINDING AFFINITY PREDICTED BY RF-SCORE:    0.00 PKD
ROOT
HETATM    1  O   UNL     1      -9.297  14.373  65.627  1.00  0.00    -0.527 OA 
HETATM    2  C   UNL     1      -9.859  13.417  66.420  1.00  0.00    -0.296 A  
HETATM    3  H   UNL     1      -8.355  14.433  65.521  1.00  0.00     0.000 HD 
HETATM    4  C   UNL     1     -11.239  13.330  66.574  1.00  0.00    -0.329 A  
HETATM    5  C   UNL     1     -11.778  12.328  67.384  1.00  0.00    -0.405 A  
HETATM    6  C   UNL     1     -10.938  11.405  68.014  1.00  0.00    -0.237 A  
HETATM    7  C   UNL     1      -9.553  11.525  67.876  1.00  0.00    -0.178 A  
HETATM    8  C   UNL     1      -9.012  12.528  67.072  1.00  0.00    -0.211 A  
ENDROOT
BRANCH   6   9
HETATM    9  O   UNL     1     -11.365  10.357  68.785  1.00  0.00    -0.250 OA 
BRANCH   9  10
HETATM   10  C   UNL     1     -10.913  10.377  70.141  1.00  0.00    -0.300 C  
BRANCH  10  11
HETATM   11  C   UNL     1     -10.974   8.983  70.714  1.00  0.00    -0.315 A  
HETATM   12  C   UNL     1     -10.996   8.779  72.100  1.00  0.00    -0.404 A  
HETATM   13  C   UNL     1     -11.101   7.489  72.620  1.00  0.00    -0.398 A  
HETATM   14  C   UNL     1     -11.192   6.395  71.760  1.00  0.00    -0.324 A  
HETATM   15  C   UNL     1     -11.177   6.586  70.380  1.00  0.00    -0.414 A  
HETATM   16  C   UNL     1     -11.072   7.875  69.859  1.00  0.00    -0.123 A  
ENDBRANCH  10  11
ENDBRANCH   9  10
ENDBRANCH   6   9
TORSDOF 3
ENDMDL
MODEL      118
REMARK 921   NORMALIZED FREE ENERGY PREDICTED BY IDOCK:   -3.91 KCAL/MOL
REMARK 922        TOTAL FREE ENERGY PREDICTED BY IDOCK:   -5.03 KCAL/MOL
REMARK 923 INTER-LIGAND FREE ENERGY PREDICTED BY IDOCK:   -4.64 KCAL/MOL
REMARK 924 INTRA-LIGAND FREE ENERGY PREDICTED BY IDOCK:   -0.39 KCAL/MOL
REMARK 927      BINDING AFFINITY PREDICTED BY RF-SCORE:    0.00 PKD
ROOT
HETATM    1  O   UNL     1      -9.987  11.509  68.499  1.00  0.00    -0.196 OA 
HETATM    2  C   UNL     1      -9.733  12.665  67.823  1.00  0.00    -0.206 A  
HETATM    3  H   UNL     1     -10.854  11.121  68.500  1.00  0.00     0.000 HD 
HETATM    4  C   UNL     1      -8.463  13.234  67.821  1.00  0.00    -0.181 A  
HETATM    5  C   UNL     1      -8.238  14.411  67.105  1.00  0.00    -0.202 A  
HETATM    6  C   UNL     1      -9.275  15.000  66.377  1.00  0.00    -0.295 A  
HETATM    7  C   UNL     1     -10.552  14.437  66.414  1.00  0.00    -0.297 A  
HETATM    8  C   UNL     1     -10.781  13.263  67.133  1.00  0.00    -0.264 A  
ENDROOT
BRANCH   6   9
HETATM    9  O   UNL     1      -9.149  16.123  65.602  1.00  0.00    -0.394 OA 
BRANCH   9  10
HETATM   10  C   UNL     1      -8.221  17.095  66.089  1.00  0.00    -0.234 C  
BRANCH  10  11
HETATM   11  C   UNL     1      -8.958  18.144  66.883  1.00  0.00    -0.275 A  
HETATM   12  C   UNL     1      -9.419  17.869  68.177  1.00  0.00    -0.288 A  
HETATM   13  C   UNL     1     -10.057  18.861  68.923  1.00  0.00    -0.372 A  
HETATM   14  C   UNL     1     -10.233  20.135  68.383  1.00  0.00    -0.438 A  
HETATM   15  C   UNL     1      -9.774  20.421  67.100  1.00  0.00    -0.601 A  
HETATM   16  C   UNL     1      -9.135  19.431  66.354  1.00  0.00    -0.397 A  
ENDBRANCH  10  11
ENDBRANCH   9  10
ENDBRANCH   6   9
TORSDOF 3
ENDMDL
MODEL      119
REMARK 921   NORMALIZED FREE ENERGY PREDICTED BY IDOCK:   -3.89 KCAL/MOL
REMARK 922        TOTAL FREE ENERGY PREDICTED BY IDOCK:   -5.01 KCAL/MOL
REMARK 923 INTER-LIGAND FREE ENERGY PREDICTED BY IDOCK:   -4.43 KCAL/MOL
REMARK 924 INTRA-LIGAND FREE ENERGY PREDICTED BY IDOCK:   -0.58 KCAL/MOL
REMARK 927      BINDING AFFINITY PREDICTED BY RF-SCORE:    0.00 PKD
ROOT
HETATM    1  O   UNL     1      -7.625   9.377  65.935  1.00  0.00    -0.097 OA 
HETATM    2  C   UNL     1      -8.791  10.059  66.114  1.00  0.00    -0.148 A  
HETATM    3  H   UNL     1      -7.121   9.466  65.134  1.00  0.00     0.000 HD 
HETATM    4  C   UNL     1      -9.529   9.928  67.287  1.00  0.00    -0.181 A  
HETATM    5  C   UNL     1     -10.711  10.654  67.440  1.00  0.00    -0.326 A  
HETATM    6  C   UNL     1     -11.138  11.524  66.432  1.00  0.00    -0.269 A  
HETATM    7  C   UNL     1     -10.405  11.621  65.247  1.00  0.00    -0.316 A  
HETATM    8  C   UNL     1      -9.225  10.893  65.090  1.00  0.00    -0.240 A  
ENDROOT
BRANCH   6   9
HETATM    9  O   UNL     1     -12.251  12.318  66.503  1.00  0.00    -0.588 OA 
BRANCH   9  10
HETATM   10  C   UNL     1     -12.003  13.723  66.417  1.00  0.00    -0.438 C  
BRANCH  10  11
HETATM   11  C   UNL     1     -11.491  14.228  67.743  1.00  0.00    -0.354 A  
HETATM   12  C   UNL     1     -10.390  15.091  67.803  1.00  0.00    -0.245 A  
HETATM   13  C   UNL     1      -9.954  15.591  69.031  1.00  0.00    -0.233 A  
HETATM   14  C   UNL     1     -10.620  15.238  70.204  1.00  0.00    -0.279 A  
HETATM   15  C   UNL     1     -11.720  14.386  70.155  1.00  0.00    -0.361 A  
HETATM   16  C   UNL     1     -12.157  13.885  68.930  1.00  0.00    -0.355 A  
ENDBRANCH  10  11
ENDBRANCH   9  10
ENDBRANCH   6   9
TORSDOF 3
ENDMDL
MODEL      120
REMARK 921   NORMALIZED FREE ENERGY PREDICTED BY IDOCK:   -3.87 KCAL/MOL
REMARK 922        TOTAL FREE ENERGY PREDICTED BY IDOCK:   -4.99 KCAL/MOL
REMARK 923 INTER-LIGAND FREE ENERGY PREDICTED BY IDOCK:   -4.66 KCAL/MOL
REMARK 924 INTRA-LIGAND FREE ENERGY PREDICTED BY IDOCK:   -0.33 KCAL/MOL
REMARK 927      BINDING AFFINITY PREDICTED BY RF-SCORE:    0.00 PKD
ROOT
HETATM    1  O   UNL     1     -11.117   5.989  70.347  1.00  0.00    -0.319 OA 
HETATM    2  C   UNL     1     -11.078   7.317  70.044  1.00  0.00    -0.240 A  
HETATM    3  H   UNL     1     -10.824   5.334  69.725  1.00  0.00     0.000 HD 
HETATM    4  C   UNL     1     -11.507   8.277  70.955  1.00  0.00    -0.303 A  
HETATM    5  C   UNL     1     -11.439   9.629  70.614  1.00  0.00    -0.376 A  
HETATM    6  C   UNL     1     -10.921  10.016  69.375  1.00  0.00    -0.244 A  
HETATM    7  C   UNL     1     -10.524   9.041  68.457  1.00  0.00    -0.232 A  
HETATM    8  C   UNL     1     -10.596   7.689  68.794  1.00  0.00    -0.169 A  
ENDROOT
BRANCH   6   9
HETATM    9  O   UNL     1     -10.763  11.312  68.963  1.00  0.00    -0.206 OA 
BRANCH   9  10
HETATM   10  C   UNL     1     -11.898  11.885  68.310  1.00  0.00    -0.277 C  
BRANCH  10  11
HETATM   11  C   UNL     1     -11.441  12.712  67.135  1.00  0.00    -0.406 A  
HETATM   12  C   UNL     1     -10.425  13.665  67.283  1.00  0.00    -0.260 A  
HETATM   13  C   UNL     1      -9.975  14.392  66.180  1.00  0.00    -0.328 A  
HETATM   14  C   UNL     1     -10.532  14.167  64.922  1.00  0.00    -0.461 A  
HETATM   15  C   UNL     1     -11.538  13.217  64.762  1.00  0.00    -0.368 A  
HETATM   16  C   UNL     1     -11.988  12.489  65.862  1.00  0.00    -0.472 A  
ENDBRANCH  10  11
ENDBRANCH   9  10
ENDBRANCH   6   9
TORSDOF 3
ENDMDL
MODEL      121
REMARK 921   NORMALIZED FREE ENERGY PREDICTED BY IDOCK:   -3.87 KCAL/MOL
REMARK 922        TOTAL FREE ENERGY PREDICTED BY IDOCK:   -4.98 KCAL/MOL
REMARK 923 INTER-LIGAND FREE ENERGY PREDICTED BY IDOCK:   -4.54 KCAL/MOL
REMARK 924 INTRA-LIGAND FREE ENERGY PREDICTED BY IDOCK:   -0.45 KCAL/MOL
REMARK 927      BINDING AFFINITY PREDICTED BY RF-SCORE:    0.00 PKD
ROOT
HETATM    1  O   UNL     1      -7.740  17.844  66.299  1.00  0.00    -0.255 OA 
HETATM    2  C   UNL     1      -8.430  16.669  66.267  1.00  0.00    -0.320 A  
HETATM    3  H   UNL     1      -6.963  17.944  66.836  1.00  0.00     0.000 HD 
HETATM    4  C   UNL     1      -9.567  16.522  65.480  1.00  0.00     0.110 A  
HETATM    5  C   UNL     1     -10.239  15.298  65.463  1.00  0.00    -0.417 A  
HETATM    6  C   UNL     1      -9.757  14.221  66.212  1.00  0.00    -0.302 A  
HETATM    7  C   UNL     1      -8.633  14.392  67.023  1.00  0.00    -0.226 A  
HETATM    8  C   UNL     1      -7.963  15.615  67.046  1.00  0.00    -0.268 A  
ENDROOT
BRANCH   6   9
HETATM    9  O   UNL     1     -10.309  12.968  66.225  1.00  0.00    -0.274 OA 
BRANCH   9  10
HETATM   10  C   UNL     1     -11.707  12.923  66.518  1.00  0.00    -0.393 C  
BRANCH  10  11
HETATM   11  C   UNL     1     -11.908  12.745  68.002  1.00  0.00    -0.386 A  
HETATM   12  C   UNL     1     -12.032  11.466  68.559  1.00  0.00    -0.295 A  
HETATM   13  C   UNL     1     -12.169  11.309  69.940  1.00  0.00    -0.358 A  
HETATM   14  C   UNL     1     -12.174  12.429  70.771  1.00  0.00    -0.336 A  
HETATM   15  C   UNL     1     -12.044  13.705  70.229  1.00  0.00    -0.427 A  
HETATM   16  C   UNL     1     -11.907  13.863  68.851  1.00  0.00    -0.393 A  
ENDBRANCH  10  11
ENDBRANCH   9  10
ENDBRANCH   6   9
TORSDOF 3
ENDMDL
MODEL      122
REMARK 921   NORMALIZED FREE ENERGY PREDICTED BY IDOCK:   -3.87 KCAL/MOL
REMARK 922        TOTAL FREE ENERGY PREDICTED BY IDOCK:   -4.98 KCAL/MOL
REMARK 923 INTER-LIGAND FREE ENERGY PREDICTED BY IDOCK:   -4.62 KCAL/MOL
REMARK 924 INTRA-LIGAND FREE ENERGY PREDICTED BY IDOCK:   -0.37 KCAL/MOL
REMARK 927      BINDING AFFINITY PREDICTED BY RF-SCORE:    0.00 PKD
ROOT
HETATM    1  O   UNL     1     -12.048  16.035  63.731  1.00  0.00    -1.318 OA 
HETATM    2  C   UNL     1     -11.730  14.856  64.338  1.00  0.00    -0.328 A  
HETATM    3  H   UNL     1     -11.647  16.852  64.002  1.00  0.00     0.000 HD 
HETATM    4  C   UNL     1     -12.318  13.660  63.940  1.00  0.00    -0.375 A  
HETATM    5  C   UNL     1     -11.955  12.471  64.576  1.00  0.00    -0.472 A  
HETATM    6  C   UNL     1     -10.991  12.481  65.588  1.00  0.00    -0.288 A  
HETATM    7  C   UNL     1     -10.433  13.693  65.999  1.00  0.00    -0.300 A  
HETATM    8  C   UNL     1     -10.797  14.884  65.369  1.00  0.00    -0.379 A  
ENDROOT
BRANCH   6   9
HETATM    9  O   UNL     1     -10.528  11.368  66.239  1.00  0.00    -0.239 OA 
BRANCH   9  10
HETATM   10  C   UNL     1      -9.176  11.450  66.696  1.00  0.00    -0.181 C  
BRANCH  10  11
HETATM   11  C   UNL     1      -8.484  10.130  66.468  1.00  0.00    -0.128 A  
HETATM   12  C   UNL     1      -7.494   9.679  67.350  1.00  0.00    -0.091 A  
HETATM   13  C   UNL     1      -6.894   8.434  67.157  1.00  0.00    -0.070 A  
HETATM   14  C   UNL     1      -7.283   7.630  66.086  1.00  0.00    -0.070 A  
HETATM   15  C   UNL     1      -8.271   8.066  65.207  1.00  0.00    -0.148 A  
HETATM   16  C   UNL     1      -8.872   9.309  65.398  1.00  0.00    -0.230 A  
ENDBRANCH  10  11
ENDBRANCH   9  10
ENDBRANCH   6   9
TORSDOF 3
ENDMDL
MODEL      123
REMARK 921   NORMALIZED FREE ENERGY PREDICTED BY IDOCK:   -3.85 KCAL/MOL
REMARK 922        TOTAL FREE ENERGY PREDICTED BY IDOCK:   -4.96 KCAL/MOL
REMARK 923 INTER-LIGAND FREE ENERGY PREDICTED BY IDOCK:   -4.56 KCAL/MOL
REMARK 924 INTRA-LIGAND FREE ENERGY PREDICTED BY IDOCK:   -0.41 KCAL/MOL
REMARK 927      BINDING AFFINITY PREDICTED BY RF-SCORE:    0.00 PKD
ROOT
HETATM    1  O   UNL     1     -10.763  10.756  64.822  1.00  0.00    -0.270 OA 
HETATM    2  C   UNL     1     -10.860  11.797  65.696  1.00  0.00    -0.292 A  
HETATM    3  H   UNL     1     -10.316   9.952  65.062  1.00  0.00     0.000 HD 
HETATM    4  C   UNL     1     -11.514  12.973  65.344  1.00  0.00    -0.344 A  
HETATM    5  C   UNL     1     -11.605  14.013  66.272  1.00  0.00    -0.379 A  
HETATM    6  C   UNL     1     -11.063  13.864  67.551  1.00  0.00    -0.286 A  
HETATM    7  C   UNL     1     -10.380  12.690  67.879  1.00  0.00    -0.221 A  
HETATM    8  C   UNL     1     -10.284  11.651  66.953  1.00  0.00    -0.244 A  
ENDROOT
BRANCH   6   9
HETATM    9  O   UNL     1     -11.142  14.798  68.549  1.00  0.00    -0.245 OA 
BRANCH   9  10
HETATM   10  C   UNL     1      -9.885  15.289  69.022  1.00  0.00    -0.230 C  
BRANCH  10  11
HETATM   11  C   UNL     1      -9.719  16.731  68.614  1.00  0.00    -0.259 A  
HETATM   12  C   UNL     1     -10.774  17.432  68.018  1.00  0.00    -0.359 A  
HETATM   13  C   UNL     1     -10.627  18.780  67.687  1.00  0.00    -0.481 A  
HETATM   14  C   UNL     1      -9.427  19.437  67.958  1.00  0.00    -0.413 A  
HETATM   15  C   UNL     1      -8.373  18.751  68.556  1.00  0.00    -0.379 A  
HETATM   16  C   UNL     1      -8.519  17.405  68.887  1.00  0.00    -0.156 A  
ENDBRANCH  10  11
ENDBRANCH   9  10
ENDBRANCH   6   9
TORSDOF 3
ENDMDL
MODEL      124
REMARK 921   NORMALIZED FREE ENERGY PREDICTED BY IDOCK:   -3.85 KCAL/MOL
REMARK 922        TOTAL FREE ENERGY PREDICTED BY IDOCK:   -4.96 KCAL/MOL
REMARK 923 INTER-LIGAND FREE ENERGY PREDICTED BY IDOCK:   -4.61 KCAL/MOL
REMARK 924 INTRA-LIGAND FREE ENERGY PREDICTED BY IDOCK:   -0.36 KCAL/MOL
REMARK 927      BINDING AFFINITY PREDICTED BY RF-SCORE:    0.00 PKD
ROOT
HETATM    1  O   UNL     1     -11.741  12.070  66.225  1.00  0.00    -0.504 OA 
HETATM    2  C   UNL     1     -11.267  11.336  67.271  1.00  0.00    -0.296 A  
HETATM    3  H   UNL     1     -12.508  12.623  66.319  1.00  0.00     0.000 HD 
HETATM    4  C   UNL     1     -10.145  10.526  67.133  1.00  0.00    -0.253 A  
HETATM    5  C   UNL     1      -9.681   9.801  68.232  1.00  0.00    -0.160 A  
HETATM    6  C   UNL     1     -10.326   9.906  69.467  1.00  0.00    -0.229 A  
HETATM    7  C   UNL     1     -11.471  10.698  69.584  1.00  0.00    -0.361 A  
HETATM    8  C   UNL     1     -11.939  11.420  68.486  1.00  0.00    -0.295 A  
ENDROOT
BRANCH   6   9
HETATM    9  O   UNL     1      -9.924   9.280  70.617  1.00  0.00    -0.231 OA 
BRANCH   9  10
HETATM   10  C   UNL     1     -10.904   9.226  71.655  1.00  0.00    -0.348 C  
BRANCH  10  11
HETATM   11  C   UNL     1     -10.919   7.848  72.266  1.00  0.00    -0.359 A  
HETATM   12  C   UNL     1     -10.199   7.576  73.436  1.00  0.00    -0.399 A  
HETATM   13  C   UNL     1     -10.257   6.310  74.021  1.00  0.00    -0.327 A  
HETATM   14  C   UNL     1     -11.042   5.311  73.445  1.00  0.00    -0.362 A  
HETATM   15  C   UNL     1     -11.768   5.573  72.286  1.00  0.00    -0.127 A  
HETATM   16  C   UNL     1     -11.710   6.836  71.700  1.00  0.00    -0.357 A  
ENDBRANCH  10  11
ENDBRANCH   9  10
ENDBRANCH   6   9
TORSDOF 3
ENDMDL
MODEL      125
REMARK 921   NORMALIZED FREE ENERGY PREDICTED BY IDOCK:   -3.81 KCAL/MOL
REMARK 922        TOTAL FREE ENERGY PREDICTED BY IDOCK:   -4.91 KCAL/MOL
REMARK 923 INTER-LIGAND FREE ENERGY PREDICTED BY IDOCK:   -4.46 KCAL/MOL
REMARK 924 INTRA-LIGAND FREE ENERGY PREDICTED BY IDOCK:   -0.45 KCAL/MOL
REMARK 927      BINDING AFFINITY PREDICTED BY RF-SCORE:    0.00 PKD
ROOT
HETATM    1  O   UNL     1     -12.396  14.057  71.762  1.00  0.00    -0.292 OA 
HETATM    2  C   UNL     1     -12.248  13.515  70.520  1.00  0.00    -0.361 A  
HETATM    3  H   UNL     1     -12.459  13.507  72.534  1.00  0.00     0.000 HD 
HETATM    4  C   UNL     1     -12.156  14.321  69.390  1.00  0.00    -0.361 A  
HETATM    5  C   UNL     1     -11.990  13.729  68.136  1.00  0.00    -0.394 A  
HETATM    6  C   UNL     1     -11.892  12.340  68.021  1.00  0.00    -0.305 A  
HETATM    7  C   UNL     1     -12.019  11.542  69.160  1.00  0.00    -0.386 A  
HETATM    8  C   UNL     1     -12.190  12.130  70.414  1.00  0.00    -0.378 A  
ENDROOT
BRANCH   6   9
HETATM    9  O   UNL     1     -11.678  11.664  66.849  1.00  0.00    -0.552 OA 
BRANCH   9  10
HETATM   10  C   UNL     1     -10.419  11.918  66.222  1.00  0.00    -0.239 C  
BRANCH  10  11
HETATM   11  C   UNL     1      -9.567  10.676  66.279  1.00  0.00    -0.228 A  
HETATM   12  C   UNL     1     -10.154   9.410  66.396  1.00  0.00    -0.332 A  
HETATM   13  C   UNL     1      -9.359   8.262  66.398  1.00  0.00    -0.274 A  
HETATM   14  C   UNL     1      -7.975   8.373  66.278  1.00  0.00    -0.099 A  
HETATM   15  C   UNL     1      -7.380   9.626  66.154  1.00  0.00    -0.098 A  
HETATM   16  C   UNL     1      -8.173  10.773  66.151  1.00  0.00    -0.163 A  
ENDBRANCH  10  11
ENDBRANCH   9  10
ENDBRANCH   6   9
TORSDOF 3
ENDMDL
MODEL      126
REMARK 921   NORMALIZED FREE ENERGY PREDICTED BY IDOCK:   -3.79 KCAL/MOL
REMARK 922        TOTAL FREE ENERGY PREDICTED BY IDOCK:   -4.89 KCAL/MOL
REMARK 923 INTER-LIGAND FREE ENERGY PREDICTED BY IDOCK:   -4.92 KCAL/MOL
REMARK 924 INTRA-LIGAND FREE ENERGY PREDICTED BY IDOCK:    0.04 KCAL/MOL
REMARK 927      BINDING AFFINITY PREDICTED BY RF-SCORE:    0.00 PKD
ROOT
HETATM    1  O   UNL     1      -8.795  17.537  65.734  1.00  0.00    -0.514 OA 
HETATM    2  C   UNL     1      -9.700  16.529  65.876  1.00  0.00    -0.270 A  
HETATM    3  H   UNL     1      -8.092  17.659  66.361  1.00  0.00     0.000 HD 
HETATM    4  C   UNL     1     -10.730  16.351  64.957  1.00  0.00    -0.279 A  
HETATM    5  C   UNL     1     -11.629  15.297  65.128  1.00  0.00    -0.192 A  
HETATM    6  C   UNL     1     -11.482  14.413  66.201  1.00  0.00    -0.357 A  
HETATM    7  C   UNL     1     -10.464  14.623  67.134  1.00  0.00    -0.268 A  
HETATM    8  C   UNL     1      -9.566  15.678  66.968  1.00  0.00    -0.233 A  
ENDROOT
BRANCH   6   9
HETATM    9  O   UNL     1     -12.276  13.322  66.431  1.00  0.00    -0.402 OA 
BRANCH   9  10
HETATM   10  C   UNL     1     -11.597  12.174  66.946  1.00  0.00    -0.341 C  
BRANCH  10  11
HETATM   11  C   UNL     1     -10.874  11.469  65.827  1.00  0.00    -0.319 A  
HETATM   12  C   UNL     1     -10.125  10.312  66.075  1.00  0.00    -0.311 A  
HETATM   13  C   UNL     1      -9.499   9.639  65.025  1.00  0.00    -0.312 A  
HETATM   14  C   UNL     1      -9.624  10.114  63.720  1.00  0.00    -0.285 A  
HETATM   15  C   UNL     1     -10.372  11.259  63.460  1.00  0.00    -0.463 A  
HETATM   16  C   UNL     1     -10.998  11.933  64.508  1.00  0.00    -0.376 A  
ENDBRANCH  10  11
ENDBRANCH   9  10
ENDBRANCH   6   9
TORSDOF 3
ENDMDL
MODEL      127
REMARK 921   NORMALIZED FREE ENERGY PREDICTED BY IDOCK:   -3.74 KCAL/MOL
REMARK 922        TOTAL FREE ENERGY PREDICTED BY IDOCK:   -4.83 KCAL/MOL
REMARK 923 INTER-LIGAND FREE ENERGY PREDICTED BY IDOCK:   -4.44 KCAL/MOL
REMARK 924 INTRA-LIGAND FREE ENERGY PREDICTED BY IDOCK:   -0.39 KCAL/MOL
REMARK 927      BINDING AFFINITY PREDICTED BY RF-SCORE:    0.00 PKD
ROOT
HETATM    1  O   UNL     1      -8.147  11.019  67.835  1.00  0.00    -0.109 OA 
HETATM    2  C   UNL     1      -8.621  12.173  67.287  1.00  0.00    -0.180 A  
HETATM    3  H   UNL     1      -7.356  11.012  68.361  1.00  0.00     0.000 HD 
HETATM    4  C   UNL     1      -9.780  12.182  66.517  1.00  0.00    -0.234 A  
HETATM    5  C   UNL     1     -10.242  13.387  65.985  1.00  0.00    -0.301 A  
HETATM    6  C   UNL     1      -9.559  14.579  66.244  1.00  0.00    -0.304 A  
HETATM    7  C   UNL     1      -8.379  14.550  66.992  1.00  0.00    -0.195 A  
HETATM    8  C   UNL     1      -7.912  13.346  67.521  1.00  0.00    -0.186 A  
ENDROOT
BRANCH   6   9
HETATM    9  O   UNL     1      -9.954  15.817  65.814  1.00  0.00    -0.313 OA 
BRANCH   9  10
HETATM   10  C   UNL     1     -10.626  16.614  66.792  1.00  0.00    -0.214 C  
BRANCH  10  11
HETATM   11  C   UNL     1      -9.921  17.939  66.935  1.00  0.00    -0.335 A  
HETATM   12  C   UNL     1      -8.662  18.147  66.356  1.00  0.00    -0.252 A  
HETATM   13  C   UNL     1      -8.039  19.392  66.453  1.00  0.00    -0.329 A  
HETATM   14  C   UNL     1      -8.673  20.439  67.122  1.00  0.00    -0.413 A  
HETATM   15  C   UNL     1      -9.927  20.246  67.696  1.00  0.00    -0.551 A  
HETATM   16  C   UNL     1     -10.550  19.003  67.600  1.00  0.00    -0.526 A  
ENDBRANCH  10  11
ENDBRANCH   9  10
ENDBRANCH   6   9
TORSDOF 3
ENDMDL
MODEL      128
REMARK 921   NORMALIZED FREE ENERGY PREDICTED BY IDOCK:   -3.72 KCAL/MOL
REMARK 922        TOTAL FREE ENERGY PREDICTED BY IDOCK:   -4.81 KCAL/MOL
REMARK 923 INTER-LIGAND FREE ENERGY PREDICTED BY IDOCK:   -4.20 KCAL/MOL
REMARK 924 INTRA-LIGAND FREE ENERGY PREDICTED BY IDOCK:   -0.61 KCAL/MOL
REMARK 927      BINDING AFFINITY PREDICTED BY RF-SCORE:    0.00 PKD
ROOT
HETATM    1  O   UNL     1      -8.686  11.419  67.416  1.00  0.00    -0.140 OA 
HETATM    2  C   UNL     1      -8.896  10.368  68.258  1.00  0.00    -0.135 A  
HETATM    3  H   UNL     1      -9.142  11.483  66.585  1.00  0.00     0.000 HD 
HETATM    4  C   UNL     1      -8.227  10.275  69.474  1.00  0.00    -0.165 A  
HETATM    5  C   UNL     1      -8.480   9.191  70.317  1.00  0.00    -0.208 A  
HETATM    6  C   UNL     1      -9.416   8.220  69.952  1.00  0.00    -0.167 A  
HETATM    7  C   UNL     1     -10.056   8.308  68.713  1.00  0.00    -0.212 A  
HETATM    8  C   UNL     1      -9.802   9.388  67.867  1.00  0.00    -0.197 A  
ENDROOT
BRANCH   6   9
HETATM    9  O   UNL     1      -9.774   7.148  70.725  1.00  0.00    -0.172 OA 
BRANCH   9  10
HETATM   10  C   UNL     1     -10.195   7.470  72.053  1.00  0.00    -0.196 C  
BRANCH  10  11
HETATM   11  C   UNL     1     -11.655   7.848  72.043  1.00  0.00    -0.357 A  
HETATM   12  C   UNL     1     -12.054   9.169  72.285  1.00  0.00    -0.311 A  
HETATM   13  C   UNL     1     -13.403   9.519  72.226  1.00  0.00    -0.526 A  
HETATM   14  C   UNL     1     -14.361   8.553  71.918  1.00  0.00    -0.536 A  
HETATM   15  C   UNL     1     -13.975   7.239  71.669  1.00  0.00    -0.488 A  
HETATM   16  C   UNL     1     -12.628   6.887  71.727  1.00  0.00    -0.386 A  
ENDBRANCH  10  11
ENDBRANCH   9  10
ENDBRANCH   6   9
TORSDOF 3
ENDMDL
MODEL      129
REMARK 921   NORMALIZED FREE ENERGY PREDICTED BY IDOCK:   -3.71 KCAL/MOL
REMARK 922        TOTAL FREE ENERGY PREDICTED BY IDOCK:   -4.79 KCAL/MOL
REMARK 923 INTER-LIGAND FREE ENERGY PREDICTED BY IDOCK:   -4.52 KCAL/MOL
REMARK 924 INTRA-LIGAND FREE ENERGY PREDICTED BY IDOCK:   -0.27 KCAL/MOL
REMARK 927      BINDING AFFINITY PREDICTED BY RF-SCORE:    0.00 PKD
ROOT
HETATM    1  O   UNL     1     -10.996  11.010  65.015  1.00  0.00    -0.184 OA 
HETATM    2  C   UNL     1     -10.656  12.315  65.215  1.00  0.00    -0.287 A  
HETATM    3  H   UNL     1     -10.596  10.314  65.523  1.00  0.00     0.000 HD 
HETATM    4  C   UNL     1     -11.242  13.334  64.471  1.00  0.00    -0.387 A  
HETATM    5  C   UNL     1     -10.879  14.659  64.716  1.00  0.00    -0.402 A  
HETATM    6  C   UNL     1      -9.952  14.962  65.717  1.00  0.00    -0.347 A  
HETATM    7  C   UNL     1      -9.348  13.926  66.434  1.00  0.00    -0.226 A  
HETATM    8  C   UNL     1      -9.705  12.600  66.189  1.00  0.00    -0.253 A  
ENDROOT
BRANCH   6   9
HETATM    9  O   UNL     1      -9.567  16.227  66.071  1.00  0.00    -0.308 OA 
BRANCH   9  10
HETATM   10  C   UNL     1      -8.187  16.367  66.417  1.00  0.00    -0.331 C  
BRANCH  10  11
HETATM   11  C   UNL     1      -7.935  17.760  66.937  1.00  0.00    -0.251 A  
HETATM   12  C   UNL     1      -7.919  18.017  68.314  1.00  0.00    -0.294 A  
HETATM   13  C   UNL     1      -7.637  19.299  68.788  1.00  0.00    -0.393 A  
HETATM   14  C   UNL     1      -7.363  20.330  67.890  1.00  0.00    -0.311 A  
HETATM   15  C   UNL     1      -7.370  20.084  66.519  1.00  0.00    -0.294 A  
HETATM   16  C   UNL     1      -7.651  18.804  66.044  1.00  0.00    -0.251 A  
ENDBRANCH  10  11
ENDBRANCH   9  10
ENDBRANCH   6   9
TORSDOF 3
ENDMDL
MODEL      130
REMARK 921   NORMALIZED FREE ENERGY PREDICTED BY IDOCK:   -3.70 KCAL/MOL
REMARK 922        TOTAL FREE ENERGY PREDICTED BY IDOCK:   -4.79 KCAL/MOL
REMARK 923 INTER-LIGAND FREE ENERGY PREDICTED BY IDOCK:   -4.36 KCAL/MOL
REMARK 924 INTRA-LIGAND FREE ENERGY PREDICTED BY IDOCK:   -0.43 KCAL/MOL
REMARK 927      BINDING AFFINITY PREDICTED BY RF-SCORE:    0.00 PKD
ROOT
HETATM    1  O   UNL     1     -11.861  13.145  70.476  1.00  0.00    -0.510 OA 
HETATM    2  C   UNL     1     -11.858  12.851  69.146  1.00  0.00    -0.303 A  
HETATM    3  H   UNL     1     -11.725  12.470  71.130  1.00  0.00     0.000 HD 
HETATM    4  C   UNL     1     -12.058  13.840  68.189  1.00  0.00    -0.316 A  
HETATM    5  C   UNL     1     -12.033  13.502  66.834  1.00  0.00    -0.447 A  
HETATM    6  C   UNL     1     -11.785  12.183  66.443  1.00  0.00    -0.324 A  
HETATM    7  C   UNL     1     -11.618  11.194  67.415  1.00  0.00    -0.157 A  
HETATM    8  C   UNL     1     -11.648  11.529  68.770  1.00  0.00    -0.379 A  
ENDROOT
BRANCH   6   9
HETATM    9  O   UNL     1     -11.689  11.756  65.146  1.00  0.00    -0.230 OA 
BRANCH   9  10
HETATM   10  C   UNL     1     -10.564  12.259  64.422  1.00  0.00    -0.327 C  
BRANCH  10  11
HETATM   11  C   UNL     1      -9.642  11.120  64.067  1.00  0.00    -0.288 A  
HETATM   12  C   UNL     1      -8.849  10.508  65.046  1.00  0.00    -0.207 A  
HETATM   13  C   UNL     1      -8.035   9.423  64.717  1.00  0.00    -0.122 A  
HETATM   14  C   UNL     1      -8.014   8.938  63.410  1.00  0.00    -0.157 A  
HETATM   15  C   UNL     1      -8.803   9.535  62.429  1.00  0.00    -0.256 A  
HETATM   16  C   UNL     1      -9.617  10.618  62.756  1.00  0.00    -0.333 A  
ENDBRANCH  10  11
ENDBRANCH   9  10
ENDBRANCH   6   9
TORSDOF 3
ENDMDL
MODEL      131
REMARK 921   NORMALIZED FREE ENERGY PREDICTED BY IDOCK:   -3.67 KCAL/MOL
REMARK 922        TOTAL FREE ENERGY PREDICTED BY IDOCK:   -4.75 KCAL/MOL
REMARK 923 INTER-LIGAND FREE ENERGY PREDICTED BY IDOCK:   -4.37 KCAL/MOL
REMARK 924 INTRA-LIGAND FREE ENERGY PREDICTED BY IDOCK:   -0.38 KCAL/MOL
REMARK 927      BINDING AFFINITY PREDICTED BY RF-SCORE:    0.00 PKD
ROOT
HETATM    1  O   UNL     1      -9.710   7.311  69.301  1.00  0.00    -0.159 OA 
HETATM    2  C   UNL     1     -10.196   8.506  68.863  1.00  0.00    -0.207 A  
HETATM    3  H   UNL     1      -9.588   7.139  70.227  1.00  0.00     0.000 HD 
HETATM    4  C   UNL     1     -10.374   8.757  67.506  1.00  0.00    -0.334 A  
HETATM    5  C   UNL     1     -10.888   9.989  67.097  1.00  0.00    -0.240 A  
HETATM    6  C   UNL     1     -11.244  10.953  68.044  1.00  0.00    -0.314 A  
HETATM    7  C   UNL     1     -11.030  10.699  69.401  1.00  0.00    -0.304 A  
HETATM    8  C   UNL     1     -10.511   9.471  69.813  1.00  0.00    -0.253 A  
ENDROOT
BRANCH   6   9
HETATM    9  O   UNL     1     -11.802  12.169  67.753  1.00  0.00    -0.452 OA 
BRANCH   9  10
HETATM   10  C   UNL     1     -12.035  13.016  68.880  1.00  0.00    -0.263 C  
BRANCH  10  11
HETATM   11  C   UNL     1     -11.532  14.406  68.581  1.00  0.00    -0.316 A  
HETATM   12  C   UNL     1     -11.327  14.823  67.260  1.00  0.00    -0.366 A  
HETATM   13  C   UNL     1     -10.908  16.127  66.990  1.00  0.00    -0.194 A  
HETATM   14  C   UNL     1     -10.698  17.023  68.038  1.00  0.00    -0.365 A  
HETATM   15  C   UNL     1     -10.905  16.620  69.355  1.00  0.00    -0.295 A  
HETATM   16  C   UNL     1     -11.325  15.319  69.626  1.00  0.00    -0.304 A  
ENDBRANCH  10  11
ENDBRANCH   9  10
ENDBRANCH   6   9
TORSDOF 3
ENDMDL
MODEL      132
REMARK 921   NORMALIZED FREE ENERGY PREDICTED BY IDOCK:   -3.67 KCAL/MOL
REMARK 922        TOTAL FREE ENERGY PREDICTED BY IDOCK:   -4.75 KCAL/MOL
REMARK 923 INTER-LIGAND FREE ENERGY PREDICTED BY IDOCK:   -4.28 KCAL/MOL
REMARK 924 INTRA-LIGAND FREE ENERGY PREDICTED BY IDOCK:   -0.46 KCAL/MOL
REMARK 927      BINDING AFFINITY PREDICTED BY RF-SCORE:    0.00 PKD
ROOT
HETATM    1  O   UNL     1      -8.441   6.539  65.500  1.00  0.00    -0.150 OA 
HETATM    2  C   UNL     1      -8.820   7.449  66.441  1.00  0.00    -0.156 A  
HETATM    3  H   UNL     1      -7.981   5.744  65.742  1.00  0.00     0.000 HD 
HETATM    4  C   UNL     1      -9.493   8.614  66.087  1.00  0.00    -0.308 A  
HETATM    5  C   UNL     1      -9.878   9.515  67.081  1.00  0.00    -0.239 A  
HETATM    6  C   UNL     1      -9.610   9.238  68.424  1.00  0.00    -0.147 A  
HETATM    7  C   UNL     1      -8.904   8.081  68.763  1.00  0.00    -0.138 A  
HETATM    8  C   UNL     1      -8.514   7.180  67.771  1.00  0.00    -0.120 A  
ENDROOT
BRANCH   6   9
HETATM    9  O   UNL     1      -9.988  10.027  69.477  1.00  0.00    -0.203 OA 
BRANCH   9  10
HETATM   10  C   UNL     1      -9.916   9.403  70.761  1.00  0.00    -0.289 C  
BRANCH  10  11
HETATM   11  C   UNL     1     -11.308   9.097  71.253  1.00  0.00    -0.406 A  
HETATM   12  C   UNL     1     -12.211  10.130  71.533  1.00  0.00    -0.473 A  
HETATM   13  C   UNL     1     -13.513   9.835  71.941  1.00  0.00    -0.485 A  
HETATM   14  C   UNL     1     -13.922   8.508  72.065  1.00  0.00    -0.494 A  
HETATM   15  C   UNL     1     -13.034   7.473  71.783  1.00  0.00    -0.364 A  
HETATM   16  C   UNL     1     -11.734   7.765  71.375  1.00  0.00    -0.310 A  
ENDBRANCH  10  11
ENDBRANCH   9  10
ENDBRANCH   6   9
TORSDOF 3
ENDMDL
MODEL      133
REMARK 921   NORMALIZED FREE ENERGY PREDICTED BY IDOCK:   -3.64 KCAL/MOL
REMARK 922        TOTAL FREE ENERGY PREDICTED BY IDOCK:   -4.72 KCAL/MOL
REMARK 923 INTER-LIGAND FREE ENERGY PREDICTED BY IDOCK:   -4.19 KCAL/MOL
REMARK 924 INTRA-LIGAND FREE ENERGY PREDICTED BY IDOCK:   -0.53 KCAL/MOL
REMARK 927      BINDING AFFINITY PREDICTED BY RF-SCORE:    0.00 PKD
ROOT
HETATM    1  O   UNL     1      -6.612  17.807  68.039  1.00  0.00    -0.184 OA 
HETATM    2  C   UNL     1      -7.812  17.215  68.295  1.00  0.00    -0.227 A  
HETATM    3  H   UNL     1      -5.807  17.474  68.419  1.00  0.00     0.000 HD 
HETATM    4  C   UNL     1      -8.989  17.704  67.738  1.00  0.00    -0.247 A  
HETATM    5  C   UNL     1     -10.198  17.061  68.012  1.00  0.00    -0.319 A  
HETATM    6  C   UNL     1     -10.221  15.921  68.820  1.00  0.00    -0.220 A  
HETATM    7  C   UNL     1      -9.036  15.460  69.398  1.00  0.00    -0.258 A  
HETATM    8  C   UNL     1      -7.827  16.103  69.130  1.00  0.00    -0.232 A  
ENDROOT
BRANCH   6   9
HETATM    9  O   UNL     1     -11.342  15.188  69.108  1.00  0.00    -0.264 OA 
BRANCH   9  10
HETATM   10  C   UNL     1     -12.063  14.708  67.972  1.00  0.00    -0.171 C  
BRANCH  10  11
HETATM   11  C   UNL     1     -11.613  13.307  67.642  1.00  0.00    -0.386 A  
HETATM   12  C   UNL     1     -11.715  12.281  68.590  1.00  0.00    -0.377 A  
HETATM   13  C   UNL     1     -11.341  10.978  68.260  1.00  0.00    -0.366 A  
HETATM   14  C   UNL     1     -10.870  10.690  66.979  1.00  0.00    -0.298 A  
HETATM   15  C   UNL     1     -10.771  11.702  66.027  1.00  0.00    -0.328 A  
HETATM   16  C   UNL     1     -11.144  13.004  66.355  1.00  0.00    -0.313 A  
ENDBRANCH  10  11
ENDBRANCH   9  10
ENDBRANCH   6   9
TORSDOF 3
ENDMDL
MODEL      134
REMARK 921   NORMALIZED FREE ENERGY PREDICTED BY IDOCK:   -3.63 KCAL/MOL
REMARK 922        TOTAL FREE ENERGY PREDICTED BY IDOCK:   -4.70 KCAL/MOL
REMARK 923 INTER-LIGAND FREE ENERGY PREDICTED BY IDOCK:   -4.36 KCAL/MOL
REMARK 924 INTRA-LIGAND FREE ENERGY PREDICTED BY IDOCK:   -0.34 KCAL/MOL
REMARK 927      BINDING AFFINITY PREDICTED BY RF-SCORE:    0.00 PKD
ROOT
HETATM    1  O   UNL     1      -8.603   7.133  65.850  1.00  0.00    -0.146 OA 
HETATM    2  C   UNL     1      -9.244   8.330  65.964  1.00  0.00    -0.166 A  
HETATM    3  H   UNL     1      -8.619   6.496  66.555  1.00  0.00     0.000 HD 
HETATM    4  C   UNL     1      -9.219   9.261  64.931  1.00  0.00    -0.206 A  
HETATM    5  C   UNL     1      -9.901  10.471  65.079  1.00  0.00    -0.369 A  
HETATM    6  C   UNL     1     -10.622  10.733  66.247  1.00  0.00    -0.192 A  
HETATM    7  C   UNL     1     -10.611   9.803  67.289  1.00  0.00    -0.320 A  
HETATM    8  C   UNL     1      -9.927   8.595  67.146  1.00  0.00    -0.297 A  
ENDROOT
BRANCH   6   9
HETATM    9  O   UNL     1     -11.363  11.862  66.473  1.00  0.00    -0.327 OA 
BRANCH   9  10
HETATM   10  C   UNL     1     -11.126  12.937  65.562  1.00  0.00    -0.278 C  
BRANCH  10  11
HETATM   11  C   UNL     1     -11.008  14.231  66.327  1.00  0.00    -0.317 A  
HETATM   12  C   UNL     1     -11.649  14.393  67.562  1.00  0.00    -0.398 A  
HETATM   13  C   UNL     1     -11.494  15.577  68.286  1.00  0.00    -0.359 A  
HETATM   14  C   UNL     1     -10.693  16.602  67.784  1.00  0.00    -0.327 A  
HETATM   15  C   UNL     1     -10.046  16.449  66.560  1.00  0.00    -0.304 A  
HETATM   16  C   UNL     1     -10.199  15.267  65.836  1.00  0.00    -0.353 A  
ENDBRANCH  10  11
ENDBRANCH   9  10
ENDBRANCH   6   9
TORSDOF 3
ENDMDL
MODEL      135
REMARK 921   NORMALIZED FREE ENERGY PREDICTED BY IDOCK:   -3.62 KCAL/MOL
REMARK 922        TOTAL FREE ENERGY PREDICTED BY IDOCK:   -4.69 KCAL/MOL
REMARK 923 INTER-LIGAND FREE ENERGY PREDICTED BY IDOCK:   -4.39 KCAL/MOL
REMARK 924 INTRA-LIGAND FREE ENERGY PREDICTED BY IDOCK:   -0.30 KCAL/MOL
REMARK 927      BINDING AFFINITY PREDICTED BY RF-SCORE:    0.00 PKD
ROOT
HETATM    1  O   UNL     1      -9.784  13.559  65.131  1.00  0.00    -0.546 OA 
HETATM    2  C   UNL     1      -9.713  12.531  66.022  1.00  0.00    -0.241 A  
HETATM    3  H   UNL     1     -10.410  13.549  64.417  1.00  0.00     0.000 HD 
HETATM    4  C   UNL     1      -8.795  12.547  67.068  1.00  0.00    -0.212 A  
HETATM    5  C   UNL     1      -8.762  11.481  67.970  1.00  0.00    -0.151 A  
HETATM    6  C   UNL     1      -9.660  10.418  67.836  1.00  0.00    -0.142 A  
HETATM    7  C   UNL     1     -10.553  10.400  66.763  1.00  0.00    -0.270 A  
HETATM    8  C   UNL     1     -10.585  11.461  65.857  1.00  0.00    -0.317 A  
ENDROOT
BRANCH   6   9
HETATM    9  O   UNL     1      -9.745   9.353  68.692  1.00  0.00    -0.148 OA 
BRANCH   9  10
HETATM   10  C   UNL     1      -9.775   9.690  70.081  1.00  0.00    -0.254 C  
BRANCH  10  11
HETATM   11  C   UNL     1     -10.332   8.533  70.870  1.00  0.00    -0.245 A  
HETATM   12  C   UNL     1     -10.335   8.557  72.271  1.00  0.00    -0.402 A  
HETATM   13  C   UNL     1     -10.897   7.502  72.992  1.00  0.00    -0.445 A  
HETATM   14  C   UNL     1     -11.465   6.422  72.319  1.00  0.00    -0.339 A  
HETATM   15  C   UNL     1     -11.474   6.390  70.927  1.00  0.00    -0.406 A  
HETATM   16  C   UNL     1     -10.913   7.443  70.205  1.00  0.00    -0.272 A  
ENDBRANCH  10  11
ENDBRANCH   9  10
ENDBRANCH   6   9
TORSDOF 3
ENDMDL
MODEL      136
REMARK 921   NORMALIZED FREE ENERGY PREDICTED BY IDOCK:   -3.61 KCAL/MOL
REMARK 922        TOTAL FREE ENERGY PREDICTED BY IDOCK:   -4.68 KCAL/MOL
REMARK 923 INTER-LIGAND FREE ENERGY PREDICTED BY IDOCK:   -4.18 KCAL/MOL
REMARK 924 INTRA-LIGAND FREE ENERGY PREDICTED BY IDOCK:   -0.50 KCAL/MOL
REMARK 927      BINDING AFFINITY PREDICTED BY RF-SCORE:    0.00 PKD
ROOT
HETATM    1  O   UNL     1     -12.429  12.421  62.764  1.00  0.00    -0.395 OA 
HETATM    2  C   UNL     1     -11.554  12.070  63.749  1.00  0.00    -0.476 A  
HETATM    3  H   UNL     1     -13.158  13.003  62.939  1.00  0.00     0.000 HD 
HETATM    4  C   UNL     1     -10.485  11.217  63.493  1.00  0.00    -0.457 A  
HETATM    5  C   UNL     1      -9.602  10.893  64.524  1.00  0.00    -0.312 A  
HETATM    6  C   UNL     1      -9.777  11.440  65.798  1.00  0.00    -0.233 A  
HETATM    7  C   UNL     1     -10.873  12.269  66.049  1.00  0.00    -0.310 A  
HETATM    8  C   UNL     1     -11.760  12.591  65.021  1.00  0.00    -0.407 A  
ENDROOT
BRANCH   6   9
HETATM    9  O   UNL     1      -8.942  11.228  66.863  1.00  0.00    -0.154 OA 
BRANCH   9  10
HETATM   10  C   UNL     1      -8.556   9.868  67.071  1.00  0.00    -0.128 C  
BRANCH  10  11
HETATM   11  C   UNL     1      -9.437   9.248  68.126  1.00  0.00    -0.150 A  
HETATM   12  C   UNL     1      -9.823   7.905  68.038  1.00  0.00    -0.195 A  
HETATM   13  C   UNL     1     -10.598   7.327  69.044  1.00  0.00    -0.214 A  
HETATM   14  C   UNL     1     -10.986   8.085  70.148  1.00  0.00    -0.226 A  
HETATM   15  C   UNL     1     -10.602   9.420  70.250  1.00  0.00    -0.297 A  
HETATM   16  C   UNL     1      -9.828   9.999  69.245  1.00  0.00    -0.227 A  
ENDBRANCH  10  11
ENDBRANCH   9  10
ENDBRANCH   6   9
TORSDOF 3
ENDMDL
MODEL      137
REMARK 921   NORMALIZED FREE ENERGY PREDICTED BY IDOCK:   -3.61 KCAL/MOL
REMARK 922        TOTAL FREE ENERGY PREDICTED BY IDOCK:   -4.67 KCAL/MOL
REMARK 923 INTER-LIGAND FREE ENERGY PREDICTED BY IDOCK:   -4.13 KCAL/MOL
REMARK 924 INTRA-LIGAND FREE ENERGY PREDICTED BY IDOCK:   -0.55 KCAL/MOL
REMARK 927      BINDING AFFINITY PREDICTED BY RF-SCORE:    0.00 PKD
ROOT
HETATM    1  O   UNL     1     -12.387  12.023  65.147  1.00  0.00    -0.423 OA 
HETATM    2  C   UNL     1     -11.893  13.223  65.561  1.00  0.00    -0.370 A  
HETATM    3  H   UNL     1     -12.796  11.422  65.758  1.00  0.00     0.000 HD 
HETATM    4  C   UNL     1     -11.294  14.103  64.665  1.00  0.00    -0.374 A  
HETATM    5  C   UNL     1     -10.812  15.331  65.125  1.00  0.00    -0.441 A  
HETATM    6  C   UNL     1     -10.952  15.682  66.470  1.00  0.00    -0.206 A  
HETATM    7  C   UNL     1     -11.526  14.775  67.364  1.00  0.00    -0.376 A  
HETATM    8  C   UNL     1     -12.004  13.546  66.909  1.00  0.00    -0.447 A  
ENDROOT
BRANCH   6   9
HETATM    9  O   UNL     1     -10.562  16.877  67.012  1.00  0.00    -0.305 OA 
BRANCH   9  10
HETATM   10  C   UNL     1      -9.176  17.191  66.856  1.00  0.00    -0.241 C  
BRANCH  10  11
HETATM   11  C   UNL     1      -8.345  16.225  67.660  1.00  0.00    -0.172 A  
HETATM   12  C   UNL     1      -8.533  16.096  69.042  1.00  0.00    -0.251 A  
HETATM   13  C   UNL     1      -7.793  15.164  69.771  1.00  0.00    -0.042 A  
HETATM   14  C   UNL     1      -6.864  14.351  69.122  1.00  0.00    -0.120 A  
HETATM   15  C   UNL     1      -6.673  14.466  67.747  1.00  0.00    -0.191 A  
HETATM   16  C   UNL     1      -7.412  15.396  67.018  1.00  0.00    -0.166 A  
ENDBRANCH  10  11
ENDBRANCH   9  10
ENDBRANCH   6   9
TORSDOF 3
ENDMDL
MODEL      138
REMARK 921   NORMALIZED FREE ENERGY PREDICTED BY IDOCK:   -3.61 KCAL/MOL
REMARK 922        TOTAL FREE ENERGY PREDICTED BY IDOCK:   -4.67 KCAL/MOL
REMARK 923 INTER-LIGAND FREE ENERGY PREDICTED BY IDOCK:   -4.31 KCAL/MOL
REMARK 924 INTRA-LIGAND FREE ENERGY PREDICTED BY IDOCK:   -0.36 KCAL/MOL
REMARK 927      BINDING AFFINITY PREDICTED BY RF-SCORE:    0.00 PKD
ROOT
HETATM    1  O   UNL     1      -5.613  19.607  68.175  1.00  0.00    -0.200 OA 
HETATM    2  C   UNL     1      -6.525  18.607  68.014  1.00  0.00    -0.214 A  
HETATM    3  H   UNL     1      -5.116  19.695  68.980  1.00  0.00     0.000 HD 
HETATM    4  C   UNL     1      -7.251  18.479  66.834  1.00  0.00    -0.226 A  
HETATM    5  C   UNL     1      -8.167  17.433  66.700  1.00  0.00    -0.290 A  
HETATM    6  C   UNL     1      -8.334  16.508  67.735  1.00  0.00    -0.170 A  
HETATM    7  C   UNL     1      -7.622  16.668  68.926  1.00  0.00    -0.240 A  
HETATM    8  C   UNL     1      -6.710  17.715  69.064  1.00  0.00    -0.250 A  
ENDROOT
BRANCH   6   9
HETATM    9  O   UNL     1      -9.164  15.421  67.686  1.00  0.00    -0.185 OA 
BRANCH   9  10
HETATM   10  C   UNL     1      -8.879  14.484  66.645  1.00  0.00    -0.184 C  
BRANCH  10  11
HETATM   11  C   UNL     1     -10.156  14.108  65.938  1.00  0.00    -0.337 A  
HETATM   12  C   UNL     1     -10.771  12.873  66.179  1.00  0.00    -0.290 A  
HETATM   13  C   UNL     1     -11.979  12.554  65.557  1.00  0.00    -0.500 A  
HETATM   14  C   UNL     1     -12.584  13.470  64.697  1.00  0.00    -0.303 A  
HETATM   15  C   UNL     1     -11.985  14.704  64.455  1.00  0.00    -0.473 A  
HETATM   16  C   UNL     1     -10.779  15.024  65.076  1.00  0.00    -0.448 A  
ENDBRANCH  10  11
ENDBRANCH   9  10
ENDBRANCH   6   9
TORSDOF 3
ENDMDL
MODEL      139
REMARK 921   NORMALIZED FREE ENERGY PREDICTED BY IDOCK:   -3.59 KCAL/MOL
REMARK 922        TOTAL FREE ENERGY PREDICTED BY IDOCK:   -4.66 KCAL/MOL
REMARK 923 INTER-LIGAND FREE ENERGY PREDICTED BY IDOCK:   -4.14 KCAL/MOL
REMARK 924 INTRA-LIGAND FREE ENERGY PREDICTED BY IDOCK:   -0.52 KCAL/MOL
REMARK 927      BINDING AFFINITY PREDICTED BY RF-SCORE:    0.00 PKD
ROOT
HETATM    1  O   UNL     1     -11.336   4.713  65.520  1.00  0.00    -0.921 OA 
HETATM    2  C   UNL     1     -10.618   5.416  66.441  1.00  0.00    -0.260 A  
HETATM    3  H   UNL     1     -12.000   5.135  64.988  1.00  0.00     0.000 HD 
HETATM    4  C   UNL     1      -9.645   4.798  67.220  1.00  0.00    -0.185 A  
HETATM    5  C   UNL     1      -8.920   5.555  68.142  1.00  0.00    -0.108 A  
HETATM    6  C   UNL     1      -9.153   6.927  68.265  1.00  0.00    -0.125 A  
HETATM    7  C   UNL     1     -10.155   7.528  67.499  1.00  0.00    -0.261 A  
HETATM    8  C   UNL     1     -10.885   6.773  66.580  1.00  0.00    -0.142 A  
ENDROOT
BRANCH   6   9
HETATM    9  O   UNL     1      -8.465   7.767  69.099  1.00  0.00    -0.135 OA 
BRANCH   9  10
HETATM   10  C   UNL     1      -9.223   8.861  69.620  1.00  0.00    -0.152 C  
BRANCH  10  11
HETATM   11  C   UNL     1      -9.808   8.480  70.957  1.00  0.00    -0.245 A  
HETATM   12  C   UNL     1     -11.195   8.402  71.135  1.00  0.00    -0.307 A  
HETATM   13  C   UNL     1     -11.725   8.001  72.362  1.00  0.00    -0.444 A  
HETATM   14  C   UNL     1     -10.874   7.670  73.416  1.00  0.00    -0.274 A  
HETATM   15  C   UNL     1      -9.493   7.737  73.247  1.00  0.00    -0.344 A  
HETATM   16  C   UNL     1      -8.962   8.137  72.022  1.00  0.00    -0.236 A  
ENDBRANCH  10  11
ENDBRANCH   9  10
ENDBRANCH   6   9
TORSDOF 3
ENDMDL
MODEL      140
REMARK 921   NORMALIZED FREE ENERGY PREDICTED BY IDOCK:   -3.59 KCAL/MOL
REMARK 922        TOTAL FREE ENERGY PREDICTED BY IDOCK:   -4.65 KCAL/MOL
REMARK 923 INTER-LIGAND FREE ENERGY PREDICTED BY IDOCK:   -4.26 KCAL/MOL
REMARK 924 INTRA-LIGAND FREE ENERGY PREDICTED BY IDOCK:   -0.39 KCAL/MOL
REMARK 927      BINDING AFFINITY PREDICTED BY RF-SCORE:    0.00 PKD
ROOT
HETATM    1  O   UNL     1     -12.403  13.779  68.492  1.00  0.00    -0.441 OA 
HETATM    2  C   UNL     1     -11.775  12.594  68.734  1.00  0.00    -0.323 A  
HETATM    3  H   UNL     1     -12.227  14.278  67.703  1.00  0.00     0.000 HD 
HETATM    4  C   UNL     1     -12.034  11.864  69.889  1.00  0.00    -0.398 A  
HETATM    5  C   UNL     1     -11.382  10.647  70.095  1.00  0.00    -0.402 A  
HETATM    6  C   UNL     1     -10.494  10.155  69.134  1.00  0.00    -0.222 A  
HETATM    7  C   UNL     1     -10.219  10.913  67.994  1.00  0.00    -0.202 A  
HETATM    8  C   UNL     1     -10.866  12.132  67.789  1.00  0.00    -0.263 A  
ENDROOT
BRANCH   6   9
HETATM    9  O   UNL     1      -9.843   8.952  69.213  1.00  0.00    -0.169 OA 
BRANCH   9  10
HETATM   10  C   UNL     1     -10.606   7.819  68.793  1.00  0.00    -0.135 C  
BRANCH  10  11
HETATM   11  C   UNL     1     -10.757   6.856  69.943  1.00  0.00    -0.278 A  
HETATM   12  C   UNL     1      -9.930   5.730  70.047  1.00  0.00    -0.251 A  
HETATM   13  C   UNL     1     -10.045   4.871  71.141  1.00  0.00    -0.277 A  
HETATM   14  C   UNL     1     -10.982   5.135  72.140  1.00  0.00    -0.174 A  
HETATM   15  C   UNL     1     -11.804   6.255  72.050  1.00  0.00    -0.370 A  
HETATM   16  C   UNL     1     -11.690   7.115  70.959  1.00  0.00    -0.358 A  
ENDBRANCH  10  11
ENDBRANCH   9  10
ENDBRANCH   6   9
TORSDOF 3
ENDMDL
MODEL      141
REMARK 921   NORMALIZED FREE ENERGY PREDICTED BY IDOCK:   -3.58 KCAL/MOL
REMARK 922        TOTAL FREE ENERGY PREDICTED BY IDOCK:   -4.65 KCAL/MOL
REMARK 923 INTER-LIGAND FREE ENERGY PREDICTED BY IDOCK:   -4.38 KCAL/MOL
REMARK 924 INTRA-LIGAND FREE ENERGY PREDICTED BY IDOCK:   -0.26 KCAL/MOL
REMARK 927      BINDING AFFINITY PREDICTED BY RF-SCORE:    0.00 PKD
ROOT
HETATM    1  O   UNL     1     -12.223  14.995  71.223  1.00  0.00    -0.278 OA 
HETATM    2  C   UNL     1     -12.062  13.852  70.498  1.00  0.00    -0.356 A  
HETATM    3  H   UNL     1     -12.600  14.976  72.095  1.00  0.00     0.000 HD 
HETATM    4  C   UNL     1     -11.511  13.881  69.221  1.00  0.00    -0.348 A  
HETATM    5  C   UNL     1     -11.348  12.687  68.515  1.00  0.00    -0.333 A  
HETATM    6  C   UNL     1     -11.715  11.470  69.097  1.00  0.00    -0.329 A  
HETATM    7  C   UNL     1     -12.297  11.460  70.367  1.00  0.00    -0.404 A  
HETATM    8  C   UNL     1     -12.465  12.652  71.072  1.00  0.00    -0.354 A  
ENDROOT
BRANCH   6   9
HETATM    9  O   UNL     1     -11.551  10.243  68.514  1.00  0.00    -0.178 OA 
BRANCH   9  10
HETATM   10  C   UNL     1     -10.200   9.784  68.431  1.00  0.00    -0.185 C  
BRANCH  10  11
HETATM   11  C   UNL     1     -10.183   8.286  68.264  1.00  0.00    -0.246 A  
HETATM   12  C   UNL     1      -9.650   7.460  69.262  1.00  0.00    -0.154 A  
HETATM   13  C   UNL     1      -9.683   6.072  69.120  1.00  0.00    -0.168 A  
HETATM   14  C   UNL     1     -10.256   5.501  67.984  1.00  0.00    -0.233 A  
HETATM   15  C   UNL     1     -10.795   6.312  66.989  1.00  0.00    -0.458 A  
HETATM   16  C   UNL     1     -10.763   7.698  67.129  1.00  0.00    -0.361 A  
ENDBRANCH  10  11
ENDBRANCH   9  10
ENDBRANCH   6   9
TORSDOF 3
ENDMDL
MODEL      142
REMARK 921   NORMALIZED FREE ENERGY PREDICTED BY IDOCK:   -3.58 KCAL/MOL
REMARK 922        TOTAL FREE ENERGY PREDICTED BY IDOCK:   -4.64 KCAL/MOL
REMARK 923 INTER-LIGAND FREE ENERGY PREDICTED BY IDOCK:   -4.06 KCAL/MOL
REMARK 924 INTRA-LIGAND FREE ENERGY PREDICTED BY IDOCK:   -0.58 KCAL/MOL
REMARK 927      BINDING AFFINITY PREDICTED BY RF-SCORE:    0.00 PKD
ROOT
HETATM    1  O   UNL     1     -13.745   9.153  70.916  1.00  0.00    -0.586 OA 
HETATM    2  C   UNL     1     -12.754   8.397  71.468  1.00  0.00    -0.308 A  
HETATM    3  H   UNL     1     -13.653  10.094  70.824  1.00  0.00     0.000 HD 
HETATM    4  C   UNL     1     -12.889   7.019  71.603  1.00  0.00    -0.408 A  
HETATM    5  C   UNL     1     -11.846   6.277  72.159  1.00  0.00    -0.365 A  
HETATM    6  C   UNL     1     -10.665   6.911  72.556  1.00  0.00    -0.232 A  
HETATM    7  C   UNL     1     -10.556   8.300  72.445  1.00  0.00    -0.408 A  
HETATM    8  C   UNL     1     -11.599   9.044  71.893  1.00  0.00    -0.441 A  
ENDROOT
BRANCH   6   9
HETATM    9  O   UNL     1      -9.566   6.273  73.065  1.00  0.00    -0.152 OA 
BRANCH   9  10
HETATM   10  C   UNL     1      -8.454   6.172  72.171  1.00  0.00    -0.116 C  
BRANCH  10  11
HETATM   11  C   UNL     1      -8.750   5.141  71.112  1.00  0.00    -0.139 A  
HETATM   12  C   UNL     1      -9.024   3.812  71.462  1.00  0.00    -0.158 A  
HETATM   13  C   UNL     1      -9.343   2.876  70.477  1.00  0.00    -0.220 A  
HETATM   14  C   UNL     1      -9.398   3.263  69.139  1.00  0.00    -0.233 A  
HETATM   15  C   UNL     1      -9.134   4.582  68.780  1.00  0.00    -0.166 A  
HETATM   16  C   UNL     1      -8.815   5.519  69.762  1.00  0.00    -0.129 A  
ENDBRANCH  10  11
ENDBRANCH   9  10
ENDBRANCH   6   9
TORSDOF 3
ENDMDL
MODEL      143
REMARK 921   NORMALIZED FREE ENERGY PREDICTED BY IDOCK:   -3.56 KCAL/MOL
REMARK 922        TOTAL FREE ENERGY PREDICTED BY IDOCK:   -4.62 KCAL/MOL
REMARK 923 INTER-LIGAND FREE ENERGY PREDICTED BY IDOCK:   -4.18 KCAL/MOL
REMARK 924 INTRA-LIGAND FREE ENERGY PREDICTED BY IDOCK:   -0.45 KCAL/MOL
REMARK 927      BINDING AFFINITY PREDICTED BY RF-SCORE:    0.00 PKD
ROOT
HETATM    1  O   UNL     1     -12.008  15.258  68.048  1.00  0.00    -0.463 OA 
HETATM    2  C   UNL     1     -11.638  14.299  67.152  1.00  0.00    -0.380 A  
HETATM    3  H   UNL     1     -11.837  16.178  67.883  1.00  0.00     0.000 HD 
HETATM    4  C   UNL     1     -11.890  12.953  67.394  1.00  0.00    -0.418 A  
HETATM    5  C   UNL     1     -11.509  12.001  66.446  1.00  0.00    -0.417 A  
HETATM    6  C   UNL     1     -10.901  12.401  65.253  1.00  0.00    -0.289 A  
HETATM    7  C   UNL     1     -10.626  13.754  65.038  1.00  0.00    -0.402 A  
HETATM    8  C   UNL     1     -11.001  14.706  65.986  1.00  0.00    -0.325 A  
ENDROOT
BRANCH   6   9
HETATM    9  O   UNL     1     -10.536  11.557  64.239  1.00  0.00    -0.298 OA 
BRANCH   9  10
HETATM   10  C   UNL     1      -9.977  10.310  64.657  1.00  0.00    -0.307 C  
BRANCH  10  11
HETATM   11  C   UNL     1      -8.488  10.320  64.426  1.00  0.00    -0.182 A  
HETATM   12  C   UNL     1      -7.597  10.417  65.502  1.00  0.00    -0.144 A  
HETATM   13  C   UNL     1      -6.219  10.377  65.282  1.00  0.00    -0.122 A  
HETATM   14  C   UNL     1      -5.724  10.234  63.987  1.00  0.00    -0.145 A  
HETATM   15  C   UNL     1      -6.600  10.130  62.910  1.00  0.00    -0.133 A  
HETATM   16  C   UNL     1      -7.977  10.170  63.128  1.00  0.00    -0.154 A  
ENDBRANCH  10  11
ENDBRANCH   9  10
ENDBRANCH   6   9
TORSDOF 3
ENDMDL
MODEL      144
REMARK 921   NORMALIZED FREE ENERGY PREDICTED BY IDOCK:   -3.55 KCAL/MOL
REMARK 922        TOTAL FREE ENERGY PREDICTED BY IDOCK:   -4.60 KCAL/MOL
REMARK 923 INTER-LIGAND FREE ENERGY PREDICTED BY IDOCK:   -4.31 KCAL/MOL
REMARK 924 INTRA-LIGAND FREE ENERGY PREDICTED BY IDOCK:   -0.30 KCAL/MOL
REMARK 927      BINDING AFFINITY PREDICTED BY RF-SCORE:    0.00 PKD
ROOT
HETATM    1  O   UNL     1      -6.625  11.140  65.721  1.00  0.00    -0.357 OA 
HETATM    2  C   UNL     1      -7.525  10.903  66.717  1.00  0.00    -0.134 A  
HETATM    3  H   UNL     1      -6.737  11.866  65.119  1.00  0.00     0.000 HD 
HETATM    4  C   UNL     1      -7.360   9.839  67.597  1.00  0.00    -0.090 A  
HETATM    5  C   UNL     1      -8.295   9.637  68.615  1.00  0.00    -0.114 A  
HETATM    6  C   UNL     1      -9.374  10.512  68.761  1.00  0.00    -0.180 A  
HETATM    7  C   UNL     1      -9.545  11.558  67.851  1.00  0.00    -0.178 A  
HETATM    8  C   UNL     1      -8.615  11.758  66.830  1.00  0.00    -0.177 A  
ENDROOT
BRANCH   6   9
HETATM    9  O   UNL     1     -10.316  10.435  69.752  1.00  0.00    -0.240 OA 
BRANCH   9  10
HETATM   10  C   UNL     1     -10.148   9.349  70.667  1.00  0.00    -0.291 C  
BRANCH  10  11
HETATM   11  C   UNL     1     -11.498   8.872  71.138  1.00  0.00    -0.364 A  
HETATM   12  C   UNL     1     -12.413   9.764  71.713  1.00  0.00    -0.485 A  
HETATM   13  C   UNL     1     -13.678   9.323  72.102  1.00  0.00    -0.517 A  
HETATM   14  C   UNL     1     -14.040   7.990  71.913  1.00  0.00    -0.482 A  
HETATM   15  C   UNL     1     -13.142   7.095  71.337  1.00  0.00    -0.408 A  
HETATM   16  C   UNL     1     -11.878   7.534  70.947  1.00  0.00    -0.293 A  
ENDBRANCH  10  11
ENDBRANCH   9  10
ENDBRANCH   6   9
TORSDOF 3
ENDMDL
MODEL      145
REMARK 921   NORMALIZED FREE ENERGY PREDICTED BY IDOCK:   -3.53 KCAL/MOL
REMARK 922        TOTAL FREE ENERGY PREDICTED BY IDOCK:   -4.59 KCAL/MOL
REMARK 923 INTER-LIGAND FREE ENERGY PREDICTED BY IDOCK:   -4.08 KCAL/MOL
REMARK 924 INTRA-LIGAND FREE ENERGY PREDICTED BY IDOCK:   -0.51 KCAL/MOL
REMARK 927      BINDING AFFINITY PREDICTED BY RF-SCORE:    0.00 PKD
ROOT
HETATM    1  O   UNL     1      -6.934   9.941  68.068  1.00  0.00    -0.075 OA 
HETATM    2  C   UNL     1      -7.826  10.961  67.926  1.00  0.00    -0.109 A  
HETATM    3  H   UNL     1      -6.003  10.080  67.942  1.00  0.00     0.000 HD 
HETATM    4  C   UNL     1      -9.189  10.757  68.111  1.00  0.00    -0.151 A  
HETATM    5  C   UNL     1     -10.071  11.830  67.971  1.00  0.00    -0.198 A  
HETATM    6  C   UNL     1      -9.585  13.105  67.671  1.00  0.00    -0.210 A  
HETATM    7  C   UNL     1      -8.217  13.290  67.456  1.00  0.00    -0.184 A  
HETATM    8  C   UNL     1      -7.334  12.218  67.590  1.00  0.00    -0.127 A  
ENDROOT
BRANCH   6   9
HETATM    9  O   UNL     1     -10.355  14.232  67.562  1.00  0.00    -0.246 OA 
BRANCH   9  10
HETATM   10  C   UNL     1     -10.455  14.775  66.244  1.00  0.00    -0.296 C  
BRANCH  10  11
HETATM   11  C   UNL     1     -11.134  13.780  65.337  1.00  0.00    -0.304 A  
HETATM   12  C   UNL     1     -12.510  13.542  65.438  1.00  0.00    -0.540 A  
HETATM   13  C   UNL     1     -13.138  12.655  64.562  1.00  0.00    -0.068 A  
HETATM   14  C   UNL     1     -12.396  12.006  63.576  1.00  0.00    -0.661 A  
HETATM   15  C   UNL     1     -11.027  12.240  63.462  1.00  0.00    -0.521 A  
HETATM   16  C   UNL     1     -10.399  13.126  64.336  1.00  0.00    -0.390 A  
ENDBRANCH  10  11
ENDBRANCH   9  10
ENDBRANCH   6   9
TORSDOF 3
ENDMDL
MODEL      146
REMARK 921   NORMALIZED FREE ENERGY PREDICTED BY IDOCK:   -3.49 KCAL/MOL
REMARK 922        TOTAL FREE ENERGY PREDICTED BY IDOCK:   -4.53 KCAL/MOL
REMARK 923 INTER-LIGAND FREE ENERGY PREDICTED BY IDOCK:   -4.00 KCAL/MOL
REMARK 924 INTRA-LIGAND FREE ENERGY PREDICTED BY IDOCK:   -0.54 KCAL/MOL
REMARK 927      BINDING AFFINITY PREDICTED BY RF-SCORE:    0.00 PKD
ROOT
HETATM    1  O   UNL     1     -11.453   4.537  65.247  1.00  0.00    -1.068 OA 
HETATM    2  C   UNL     1     -10.688   4.959  66.292  1.00  0.00    -0.158 A  
HETATM    3  H   UNL     1     -12.194   5.047  64.942  1.00  0.00     0.000 HD 
HETATM    4  C   UNL     1      -9.603   4.211  66.738  1.00  0.00    -0.229 A  
HETATM    5  C   UNL     1      -8.833   4.684  67.802  1.00  0.00    -0.115 A  
HETATM    6  C   UNL     1      -9.136   5.910  68.399  1.00  0.00    -0.115 A  
HETATM    7  C   UNL     1     -10.247   6.635  67.962  1.00  0.00    -0.193 A  
HETATM    8  C   UNL     1     -11.021   6.163  66.902  1.00  0.00    -0.384 A  
ENDROOT
BRANCH   6   9
HETATM    9  O   UNL     1      -8.417   6.487  69.412  1.00  0.00    -0.125 OA 
BRANCH   9  10
HETATM   10  C   UNL     1      -7.986   5.591  70.438  1.00  0.00    -0.102 C  
BRANCH  10  11
HETATM   11  C   UNL     1      -9.128   5.316  71.383  1.00  0.00    -0.167 A  
HETATM   12  C   UNL     1      -9.350   4.027  71.883  1.00  0.00    -0.192 A  
HETATM   13  C   UNL     1     -10.381   3.792  72.794  1.00  0.00    -0.238 A  
HETATM   14  C   UNL     1     -11.191   4.846  73.217  1.00  0.00    -0.423 A  
HETATM   15  C   UNL     1     -10.976   6.133  72.731  1.00  0.00    -0.294 A  
HETATM   16  C   UNL     1      -9.946   6.369  71.821  1.00  0.00    -0.195 A  
ENDBRANCH  10  11
ENDBRANCH   9  10
ENDBRANCH   6   9
TORSDOF 3
ENDMDL
MODEL      147
REMARK 921   NORMALIZED FREE ENERGY PREDICTED BY IDOCK:   -3.48 KCAL/MOL
REMARK 922        TOTAL FREE ENERGY PREDICTED BY IDOCK:   -4.53 KCAL/MOL
REMARK 923 INTER-LIGAND FREE ENERGY PREDICTED BY IDOCK:   -4.21 KCAL/MOL
REMARK 924 INTRA-LIGAND FREE ENERGY PREDICTED BY IDOCK:   -0.32 KCAL/MOL
REMARK 927      BINDING AFFINITY PREDICTED BY RF-SCORE:    0.00 PKD
ROOT
HETATM    1  O   UNL     1      -9.389  18.876  67.118  1.00  0.00    -0.291 OA 
HETATM    2  C   UNL     1      -9.736  17.666  67.641  1.00  0.00    -0.277 A  
HETATM    3  H   UNL     1      -9.913  19.287  66.440  1.00  0.00     0.000 HD 
HETATM    4  C   UNL     1      -8.969  17.064  68.633  1.00  0.00    -0.267 A  
HETATM    5  C   UNL     1      -9.364  15.831  69.155  1.00  0.00    -0.258 A  
HETATM    6  C   UNL     1     -10.535  15.218  68.701  1.00  0.00    -0.235 A  
HETATM    7  C   UNL     1     -11.278  15.818  67.681  1.00  0.00    -0.246 A  
HETATM    8  C   UNL     1     -10.882  17.048  67.155  1.00  0.00    -0.082 A  
ENDROOT
BRANCH   6   9
HETATM    9  O   UNL     1     -11.038  14.038  69.180  1.00  0.00    -0.253 OA 
BRANCH   9  10
HETATM   10  C   UNL     1     -11.715  13.230  68.216  1.00  0.00    -0.353 C  
BRANCH  10  11
HETATM   11  C   UNL     1     -11.377  11.779  68.445  1.00  0.00    -0.328 A  
HETATM   12  C   UNL     1     -10.930  10.973  67.389  1.00  0.00    -0.349 A  
HETATM   13  C   UNL     1     -10.573   9.643  67.621  1.00  0.00    -0.334 A  
HETATM   14  C   UNL     1     -10.652   9.114  68.908  1.00  0.00    -0.214 A  
HETATM   15  C   UNL     1     -11.088   9.908  69.966  1.00  0.00    -0.335 A  
HETATM   16  C   UNL     1     -11.445  11.236  69.737  1.00  0.00    -0.386 A  
ENDBRANCH  10  11
ENDBRANCH   9  10
ENDBRANCH   6   9
TORSDOF 3
ENDMDL
MODEL      148
REMARK 921   NORMALIZED FREE ENERGY PREDICTED BY IDOCK:   -3.46 KCAL/MOL
REMARK 922        TOTAL FREE ENERGY PREDICTED BY IDOCK:   -4.51 KCAL/MOL
REMARK 923 INTER-LIGAND FREE ENERGY PREDICTED BY IDOCK:   -4.10 KCAL/MOL
REMARK 924 INTRA-LIGAND FREE ENERGY PREDICTED BY IDOCK:   -0.40 KCAL/MOL
REMARK 927      BINDING AFFINITY PREDICTED BY RF-SCORE:    0.00 PKD
ROOT
HETATM    1  O   UNL     1     -12.493  14.203  68.785  1.00  0.00    -0.542 OA 
HETATM    2  C   UNL     1     -11.688  13.172  68.403  1.00  0.00    -0.351 A  
HETATM    3  H   UNL     1     -12.462  15.042  68.341  1.00  0.00     0.000 HD 
HETATM    4  C   UNL     1     -11.734  11.943  69.053  1.00  0.00    -0.391 A  
HETATM    5  C   UNL     1     -10.903  10.906  68.623  1.00  0.00    -0.258 A  
HETATM    6  C   UNL     1     -10.049  11.095  67.533  1.00  0.00    -0.183 A  
HETATM    7  C   UNL     1      -9.990  12.344  66.910  1.00  0.00    -0.223 A  
HETATM    8  C   UNL     1     -10.816  13.383  67.341  1.00  0.00    -0.279 A  
ENDROOT
BRANCH   6   9
HETATM    9  O   UNL     1      -9.234  10.132  67.001  1.00  0.00    -0.144 OA 
BRANCH   9  10
HETATM   10  C   UNL     1      -9.820   9.346  65.961  1.00  0.00    -0.296 C  
BRANCH  10  11
HETATM   11  C   UNL     1      -9.786   7.889  66.348  1.00  0.00    -0.235 A  
HETATM   12  C   UNL     1      -8.755   7.053  65.900  1.00  0.00    -0.140 A  
HETATM   13  C   UNL     1      -8.705   5.718  66.303  1.00  0.00    -0.134 A  
HETATM   14  C   UNL     1      -9.680   5.212  67.161  1.00  0.00    -0.171 A  
HETATM   15  C   UNL     1     -10.706   6.036  67.619  1.00  0.00    -0.377 A  
HETATM   16  C   UNL     1     -10.757   7.369  67.218  1.00  0.00    -0.379 A  
ENDBRANCH  10  11
ENDBRANCH   9  10
ENDBRANCH   6   9
TORSDOF 3
ENDMDL
MODEL      149
REMARK 921   NORMALIZED FREE ENERGY PREDICTED BY IDOCK:   -3.46 KCAL/MOL
REMARK 922        TOTAL FREE ENERGY PREDICTED BY IDOCK:   -4.50 KCAL/MOL
REMARK 923 INTER-LIGAND FREE ENERGY PREDICTED BY IDOCK:   -4.24 KCAL/MOL
REMARK 924 INTRA-LIGAND FREE ENERGY PREDICTED BY IDOCK:   -0.26 KCAL/MOL
REMARK 927      BINDING AFFINITY PREDICTED BY RF-SCORE:    0.00 PKD
ROOT
HETATM    1  O   UNL     1      -7.818   4.140  66.268  1.00  0.00    -0.093 OA 
HETATM    2  C   UNL     1      -8.563   5.130  66.836  1.00  0.00    -0.105 A  
HETATM    3  H   UNL     1      -6.870   4.194  66.236  1.00  0.00     0.000 HD 
HETATM    4  C   UNL     1      -9.951   5.051  66.882  1.00  0.00    -0.238 A  
HETATM    5  C   UNL     1     -10.679   6.078  67.486  1.00  0.00    -0.383 A  
HETATM    6  C   UNL     1     -10.016   7.165  68.061  1.00  0.00    -0.158 A  
HETATM    7  C   UNL     1      -8.624   7.247  67.979  1.00  0.00    -0.125 A  
HETATM    8  C   UNL     1      -7.895   6.225  67.372  1.00  0.00    -0.101 A  
ENDROOT
BRANCH   6   9
HETATM    9  O   UNL     1     -10.630   8.196  68.720  1.00  0.00    -0.200 OA 
BRANCH   9  10
HETATM   10  C   UNL     1     -10.732   8.037  70.137  1.00  0.00    -0.244 C  
BRANCH  10  11
HETATM   11  C   UNL     1     -11.578   9.145  70.711  1.00  0.00    -0.329 A  
HETATM   12  C   UNL     1     -11.416  10.467  70.277  1.00  0.00    -0.416 A  
HETATM   13  C   UNL     1     -12.236  11.479  70.779  1.00  0.00    -0.463 A  
HETATM   14  C   UNL     1     -13.228  11.175  71.711  1.00  0.00    -0.486 A  
HETATM   15  C   UNL     1     -13.403   9.863  72.144  1.00  0.00    -0.498 A  
HETATM   16  C   UNL     1     -12.584   8.851  71.644  1.00  0.00    -0.403 A  
ENDBRANCH  10  11
ENDBRANCH   9  10
ENDBRANCH   6   9
TORSDOF 3
ENDMDL
MODEL      150
REMARK 921   NORMALIZED FREE ENERGY PREDICTED BY IDOCK:   -3.45 KCAL/MOL
REMARK 922        TOTAL FREE ENERGY PREDICTED BY IDOCK:   -4.49 KCAL/MOL
REMARK 923 INTER-LIGAND FREE ENERGY PREDICTED BY IDOCK:   -4.07 KCAL/MOL
REMARK 924 INTRA-LIGAND FREE ENERGY PREDICTED BY IDOCK:   -0.42 KCAL/MOL
REMARK 927      BINDING AFFINITY PREDICTED BY RF-SCORE:    0.00 PKD
ROOT
HETATM    1  O   UNL     1     -10.880  10.631  70.183  1.00  0.00    -0.402 OA 
HETATM    2  C   UNL     1     -11.209   9.404  70.675  1.00  0.00    -0.284 A  
HETATM    3  H   UNL     1     -11.103  11.426  70.652  1.00  0.00     0.000 HD 
HETATM    4  C   UNL     1     -10.881   8.240  69.987  1.00  0.00    -0.232 A  
HETATM    5  C   UNL     1     -11.222   7.000  70.530  1.00  0.00    -0.335 A  
HETATM    6  C   UNL     1     -11.868   6.929  71.767  1.00  0.00    -0.316 A  
HETATM    7  C   UNL     1     -12.220   8.106  72.432  1.00  0.00    -0.374 A  
HETATM    8  C   UNL     1     -11.884   9.346  71.889  1.00  0.00    -0.402 A  
ENDROOT
BRANCH   6   9
HETATM    9  O   UNL     1     -12.201   5.767  72.411  1.00  0.00    -0.207 OA 
BRANCH   9  10
HETATM   10  C   UNL     1     -11.274   5.340  73.412  1.00  0.00    -0.250 C  
BRANCH  10  11
HETATM   11  C   UNL     1     -10.634   4.042  72.988  1.00  0.00    -0.256 A  
HETATM   12  C   UNL     1     -11.126   2.816  73.453  1.00  0.00    -0.286 A  
HETATM   13  C   UNL     1     -10.557   1.618  73.017  1.00  0.00    -0.223 A  
HETATM   14  C   UNL     1      -9.499   1.638  72.110  1.00  0.00    -0.154 A  
HETATM   15  C   UNL     1      -9.006   2.851  71.636  1.00  0.00    -0.140 A  
HETATM   16  C   UNL     1      -9.573   4.048  72.070  1.00  0.00    -0.206 A  
ENDBRANCH  10  11
ENDBRANCH   9  10
ENDBRANCH   6   9
TORSDOF 3
ENDMDL
MODEL      151
REMARK 921   NORMALIZED FREE ENERGY PREDICTED BY IDOCK:   -3.44 KCAL/MOL
REMARK 922        TOTAL FREE ENERGY PREDICTED BY IDOCK:   -4.48 KCAL/MOL
REMARK 923 INTER-LIGAND FREE ENERGY PREDICTED BY IDOCK:   -3.96 KCAL/MOL
REMARK 924 INTRA-LIGAND FREE ENERGY PREDICTED BY IDOCK:   -0.52 KCAL/MOL
REMARK 927      BINDING AFFINITY PREDICTED BY RF-SCORE:    0.00 PKD
ROOT
HETATM    1  O   UNL     1      -6.819   9.375  69.769  1.00  0.00    -0.048 OA 
HETATM    2  C   UNL     1      -7.715  10.273  69.269  1.00  0.00    -0.130 A  
HETATM    3  H   UNL     1      -7.105   8.547  70.136  1.00  0.00     0.000 HD 
HETATM    4  C   UNL     1      -7.295  11.485  68.731  1.00  0.00    -0.115 A  
HETATM    5  C   UNL     1      -8.242  12.373  68.215  1.00  0.00    -0.170 A  
HETATM    6  C   UNL     1      -9.598  12.034  68.217  1.00  0.00    -0.204 A  
HETATM    7  C   UNL     1     -10.008  10.828  68.789  1.00  0.00    -0.201 A  
HETATM    8  C   UNL     1      -9.064   9.941  69.310  1.00  0.00    -0.196 A  
ENDROOT
BRANCH   6   9
HETATM    9  O   UNL     1     -10.598  12.807  67.691  1.00  0.00    -0.215 OA 
BRANCH   9  10
HETATM   10  C   UNL     1     -11.810  12.830  68.449  1.00  0.00    -0.310 C  
BRANCH  10  11
HETATM   11  C   UNL     1     -11.761  13.958  69.448  1.00  0.00    -0.367 A  
HETATM   12  C   UNL     1     -12.249  13.784  70.749  1.00  0.00    -0.437 A  
HETATM   13  C   UNL     1     -12.155  14.818  71.681  1.00  0.00    -0.414 A  
HETATM   14  C   UNL     1     -11.566  16.030  71.321  1.00  0.00    -0.506 A  
HETATM   15  C   UNL     1     -11.071  16.212  70.032  1.00  0.00    -0.363 A  
HETATM   16  C   UNL     1     -11.164  15.180  69.100  1.00  0.00    -0.288 A  
ENDBRANCH  10  11
ENDBRANCH   9  10
ENDBRANCH   6   9
TORSDOF 3
ENDMDL
MODEL      152
REMARK 921   NORMALIZED FREE ENERGY PREDICTED BY IDOCK:   -3.43 KCAL/MOL
REMARK 922        TOTAL FREE ENERGY PREDICTED BY IDOCK:   -4.47 KCAL/MOL
REMARK 923 INTER-LIGAND FREE ENERGY PREDICTED BY IDOCK:   -3.91 KCAL/MOL
REMARK 924 INTRA-LIGAND FREE ENERGY PREDICTED BY IDOCK:   -0.56 KCAL/MOL
REMARK 927      BINDING AFFINITY PREDICTED BY RF-SCORE:    0.00 PKD
ROOT
HETATM    1  O   UNL     1      -6.430   9.642  66.082  1.00  0.00    -0.068 OA 
HETATM    2  C   UNL     1      -7.392  10.329  66.760  1.00  0.00    -0.106 A  
HETATM    3  H   UNL     1      -6.657   9.028  65.393  1.00  0.00     0.000 HD 
HETATM    4  C   UNL     1      -7.059  11.227  67.769  1.00  0.00    -0.087 A  
HETATM    5  C   UNL     1      -8.071  11.923  68.432  1.00  0.00    -0.155 A  
HETATM    6  C   UNL     1      -9.408  11.736  68.068  1.00  0.00    -0.184 A  
HETATM    7  C   UNL     1      -9.730  10.806  67.077  1.00  0.00    -0.205 A  
HETATM    8  C   UNL     1      -8.720  10.106  66.416  1.00  0.00    -0.140 A  
ENDROOT
BRANCH   6   9
HETATM    9  O   UNL     1     -10.470  12.403  68.618  1.00  0.00    -0.228 OA 
BRANCH   9  10
HETATM   10  C   UNL     1     -10.491  13.812  68.378  1.00  0.00    -0.252 C  
BRANCH  10  11
HETATM   11  C   UNL     1     -11.034  14.082  66.998  1.00  0.00    -0.302 A  
HETATM   12  C   UNL     1     -12.266  13.551  66.596  1.00  0.00    -0.411 A  
HETATM   13  C   UNL     1     -12.782  13.846  65.333  1.00  0.00    -0.525 A  
HETATM   14  C   UNL     1     -12.074  14.678  64.467  1.00  0.00    -0.490 A  
HETATM   15  C   UNL     1     -10.851  15.217  64.859  1.00  0.00    -0.444 A  
HETATM   16  C   UNL     1     -10.334  14.924  66.120  1.00  0.00    -0.312 A  
ENDBRANCH  10  11
ENDBRANCH   9  10
ENDBRANCH   6   9
TORSDOF 3
ENDMDL
MODEL      153
REMARK 921   NORMALIZED FREE ENERGY PREDICTED BY IDOCK:   -3.43 KCAL/MOL
REMARK 922        TOTAL FREE ENERGY PREDICTED BY IDOCK:   -4.46 KCAL/MOL
REMARK 923 INTER-LIGAND FREE ENERGY PREDICTED BY IDOCK:   -4.27 KCAL/MOL
REMARK 924 INTRA-LIGAND FREE ENERGY PREDICTED BY IDOCK:   -0.20 KCAL/MOL
REMARK 927      BINDING AFFINITY PREDICTED BY RF-SCORE:    0.00 PKD
ROOT
HETATM    1  O   UNL     1     -13.566  13.339  64.949  1.00  0.00    -0.005 OA 
HETATM    2  C   UNL     1     -12.339  13.589  65.486  1.00  0.00    -0.481 A  
HETATM    3  H   UNL     1     -14.214  12.827  65.419  1.00  0.00     0.000 HD 
HETATM    4  C   UNL     1     -11.391  14.338  64.797  1.00  0.00    -0.382 A  
HETATM    5  C   UNL     1     -10.150  14.586  65.386  1.00  0.00    -0.394 A  
HETATM    6  C   UNL     1      -9.871  14.105  66.668  1.00  0.00    -0.283 A  
HETATM    7  C   UNL     1     -10.820  13.326  67.335  1.00  0.00    -0.279 A  
HETATM    8  C   UNL     1     -12.060  13.073  66.747  1.00  0.00    -0.366 A  
ENDROOT
BRANCH   6   9
HETATM    9  O   UNL     1      -8.709  14.333  67.355  1.00  0.00    -0.185 OA 
BRANCH   9  10
HETATM   10  C   UNL     1      -7.962  15.474  66.924  1.00  0.00    -0.229 C  
BRANCH  10  11
HETATM   11  C   UNL     1      -8.573  16.725  67.501  1.00  0.00    -0.203 A  
HETATM   12  C   UNL     1      -9.452  16.657  68.590  1.00  0.00    -0.249 A  
HETATM   13  C   UNL     1      -9.974  17.825  69.148  1.00  0.00    -0.189 A  
HETATM   14  C   UNL     1      -9.616  19.067  68.627  1.00  0.00    -0.458 A  
HETATM   15  C   UNL     1      -8.738  19.148  67.549  1.00  0.00    -0.322 A  
HETATM   16  C   UNL     1      -8.216  17.982  66.990  1.00  0.00    -0.240 A  
ENDBRANCH  10  11
ENDBRANCH   9  10
ENDBRANCH   6   9
TORSDOF 3
ENDMDL
MODEL      154
REMARK 921   NORMALIZED FREE ENERGY PREDICTED BY IDOCK:   -3.43 KCAL/MOL
REMARK 922        TOTAL FREE ENERGY PREDICTED BY IDOCK:   -4.46 KCAL/MOL
REMARK 923 INTER-LIGAND FREE ENERGY PREDICTED BY IDOCK:   -3.87 KCAL/MOL
REMARK 924 INTRA-LIGAND FREE ENERGY PREDICTED BY IDOCK:   -0.59 KCAL/MOL
REMARK 927      BINDING AFFINITY PREDICTED BY RF-SCORE:    0.00 PKD
ROOT
HETATM    1  O   UNL     1     -12.206  14.978  71.230  1.00  0.00    -0.278 OA 
HETATM    2  C   UNL     1     -12.168  13.837  70.485  1.00  0.00    -0.369 A  
HETATM    3  H   UNL     1     -12.510  14.968  72.130  1.00  0.00     0.000 HD 
HETATM    4  C   UNL     1     -11.723  13.852  69.167  1.00  0.00    -0.382 A  
HETATM    5  C   UNL     1     -11.684  12.660  68.441  1.00  0.00    -0.377 A  
HETATM    6  C   UNL     1     -12.067  11.458  69.042  1.00  0.00    -0.249 A  
HETATM    7  C   UNL     1     -12.543  11.463  70.355  1.00  0.00    -0.267 A  
HETATM    8  C   UNL     1     -12.587  12.653  71.082  1.00  0.00    -0.354 A  
ENDROOT
BRANCH   6   9
HETATM    9  O   UNL     1     -12.019  10.230  68.437  1.00  0.00    -0.164 OA 
BRANCH   9  10
HETATM   10  C   UNL     1     -10.706   9.747  68.146  1.00  0.00    -0.233 C  
BRANCH  10  11
HETATM   11  C   UNL     1     -10.082   9.193  69.402  1.00  0.00    -0.198 A  
HETATM   12  C   UNL     1      -8.915   9.758  69.931  1.00  0.00    -0.254 A  
HETATM   13  C   UNL     1      -8.372   9.269  71.120  1.00  0.00    -0.057 A  
HETATM   14  C   UNL     1      -8.995   8.218  71.791  1.00  0.00    -0.241 A  
HETATM   15  C   UNL     1     -10.160   7.652  71.278  1.00  0.00    -0.203 A  
HETATM   16  C   UNL     1     -10.704   8.140  70.090  1.00  0.00    -0.243 A  
ENDBRANCH  10  11
ENDBRANCH   9  10
ENDBRANCH   6   9
TORSDOF 3
ENDMDL
MODEL      155
REMARK 921   NORMALIZED FREE ENERGY PREDICTED BY IDOCK:   -3.41 KCAL/MOL
REMARK 922        TOTAL FREE ENERGY PREDICTED BY IDOCK:   -4.44 KCAL/MOL
REMARK 923 INTER-LIGAND FREE ENERGY PREDICTED BY IDOCK:   -3.91 KCAL/MOL
REMARK 924 INTRA-LIGAND FREE ENERGY PREDICTED BY IDOCK:   -0.53 KCAL/MOL
REMARK 927      BINDING AFFINITY PREDICTED BY RF-SCORE:    0.00 PKD
ROOT
HETATM    1  O   UNL     1     -12.796  12.331  71.711  1.00  0.00    -0.331 OA 
HETATM    2  C   UNL     1     -12.410  12.589  70.430  1.00  0.00    -0.232 A  
HETATM    3  H   UNL     1     -12.787  11.447  72.059  1.00  0.00     0.000 HD 
HETATM    4  C   UNL     1     -12.424  13.884  69.920  1.00  0.00    -0.285 A  
HETATM    5  C   UNL     1     -12.006  14.111  68.608  1.00  0.00    -0.373 A  
HETATM    6  C   UNL     1     -11.556  13.048  67.819  1.00  0.00    -0.340 A  
HETATM    7  C   UNL     1     -11.578  11.749  68.333  1.00  0.00    -0.380 A  
HETATM    8  C   UNL     1     -11.999  11.519  69.643  1.00  0.00    -0.407 A  
ENDROOT
BRANCH   6   9
HETATM    9  O   UNL     1     -11.079  13.169  66.541  1.00  0.00    -0.285 OA 
BRANCH   9  10
HETATM   10  C   UNL     1      -9.776  12.623  66.325  1.00  0.00    -0.259 C  
BRANCH  10  11
HETATM   11  C   UNL     1      -8.755  13.437  67.078  1.00  0.00    -0.195 A  
HETATM   12  C   UNL     1      -7.808  12.814  67.900  1.00  0.00    -0.156 A  
HETATM   13  C   UNL     1      -6.836  13.573  68.555  1.00  0.00    -0.099 A  
HETATM   14  C   UNL     1      -6.801  14.956  68.388  1.00  0.00    -0.110 A  
HETATM   15  C   UNL     1      -7.734  15.586  67.567  1.00  0.00    -0.195 A  
HETATM   16  C   UNL     1      -8.705  14.830  66.912  1.00  0.00    -0.264 A  
ENDBRANCH  10  11
ENDBRANCH   9  10
ENDBRANCH   6   9
TORSDOF 3
ENDMDL
MODEL      156
REMARK 921   NORMALIZED FREE ENERGY PREDICTED BY IDOCK:   -3.40 KCAL/MOL
REMARK 922        TOTAL FREE ENERGY PREDICTED BY IDOCK:   -4.44 KCAL/MOL
REMARK 923 INTER-LIGAND FREE ENERGY PREDICTED BY IDOCK:   -4.12 KCAL/MOL
REMARK 924 INTRA-LIGAND FREE ENERGY PREDICTED BY IDOCK:   -0.32 KCAL/MOL
REMARK 927      BINDING AFFINITY PREDICTED BY RF-SCORE:    0.00 PKD
ROOT
HETATM    1  O   UNL     1     -10.632   5.152  70.921  1.00  0.00    -0.216 OA 
HETATM    2  C   UNL     1     -10.417   6.425  70.485  1.00  0.00    -0.220 A  
HETATM    3  H   UNL     1     -11.407   4.927  71.422  1.00  0.00     0.000 HD 
HETATM    4  C   UNL     1      -9.281   6.753  69.752  1.00  0.00    -0.146 A  
HETATM    5  C   UNL     1      -9.104   8.066  69.310  1.00  0.00    -0.148 A  
HETATM    6  C   UNL     1     -10.071   9.037  69.583  1.00  0.00    -0.197 A  
HETATM    7  C   UNL     1     -11.190   8.701  70.348  1.00  0.00    -0.236 A  
HETATM    8  C   UNL     1     -11.368   7.391  70.795  1.00  0.00    -0.303 A  
ENDROOT
BRANCH   6   9
HETATM    9  O   UNL     1     -10.019  10.336  69.155  1.00  0.00    -0.199 OA 
BRANCH   9  10
HETATM   10  C   UNL     1     -10.088  10.512  67.738  1.00  0.00    -0.175 C  
BRANCH  10  11
HETATM   11  C   UNL     1     -10.815  11.795  67.423  1.00  0.00    -0.299 A  
HETATM   12  C   UNL     1     -11.382  12.005  66.159  1.00  0.00    -0.407 A  
HETATM   13  C   UNL     1     -12.094  13.175  65.892  1.00  0.00    -0.501 A  
HETATM   14  C   UNL     1     -12.250  14.139  66.888  1.00  0.00    -0.400 A  
HETATM   15  C   UNL     1     -11.697  13.938  68.150  1.00  0.00    -0.388 A  
HETATM   16  C   UNL     1     -10.985  12.770  68.418  1.00  0.00    -0.281 A  
ENDBRANCH  10  11
ENDBRANCH   9  10
ENDBRANCH   6   9
TORSDOF 3
ENDMDL
MODEL      157
REMARK 921   NORMALIZED FREE ENERGY PREDICTED BY IDOCK:   -3.40 KCAL/MOL
REMARK 922        TOTAL FREE ENERGY PREDICTED BY IDOCK:   -4.43 KCAL/MOL
REMARK 923 INTER-LIGAND FREE ENERGY PREDICTED BY IDOCK:   -3.97 KCAL/MOL
REMARK 924 INTRA-LIGAND FREE ENERGY PREDICTED BY IDOCK:   -0.46 KCAL/MOL
REMARK 927      BINDING AFFINITY PREDICTED BY RF-SCORE:    0.00 PKD
ROOT
HETATM    1  O   UNL     1     -12.608  12.424  69.807  1.00  0.00     0.067 OA 
HETATM    2  C   UNL     1     -11.970  11.250  70.076  1.00  0.00    -0.368 A  
HETATM    3  H   UNL     1     -12.321  12.989  69.099  1.00  0.00     0.000 HD 
HETATM    4  C   UNL     1     -12.391  10.423  71.112  1.00  0.00    -0.505 A  
HETATM    5  C   UNL     1     -11.721   9.221  71.348  1.00  0.00    -0.431 A  
HETATM    6  C   UNL     1     -10.651   8.840  70.533  1.00  0.00    -0.215 A  
HETATM    7  C   UNL     1     -10.219   9.696  69.516  1.00  0.00    -0.233 A  
HETATM    8  C   UNL     1     -10.883  10.900  69.282  1.00  0.00    -0.286 A  
ENDROOT
BRANCH   6   9
HETATM    9  O   UNL     1      -9.961   7.663  70.645  1.00  0.00    -0.183 OA 
BRANCH   9  10
HETATM   10  C   UNL     1     -10.749   6.480  70.492  1.00  0.00    -0.254 C  
BRANCH  10  11
HETATM   11  C   UNL     1     -10.421   5.821  69.176  1.00  0.00    -0.346 A  
HETATM   12  C   UNL     1      -9.481   4.785  69.109  1.00  0.00    -0.215 A  
HETATM   13  C   UNL     1      -9.220   4.149  67.894  1.00  0.00    -0.191 A  
HETATM   14  C   UNL     1      -9.901   4.539  66.742  1.00  0.00    -0.242 A  
HETATM   15  C   UNL     1     -10.843   5.564  66.799  1.00  0.00    -0.252 A  
HETATM   16  C   UNL     1     -11.105   6.200  68.011  1.00  0.00    -0.316 A  
ENDBRANCH  10  11
ENDBRANCH   9  10
ENDBRANCH   6   9
TORSDOF 3
ENDMDL
MODEL      158
REMARK 921   NORMALIZED FREE ENERGY PREDICTED BY IDOCK:   -3.39 KCAL/MOL
REMARK 922        TOTAL FREE ENERGY PREDICTED BY IDOCK:   -4.42 KCAL/MOL
REMARK 923 INTER-LIGAND FREE ENERGY PREDICTED BY IDOCK:   -3.96 KCAL/MOL
REMARK 924 INTRA-LIGAND FREE ENERGY PREDICTED BY IDOCK:   -0.47 KCAL/MOL
REMARK 927      BINDING AFFINITY PREDICTED BY RF-SCORE:    0.00 PKD
ROOT
HETATM    1  O   UNL     1     -10.338   9.916  69.542  1.00  0.00    -0.199 OA 
HETATM    2  C   UNL     1     -10.327   9.183  70.691  1.00  0.00    -0.246 A  
HETATM    3  H   UNL     1     -11.152  10.123  69.098  1.00  0.00     0.000 HD 
HETATM    4  C   UNL     1      -9.135   8.881  71.341  1.00  0.00    -0.318 A  
HETATM    5  C   UNL     1      -9.165   8.140  72.524  1.00  0.00    -0.319 A  
HETATM    6  C   UNL     1     -10.386   7.725  73.063  1.00  0.00    -0.347 A  
HETATM    7  C   UNL     1     -11.573   8.008  72.382  1.00  0.00    -0.450 A  
HETATM    8  C   UNL     1     -11.545   8.744  71.198  1.00  0.00    -0.344 A  
ENDROOT
BRANCH   6   9
HETATM    9  O   UNL     1     -10.530   7.040  74.240  1.00  0.00    -0.262 OA 
BRANCH   9  10
HETATM   10  C   UNL     1      -9.468   6.136  74.550  1.00  0.00    -0.211 C  
BRANCH  10  11
HETATM   11  C   UNL     1      -9.720   4.810  73.878  1.00  0.00    -0.153 A  
HETATM   12  C   UNL     1     -10.651   3.906  74.404  1.00  0.00    -0.248 A  
HETATM   13  C   UNL     1     -10.913   2.702  73.748  1.00  0.00    -0.303 A  
HETATM   14  C   UNL     1     -10.252   2.398  72.559  1.00  0.00    -0.231 A  
HETATM   15  C   UNL     1      -9.329   3.292  72.023  1.00  0.00    -0.188 A  
HETATM   16  C   UNL     1      -9.066   4.495  72.677  1.00  0.00    -0.137 A  
ENDBRANCH  10  11
ENDBRANCH   9  10
ENDBRANCH   6   9
TORSDOF 3
ENDMDL
MODEL      159
REMARK 921   NORMALIZED FREE ENERGY PREDICTED BY IDOCK:   -3.39 KCAL/MOL
REMARK 922        TOTAL FREE ENERGY PREDICTED BY IDOCK:   -4.42 KCAL/MOL
REMARK 923 INTER-LIGAND FREE ENERGY PREDICTED BY IDOCK:   -3.95 KCAL/MOL
REMARK 924 INTRA-LIGAND FREE ENERGY PREDICTED BY IDOCK:   -0.47 KCAL/MOL
REMARK 927      BINDING AFFINITY PREDICTED BY RF-SCORE:    0.00 PKD
ROOT
HETATM    1  O   UNL     1     -11.088   4.728  65.792  1.00  0.00    -0.803 OA 
HETATM    2  C   UNL     1     -10.474   5.790  66.386  1.00  0.00    -0.157 A  
HETATM    3  H   UNL     1     -11.933   4.416  66.095  1.00  0.00     0.000 HD 
HETATM    4  C   UNL     1      -9.237   6.247  65.941  1.00  0.00    -0.050 A  
HETATM    5  C   UNL     1      -8.646   7.347  66.565  1.00  0.00    -0.134 A  
HETATM    6  C   UNL     1      -9.302   7.998  67.613  1.00  0.00    -0.143 A  
HETATM    7  C   UNL     1     -10.528   7.509  68.070  1.00  0.00    -0.253 A  
HETATM    8  C   UNL     1     -11.119   6.406  67.451  1.00  0.00    -0.412 A  
ENDROOT
BRANCH   6   9
HETATM    9  O   UNL     1      -8.836   9.112  68.257  1.00  0.00    -0.129 OA 
BRANCH   9  10
HETATM   10  C   UNL     1      -9.826   9.872  68.954  1.00  0.00    -0.176 C  
BRANCH  10  11
HETATM   11  C   UNL     1     -10.166  11.108  68.160  1.00  0.00    -0.198 A  
HETATM   12  C   UNL     1      -9.178  11.787  67.435  1.00  0.00    -0.174 A  
HETATM   13  C   UNL     1      -9.512  12.902  66.665  1.00  0.00    -0.255 A  
HETATM   14  C   UNL     1     -10.834  13.341  66.609  1.00  0.00    -0.289 A  
HETATM   15  C   UNL     1     -11.825  12.669  67.320  1.00  0.00    -0.395 A  
HETATM   16  C   UNL     1     -11.494  11.555  68.090  1.00  0.00    -0.385 A  
ENDBRANCH  10  11
ENDBRANCH   9  10
ENDBRANCH   6   9
TORSDOF 3
ENDMDL
MODEL      160
REMARK 921   NORMALIZED FREE ENERGY PREDICTED BY IDOCK:   -3.37 KCAL/MOL
REMARK 922        TOTAL FREE ENERGY PREDICTED BY IDOCK:   -4.40 KCAL/MOL
REMARK 923 INTER-LIGAND FREE ENERGY PREDICTED BY IDOCK:   -3.94 KCAL/MOL
REMARK 924 INTRA-LIGAND FREE ENERGY PREDICTED BY IDOCK:   -0.47 KCAL/MOL
REMARK 927      BINDING AFFINITY PREDICTED BY RF-SCORE:    0.00 PKD
ROOT
HETATM    1  O   UNL     1      -7.737   6.033  64.730  1.00  0.00    -0.087 OA 
HETATM    2  C   UNL     1      -8.402   7.089  65.279  1.00  0.00    -0.096 A  
HETATM    3  H   UNL     1      -7.101   6.159  64.036  1.00  0.00     0.000 HD 
HETATM    4  C   UNL     1      -9.333   6.904  66.295  1.00  0.00    -0.144 A  
HETATM    5  C   UNL     1      -9.984   8.012  66.842  1.00  0.00    -0.338 A  
HETATM    6  C   UNL     1      -9.683   9.299  66.388  1.00  0.00    -0.258 A  
HETATM    7  C   UNL     1      -8.770   9.467  65.344  1.00  0.00    -0.190 A  
HETATM    8  C   UNL     1      -8.123   8.361  64.792  1.00  0.00    -0.155 A  
ENDROOT
BRANCH   6   9
HETATM    9  O   UNL     1     -10.224  10.453  66.889  1.00  0.00    -0.209 OA 
BRANCH   9  10
HETATM   10  C   UNL     1      -9.617  10.937  68.089  1.00  0.00    -0.164 C  
BRANCH  10  11
HETATM   11  C   UNL     1     -10.458  10.539  69.276  1.00  0.00    -0.258 A  
HETATM   12  C   UNL     1     -11.785  10.972  69.390  1.00  0.00    -0.394 A  
HETATM   13  C   UNL     1     -12.570  10.560  70.468  1.00  0.00    -0.423 A  
HETATM   14  C   UNL     1     -12.037   9.707  71.434  1.00  0.00    -0.472 A  
HETATM   15  C   UNL     1     -10.720   9.266  71.327  1.00  0.00    -0.422 A  
HETATM   16  C   UNL     1      -9.935   9.676  70.251  1.00  0.00    -0.326 A  
ENDBRANCH  10  11
ENDBRANCH   9  10
ENDBRANCH   6   9
TORSDOF 3
ENDMDL
MODEL      161
REMARK 921   NORMALIZED FREE ENERGY PREDICTED BY IDOCK:   -3.36 KCAL/MOL
REMARK 922        TOTAL FREE ENERGY PREDICTED BY IDOCK:   -4.39 KCAL/MOL
REMARK 923 INTER-LIGAND FREE ENERGY PREDICTED BY IDOCK:   -3.81 KCAL/MOL
REMARK 924 INTRA-LIGAND FREE ENERGY PREDICTED BY IDOCK:   -0.58 KCAL/MOL
REMARK 927      BINDING AFFINITY PREDICTED BY RF-SCORE:    0.00 PKD
ROOT
HETATM    1  O   UNL     1     -11.254  11.964  69.943  1.00  0.00    -0.474 OA 
HETATM    2  C   UNL     1     -11.335  10.612  70.095  1.00  0.00    -0.323 A  
HETATM    3  H   UNL     1     -11.811  12.549  70.442  1.00  0.00     0.000 HD 
HETATM    4  C   UNL     1     -10.518   9.755  69.364  1.00  0.00    -0.241 A  
HETATM    5  C   UNL     1     -10.620   8.376  69.558  1.00  0.00    -0.217 A  
HETATM    6  C   UNL     1     -11.519   7.862  70.496  1.00  0.00    -0.195 A  
HETATM    7  C   UNL     1     -12.356   8.732  71.199  1.00  0.00    -0.258 A  
HETATM    8  C   UNL     1     -12.259  10.110  71.004  1.00  0.00    -0.474 A  
ENDROOT
BRANCH   6   9
HETATM    9  O   UNL     1     -11.661   6.535  70.799  1.00  0.00    -0.361 OA 
BRANCH   9  10
HETATM   10  C   UNL     1     -11.608   6.220  72.192  1.00  0.00    -0.319 C  
BRANCH  10  11
HETATM   11  C   UNL     1     -10.173   6.024  72.612  1.00  0.00    -0.205 A  
HETATM   12  C   UNL     1      -9.644   6.729  73.700  1.00  0.00    -0.224 A  
HETATM   13  C   UNL     1      -8.329   6.506  74.112  1.00  0.00    -0.136 A  
HETATM   14  C   UNL     1      -7.538   5.572  73.443  1.00  0.00    -0.096 A  
HETATM   15  C   UNL     1      -8.056   4.861  72.363  1.00  0.00    -0.111 A  
HETATM   16  C   UNL     1      -9.370   5.083  71.952  1.00  0.00    -0.176 A  
ENDBRANCH  10  11
ENDBRANCH   9  10
ENDBRANCH   6   9
TORSDOF 3
ENDMDL
MODEL      162
REMARK 921   NORMALIZED FREE ENERGY PREDICTED BY IDOCK:   -3.34 KCAL/MOL
REMARK 922        TOTAL FREE ENERGY PREDICTED BY IDOCK:   -4.36 KCAL/MOL
REMARK 923 INTER-LIGAND FREE ENERGY PREDICTED BY IDOCK:   -3.98 KCAL/MOL
REMARK 924 INTRA-LIGAND FREE ENERGY PREDICTED BY IDOCK:   -0.38 KCAL/MOL
REMARK 927      BINDING AFFINITY PREDICTED BY RF-SCORE:    0.00 PKD
ROOT
HETATM    1  O   UNL     1      -8.544   4.066  73.004  1.00  0.00    -0.098 OA 
HETATM    2  C   UNL     1      -9.034   4.947  72.086  1.00  0.00    -0.131 A  
HETATM    3  H   UNL     1      -7.885   4.329  73.636  1.00  0.00     0.000 HD 
HETATM    4  C   UNL     1      -9.999   4.560  71.161  1.00  0.00    -0.257 A  
HETATM    5  C   UNL     1     -10.487   5.495  70.246  1.00  0.00    -0.365 A  
HETATM    6  C   UNL     1     -10.028   6.814  70.276  1.00  0.00    -0.178 A  
HETATM    7  C   UNL     1      -9.035   7.180  71.188  1.00  0.00    -0.145 A  
HETATM    8  C   UNL     1      -8.542   6.247  72.101  1.00  0.00    -0.126 A  
ENDROOT
BRANCH   6   9
HETATM    9  O   UNL     1     -10.476   7.818  69.460  1.00  0.00    -0.219 OA 
BRANCH   9  10
HETATM   10  C   UNL     1      -9.904   9.104  69.707  1.00  0.00    -0.181 C  
BRANCH  10  11
HETATM   11  C   UNL     1     -10.980  10.057  70.163  1.00  0.00    -0.368 A  
HETATM   12  C   UNL     1     -11.728   9.793  71.317  1.00  0.00    -0.472 A  
HETATM   13  C   UNL     1     -12.689  10.705  71.758  1.00  0.00    -0.489 A  
HETATM   14  C   UNL     1     -12.902  11.889  71.053  1.00  0.00    -0.291 A  
HETATM   15  C   UNL     1     -12.159  12.165  69.908  1.00  0.00    -0.324 A  
HETATM   16  C   UNL     1     -11.199  11.256  69.466  1.00  0.00    -0.337 A  
ENDBRANCH  10  11
ENDBRANCH   9  10
ENDBRANCH   6   9
TORSDOF 3
ENDMDL
MODEL      163
REMARK 921   NORMALIZED FREE ENERGY PREDICTED BY IDOCK:   -3.34 KCAL/MOL
REMARK 922        TOTAL FREE ENERGY PREDICTED BY IDOCK:   -4.36 KCAL/MOL
REMARK 923 INTER-LIGAND FREE ENERGY PREDICTED BY IDOCK:   -3.90 KCAL/MOL
REMARK 924 INTRA-LIGAND FREE ENERGY PREDICTED BY IDOCK:   -0.46 KCAL/MOL
REMARK 927      BINDING AFFINITY PREDICTED BY RF-SCORE:    0.00 PKD
ROOT
HETATM    1  O   UNL     1      -7.247  12.036  69.295  1.00  0.00    -0.288 OA 
HETATM    2  C   UNL     1      -7.064  13.364  69.047  1.00  0.00    -0.053 A  
HETATM    3  H   UNL     1      -7.785  11.499  68.725  1.00  0.00     0.000 HD 
HETATM    4  C   UNL     1      -6.277  14.151  69.881  1.00  0.00    -0.146 A  
HETATM    5  C   UNL     1      -6.102  15.504  69.586  1.00  0.00    -0.150 A  
HETATM    6  C   UNL     1      -6.693  16.058  68.448  1.00  0.00    -0.120 A  
HETATM    7  C   UNL     1      -7.507  15.264  67.637  1.00  0.00    -0.197 A  
HETATM    8  C   UNL     1      -7.688  13.912  67.932  1.00  0.00    -0.161 A  
ENDROOT
BRANCH   6   9
HETATM    9  O   UNL     1      -6.543  17.357  68.041  1.00  0.00    -0.160 OA 
BRANCH   9  10
HETATM   10  C   UNL     1      -7.294  18.318  68.786  1.00  0.00    -0.284 C  
BRANCH  10  11
HETATM   11  C   UNL     1      -8.419  18.851  67.935  1.00  0.00    -0.318 A  
HETATM   12  C   UNL     1      -8.153  19.518  66.733  1.00  0.00    -0.313 A  
HETATM   13  C   UNL     1      -9.202  19.966  65.929  1.00  0.00    -0.224 A  
HETATM   14  C   UNL     1     -10.522  19.743  66.316  1.00  0.00    -0.614 A  
HETATM   15  C   UNL     1     -10.799  19.074  67.506  1.00  0.00    -0.478 A  
HETATM   16  C   UNL     1      -9.752  18.626  68.311  1.00  0.00    -0.394 A  
ENDBRANCH  10  11
ENDBRANCH   9  10
ENDBRANCH   6   9
TORSDOF 3
ENDMDL
MODEL      164
REMARK 921   NORMALIZED FREE ENERGY PREDICTED BY IDOCK:   -3.32 KCAL/MOL
REMARK 922        TOTAL FREE ENERGY PREDICTED BY IDOCK:   -4.34 KCAL/MOL
REMARK 923 INTER-LIGAND FREE ENERGY PREDICTED BY IDOCK:   -4.02 KCAL/MOL
REMARK 924 INTRA-LIGAND FREE ENERGY PREDICTED BY IDOCK:   -0.32 KCAL/MOL
REMARK 927      BINDING AFFINITY PREDICTED BY RF-SCORE:    0.00 PKD
ROOT
HETATM    1  O   UNL     1      -8.876   6.004  69.679  1.00  0.00    -0.130 OA 
HETATM    2  C   UNL     1      -9.275   7.009  68.850  1.00  0.00    -0.136 A  
HETATM    3  H   UNL     1      -9.028   6.049  70.616  1.00  0.00     0.000 HD 
HETATM    4  C   UNL     1      -9.051   6.943  67.479  1.00  0.00    -0.118 A  
HETATM    5  C   UNL     1      -9.488   7.986  66.660  1.00  0.00    -0.273 A  
HETATM    6  C   UNL     1     -10.165   9.077  67.211  1.00  0.00    -0.256 A  
HETATM    7  C   UNL     1     -10.354   9.146  68.593  1.00  0.00    -0.233 A  
HETATM    8  C   UNL     1      -9.914   8.107  69.415  1.00  0.00    -0.188 A  
ENDROOT
BRANCH   6   9
HETATM    9  O   UNL     1     -10.677  10.124  66.493  1.00  0.00    -0.153 OA 
BRANCH   9  10
HETATM   10  C   UNL     1     -11.205  11.197  67.277  1.00  0.00    -0.277 C  
BRANCH  10  11
HETATM   11  C   UNL     1     -11.049  12.496  66.526  1.00  0.00    -0.330 A  
HETATM   12  C   UNL     1      -9.832  13.189  66.542  1.00  0.00    -0.265 A  
HETATM   13  C   UNL     1      -9.682  14.365  65.806  1.00  0.00    -0.283 A  
HETATM   14  C   UNL     1     -10.743  14.851  65.043  1.00  0.00    -0.451 A  
HETATM   15  C   UNL     1     -11.956  14.166  65.015  1.00  0.00    -0.412 A  
HETATM   16  C   UNL     1     -12.107  12.991  65.750  1.00  0.00    -0.510 A  
ENDBRANCH  10  11
ENDBRANCH   9  10
ENDBRANCH   6   9
TORSDOF 3
ENDMDL
MODEL      165
REMARK 921   NORMALIZED FREE ENERGY PREDICTED BY IDOCK:   -3.28 KCAL/MOL
REMARK 922        TOTAL FREE ENERGY PREDICTED BY IDOCK:   -4.30 KCAL/MOL
REMARK 923 INTER-LIGAND FREE ENERGY PREDICTED BY IDOCK:   -3.72 KCAL/MOL
REMARK 924 INTRA-LIGAND FREE ENERGY PREDICTED BY IDOCK:   -0.58 KCAL/MOL
REMARK 927      BINDING AFFINITY PREDICTED BY RF-SCORE:    0.00 PKD
ROOT
HETATM    1  O   UNL     1     -12.499  13.193  66.463  1.00  0.00    -0.340 OA 
HETATM    2  C   UNL     1     -11.888  14.410  66.493  1.00  0.00    -0.390 A  
HETATM    3  H   UNL     1     -12.827  12.787  67.258  1.00  0.00     0.000 HD 
HETATM    4  C   UNL     1     -11.409  15.004  65.329  1.00  0.00    -0.349 A  
HETATM    5  C   UNL     1     -10.801  16.259  65.397  1.00  0.00    -0.284 A  
HETATM    6  C   UNL     1     -10.696  16.924  66.622  1.00  0.00    -0.094 A  
HETATM    7  C   UNL     1     -11.152  16.302  67.787  1.00  0.00    -0.227 A  
HETATM    8  C   UNL     1     -11.755  15.046  67.722  1.00  0.00    -0.294 A  
ENDROOT
BRANCH   6   9
HETATM    9  O   UNL     1     -10.166  18.175  66.791  1.00  0.00    -0.336 OA 
BRANCH   9  10
HETATM   10  C   UNL     1      -8.933  18.409  66.107  1.00  0.00    -0.099 C  
BRANCH  10  11
HETATM   11  C   UNL     1      -7.786  17.898  66.942  1.00  0.00    -0.245 A  
HETATM   12  C   UNL     1      -7.005  16.821  66.503  1.00  0.00    -0.224 A  
HETATM   13  C   UNL     1      -5.916  16.387  67.260  1.00  0.00    -0.193 A  
HETATM   14  C   UNL     1      -5.597  17.029  68.455  1.00  0.00    -0.135 A  
HETATM   15  C   UNL     1      -6.362  18.105  68.898  1.00  0.00    -0.224 A  
HETATM   16  C   UNL     1      -7.450  18.541  68.143  1.00  0.00    -0.284 A  
ENDBRANCH  10  11
ENDBRANCH   9  10
ENDBRANCH   6   9
TORSDOF 3
ENDMDL
MODEL      166
REMARK 921   NORMALIZED FREE ENERGY PREDICTED BY IDOCK:   -3.28 KCAL/MOL
REMARK 922        TOTAL FREE ENERGY PREDICTED BY IDOCK:   -4.29 KCAL/MOL
REMARK 923 INTER-LIGAND FREE ENERGY PREDICTED BY IDOCK:   -3.73 KCAL/MOL
REMARK 924 INTRA-LIGAND FREE ENERGY PREDICTED BY IDOCK:   -0.56 KCAL/MOL
REMARK 927      BINDING AFFINITY PREDICTED BY RF-SCORE:    0.00 PKD
ROOT
HETATM    1  O   UNL     1     -10.306   8.808  72.069  1.00  0.00    -0.324 OA 
HETATM    2  C   UNL     1     -10.025   9.176  70.787  1.00  0.00    -0.269 A  
HETATM    3  H   UNL     1      -9.619   8.730  72.721  1.00  0.00     0.000 HD 
HETATM    4  C   UNL     1     -11.031   9.290  69.834  1.00  0.00    -0.231 A  
HETATM    5  C   UNL     1     -10.705   9.683  68.534  1.00  0.00    -0.239 A  
HETATM    6  C   UNL     1      -9.382   9.982  68.201  1.00  0.00    -0.131 A  
HETATM    7  C   UNL     1      -8.377   9.832  69.160  1.00  0.00    -0.137 A  
HETATM    8  C   UNL     1      -8.699   9.435  70.458  1.00  0.00    -0.276 A  
ENDROOT
BRANCH   6   9
HETATM    9  O   UNL     1      -8.964  10.424  66.974  1.00  0.00    -0.139 OA 
BRANCH   9  10
HETATM   10  C   UNL     1      -8.471  11.765  66.946  1.00  0.00    -0.174 C  
BRANCH  10  11
HETATM   11  C   UNL     1      -9.622  12.730  67.084  1.00  0.00    -0.219 A  
HETATM   12  C   UNL     1     -10.503  12.950  66.017  1.00  0.00    -0.290 A  
HETATM   13  C   UNL     1     -11.593  13.807  66.169  1.00  0.00    -0.369 A  
HETATM   14  C   UNL     1     -11.814  14.444  67.389  1.00  0.00    -0.430 A  
HETATM   15  C   UNL     1     -10.949  14.228  68.459  1.00  0.00    -0.267 A  
HETATM   16  C   UNL     1      -9.860  13.371  68.309  1.00  0.00    -0.235 A  
ENDBRANCH  10  11
ENDBRANCH   9  10
ENDBRANCH   6   9
TORSDOF 3
ENDMDL
MODEL      167
REMARK 921   NORMALIZED FREE ENERGY PREDICTED BY IDOCK:   -3.27 KCAL/MOL
REMARK 922        TOTAL FREE ENERGY PREDICTED BY IDOCK:   -4.28 KCAL/MOL
REMARK 923 INTER-LIGAND FREE ENERGY PREDICTED BY IDOCK:   -3.97 KCAL/MOL
REMARK 924 INTRA-LIGAND FREE ENERGY PREDICTED BY IDOCK:   -0.31 KCAL/MOL
REMARK 927      BINDING AFFINITY PREDICTED BY RF-SCORE:    0.00 PKD
ROOT
HETATM    1  O   UNL     1      -7.627   5.624  65.413  1.00  0.00    -0.079 OA 
HETATM    2  C   UNL     1      -8.482   6.605  65.816  1.00  0.00    -0.148 A  
HETATM    3  H   UNL     1      -6.945   5.796  64.774  1.00  0.00     0.000 HD 
HETATM    4  C   UNL     1      -9.480   6.352  66.751  1.00  0.00    -0.176 A  
HETATM    5  C   UNL     1     -10.328   7.387  67.150  1.00  0.00    -0.377 A  
HETATM    6  C   UNL     1     -10.159   8.673  66.630  1.00  0.00    -0.294 A  
HETATM    7  C   UNL     1      -9.174   8.906  65.668  1.00  0.00    -0.268 A  
HETATM    8  C   UNL     1      -8.328   7.872  65.264  1.00  0.00    -0.140 A  
ENDROOT
BRANCH   6   9
HETATM    9  O   UNL     1     -10.901   9.767  66.991  1.00  0.00    -0.203 OA 
BRANCH   9  10
HETATM   10  C   UNL     1     -10.380  11.025  66.555  1.00  0.00    -0.245 C  
BRANCH  10  11
HETATM   11  C   UNL     1     -11.057  12.140  67.310  1.00  0.00    -0.341 A  
HETATM   12  C   UNL     1     -11.305  12.028  68.684  1.00  0.00    -0.329 A  
HETATM   13  C   UNL     1     -11.888  13.086  69.383  1.00  0.00    -0.380 A  
HETATM   14  C   UNL     1     -12.221  14.264  68.716  1.00  0.00    -0.226 A  
HETATM   15  C   UNL     1     -11.973  14.389  67.351  1.00  0.00    -0.407 A  
HETATM   16  C   UNL     1     -11.390  13.334  66.651  1.00  0.00    -0.353 A  
ENDBRANCH  10  11
ENDBRANCH   9  10
ENDBRANCH   6   9
TORSDOF 3
ENDMDL
MODEL      168
REMARK 921   NORMALIZED FREE ENERGY PREDICTED BY IDOCK:   -3.20 KCAL/MOL
REMARK 922        TOTAL FREE ENERGY PREDICTED BY IDOCK:   -4.20 KCAL/MOL
REMARK 923 INTER-LIGAND FREE ENERGY PREDICTED BY IDOCK:   -3.58 KCAL/MOL
REMARK 924 INTRA-LIGAND FREE ENERGY PREDICTED BY IDOCK:   -0.62 KCAL/MOL
REMARK 927      BINDING AFFINITY PREDICTED BY RF-SCORE:    0.00 PKD
ROOT
HETATM    1  O   UNL     1      -6.991   8.628  67.308  1.00  0.00    -0.073 OA 
HETATM    2  C   UNL     1      -7.990   8.914  68.190  1.00  0.00    -0.102 A  
HETATM    3  H   UNL     1      -6.080   8.627  67.579  1.00  0.00     0.000 HD 
HETATM    4  C   UNL     1      -9.323   8.914  67.792  1.00  0.00    -0.157 A  
HETATM    5  C   UNL     1     -10.320   9.198  68.727  1.00  0.00    -0.235 A  
HETATM    6  C   UNL     1      -9.982   9.458  70.058  1.00  0.00    -0.221 A  
HETATM    7  C   UNL     1      -8.637   9.487  70.436  1.00  0.00    -0.246 A  
HETATM    8  C   UNL     1      -7.639   9.208  69.502  1.00  0.00    -0.079 A  
ENDROOT
BRANCH   6   9
HETATM    9  O   UNL     1     -10.881   9.697  71.062  1.00  0.00    -0.313 OA 
BRANCH   9  10
HETATM   10  C   UNL     1     -11.873   8.684  71.244  1.00  0.00    -0.295 C  
BRANCH  10  11
HETATM   11  C   UNL     1     -11.268   7.508  71.969  1.00  0.00    -0.298 A  
HETATM   12  C   UNL     1     -10.794   7.643  73.280  1.00  0.00    -0.379 A  
HETATM   13  C   UNL     1     -10.279   6.537  73.960  1.00  0.00    -0.374 A  
HETATM   14  C   UNL     1     -10.242   5.291  73.336  1.00  0.00    -0.220 A  
HETATM   15  C   UNL     1     -10.717   5.144  72.035  1.00  0.00    -0.236 A  
HETATM   16  C   UNL     1     -11.231   6.247  71.355  1.00  0.00    -0.349 A  
ENDBRANCH  10  11
ENDBRANCH   9  10
ENDBRANCH   6   9
TORSDOF 3
ENDMDL
MODEL      169
REMARK 921   NORMALIZED FREE ENERGY PREDICTED BY IDOCK:   -3.18 KCAL/MOL
REMARK 922        TOTAL FREE ENERGY PREDICTED BY IDOCK:   -4.18 KCAL/MOL
REMARK 923 INTER-LIGAND FREE ENERGY PREDICTED BY IDOCK:   -3.74 KCAL/MOL
REMARK 924 INTRA-LIGAND FREE ENERGY PREDICTED BY IDOCK:   -0.44 KCAL/MOL
REMARK 927      BINDING AFFINITY PREDICTED BY RF-SCORE:    0.00 PKD
ROOT
HETATM    1  O   UNL     1      -8.953   8.829  64.383  1.00  0.00    -0.427 OA 
HETATM    2  C   UNL     1      -8.945   9.130  65.713  1.00  0.00    -0.193 A  
HETATM    3  H   UNL     1      -9.680   8.362  63.989  1.00  0.00     0.000 HD 
HETATM    4  C   UNL     1      -7.880   9.814  66.289  1.00  0.00    -0.106 A  
HETATM    5  C   UNL     1      -7.914  10.117  67.652  1.00  0.00    -0.102 A  
HETATM    6  C   UNL     1      -9.021   9.756  68.425  1.00  0.00    -0.123 A  
HETATM    7  C   UNL     1     -10.068   9.040  67.840  1.00  0.00    -0.246 A  
HETATM    8  C   UNL     1     -10.034   8.732  66.479  1.00  0.00    -0.360 A  
ENDROOT
BRANCH   6   9
HETATM    9  O   UNL     1      -9.177  10.048  69.753  1.00  0.00    -0.219 OA 
BRANCH   9  10
HETATM   10  C   UNL     1      -8.485   9.179  70.652  1.00  0.00    -0.209 C  
BRANCH  10  11
HETATM   11  C   UNL     1      -9.465   8.227  71.290  1.00  0.00    -0.219 A  
HETATM   12  C   UNL     1     -10.270   8.638  72.360  1.00  0.00    -0.319 A  
HETATM   13  C   UNL     1     -11.209   7.765  72.911  1.00  0.00    -0.434 A  
HETATM   14  C   UNL     1     -11.353   6.479  72.393  1.00  0.00    -0.314 A  
HETATM   15  C   UNL     1     -10.563   6.061  71.326  1.00  0.00    -0.302 A  
HETATM   16  C   UNL     1      -9.625   6.932  70.773  1.00  0.00    -0.167 A  
ENDBRANCH  10  11
ENDBRANCH   9  10
ENDBRANCH   6   9
TORSDOF 3
ENDMDL
MODEL      170
REMARK 921   NORMALIZED FREE ENERGY PREDICTED BY IDOCK:   -3.17 KCAL/MOL
REMARK 922        TOTAL FREE ENERGY PREDICTED BY IDOCK:   -4.16 KCAL/MOL
REMARK 923 INTER-LIGAND FREE ENERGY PREDICTED BY IDOCK:   -3.77 KCAL/MOL
REMARK 924 INTRA-LIGAND FREE ENERGY PREDICTED BY IDOCK:   -0.39 KCAL/MOL
REMARK 927      BINDING AFFINITY PREDICTED BY RF-SCORE:    0.00 PKD
ROOT
HETATM    1  O   UNL     1      -6.493  12.529  66.603  1.00  0.00    -0.445 OA 
HETATM    2  C   UNL     1      -7.559  11.837  67.093  1.00  0.00    -0.155 A  
HETATM    3  H   UNL     1      -6.384  12.670  65.670  1.00  0.00     0.000 HD 
HETATM    4  C   UNL     1      -7.718  11.632  68.459  1.00  0.00    -0.134 A  
HETATM    5  C   UNL     1      -8.832  10.930  68.925  1.00  0.00    -0.143 A  
HETATM    6  C   UNL     1      -9.792  10.458  68.025  1.00  0.00    -0.150 A  
HETATM    7  C   UNL     1      -9.603  10.643  66.653  1.00  0.00    -0.209 A  
HETATM    8  C   UNL     1      -8.488  11.340  66.186  1.00  0.00    -0.135 A  
ENDROOT
BRANCH   6   9
HETATM    9  O   UNL     1     -10.942   9.805  68.378  1.00  0.00    -0.217 OA 
BRANCH   9  10
HETATM   10  C   UNL     1     -11.379  10.027  69.721  1.00  0.00    -0.228 C  
BRANCH  10  11
HETATM   11  C   UNL     1     -11.277   8.743  70.505  1.00  0.00    -0.278 A  
HETATM   12  C   UNL     1     -10.993   7.532  69.861  1.00  0.00    -0.223 A  
HETATM   13  C   UNL     1     -10.853   6.356  70.600  1.00  0.00    -0.331 A  
HETATM   14  C   UNL     1     -10.989   6.385  71.988  1.00  0.00    -0.289 A  
HETATM   15  C   UNL     1     -11.265   7.585  72.639  1.00  0.00    -0.399 A  
HETATM   16  C   UNL     1     -11.405   8.759  71.902  1.00  0.00    -0.431 A  
ENDBRANCH  10  11
ENDBRANCH   9  10
ENDBRANCH   6   9
TORSDOF 3
ENDMDL
MODEL      171
REMARK 921   NORMALIZED FREE ENERGY PREDICTED BY IDOCK:   -3.17 KCAL/MOL
REMARK 922        TOTAL FREE ENERGY PREDICTED BY IDOCK:   -4.16 KCAL/MOL
REMARK 923 INTER-LIGAND FREE ENERGY PREDICTED BY IDOCK:   -3.71 KCAL/MOL
REMARK 924 INTRA-LIGAND FREE ENERGY PREDICTED BY IDOCK:   -0.45 KCAL/MOL
REMARK 927      BINDING AFFINITY PREDICTED BY RF-SCORE:    0.00 PKD
ROOT
HETATM    1  O   UNL     1      -8.745   6.569  65.473  1.00  0.00    -0.254 OA 
HETATM    2  C   UNL     1      -9.265   7.150  66.591  1.00  0.00    -0.160 A  
HETATM    3  H   UNL     1      -8.439   5.670  65.483  1.00  0.00     0.000 HD 
HETATM    4  C   UNL     1      -9.713   8.467  66.576  1.00  0.00    -0.330 A  
HETATM    5  C   UNL     1     -10.253   9.023  67.737  1.00  0.00    -0.284 A  
HETATM    6  C   UNL     1     -10.364   8.255  68.899  1.00  0.00    -0.215 A  
HETATM    7  C   UNL     1      -9.879   6.945  68.909  1.00  0.00    -0.147 A  
HETATM    8  C   UNL     1      -9.335   6.388  67.752  1.00  0.00    -0.117 A  
ENDROOT
BRANCH   6   9
HETATM    9  O   UNL     1     -10.922   8.686  70.073  1.00  0.00    -0.246 OA 
BRANCH   9  10
HETATM   10  C   UNL     1     -10.018   9.324  70.978  1.00  0.00    -0.293 C  
BRANCH  10  11
HETATM   11  C   UNL     1      -9.670   8.375  72.097  1.00  0.00    -0.370 A  
HETATM   12  C   UNL     1     -10.669   7.850  72.926  1.00  0.00    -0.440 A  
HETATM   13  C   UNL     1     -10.343   6.935  73.929  1.00  0.00    -0.398 A  
HETATM   14  C   UNL     1      -9.019   6.534  74.104  1.00  0.00    -0.176 A  
HETATM   15  C   UNL     1      -8.019   7.045  73.281  1.00  0.00    -0.110 A  
HETATM   16  C   UNL     1      -8.343   7.958  72.279  1.00  0.00    -0.172 A  
ENDBRANCH  10  11
ENDBRANCH   9  10
ENDBRANCH   6   9
TORSDOF 3
ENDMDL
MODEL      172
REMARK 921   NORMALIZED FREE ENERGY PREDICTED BY IDOCK:   -3.14 KCAL/MOL
REMARK 922        TOTAL FREE ENERGY PREDICTED BY IDOCK:   -4.13 KCAL/MOL
REMARK 923 INTER-LIGAND FREE ENERGY PREDICTED BY IDOCK:   -3.68 KCAL/MOL
REMARK 924 INTRA-LIGAND FREE ENERGY PREDICTED BY IDOCK:   -0.46 KCAL/MOL
REMARK 927      BINDING AFFINITY PREDICTED BY RF-SCORE:    0.00 PKD
ROOT
HETATM    1  O   UNL     1      -8.028   5.594  65.358  1.00  0.00    -0.101 OA 
HETATM    2  C   UNL     1      -8.918   5.815  66.366  1.00  0.00    -0.137 A  
HETATM    3  H   UNL     1      -7.515   4.795  65.320  1.00  0.00     0.000 HD 
HETATM    4  C   UNL     1      -9.668   6.985  66.421  1.00  0.00    -0.133 A  
HETATM    5  C   UNL     1     -10.580   7.169  67.461  1.00  0.00    -0.348 A  
HETATM    6  C   UNL     1     -10.755   6.174  68.427  1.00  0.00    -0.293 A  
HETATM    7  C   UNL     1      -9.972   5.018  68.378  1.00  0.00    -0.202 A  
HETATM    8  C   UNL     1      -9.056   4.834  67.342  1.00  0.00    -0.126 A  
ENDROOT
BRANCH   6   9
HETATM    9  O   UNL     1     -11.657   6.232  69.456  1.00  0.00    -0.423 OA 
BRANCH   9  10
HETATM   10  C   UNL     1     -11.435   7.283  70.400  1.00  0.00    -0.248 C  
BRANCH  10  11
HETATM   11  C   UNL     1     -10.907   6.703  71.687  1.00  0.00    -0.269 A  
HETATM   12  C   UNL     1     -10.251   7.514  72.622  1.00  0.00    -0.297 A  
HETATM   13  C   UNL     1      -9.808   6.978  73.832  1.00  0.00    -0.354 A  
HETATM   14  C   UNL     1     -10.024   5.631  74.119  1.00  0.00    -0.232 A  
HETATM   15  C   UNL     1     -10.680   4.816  73.200  1.00  0.00    -0.309 A  
HETATM   16  C   UNL     1     -11.124   5.350  71.991  1.00  0.00    -0.204 A  
ENDBRANCH  10  11
ENDBRANCH   9  10
ENDBRANCH   6   9
TORSDOF 3
ENDMDL
MODEL      173
REMARK 921   NORMALIZED FREE ENERGY PREDICTED BY IDOCK:   -3.13 KCAL/MOL
REMARK 922        TOTAL FREE ENERGY PREDICTED BY IDOCK:   -4.12 KCAL/MOL
REMARK 923 INTER-LIGAND FREE ENERGY PREDICTED BY IDOCK:   -3.75 KCAL/MOL
REMARK 924 INTRA-LIGAND FREE ENERGY PREDICTED BY IDOCK:   -0.37 KCAL/MOL
REMARK 927      BINDING AFFINITY PREDICTED BY RF-SCORE:    0.00 PKD
ROOT
HETATM    1  O   UNL     1      -6.496   6.075  63.228  1.00  0.00    -0.028 OA 
HETATM    2  C   UNL     1      -7.036   7.119  63.918  1.00  0.00    -0.057 A  
HETATM    3  H   UNL     1      -5.976   6.219  62.446  1.00  0.00     0.000 HD 
HETATM    4  C   UNL     1      -7.796   6.908  65.064  1.00  0.00    -0.121 A  
HETATM    5  C   UNL     1      -8.321   8.003  65.753  1.00  0.00    -0.142 A  
HETATM    6  C   UNL     1      -8.063   9.303  65.308  1.00  0.00    -0.121 A  
HETATM    7  C   UNL     1      -7.325   9.499  64.138  1.00  0.00    -0.115 A  
HETATM    8  C   UNL     1      -6.804   8.406  63.445  1.00  0.00    -0.085 A  
ENDROOT
BRANCH   6   9
HETATM    9  O   UNL     1      -8.485  10.444  65.936  1.00  0.00    -0.144 OA 
BRANCH   9  10
HETATM   10  C   UNL     1      -9.843  10.425  66.382  1.00  0.00    -0.213 C  
BRANCH  10  11
HETATM   11  C   UNL     1     -10.646  11.432  65.598  1.00  0.00    -0.314 A  
HETATM   12  C   UNL     1     -10.548  11.495  64.202  1.00  0.00    -0.420 A  
HETATM   13  C   UNL     1     -11.332  12.397  63.481  1.00  0.00    -0.553 A  
HETATM   14  C   UNL     1     -12.222  13.237  64.149  1.00  0.00    -0.465 A  
HETATM   15  C   UNL     1     -12.332  13.179  65.536  1.00  0.00    -0.529 A  
HETATM   16  C   UNL     1     -11.550  12.278  66.258  1.00  0.00    -0.446 A  
ENDBRANCH  10  11
ENDBRANCH   9  10
ENDBRANCH   6   9
TORSDOF 3
ENDMDL
MODEL      174
REMARK 921   NORMALIZED FREE ENERGY PREDICTED BY IDOCK:   -3.12 KCAL/MOL
REMARK 922        TOTAL FREE ENERGY PREDICTED BY IDOCK:   -4.10 KCAL/MOL
REMARK 923 INTER-LIGAND FREE ENERGY PREDICTED BY IDOCK:   -4.08 KCAL/MOL
REMARK 924 INTRA-LIGAND FREE ENERGY PREDICTED BY IDOCK:   -0.02 KCAL/MOL
REMARK 927      BINDING AFFINITY PREDICTED BY RF-SCORE:    0.00 PKD
ROOT
HETATM    1  O   UNL     1      -5.783   8.707  66.364  1.00  0.00    -0.045 OA 
HETATM    2  C   UNL     1      -7.049   9.116  66.656  1.00  0.00    -0.082 A  
HETATM    3  H   UNL     1      -5.620   8.034  65.713  1.00  0.00     0.000 HD 
HETATM    4  C   UNL     1      -7.286  10.101  67.609  1.00  0.00    -0.089 A  
HETATM    5  C   UNL     1      -8.597  10.505  67.869  1.00  0.00    -0.123 A  
HETATM    6  C   UNL     1      -9.661   9.941  67.160  1.00  0.00    -0.162 A  
HETATM    7  C   UNL     1      -9.411   8.929  66.230  1.00  0.00    -0.304 A  
HETATM    8  C   UNL     1      -8.103   8.521  65.971  1.00  0.00    -0.110 A  
ENDROOT
BRANCH   6   9
HETATM    9  O   UNL     1     -10.975  10.300  67.302  1.00  0.00    -0.275 OA 
BRANCH   9  10
HETATM   10  C   UNL     1     -11.218  11.708  67.352  1.00  0.00    -0.298 C  
BRANCH  10  11
HETATM   11  C   UNL     1     -11.498  12.222  65.963  1.00  0.00    -0.434 A  
HETATM   12  C   UNL     1     -10.972  11.572  64.839  1.00  0.00    -0.319 A  
HETATM   13  C   UNL     1     -11.277  12.027  63.555  1.00  0.00    -0.526 A  
HETATM   14  C   UNL     1     -12.113  13.129  63.386  1.00  0.00    -0.558 A  
HETATM   15  C   UNL     1     -12.647  13.780  64.496  1.00  0.00    -0.249 A  
HETATM   16  C   UNL     1     -12.344  13.326  65.779  1.00  0.00    -0.505 A  
ENDBRANCH  10  11
ENDBRANCH   9  10
ENDBRANCH   6   9
TORSDOF 3
ENDMDL
MODEL      175
REMARK 921   NORMALIZED FREE ENERGY PREDICTED BY IDOCK:   -3.09 KCAL/MOL
REMARK 922        TOTAL FREE ENERGY PREDICTED BY IDOCK:   -4.07 KCAL/MOL
REMARK 923 INTER-LIGAND FREE ENERGY PREDICTED BY IDOCK:   -3.64 KCAL/MOL
REMARK 924 INTRA-LIGAND FREE ENERGY PREDICTED BY IDOCK:   -0.43 KCAL/MOL
REMARK 927      BINDING AFFINITY PREDICTED BY RF-SCORE:    0.00 PKD
ROOT
HETATM    1  O   UNL     1      -9.792   5.139  65.607  1.00  0.00    -0.303 OA 
HETATM    2  C   UNL     1     -10.088   5.303  66.927  1.00  0.00    -0.219 A  
HETATM    3  H   UNL     1     -10.167   5.707  64.944  1.00  0.00     0.000 HD 
HETATM    4  C   UNL     1      -9.539   4.471  67.896  1.00  0.00    -0.208 A  
HETATM    5  C   UNL     1      -9.854   4.679  69.240  1.00  0.00    -0.260 A  
HETATM    6  C   UNL     1     -10.697   5.731  69.610  1.00  0.00    -0.346 A  
HETATM    7  C   UNL     1     -11.267   6.538  68.623  1.00  0.00    -0.302 A  
HETATM    8  C   UNL     1     -10.957   6.329  67.279  1.00  0.00    -0.455 A  
ENDROOT
BRANCH   6   9
HETATM    9  O   UNL     1     -11.029   6.052  70.899  1.00  0.00    -0.273 OA 
BRANCH   9  10
HETATM   10  C   UNL     1     -10.454   5.212  71.902  1.00  0.00    -0.207 C  
BRANCH  10  11
HETATM   11  C   UNL     1      -9.400   5.979  72.660  1.00  0.00    -0.147 A  
HETATM   12  C   UNL     1      -9.680   7.243  73.196  1.00  0.00    -0.254 A  
HETATM   13  C   UNL     1      -8.714   7.924  73.937  1.00  0.00    -0.332 A  
HETATM   14  C   UNL     1      -7.464   7.344  74.155  1.00  0.00    -0.134 A  
HETATM   15  C   UNL     1      -7.177   6.085  73.633  1.00  0.00    -0.088 A  
HETATM   16  C   UNL     1      -8.141   5.403  72.892  1.00  0.00    -0.109 A  
ENDBRANCH  10  11
ENDBRANCH   9  10
ENDBRANCH   6   9
TORSDOF 3
ENDMDL
MODEL      176
REMARK 921   NORMALIZED FREE ENERGY PREDICTED BY IDOCK:   -3.07 KCAL/MOL
REMARK 922        TOTAL FREE ENERGY PREDICTED BY IDOCK:   -4.05 KCAL/MOL
REMARK 923 INTER-LIGAND FREE ENERGY PREDICTED BY IDOCK:   -3.62 KCAL/MOL
REMARK 924 INTRA-LIGAND FREE ENERGY PREDICTED BY IDOCK:   -0.43 KCAL/MOL
REMARK 927      BINDING AFFINITY PREDICTED BY RF-SCORE:    0.00 PKD
ROOT
HETATM    1  O   UNL     1     -11.127  10.983  62.772  1.00  0.00    -0.721 OA 
HETATM    2  C   UNL     1     -10.548  11.239  63.980  1.00  0.00    -0.386 A  
HETATM    3  H   UNL     1     -10.915  10.198  62.282  1.00  0.00     0.000 HD 
HETATM    4  C   UNL     1     -10.859  12.389  64.698  1.00  0.00    -0.346 A  
HETATM    5  C   UNL     1     -10.257  12.608  65.939  1.00  0.00    -0.290 A  
HETATM    6  C   UNL     1      -9.368  11.668  66.465  1.00  0.00    -0.206 A  
HETATM    7  C   UNL     1      -9.040  10.533  65.718  1.00  0.00    -0.204 A  
HETATM    8  C   UNL     1      -9.637  10.314  64.476  1.00  0.00    -0.378 A  
ENDROOT
BRANCH   6   9
HETATM    9  O   UNL     1      -8.764  11.761  67.690  1.00  0.00    -0.148 OA 
BRANCH   9  10
HETATM   10  C   UNL     1      -9.548  11.298  68.791  1.00  0.00    -0.151 C  
BRANCH  10  11
HETATM   11  C   UNL     1      -8.991   9.990  69.294  1.00  0.00    -0.186 A  
HETATM   12  C   UNL     1      -7.657   9.640  69.052  1.00  0.00    -0.076 A  
HETATM   13  C   UNL     1      -7.137   8.450  69.563  1.00  0.00    -0.053 A  
HETATM   14  C   UNL     1      -7.944   7.606  70.324  1.00  0.00    -0.101 A  
HETATM   15  C   UNL     1      -9.271   7.947  70.576  1.00  0.00    -0.158 A  
HETATM   16  C   UNL     1      -9.792   9.135  70.067  1.00  0.00    -0.217 A  
ENDBRANCH  10  11
ENDBRANCH   9  10
ENDBRANCH   6   9
TORSDOF 3
ENDMDL
MODEL      177
REMARK 921   NORMALIZED FREE ENERGY PREDICTED BY IDOCK:   -3.06 KCAL/MOL
REMARK 922        TOTAL FREE ENERGY PREDICTED BY IDOCK:   -4.03 KCAL/MOL
REMARK 923 INTER-LIGAND FREE ENERGY PREDICTED BY IDOCK:   -3.50 KCAL/MOL
REMARK 924 INTRA-LIGAND FREE ENERGY PREDICTED BY IDOCK:   -0.53 KCAL/MOL
REMARK 927      BINDING AFFINITY PREDICTED BY RF-SCORE:    0.00 PKD
ROOT
HETATM    1  O   UNL     1     -14.401   8.358  71.263  1.00  0.00    -0.604 OA 
HETATM    2  C   UNL     1     -13.053   8.181  71.358  1.00  0.00    -0.225 A  
HETATM    3  H   UNL     1     -14.980   7.632  71.064  1.00  0.00     0.000 HD 
HETATM    4  C   UNL     1     -12.206   9.245  71.650  1.00  0.00    -0.445 A  
HETATM    5  C   UNL     1     -10.831   9.022  71.753  1.00  0.00    -0.437 A  
HETATM    6  C   UNL     1     -10.314   7.734  71.588  1.00  0.00    -0.197 A  
HETATM    7  C   UNL     1     -11.172   6.681  71.263  1.00  0.00    -0.329 A  
HETATM    8  C   UNL     1     -12.546   6.903  71.155  1.00  0.00    -0.366 A  
ENDROOT
BRANCH   6   9
HETATM    9  O   UNL     1      -8.993   7.398  71.718  1.00  0.00    -0.123 OA 
BRANCH   9  10
HETATM   10  C   UNL     1      -8.325   7.072  70.498  1.00  0.00    -0.132 C  
BRANCH  10  11
HETATM   11  C   UNL     1      -7.787   8.330  69.864  1.00  0.00    -0.102 A  
HETATM   12  C   UNL     1      -7.938   8.561  68.491  1.00  0.00    -0.117 A  
HETATM   13  C   UNL     1      -7.480   9.750  67.922  1.00  0.00    -0.086 A  
HETATM   14  C   UNL     1      -6.873  10.717  68.722  1.00  0.00    -0.067 A  
HETATM   15  C   UNL     1      -6.723  10.501  70.090  1.00  0.00    -0.149 A  
HETATM   16  C   UNL     1      -7.181   9.314  70.659  1.00  0.00    -0.120 A  
ENDBRANCH  10  11
ENDBRANCH   9  10
ENDBRANCH   6   9
TORSDOF 3
ENDMDL
MODEL      178
REMARK 921   NORMALIZED FREE ENERGY PREDICTED BY IDOCK:   -3.06 KCAL/MOL
REMARK 922        TOTAL FREE ENERGY PREDICTED BY IDOCK:   -4.03 KCAL/MOL
REMARK 923 INTER-LIGAND FREE ENERGY PREDICTED BY IDOCK:   -3.69 KCAL/MOL
REMARK 924 INTRA-LIGAND FREE ENERGY PREDICTED BY IDOCK:   -0.34 KCAL/MOL
REMARK 927      BINDING AFFINITY PREDICTED BY RF-SCORE:    0.00 PKD
ROOT
HETATM    1  O   UNL     1     -11.410  13.214  63.016  1.00  0.00    -0.589 OA 
HETATM    2  C   UNL     1     -10.785  12.403  63.915  1.00  0.00    -0.426 A  
HETATM    3  H   UNL     1     -11.537  12.944  62.114  1.00  0.00     0.000 HD 
HETATM    4  C   UNL     1     -10.600  12.799  65.236  1.00  0.00    -0.312 A  
HETATM    5  C   UNL     1      -9.968  11.934  66.131  1.00  0.00    -0.254 A  
HETATM    6  C   UNL     1      -9.546  10.671  65.709  1.00  0.00    -0.210 A  
HETATM    7  C   UNL     1      -9.709  10.299  64.373  1.00  0.00    -0.381 A  
HETATM    8  C   UNL     1     -10.336  11.163  63.474  1.00  0.00    -0.446 A  
ENDROOT
BRANCH   6   9
HETATM    9  O   UNL     1      -8.964   9.730  66.516  1.00  0.00    -0.146 OA 
BRANCH   9  10
HETATM   10  C   UNL     1      -9.858   9.050  67.399  1.00  0.00    -0.190 C  
BRANCH  10  11
HETATM   11  C   UNL     1      -9.349   7.654  67.657  1.00  0.00    -0.158 A  
HETATM   12  C   UNL     1      -8.636   6.959  66.672  1.00  0.00    -0.124 A  
HETATM   13  C   UNL     1      -8.127   5.686  66.937  1.00  0.00    -0.102 A  
HETATM   14  C   UNL     1      -8.322   5.104  68.189  1.00  0.00    -0.097 A  
HETATM   15  C   UNL     1      -9.025   5.789  69.178  1.00  0.00    -0.120 A  
HETATM   16  C   UNL     1      -9.533   7.060  68.915  1.00  0.00    -0.137 A  
ENDBRANCH  10  11
ENDBRANCH   9  10
ENDBRANCH   6   9
TORSDOF 3
ENDMDL
MODEL      179
REMARK 921   NORMALIZED FREE ENERGY PREDICTED BY IDOCK:   -3.00 KCAL/MOL
REMARK 922        TOTAL FREE ENERGY PREDICTED BY IDOCK:   -3.96 KCAL/MOL
REMARK 923 INTER-LIGAND FREE ENERGY PREDICTED BY IDOCK:   -3.48 KCAL/MOL
REMARK 924 INTRA-LIGAND FREE ENERGY PREDICTED BY IDOCK:   -0.48 KCAL/MOL
REMARK 927      BINDING AFFINITY PREDICTED BY RF-SCORE:    0.00 PKD
ROOT
HETATM    1  O   UNL     1      -9.958   4.754  65.072  1.00  0.00    -0.358 OA 
HETATM    2  C   UNL     1     -10.065   4.925  66.420  1.00  0.00    -0.258 A  
HETATM    3  H   UNL     1     -10.479   5.269  64.468  1.00  0.00     0.000 HD 
HETATM    4  C   UNL     1      -9.301   4.170  67.304  1.00  0.00    -0.200 A  
HETATM    5  C   UNL     1      -9.428   4.385  68.678  1.00  0.00    -0.219 A  
HETATM    6  C   UNL     1     -10.297   5.367  69.159  1.00  0.00    -0.230 A  
HETATM    7  C   UNL     1     -11.082   6.095  68.262  1.00  0.00    -0.336 A  
HETATM    8  C   UNL     1     -10.961   5.879  66.888  1.00  0.00    -0.304 A  
ENDROOT
BRANCH   6   9
HETATM    9  O   UNL     1     -10.458   5.691  70.480  1.00  0.00    -0.239 OA 
BRANCH   9  10
HETATM   10  C   UNL     1      -9.378   6.424  71.062  1.00  0.00    -0.164 C  
BRANCH  10  11
HETATM   11  C   UNL     1      -9.357   7.824  70.502  1.00  0.00    -0.163 A  
HETATM   12  C   UNL     1      -8.278   8.269  69.728  1.00  0.00    -0.121 A  
HETATM   13  C   UNL     1      -8.290   9.550  69.174  1.00  0.00    -0.125 A  
HETATM   14  C   UNL     1      -9.382  10.391  69.384  1.00  0.00    -0.186 A  
HETATM   15  C   UNL     1     -10.464   9.956  70.147  1.00  0.00    -0.339 A  
HETATM   16  C   UNL     1     -10.453   8.677  70.700  1.00  0.00    -0.243 A  
ENDBRANCH  10  11
ENDBRANCH   9  10
ENDBRANCH   6   9
TORSDOF 3
ENDMDL
MODEL      180
REMARK 921   NORMALIZED FREE ENERGY PREDICTED BY IDOCK:   -2.99 KCAL/MOL
REMARK 922        TOTAL FREE ENERGY PREDICTED BY IDOCK:   -3.95 KCAL/MOL
REMARK 923 INTER-LIGAND FREE ENERGY PREDICTED BY IDOCK:   -3.69 KCAL/MOL
REMARK 924 INTRA-LIGAND FREE ENERGY PREDICTED BY IDOCK:   -0.26 KCAL/MOL
REMARK 927      BINDING AFFINITY PREDICTED BY RF-SCORE:    0.00 PKD
ROOT
HETATM    1  O   UNL     1      -9.974  14.047  65.112  1.00  0.00    -0.532 OA 
HETATM    2  C   UNL     1     -10.082  12.858  65.769  1.00  0.00    -0.287 A  
HETATM    3  H   UNL     1      -9.220  14.241  64.567  1.00  0.00     0.000 HD 
HETATM    4  C   UNL     1     -11.186  12.575  66.567  1.00  0.00    -0.356 A  
HETATM    5  C   UNL     1     -11.268  11.340  67.213  1.00  0.00    -0.364 A  
HETATM    6  C   UNL     1     -10.261  10.387  67.040  1.00  0.00    -0.225 A  
HETATM    7  C   UNL     1      -9.143  10.697  66.262  1.00  0.00    -0.186 A  
HETATM    8  C   UNL     1      -9.056  11.932  65.619  1.00  0.00     0.017 A  
ENDROOT
BRANCH   6   9
HETATM    9  O   UNL     1     -10.269   9.131  67.586  1.00  0.00    -0.205 OA 
BRANCH   9  10
HETATM   10  C   UNL     1      -9.830   9.055  68.944  1.00  0.00    -0.175 C  
BRANCH  10  11
HETATM   11  C   UNL     1     -10.228   7.725  69.530  1.00  0.00    -0.207 A  
HETATM   12  C   UNL     1     -10.066   6.542  68.798  1.00  0.00    -0.178 A  
HETATM   13  C   UNL     1     -10.392   5.310  69.368  1.00  0.00    -0.313 A  
HETATM   14  C   UNL     1     -10.876   5.252  70.674  1.00  0.00    -0.118 A  
HETATM   15  C   UNL     1     -11.036   6.421  71.414  1.00  0.00    -0.316 A  
HETATM   16  C   UNL     1     -10.710   7.652  70.846  1.00  0.00    -0.243 A  
ENDBRANCH  10  11
ENDBRANCH   9  10
ENDBRANCH   6   9
TORSDOF 3
ENDMDL
MODEL      181
REMARK 921   NORMALIZED FREE ENERGY PREDICTED BY IDOCK:   -2.98 KCAL/MOL
REMARK 922        TOTAL FREE ENERGY PREDICTED BY IDOCK:   -3.94 KCAL/MOL
REMARK 923 INTER-LIGAND FREE ENERGY PREDICTED BY IDOCK:   -3.62 KCAL/MOL
REMARK 924 INTRA-LIGAND FREE ENERGY PREDICTED BY IDOCK:   -0.32 KCAL/MOL
REMARK 927      BINDING AFFINITY PREDICTED BY RF-SCORE:    0.00 PKD
ROOT
HETATM    1  O   UNL     1     -13.904   9.619  70.854  1.00  0.00    -0.496 OA 
HETATM    2  C   UNL     1     -12.998   8.721  71.335  1.00  0.00    -0.268 A  
HETATM    3  H   UNL     1     -13.688  10.540  70.774  1.00  0.00     0.000 HD 
HETATM    4  C   UNL     1     -13.315   7.371  71.452  1.00  0.00    -0.398 A  
HETATM    5  C   UNL     1     -12.356   6.479  71.934  1.00  0.00    -0.339 A  
HETATM    6  C   UNL     1     -11.079   6.935  72.274  1.00  0.00    -0.249 A  
HETATM    7  C   UNL     1     -10.785   8.298  72.182  1.00  0.00    -0.389 A  
HETATM    8  C   UNL     1     -11.744   9.192  71.705  1.00  0.00    -0.448 A  
ENDROOT
BRANCH   6   9
HETATM    9  O   UNL     1     -10.053   6.139  72.707  1.00  0.00    -0.175 OA 
BRANCH   9  10
HETATM   10  C   UNL     1     -10.441   4.840  73.161  1.00  0.00    -0.201 C  
BRANCH  10  11
HETATM   11  C   UNL     1      -9.422   3.823  72.714  1.00  0.00    -0.160 A  
HETATM   12  C   UNL     1      -9.726   2.903  71.702  1.00  0.00    -0.226 A  
HETATM   13  C   UNL     1      -8.760   1.997  71.261  1.00  0.00    -0.104 A  
HETATM   14  C   UNL     1      -7.484   2.008  71.823  1.00  0.00    -0.040 A  
HETATM   15  C   UNL     1      -7.169   2.923  72.826  1.00  0.00    -0.040 A  
HETATM   16  C   UNL     1      -8.132   3.829  73.267  1.00  0.00    -0.087 A  
ENDBRANCH  10  11
ENDBRANCH   9  10
ENDBRANCH   6   9
TORSDOF 3
ENDMDL
MODEL      182
REMARK 921   NORMALIZED FREE ENERGY PREDICTED BY IDOCK:   -2.97 KCAL/MOL
REMARK 922        TOTAL FREE ENERGY PREDICTED BY IDOCK:   -3.93 KCAL/MOL
REMARK 923 INTER-LIGAND FREE ENERGY PREDICTED BY IDOCK:   -3.42 KCAL/MOL
REMARK 924 INTRA-LIGAND FREE ENERGY PREDICTED BY IDOCK:   -0.51 KCAL/MOL
REMARK 927      BINDING AFFINITY PREDICTED BY RF-SCORE:    0.00 PKD
ROOT
HETATM    1  O   UNL     1     -14.006   8.904  71.111  1.00  0.00    -0.581 OA 
HETATM    2  C   UNL     1     -12.784   8.385  71.418  1.00  0.00    -0.262 A  
HETATM    3  H   UNL     1     -14.146   9.843  71.071  1.00  0.00     0.000 HD 
HETATM    4  C   UNL     1     -12.580   7.010  71.477  1.00  0.00    -0.426 A  
HETATM    5  C   UNL     1     -11.310   6.516  71.780  1.00  0.00    -0.325 A  
HETATM    6  C   UNL     1     -10.247   7.396  72.000  1.00  0.00    -0.191 A  
HETATM    7  C   UNL     1     -10.474   8.774  71.970  1.00  0.00    -0.414 A  
HETATM    8  C   UNL     1     -11.743   9.271  71.672  1.00  0.00    -0.462 A  
ENDROOT
BRANCH   6   9
HETATM    9  O   UNL     1      -8.956   7.017  72.253  1.00  0.00    -0.133 OA 
BRANCH   9  10
HETATM   10  C   UNL     1      -7.952   7.887  71.726  1.00  0.00    -0.104 C  
BRANCH  10  11
HETATM   11  C   UNL     1      -7.637   7.493  70.305  1.00  0.00    -0.090 A  
HETATM   12  C   UNL     1      -7.923   8.359  69.242  1.00  0.00    -0.113 A  
HETATM   13  C   UNL     1      -7.583   8.006  67.935  1.00  0.00    -0.112 A  
HETATM   14  C   UNL     1      -6.950   6.789  67.683  1.00  0.00    -0.083 A  
HETATM   15  C   UNL     1      -6.656   5.923  68.734  1.00  0.00    -0.055 A  
HETATM   16  C   UNL     1      -6.994   6.275  70.039  1.00  0.00    -0.066 A  
ENDBRANCH  10  11
ENDBRANCH   9  10
ENDBRANCH   6   9
TORSDOF 3
ENDMDL
MODEL      183
REMARK 921   NORMALIZED FREE ENERGY PREDICTED BY IDOCK:   -2.94 KCAL/MOL
REMARK 922        TOTAL FREE ENERGY PREDICTED BY IDOCK:   -3.90 KCAL/MOL
REMARK 923 INTER-LIGAND FREE ENERGY PREDICTED BY IDOCK:   -3.48 KCAL/MOL
REMARK 924 INTRA-LIGAND FREE ENERGY PREDICTED BY IDOCK:   -0.42 KCAL/MOL
REMARK 927      BINDING AFFINITY PREDICTED BY RF-SCORE:    0.00 PKD
ROOT
HETATM    1  O   UNL     1      -6.695  10.581  70.668  1.00  0.00    -0.337 OA 
HETATM    2  C   UNL     1      -7.353  10.832  69.501  1.00  0.00    -0.124 A  
HETATM    3  H   UNL     1      -6.200  11.261  71.110  1.00  0.00     0.000 HD 
HETATM    4  C   UNL     1      -8.079   9.837  68.855  1.00  0.00    -0.101 A  
HETATM    5  C   UNL     1      -8.752  10.136  67.669  1.00  0.00    -0.121 A  
HETATM    6  C   UNL     1      -8.717  11.433  67.149  1.00  0.00    -0.155 A  
HETATM    7  C   UNL     1      -7.959  12.414  67.791  1.00  0.00    -0.156 A  
HETATM    8  C   UNL     1      -7.281  12.116  68.973  1.00  0.00    -0.037 A  
ENDROOT
BRANCH   6   9
HETATM    9  O   UNL     1      -9.382  11.843  66.024  1.00  0.00    -0.229 OA 
BRANCH   9  10
HETATM   10  C   UNL     1     -10.725  12.283  66.239  1.00  0.00    -0.259 C  
BRANCH  10  11
HETATM   11  C   UNL     1     -10.733  13.762  66.527  1.00  0.00    -0.284 A  
HETATM   12  C   UNL     1     -11.421  14.272  67.636  1.00  0.00    -0.370 A  
HETATM   13  C   UNL     1     -11.383  15.637  67.922  1.00  0.00    -0.302 A  
HETATM   14  C   UNL     1     -10.650  16.500  67.108  1.00  0.00    -0.270 A  
HETATM   15  C   UNL     1      -9.956  16.004  66.008  1.00  0.00    -0.365 A  
HETATM   16  C   UNL     1      -9.993  14.640  65.720  1.00  0.00    -0.365 A  
ENDBRANCH  10  11
ENDBRANCH   9  10
ENDBRANCH   6   9
TORSDOF 3
ENDMDL
MODEL      184
REMARK 921   NORMALIZED FREE ENERGY PREDICTED BY IDOCK:   -2.92 KCAL/MOL
REMARK 922        TOTAL FREE ENERGY PREDICTED BY IDOCK:   -3.87 KCAL/MOL
REMARK 923 INTER-LIGAND FREE ENERGY PREDICTED BY IDOCK:   -3.50 KCAL/MOL
REMARK 924 INTRA-LIGAND FREE ENERGY PREDICTED BY IDOCK:   -0.38 KCAL/MOL
REMARK 927      BINDING AFFINITY PREDICTED BY RF-SCORE:    0.00 PKD
ROOT
HETATM    1  O   UNL     1      -6.820   3.716  65.559  1.00  0.00    -0.050 OA 
HETATM    2  C   UNL     1      -7.850   4.492  65.999  1.00  0.00    -0.095 A  
HETATM    3  H   UNL     1      -6.058   4.101  65.142  1.00  0.00     0.000 HD 
HETATM    4  C   UNL     1      -8.966   3.929  66.610  1.00  0.00    -0.141 A  
HETATM    5  C   UNL     1      -9.995   4.758  67.061  1.00  0.00    -0.235 A  
HETATM    6  C   UNL     1      -9.893   6.145  66.923  1.00  0.00    -0.159 A  
HETATM    7  C   UNL     1      -8.781   6.694  66.279  1.00  0.00    -0.150 A  
HETATM    8  C   UNL     1      -7.754   5.868  65.822  1.00  0.00    -0.096 A  
ENDROOT
BRANCH   6   9
HETATM    9  O   UNL     1     -10.818   7.047  67.375  1.00  0.00    -0.285 OA 
BRANCH   9  10
HETATM   10  C   UNL     1     -10.295   8.093  68.197  1.00  0.00    -0.201 C  
BRANCH  10  11
HETATM   11  C   UNL     1     -10.769   7.905  69.616  1.00  0.00    -0.218 A  
HETATM   12  C   UNL     1     -11.381   6.710  70.014  1.00  0.00    -0.440 A  
HETATM   13  C   UNL     1     -11.772   6.527  71.342  1.00  0.00    -0.378 A  
HETATM   14  C   UNL     1     -11.548   7.534  72.280  1.00  0.00    -0.354 A  
HETATM   15  C   UNL     1     -10.934   8.724  71.897  1.00  0.00    -0.435 A  
HETATM   16  C   UNL     1     -10.542   8.908  70.571  1.00  0.00    -0.262 A  
ENDBRANCH  10  11
ENDBRANCH   9  10
ENDBRANCH   6   9
TORSDOF 3
ENDMDL
MODEL      185
REMARK 921   NORMALIZED FREE ENERGY PREDICTED BY IDOCK:   -2.92 KCAL/MOL
REMARK 922        TOTAL FREE ENERGY PREDICTED BY IDOCK:   -3.86 KCAL/MOL
REMARK 923 INTER-LIGAND FREE ENERGY PREDICTED BY IDOCK:   -3.40 KCAL/MOL
REMARK 924 INTRA-LIGAND FREE ENERGY PREDICTED BY IDOCK:   -0.46 KCAL/MOL
REMARK 927      BINDING AFFINITY PREDICTED BY RF-SCORE:    0.00 PKD
ROOT
HETATM    1  O   UNL     1     -13.006  11.298  72.346  1.00  0.00    -0.313 OA 
HETATM    2  C   UNL     1     -12.447  11.066  71.125  1.00  0.00    -0.397 A  
HETATM    3  H   UNL     1     -12.916  10.673  73.056  1.00  0.00     0.000 HD 
HETATM    4  C   UNL     1     -12.580  11.982  70.087  1.00  0.00     0.000 A  
HETATM    5  C   UNL     1     -11.981  11.715  68.854  1.00  0.00    -0.355 A  
HETATM    6  C   UNL     1     -11.233  10.548  68.673  1.00  0.00    -0.270 A  
HETATM    7  C   UNL     1     -11.136   9.622  69.714  1.00  0.00    -0.247 A  
HETATM    8  C   UNL     1     -11.737   9.884  70.946  1.00  0.00    -0.449 A  
ENDROOT
BRANCH   6   9
HETATM    9  O   UNL     1     -10.565  10.216  67.525  1.00  0.00    -0.234 OA 
BRANCH   9  10
HETATM   10  C   UNL     1      -9.156  10.455  67.552  1.00  0.00    -0.134 C  
BRANCH  10  11
HETATM   11  C   UNL     1      -8.894  11.939  67.553  1.00  0.00    -0.169 A  
HETATM   12  C   UNL     1      -9.443  12.764  66.563  1.00  0.00    -0.253 A  
HETATM   13  C   UNL     1      -9.235  14.144  66.601  1.00  0.00    -0.272 A  
HETATM   14  C   UNL     1      -8.484  14.708  67.631  1.00  0.00    -0.187 A  
HETATM   15  C   UNL     1      -7.939  13.898  68.625  1.00  0.00    -0.109 A  
HETATM   16  C   UNL     1      -8.146  12.520  68.589  1.00  0.00    -0.013 A  
ENDBRANCH  10  11
ENDBRANCH   9  10
ENDBRANCH   6   9
TORSDOF 3
ENDMDL
MODEL      186
REMARK 921   NORMALIZED FREE ENERGY PREDICTED BY IDOCK:   -2.85 KCAL/MOL
REMARK 922        TOTAL FREE ENERGY PREDICTED BY IDOCK:   -3.78 KCAL/MOL
REMARK 923 INTER-LIGAND FREE ENERGY PREDICTED BY IDOCK:   -3.47 KCAL/MOL
REMARK 924 INTRA-LIGAND FREE ENERGY PREDICTED BY IDOCK:   -0.31 KCAL/MOL
REMARK 927      BINDING AFFINITY PREDICTED BY RF-SCORE:    0.00 PKD
ROOT
HETATM    1  O   UNL     1      -7.359   7.179  62.992  1.00  0.00    -0.068 OA 
HETATM    2  C   UNL     1      -7.897   7.528  64.195  1.00  0.00    -0.130 A  
HETATM    3  H   UNL     1      -7.019   6.305  62.841  1.00  0.00     0.000 HD 
HETATM    4  C   UNL     1      -8.396   8.808  64.416  1.00  0.00    -0.165 A  
HETATM    5  C   UNL     1      -8.952   9.124  65.657  1.00  0.00    -0.249 A  
HETATM    6  C   UNL     1      -9.029   8.155  66.661  1.00  0.00    -0.152 A  
HETATM    7  C   UNL     1      -8.495   6.884  66.436  1.00  0.00    -0.130 A  
HETATM    8  C   UNL     1      -7.934   6.567  65.199  1.00  0.00    -0.123 A  
ENDROOT
BRANCH   6   9
HETATM    9  O   UNL     1      -9.599   8.346  67.891  1.00  0.00    -0.150 OA 
BRANCH   9  10
HETATM   10  C   UNL     1     -10.132   7.169  68.503  1.00  0.00    -0.168 C  
BRANCH  10  11
HETATM   11  C   UNL     1     -10.916   7.549  69.733  1.00  0.00    -0.195 A  
HETATM   12  C   UNL     1     -10.904   8.866  70.211  1.00  0.00    -0.265 A  
HETATM   13  C   UNL     1     -11.671   9.219  71.322  1.00  0.00    -0.416 A  
HETATM   14  C   UNL     1     -12.460   8.261  71.958  1.00  0.00    -0.393 A  
HETATM   15  C   UNL     1     -12.485   6.951  71.487  1.00  0.00    -0.420 A  
HETATM   16  C   UNL     1     -11.720   6.596  70.377  1.00  0.00    -0.446 A  
ENDBRANCH  10  11
ENDBRANCH   9  10
ENDBRANCH   6   9
TORSDOF 3
ENDMDL
MODEL      187
REMARK 921   NORMALIZED FREE ENERGY PREDICTED BY IDOCK:   -2.84 KCAL/MOL
REMARK 922        TOTAL FREE ENERGY PREDICTED BY IDOCK:   -3.78 KCAL/MOL
REMARK 923 INTER-LIGAND FREE ENERGY PREDICTED BY IDOCK:   -3.64 KCAL/MOL
REMARK 924 INTRA-LIGAND FREE ENERGY PREDICTED BY IDOCK:   -0.14 KCAL/MOL
REMARK 927      BINDING AFFINITY PREDICTED BY RF-SCORE:    0.00 PKD
ROOT
HETATM    1  O   UNL     1     -13.833   9.858  72.390  1.00  0.00    -0.568 OA 
HETATM    2  C   UNL     1     -13.030  10.396  71.429  1.00  0.00    -0.443 A  
HETATM    3  H   UNL     1     -14.397  10.406  72.924  1.00  0.00     0.000 HD 
HETATM    4  C   UNL     1     -12.205   9.593  70.649  1.00  0.00    -0.235 A  
HETATM    5  C   UNL     1     -11.407  10.179  69.664  1.00  0.00    -0.289 A  
HETATM    6  C   UNL     1     -11.456  11.559  69.449  1.00  0.00    -0.309 A  
HETATM    7  C   UNL     1     -12.265  12.357  70.261  1.00  0.00    -0.345 A  
HETATM    8  C   UNL     1     -13.060  11.775  71.250  1.00  0.00    -0.237 A  
ENDROOT
BRANCH   6   9
HETATM    9  O   UNL     1     -10.756  12.226  68.479  1.00  0.00    -0.223 OA 
BRANCH   9  10
HETATM   10  C   UNL     1      -9.393  11.822  68.328  1.00  0.00    -0.193 C  
BRANCH  10  11
HETATM   11  C   UNL     1      -9.229  11.070  67.031  1.00  0.00    -0.164 A  
HETATM   12  C   UNL     1      -8.689  11.699  65.902  1.00  0.00     0.002 A  
HETATM   13  C   UNL     1      -8.496  10.981  64.721  1.00  0.00     0.143 A  
HETATM   14  C   UNL     1      -8.836   9.630  64.663  1.00  0.00    -0.253 A  
HETATM   15  C   UNL     1      -9.368   8.993  65.781  1.00  0.00    -0.302 A  
HETATM   16  C   UNL     1      -9.561   9.708  66.962  1.00  0.00    -0.221 A  
ENDBRANCH  10  11
ENDBRANCH   9  10
ENDBRANCH   6   9
TORSDOF 3
ENDMDL
MODEL      188
REMARK 921   NORMALIZED FREE ENERGY PREDICTED BY IDOCK:   -2.83 KCAL/MOL
REMARK 922        TOTAL FREE ENERGY PREDICTED BY IDOCK:   -3.76 KCAL/MOL
REMARK 923 INTER-LIGAND FREE ENERGY PREDICTED BY IDOCK:   -3.47 KCAL/MOL
REMARK 924 INTRA-LIGAND FREE ENERGY PREDICTED BY IDOCK:   -0.30 KCAL/MOL
REMARK 927      BINDING AFFINITY PREDICTED BY RF-SCORE:    0.00 PKD
ROOT
HETATM    1  O   UNL     1     -12.431  12.945  69.807  1.00  0.00    -0.095 OA 
HETATM    2  C   UNL     1     -11.795  11.742  69.877  1.00  0.00    -0.348 A  
HETATM    3  H   UNL     1     -12.165  13.606  69.179  1.00  0.00     0.000 HD 
HETATM    4  C   UNL     1     -12.185  10.774  70.798  1.00  0.00    -0.480 A  
HETATM    5  C   UNL     1     -11.519   9.548  70.830  1.00  0.00    -0.378 A  
HETATM    6  C   UNL     1     -10.484   9.286  69.928  1.00  0.00    -0.227 A  
HETATM    7  C   UNL     1     -10.081  10.278  69.031  1.00  0.00    -0.225 A  
HETATM    8  C   UNL     1     -10.742  11.507  69.000  1.00  0.00    -0.233 A  
ENDROOT
BRANCH   6   9
HETATM    9  O   UNL     1      -9.801   8.102  69.842  1.00  0.00    -0.182 OA 
BRANCH   9  10
HETATM   10  C   UNL     1     -10.619   6.930  69.814  1.00  0.00    -0.233 C  
BRANCH  10  11
HETATM   11  C   UNL     1      -9.799   5.731  70.219  1.00  0.00    -0.244 A  
HETATM   12  C   UNL     1      -8.844   5.829  71.239  1.00  0.00    -0.139 A  
HETATM   13  C   UNL     1      -8.124   4.703  71.641  1.00  0.00    -0.103 A  
HETATM   14  C   UNL     1      -8.359   3.471  71.031  1.00  0.00    -0.088 A  
HETATM   15  C   UNL     1      -9.310   3.361  70.020  1.00  0.00    -0.242 A  
HETATM   16  C   UNL     1     -10.031   4.485  69.618  1.00  0.00    -0.251 A  
ENDBRANCH  10  11
ENDBRANCH   9  10
ENDBRANCH   6   9
TORSDOF 3
ENDMDL
MODEL      189
REMARK 921   NORMALIZED FREE ENERGY PREDICTED BY IDOCK:   -2.83 KCAL/MOL
REMARK 922        TOTAL FREE ENERGY PREDICTED BY IDOCK:   -3.76 KCAL/MOL
REMARK 923 INTER-LIGAND FREE ENERGY PREDICTED BY IDOCK:   -3.14 KCAL/MOL
REMARK 924 INTRA-LIGAND FREE ENERGY PREDICTED BY IDOCK:   -0.62 KCAL/MOL
REMARK 927      BINDING AFFINITY PREDICTED BY RF-SCORE:    0.00 PKD
ROOT
HETATM    1  O   UNL     1     -10.544   8.801  71.723  1.00  0.00    -0.292 OA 
HETATM    2  C   UNL     1     -10.652   8.128  70.543  1.00  0.00    -0.220 A  
HETATM    3  H   UNL     1     -10.216   9.692  71.754  1.00  0.00     0.000 HD 
HETATM    4  C   UNL     1     -11.132   6.823  70.499  1.00  0.00    -0.346 A  
HETATM    5  C   UNL     1     -11.242   6.172  69.269  1.00  0.00    -0.438 A  
HETATM    6  C   UNL     1     -10.895   6.835  68.089  1.00  0.00    -0.228 A  
HETATM    7  C   UNL     1     -10.384   8.134  68.151  1.00  0.00    -0.251 A  
HETATM    8  C   UNL     1     -10.268   8.785  69.379  1.00  0.00    -0.210 A  
ENDROOT
BRANCH   6   9
HETATM    9  O   UNL     1     -11.013   6.308  66.830  1.00  0.00    -0.358 OA 
BRANCH   9  10
HETATM   10  C   UNL     1     -10.402   5.029  66.648  1.00  0.00    -0.270 C  
BRANCH  10  11
HETATM   11  C   UNL     1      -8.920   5.202  66.432  1.00  0.00    -0.125 A  
HETATM   12  C   UNL     1      -8.437   5.925  65.334  1.00  0.00    -0.153 A  
HETATM   13  C   UNL     1      -7.065   6.121  65.168  1.00  0.00    -0.064 A  
HETATM   14  C   UNL     1      -6.168   5.603  66.102  1.00  0.00    -0.034 A  
HETATM   15  C   UNL     1      -6.638   4.889  67.202  1.00  0.00    -0.050 A  
HETATM   16  C   UNL     1      -8.008   4.692  67.368  1.00  0.00    -0.101 A  
ENDBRANCH  10  11
ENDBRANCH   9  10
ENDBRANCH   6   9
TORSDOF 3
ENDMDL
MODEL      190
REMARK 921   NORMALIZED FREE ENERGY PREDICTED BY IDOCK:   -2.83 KCAL/MOL
REMARK 922        TOTAL FREE ENERGY PREDICTED BY IDOCK:   -3.76 KCAL/MOL
REMARK 923 INTER-LIGAND FREE ENERGY PREDICTED BY IDOCK:   -3.36 KCAL/MOL
REMARK 924 INTRA-LIGAND FREE ENERGY PREDICTED BY IDOCK:   -0.40 KCAL/MOL
REMARK 927      BINDING AFFINITY PREDICTED BY RF-SCORE:    0.00 PKD
ROOT
HETATM    1  O   UNL     1     -14.236   8.238  71.370  1.00  0.00    -0.549 OA 
HETATM    2  C   UNL     1     -12.882   8.091  71.343  1.00  0.00    -0.269 A  
HETATM    3  H   UNL     1     -14.807   7.621  70.927  1.00  0.00     0.000 HD 
HETATM    4  C   UNL     1     -12.047   8.994  71.993  1.00  0.00    -0.440 A  
HETATM    5  C   UNL     1     -10.664   8.803  71.955  1.00  0.00    -0.429 A  
HETATM    6  C   UNL     1     -10.125   7.698  71.289  1.00  0.00    -0.186 A  
HETATM    7  C   UNL     1     -10.974   6.818  70.613  1.00  0.00    -0.313 A  
HETATM    8  C   UNL     1     -12.355   7.009  70.646  1.00  0.00    -0.239 A  
ENDROOT
BRANCH   6   9
HETATM    9  O   UNL     1      -8.792   7.391  71.234  1.00  0.00    -0.136 OA 
BRANCH   9  10
HETATM   10  C   UNL     1      -8.495   6.024  70.937  1.00  0.00    -0.127 C  
BRANCH  10  11
HETATM   11  C   UNL     1      -8.510   5.216  72.210  1.00  0.00    -0.125 A  
HETATM   12  C   UNL     1      -9.221   4.012  72.285  1.00  0.00    -0.163 A  
HETATM   13  C   UNL     1      -9.190   3.246  73.452  1.00  0.00    -0.104 A  
HETATM   14  C   UNL     1      -8.442   3.676  74.548  1.00  0.00    -0.088 A  
HETATM   15  C   UNL     1      -7.726   4.868  74.482  1.00  0.00    -0.089 A  
HETATM   16  C   UNL     1      -7.756   5.634  73.317  1.00  0.00    -0.099 A  
ENDBRANCH  10  11
ENDBRANCH   9  10
ENDBRANCH   6   9
TORSDOF 3
ENDMDL
MODEL      191
REMARK 921   NORMALIZED FREE ENERGY PREDICTED BY IDOCK:   -2.83 KCAL/MOL
REMARK 922        TOTAL FREE ENERGY PREDICTED BY IDOCK:   -3.76 KCAL/MOL
REMARK 923 INTER-LIGAND FREE ENERGY PREDICTED BY IDOCK:   -3.26 KCAL/MOL
REMARK 924 INTRA-LIGAND FREE ENERGY PREDICTED BY IDOCK:   -0.50 KCAL/MOL
REMARK 927      BINDING AFFINITY PREDICTED BY RF-SCORE:    0.00 PKD
ROOT
HETATM    1  O   UNL     1      -6.773  10.723  66.651  1.00  0.00    -0.102 OA 
HETATM    2  C   UNL     1      -7.061  10.289  67.910  1.00  0.00    -0.084 A  
HETATM    3  H   UNL     1      -7.430  11.153  66.116  1.00  0.00     0.000 HD 
HETATM    4  C   UNL     1      -6.098   9.660  68.693  1.00  0.00    -0.043 A  
HETATM    5  C   UNL     1      -6.427   9.242  69.984  1.00  0.00    -0.049 A  
HETATM    6  C   UNL     1      -7.706   9.476  70.494  1.00  0.00    -0.157 A  
HETATM    7  C   UNL     1      -8.673  10.080  69.686  1.00  0.00    -0.210 A  
HETATM    8  C   UNL     1      -8.348  10.494  68.394  1.00  0.00    -0.126 A  
ENDROOT
BRANCH   6   9
HETATM    9  O   UNL     1      -8.115   9.154  71.761  1.00  0.00    -0.343 OA 
BRANCH   9  10
HETATM   10  C   UNL     1      -8.413   7.772  71.970  1.00  0.00    -0.116 C  
BRANCH  10  11
HETATM   11  C   UNL     1      -9.884   7.532  71.743  1.00  0.00    -0.192 A  
HETATM   12  C   UNL     1     -10.847   8.267  72.447  1.00  0.00    -0.421 A  
HETATM   13  C   UNL     1     -12.205   8.071  72.195  1.00  0.00    -0.377 A  
HETATM   14  C   UNL     1     -12.611   7.146  71.233  1.00  0.00    -0.421 A  
HETATM   15  C   UNL     1     -11.662   6.415  70.522  1.00  0.00    -0.385 A  
HETATM   16  C   UNL     1     -10.305   6.609  70.773  1.00  0.00    -0.232 A  
ENDBRANCH  10  11
ENDBRANCH   9  10
ENDBRANCH   6   9
TORSDOF 3
ENDMDL
MODEL      192
REMARK 921   NORMALIZED FREE ENERGY PREDICTED BY IDOCK:   -2.81 KCAL/MOL
REMARK 922        TOTAL FREE ENERGY PREDICTED BY IDOCK:   -3.74 KCAL/MOL
REMARK 923 INTER-LIGAND FREE ENERGY PREDICTED BY IDOCK:   -3.13 KCAL/MOL
REMARK 924 INTRA-LIGAND FREE ENERGY PREDICTED BY IDOCK:   -0.61 KCAL/MOL
REMARK 927      BINDING AFFINITY PREDICTED BY RF-SCORE:    0.00 PKD
ROOT
HETATM    1  O   UNL     1     -12.442  12.525  66.472  1.00  0.00    -0.396 OA 
HETATM    2  C   UNL     1     -11.406  13.384  66.688  1.00  0.00    -0.323 A  
HETATM    3  H   UNL     1     -13.065  12.322  67.160  1.00  0.00     0.000 HD 
HETATM    4  C   UNL     1     -10.495  13.681  65.680  1.00  0.00    -0.304 A  
HETATM    5  C   UNL     1      -9.455  14.577  65.935  1.00  0.00    -0.219 A  
HETATM    6  C   UNL     1      -9.346  15.189  67.187  1.00  0.00    -0.212 A  
HETATM    7  C   UNL     1     -10.249  14.858  68.200  1.00  0.00    -0.226 A  
HETATM    8  C   UNL     1     -11.286  13.958  67.949  1.00  0.00    -0.302 A  
ENDROOT
BRANCH   6   9
HETATM    9  O   UNL     1      -8.397  16.118  67.524  1.00  0.00    -0.153 OA 
BRANCH   9  10
HETATM   10  C   UNL     1      -7.050  15.746  67.228  1.00  0.00    -0.210 C  
BRANCH  10  11
HETATM   11  C   UNL     1      -6.549  14.784  68.275  1.00  0.00    -0.118 A  
HETATM   12  C   UNL     1      -6.225  13.463  67.938  1.00  0.00    -0.147 A  
HETATM   13  C   UNL     1      -5.716  12.594  68.905  1.00  0.00    -0.068 A  
HETATM   14  C   UNL     1      -5.522  13.041  70.211  1.00  0.00    -0.132 A  
HETATM   15  C   UNL     1      -5.835  14.353  70.556  1.00  0.00    -0.170 A  
HETATM   16  C   UNL     1      -6.342  15.223  69.592  1.00  0.00    -0.154 A  
ENDBRANCH  10  11
ENDBRANCH   9  10
ENDBRANCH   6   9
TORSDOF 3
ENDMDL
MODEL      193
REMARK 921   NORMALIZED FREE ENERGY PREDICTED BY IDOCK:   -2.77 KCAL/MOL
REMARK 922        TOTAL FREE ENERGY PREDICTED BY IDOCK:   -3.69 KCAL/MOL
REMARK 923 INTER-LIGAND FREE ENERGY PREDICTED BY IDOCK:   -3.30 KCAL/MOL
REMARK 924 INTRA-LIGAND FREE ENERGY PREDICTED BY IDOCK:   -0.40 KCAL/MOL
REMARK 927      BINDING AFFINITY PREDICTED BY RF-SCORE:    0.00 PKD
ROOT
HETATM    1  O   UNL     1      -6.496  10.077  66.274  1.00  0.00    -0.073 OA 
HETATM    2  C   UNL     1      -7.235  11.110  66.767  1.00  0.00    -0.146 A  
HETATM    3  H   UNL     1      -5.556  10.154  66.162  1.00  0.00     0.000 HD 
HETATM    4  C   UNL     1      -8.612  10.996  66.931  1.00  0.00    -0.143 A  
HETATM    5  C   UNL     1      -9.333  12.072  67.453  1.00  0.00    -0.178 A  
HETATM    6  C   UNL     1      -8.673  13.245  67.829  1.00  0.00    -0.194 A  
HETATM    7  C   UNL     1      -7.295  13.357  67.628  1.00  0.00    -0.173 A  
HETATM    8  C   UNL     1      -6.573  12.285  67.103  1.00  0.00    -0.109 A  
ENDROOT
BRANCH   6   9
HETATM    9  O   UNL     1      -9.277  14.335  68.396  1.00  0.00    -0.188 OA 
BRANCH   9  10
HETATM   10  C   UNL     1      -8.433  15.476  68.569  1.00  0.00    -0.163 C  
BRANCH  10  11
HETATM   11  C   UNL     1      -9.049  16.669  67.884  1.00  0.00    -0.218 A  
HETATM   12  C   UNL     1      -9.670  16.536  66.636  1.00  0.00    -0.275 A  
HETATM   13  C   UNL     1     -10.280  17.637  66.032  1.00  0.00    -0.301 A  
HETATM   14  C   UNL     1     -10.279  18.874  66.674  1.00  0.00    -0.462 A  
HETATM   15  C   UNL     1      -9.669  19.017  67.918  1.00  0.00    -0.385 A  
HETATM   16  C   UNL     1      -9.060  17.919  68.522  1.00  0.00    -0.289 A  
ENDBRANCH  10  11
ENDBRANCH   9  10
ENDBRANCH   6   9
TORSDOF 3
ENDMDL
MODEL      194
REMARK 921   NORMALIZED FREE ENERGY PREDICTED BY IDOCK:   -2.72 KCAL/MOL
REMARK 922        TOTAL FREE ENERGY PREDICTED BY IDOCK:   -3.64 KCAL/MOL
REMARK 923 INTER-LIGAND FREE ENERGY PREDICTED BY IDOCK:   -3.12 KCAL/MOL
REMARK 924 INTRA-LIGAND FREE ENERGY PREDICTED BY IDOCK:   -0.52 KCAL/MOL
REMARK 927      BINDING AFFINITY PREDICTED BY RF-SCORE:    0.00 PKD
ROOT
HETATM    1  O   UNL     1     -10.156   5.901  65.614  1.00  0.00    -0.323 OA 
HETATM    2  C   UNL     1      -9.565   5.751  66.833  1.00  0.00    -0.141 A  
HETATM    3  H   UNL     1     -10.079   6.713  65.127  1.00  0.00     0.000 HD 
HETATM    4  C   UNL     1      -9.677   4.562  67.546  1.00  0.00    -0.213 A  
HETATM    5  C   UNL     1      -9.045   4.441  68.786  1.00  0.00    -0.173 A  
HETATM    6  C   UNL     1      -8.287   5.498  69.294  1.00  0.00    -0.101 A  
HETATM    7  C   UNL     1      -8.209   6.698  68.583  1.00  0.00    -0.119 A  
HETATM    8  C   UNL     1      -8.844   6.823  67.346  1.00  0.00    -0.117 A  
ENDROOT
BRANCH   6   9
HETATM    9  O   UNL     1      -7.588   5.465  70.471  1.00  0.00    -0.076 OA 
BRANCH   9  10
HETATM   10  C   UNL     1      -8.349   5.086  71.620  1.00  0.00    -0.116 C  
BRANCH  10  11
HETATM   11  C   UNL     1      -9.404   6.128  71.894  1.00  0.00    -0.157 A  
HETATM   12  C   UNL     1      -9.044   7.431  72.262  1.00  0.00    -0.160 A  
HETATM   13  C   UNL     1     -10.025   8.401  72.467  1.00  0.00    -0.356 A  
HETATM   14  C   UNL     1     -11.371   8.078  72.299  1.00  0.00    -0.413 A  
HETATM   15  C   UNL     1     -11.740   6.788  71.927  1.00  0.00    -0.349 A  
HETATM   16  C   UNL     1     -10.761   5.817  71.721  1.00  0.00    -0.305 A  
ENDBRANCH  10  11
ENDBRANCH   9  10
ENDBRANCH   6   9
TORSDOF 3
ENDMDL
MODEL      195
REMARK 921   NORMALIZED FREE ENERGY PREDICTED BY IDOCK:   -2.68 KCAL/MOL
REMARK 922        TOTAL FREE ENERGY PREDICTED BY IDOCK:   -3.58 KCAL/MOL
REMARK 923 INTER-LIGAND FREE ENERGY PREDICTED BY IDOCK:   -3.21 KCAL/MOL
REMARK 924 INTRA-LIGAND FREE ENERGY PREDICTED BY IDOCK:   -0.38 KCAL/MOL
REMARK 927      BINDING AFFINITY PREDICTED BY RF-SCORE:    0.00 PKD
ROOT
HETATM    1  O   UNL     1      -7.143   4.098  63.646  1.00  0.00    -0.044 OA 
HETATM    2  C   UNL     1      -7.463   5.372  64.008  1.00  0.00    -0.061 A  
HETATM    3  H   UNL     1      -6.655   3.920  62.850  1.00  0.00     0.000 HD 
HETATM    4  C   UNL     1      -8.177   5.632  65.173  1.00  0.00    -0.136 A  
HETATM    5  C   UNL     1      -8.473   6.952  65.518  1.00  0.00    -0.122 A  
HETATM    6  C   UNL     1      -8.033   8.005  64.712  1.00  0.00    -0.143 A  
HETATM    7  C   UNL     1      -7.344   7.728  63.529  1.00  0.00    -0.097 A  
HETATM    8  C   UNL     1      -7.052   6.410  63.179  1.00  0.00    -0.050 A  
ENDROOT
BRANCH   6   9
HETATM    9  O   UNL     1      -8.225   9.333  64.986  1.00  0.00    -0.130 OA 
BRANCH   9  10
HETATM   10  C   UNL     1      -9.402   9.908  64.414  1.00  0.00    -0.265 C  
BRANCH  10  11
HETATM   11  C   UNL     1     -10.219  10.567  65.497  1.00  0.00    -0.325 A  
HETATM   12  C   UNL     1     -10.330   9.984  66.765  1.00  0.00    -0.283 A  
HETATM   13  C   UNL     1     -11.049  10.626  67.775  1.00  0.00    -0.385 A  
HETATM   14  C   UNL     1     -11.654  11.857  67.526  1.00  0.00    -0.374 A  
HETATM   15  C   UNL     1     -11.545  12.449  66.270  1.00  0.00    -0.449 A  
HETATM   16  C   UNL     1     -10.827  11.809  65.261  1.00  0.00    -0.343 A  
ENDBRANCH  10  11
ENDBRANCH   9  10
ENDBRANCH   6   9
TORSDOF 3
ENDMDL
MODEL      196
REMARK 921   NORMALIZED FREE ENERGY PREDICTED BY IDOCK:   -2.67 KCAL/MOL
REMARK 922        TOTAL FREE ENERGY PREDICTED BY IDOCK:   -3.58 KCAL/MOL
REMARK 923 INTER-LIGAND FREE ENERGY PREDICTED BY IDOCK:   -3.31 KCAL/MOL
REMARK 924 INTRA-LIGAND FREE ENERGY PREDICTED BY IDOCK:   -0.27 KCAL/MOL
REMARK 927      BINDING AFFINITY PREDICTED BY RF-SCORE:    0.00 PKD
ROOT
HETATM    1  O   UNL     1      -8.221   4.795  72.409  1.00  0.00    -0.111 OA 
HETATM    2  C   UNL     1      -8.599   5.846  71.628  1.00  0.00    -0.132 A  
HETATM    3  H   UNL     1      -7.331   4.718  72.733  1.00  0.00     0.000 HD 
HETATM    4  C   UNL     1      -9.902   5.957  71.154  1.00  0.00    -0.222 A  
HETATM    5  C   UNL     1     -10.256   7.056  70.368  1.00  0.00    -0.209 A  
HETATM    6  C   UNL     1      -9.315   8.048  70.081  1.00  0.00    -0.156 A  
HETATM    7  C   UNL     1      -8.002   7.907  70.537  1.00  0.00    -0.097 A  
HETATM    8  C   UNL     1      -7.644   6.807  71.318  1.00  0.00    -0.092 A  
ENDROOT
BRANCH   6   9
HETATM    9  O   UNL     1      -9.571   9.187  69.366  1.00  0.00    -0.159 OA 
BRANCH   9  10
HETATM   10  C   UNL     1     -10.846   9.227  68.722  1.00  0.00    -0.088 C  
BRANCH  10  11
HETATM   11  C   UNL     1     -10.886  10.378  67.750  1.00  0.00    -0.351 A  
HETATM   12  C   UNL     1     -11.614  11.538  68.044  1.00  0.00    -0.370 A  
HETATM   13  C   UNL     1     -11.606  12.618  67.160  1.00  0.00    -0.434 A  
HETATM   14  C   UNL     1     -10.865  12.548  65.980  1.00  0.00    -0.309 A  
HETATM   15  C   UNL     1     -10.132  11.403  65.681  1.00  0.00    -0.293 A  
HETATM   16  C   UNL     1     -10.139  10.323  66.563  1.00  0.00    -0.290 A  
ENDBRANCH  10  11
ENDBRANCH   9  10
ENDBRANCH   6   9
TORSDOF 3
ENDMDL
MODEL      197
REMARK 921   NORMALIZED FREE ENERGY PREDICTED BY IDOCK:   -2.67 KCAL/MOL
REMARK 922        TOTAL FREE ENERGY PREDICTED BY IDOCK:   -3.57 KCAL/MOL
REMARK 923 INTER-LIGAND FREE ENERGY PREDICTED BY IDOCK:   -3.20 KCAL/MOL
REMARK 924 INTRA-LIGAND FREE ENERGY PREDICTED BY IDOCK:   -0.37 KCAL/MOL
REMARK 927      BINDING AFFINITY PREDICTED BY RF-SCORE:    0.00 PKD
ROOT
HETATM    1  O   UNL     1     -11.193  11.888  70.083  1.00  0.00    -0.490 OA 
HETATM    2  C   UNL     1     -10.952  10.634  69.605  1.00  0.00    -0.278 A  
HETATM    3  H   UNL     1     -11.216  12.640  69.503  1.00  0.00     0.000 HD 
HETATM    4  C   UNL     1     -10.918   9.534  70.456  1.00  0.00    -0.348 A  
HETATM    5  C   UNL     1     -10.683   8.263  69.927  1.00  0.00    -0.234 A  
HETATM    6  C   UNL     1     -10.508   8.096  68.550  1.00  0.00    -0.162 A  
HETATM    7  C   UNL     1     -10.513   9.214  67.712  1.00  0.00    -0.306 A  
HETATM    8  C   UNL     1     -10.742  10.485  68.239  1.00  0.00    -0.270 A  
ENDROOT
BRANCH   6   9
HETATM    9  O   UNL     1     -10.323   6.892  67.925  1.00  0.00    -0.168 OA 
BRANCH   9  10
HETATM   10  C   UNL     1     -10.485   5.743  68.759  1.00  0.00    -0.242 C  
BRANCH  10  11
HETATM   11  C   UNL     1      -9.287   4.839  68.613  1.00  0.00    -0.187 A  
HETATM   12  C   UNL     1      -8.081   5.139  69.258  1.00  0.00    -0.084 A  
HETATM   13  C   UNL     1      -6.992   4.271  69.156  1.00  0.00    -0.050 A  
HETATM   14  C   UNL     1      -7.105   3.095  68.415  1.00  0.00    -0.049 A  
HETATM   15  C   UNL     1      -8.302   2.783  67.776  1.00  0.00    -0.094 A  
HETATM   16  C   UNL     1      -9.390   3.648  67.877  1.00  0.00    -0.241 A  
ENDBRANCH  10  11
ENDBRANCH   9  10
ENDBRANCH   6   9
TORSDOF 3
ENDMDL
MODEL      198
REMARK 921   NORMALIZED FREE ENERGY PREDICTED BY IDOCK:   -2.66 KCAL/MOL
REMARK 922        TOTAL FREE ENERGY PREDICTED BY IDOCK:   -3.56 KCAL/MOL
REMARK 923 INTER-LIGAND FREE ENERGY PREDICTED BY IDOCK:   -3.14 KCAL/MOL
REMARK 924 INTRA-LIGAND FREE ENERGY PREDICTED BY IDOCK:   -0.43 KCAL/MOL
REMARK 927      BINDING AFFINITY PREDICTED BY RF-SCORE:    0.00 PKD
ROOT
HETATM    1  O   UNL     1     -10.809  10.829  70.251  1.00  0.00    -0.458 OA 
HETATM    2  C   UNL     1     -10.553   9.494  70.345  1.00  0.00    -0.276 A  
HETATM    3  H   UNL     1     -10.831  11.381  71.024  1.00  0.00     0.000 HD 
HETATM    4  C   UNL     1     -10.521   8.686  69.212  1.00  0.00    -0.226 A  
HETATM    5  C   UNL     1     -10.241   7.325  69.347  1.00  0.00    -0.193 A  
HETATM    6  C   UNL     1      -9.973   6.783  70.607  1.00  0.00    -0.187 A  
HETATM    7  C   UNL     1     -10.041   7.599  71.738  1.00  0.00    -0.210 A  
HETATM    8  C   UNL     1     -10.325   8.959  71.607  1.00  0.00    -0.416 A  
ENDROOT
BRANCH   6   9
HETATM    9  O   UNL     1      -9.639   5.476  70.842  1.00  0.00    -0.161 OA 
BRANCH   9  10
HETATM   10  C   UNL     1      -8.344   5.087  70.378  1.00  0.00    -0.100 C  
BRANCH  10  11
HETATM   11  C   UNL     1      -8.484   4.252  69.131  1.00  0.00    -0.099 A  
HETATM   12  C   UNL     1      -9.225   3.063  69.145  1.00  0.00    -0.222 A  
HETATM   13  C   UNL     1      -9.389   2.322  67.974  1.00  0.00    -0.251 A  
HETATM   14  C   UNL     1      -8.821   2.767  66.781  1.00  0.00    -0.154 A  
HETATM   15  C   UNL     1      -8.088   3.951  66.754  1.00  0.00    -0.096 A  
HETATM   16  C   UNL     1      -7.923   4.693  67.923  1.00  0.00    -0.089 A  
ENDBRANCH  10  11
ENDBRANCH   9  10
ENDBRANCH   6   9
TORSDOF 3
ENDMDL
MODEL      199
REMARK 921   NORMALIZED FREE ENERGY PREDICTED BY IDOCK:   -2.66 KCAL/MOL
REMARK 922        TOTAL FREE ENERGY PREDICTED BY IDOCK:   -3.56 KCAL/MOL
REMARK 923 INTER-LIGAND FREE ENERGY PREDICTED BY IDOCK:   -3.18 KCAL/MOL
REMARK 924 INTRA-LIGAND FREE ENERGY PREDICTED BY IDOCK:   -0.39 KCAL/MOL
REMARK 927      BINDING AFFINITY PREDICTED BY RF-SCORE:    0.00 PKD
ROOT
HETATM    1  O   UNL     1      -5.985  12.136  69.182  1.00  0.00    -0.064 OA 
HETATM    2  C   UNL     1      -7.079  11.323  69.217  1.00  0.00    -0.112 A  
HETATM    3  H   UNL     1      -5.967  12.913  68.635  1.00  0.00     0.000 HD 
HETATM    4  C   UNL     1      -7.105  10.186  70.018  1.00  0.00    -0.156 A  
HETATM    5  C   UNL     1      -8.249   9.386  70.038  1.00  0.00    -0.171 A  
HETATM    6  C   UNL     1      -9.367   9.738  69.278  1.00  0.00    -0.191 A  
HETATM    7  C   UNL     1      -9.315  10.864  68.453  1.00  0.00    -0.172 A  
HETATM    8  C   UNL     1      -8.172  11.663  68.427  1.00  0.00    -0.155 A  
ENDROOT
BRANCH   6   9
HETATM    9  O   UNL     1     -10.553   9.053  69.265  1.00  0.00    -0.227 OA 
BRANCH   9  10
HETATM   10  C   UNL     1     -10.442   7.651  69.010  1.00  0.00    -0.205 C  
BRANCH  10  11
HETATM   11  C   UNL     1     -10.755   6.882  70.269  1.00  0.00    -0.274 A  
HETATM   12  C   UNL     1     -11.945   7.111  70.971  1.00  0.00    -0.387 A  
HETATM   13  C   UNL     1     -12.248   6.360  72.108  1.00  0.00    -0.278 A  
HETATM   14  C   UNL     1     -11.368   5.371  72.545  1.00  0.00    -0.286 A  
HETATM   15  C   UNL     1     -10.185   5.130  71.851  1.00  0.00    -0.269 A  
HETATM   16  C   UNL     1      -9.881   5.879  70.715  1.00  0.00    -0.229 A  
ENDBRANCH  10  11
ENDBRANCH   9  10
ENDBRANCH   6   9
TORSDOF 3
ENDMDL
MODEL      200
REMARK 921   NORMALIZED FREE ENERGY PREDICTED BY IDOCK:   -2.65 KCAL/MOL
REMARK 922        TOTAL FREE ENERGY PREDICTED BY IDOCK:   -3.55 KCAL/MOL
REMARK 923 INTER-LIGAND FREE ENERGY PREDICTED BY IDOCK:   -3.10 KCAL/MOL
REMARK 924 INTRA-LIGAND FREE ENERGY PREDICTED BY IDOCK:   -0.44 KCAL/MOL
REMARK 927      BINDING AFFINITY PREDICTED BY RF-SCORE:    0.00 PKD
ROOT
HETATM    1  O   UNL     1     -12.051  13.153  70.741  1.00  0.00    -0.466 OA 
HETATM    2  C   UNL     1     -11.634  12.652  69.545  1.00  0.00    -0.281 A  
HETATM    3  H   UNL     1     -12.451  12.593  71.397  1.00  0.00     0.000 HD 
HETATM    4  C   UNL     1     -11.048  13.472  68.586  1.00  0.00    -0.299 A  
HETATM    5  C   UNL     1     -10.620  12.920  67.377  1.00  0.00    -0.242 A  
HETATM    6  C   UNL     1     -10.757  11.549  67.143  1.00  0.00    -0.254 A  
HETATM    7  C   UNL     1     -11.377  10.743  68.101  1.00  0.00    -0.377 A  
HETATM    8  C   UNL     1     -11.810  11.294  69.308  1.00  0.00    -0.423 A  
ENDROOT
BRANCH   6   9
HETATM    9  O   UNL     1     -10.326  10.900  66.017  1.00  0.00    -0.243 OA 
BRANCH   9  10
HETATM   10  C   UNL     1      -9.130  11.423  65.434  1.00  0.00    -0.103 C  
BRANCH  10  11
HETATM   11  C   UNL     1      -7.985  10.477  65.695  1.00  0.00    -0.158 A  
HETATM   12  C   UNL     1      -6.660  10.927  65.644  1.00  0.00     0.043 A  
HETATM   13  C   UNL     1      -5.609  10.055  65.934  1.00  0.00    -0.058 A  
HETATM   14  C   UNL     1      -5.876   8.732  66.283  1.00  0.00    -0.051 A  
HETATM   15  C   UNL     1      -7.191   8.276  66.343  1.00  0.00    -0.075 A  
HETATM   16  C   UNL     1      -8.242   9.145  66.054  1.00  0.00    -0.115 A  
ENDBRANCH  10  11
ENDBRANCH   9  10
ENDBRANCH   6   9
TORSDOF 3
ENDMDL
MODEL      201
REMARK 921   NORMALIZED FREE ENERGY PREDICTED BY IDOCK:   -2.64 KCAL/MOL
REMARK 922        TOTAL FREE ENERGY PREDICTED BY IDOCK:   -3.54 KCAL/MOL
REMARK 923 INTER-LIGAND FREE ENERGY PREDICTED BY IDOCK:   -3.13 KCAL/MOL
REMARK 924 INTRA-LIGAND FREE ENERGY PREDICTED BY IDOCK:   -0.41 KCAL/MOL
REMARK 927      BINDING AFFINITY PREDICTED BY RF-SCORE:    0.00 PKD
ROOT
HETATM    1  O   UNL     1      -8.906  13.724  66.338  1.00  0.00    -0.452 OA 
HETATM    2  C   UNL     1      -8.758  12.739  67.269  1.00  0.00    -0.200 A  
HETATM    3  H   UNL     1      -8.160  14.059  65.853  1.00  0.00     0.000 HD 
HETATM    4  C   UNL     1      -9.849  12.249  67.978  1.00  0.00    -0.204 A  
HETATM    5  C   UNL     1      -9.660  11.230  68.914  1.00  0.00    -0.119 A  
HETATM    6  C   UNL     1      -8.387  10.690  69.118  1.00  0.00    -0.135 A  
HETATM    7  C   UNL     1      -7.295  11.214  68.423  1.00  0.00    -0.094 A  
HETATM    8  C   UNL     1      -7.481  12.236  67.491  1.00  0.00    -0.149 A  
ENDROOT
BRANCH   6   9
HETATM    9  O   UNL     1      -8.102   9.658  69.971  1.00  0.00    -0.143 OA 
BRANCH   9  10
HETATM   10  C   UNL     1      -8.151   8.355  69.386  1.00  0.00    -0.114 C  
BRANCH  10  11
HETATM   11  C   UNL     1      -9.262   7.557  70.021  1.00  0.00    -0.151 A  
HETATM   12  C   UNL     1     -10.444   7.291  69.318  1.00  0.00    -0.221 A  
HETATM   13  C   UNL     1     -11.446   6.511  69.896  1.00  0.00    -0.467 A  
HETATM   14  C   UNL     1     -11.271   5.985  71.176  1.00  0.00    -0.328 A  
HETATM   15  C   UNL     1     -10.096   6.238  71.881  1.00  0.00    -0.205 A  
HETATM   16  C   UNL     1      -9.094   7.017  71.305  1.00  0.00    -0.152 A  
ENDBRANCH  10  11
ENDBRANCH   9  10
ENDBRANCH   6   9
TORSDOF 3
ENDMDL
MODEL      202
REMARK 921   NORMALIZED FREE ENERGY PREDICTED BY IDOCK:   -2.64 KCAL/MOL
REMARK 922        TOTAL FREE ENERGY PREDICTED BY IDOCK:   -3.53 KCAL/MOL
REMARK 923 INTER-LIGAND FREE ENERGY PREDICTED BY IDOCK:   -3.05 KCAL/MOL
REMARK 924 INTRA-LIGAND FREE ENERGY PREDICTED BY IDOCK:   -0.49 KCAL/MOL
REMARK 927      BINDING AFFINITY PREDICTED BY RF-SCORE:    0.00 PKD
ROOT
HETATM    1  O   UNL     1      -7.882  19.252  67.574  1.00  0.00    -0.249 OA 
HETATM    2  C   UNL     1      -7.655  17.928  67.801  1.00  0.00    -0.214 A  
HETATM    3  H   UNL     1      -8.707  19.658  67.812  1.00  0.00     0.000 HD 
HETATM    4  C   UNL     1      -6.446  17.334  67.452  1.00  0.00    -0.170 A  
HETATM    5  C   UNL     1      -6.245  15.978  67.714  1.00  0.00    -0.164 A  
HETATM    6  C   UNL     1      -7.242  15.228  68.345  1.00  0.00    -0.114 A  
HETATM    7  C   UNL     1      -8.462  15.830  68.661  1.00  0.00    -0.193 A  
HETATM    8  C   UNL     1      -8.668  17.184  68.395  1.00  0.00    -0.246 A  
ENDROOT
BRANCH   6   9
HETATM    9  O   UNL     1      -7.128  13.909  68.693  1.00  0.00    -0.097 OA 
BRANCH   9  10
HETATM   10  C   UNL     1      -7.207  12.985  67.605  1.00  0.00    -0.151 C  
BRANCH  10  11
HETATM   11  C   UNL     1      -8.615  12.456  67.494  1.00  0.00    -0.177 A  
HETATM   12  C   UNL     1      -9.440  12.835  66.427  1.00  0.00    -0.229 A  
HETATM   13  C   UNL     1     -10.724  12.303  66.306  1.00  0.00    -0.293 A  
HETATM   14  C   UNL     1     -11.190  11.384  67.245  1.00  0.00    -0.370 A  
HETATM   15  C   UNL     1     -10.376  10.994  68.306  1.00  0.00    -0.197 A  
HETATM   16  C   UNL     1      -9.093  11.525  68.428  1.00  0.00    -0.185 A  
ENDBRANCH  10  11
ENDBRANCH   9  10
ENDBRANCH   6   9
TORSDOF 3
ENDMDL
MODEL      203
REMARK 921   NORMALIZED FREE ENERGY PREDICTED BY IDOCK:   -2.63 KCAL/MOL
REMARK 922        TOTAL FREE ENERGY PREDICTED BY IDOCK:   -3.53 KCAL/MOL
REMARK 923 INTER-LIGAND FREE ENERGY PREDICTED BY IDOCK:   -3.17 KCAL/MOL
REMARK 924 INTRA-LIGAND FREE ENERGY PREDICTED BY IDOCK:   -0.36 KCAL/MOL
REMARK 927      BINDING AFFINITY PREDICTED BY RF-SCORE:    0.00 PKD
ROOT
HETATM    1  O   UNL     1     -11.423   4.591  65.165  1.00  0.00    -1.105 OA 
HETATM    2  C   UNL     1     -10.707   5.049  66.230  1.00  0.00    -0.199 A  
HETATM    3  H   UNL     1     -12.188   5.057  64.848  1.00  0.00     0.000 HD 
HETATM    4  C   UNL     1      -9.587   4.365  66.692  1.00  0.00    -0.213 A  
HETATM    5  C   UNL     1      -8.870   4.874  67.777  1.00  0.00    -0.109 A  
HETATM    6  C   UNL     1      -9.261   6.074  68.377  1.00  0.00    -0.114 A  
HETATM    7  C   UNL     1     -10.406   6.733  67.923  1.00  0.00    -0.236 A  
HETATM    8  C   UNL     1     -11.127   6.224  66.843  1.00  0.00    -0.329 A  
ENDROOT
BRANCH   6   9
HETATM    9  O   UNL     1      -8.601   6.684  69.410  1.00  0.00    -0.133 OA 
BRANCH   9  10
HETATM   10  C   UNL     1      -9.120   7.959  69.795  1.00  0.00    -0.146 C  
BRANCH  10  11
HETATM   11  C   UNL     1      -8.314   9.052  69.142  1.00  0.00    -0.123 A  
HETATM   12  C   UNL     1      -8.933  10.221  68.681  1.00  0.00    -0.144 A  
HETATM   13  C   UNL     1      -8.171  11.248  68.122  1.00  0.00    -0.140 A  
HETATM   14  C   UNL     1      -6.786  11.117  68.026  1.00  0.00    -0.067 A  
HETATM   15  C   UNL     1      -6.159   9.962  68.487  1.00  0.00    -0.045 A  
HETATM   16  C   UNL     1      -6.919   8.935  69.046  1.00  0.00    -0.064 A  
ENDBRANCH  10  11
ENDBRANCH   9  10
ENDBRANCH   6   9
TORSDOF 3
ENDMDL
MODEL      204
REMARK 921   NORMALIZED FREE ENERGY PREDICTED BY IDOCK:   -2.60 KCAL/MOL
REMARK 922        TOTAL FREE ENERGY PREDICTED BY IDOCK:   -3.50 KCAL/MOL
REMARK 923 INTER-LIGAND FREE ENERGY PREDICTED BY IDOCK:   -3.28 KCAL/MOL
REMARK 924 INTRA-LIGAND FREE ENERGY PREDICTED BY IDOCK:   -0.21 KCAL/MOL
REMARK 927      BINDING AFFINITY PREDICTED BY RF-SCORE:    0.00 PKD
ROOT
HETATM    1  O   UNL     1      -5.481  10.430  68.417  1.00  0.00    -0.038 OA 
HETATM    2  C   UNL     1      -6.412   9.697  69.089  1.00  0.00    -0.044 A  
HETATM    3  H   UNL     1      -5.057  11.178  68.822  1.00  0.00     0.000 HD 
HETATM    4  C   UNL     1      -7.033   8.603  68.495  1.00  0.00    -0.065 A  
HETATM    5  C   UNL     1      -7.971   7.866  69.222  1.00  0.00    -0.117 A  
HETATM    6  C   UNL     1      -8.266   8.212  70.543  1.00  0.00    -0.117 A  
HETATM    7  C   UNL     1      -7.659   9.333  71.116  1.00  0.00    -0.045 A  
HETATM    8  C   UNL     1      -6.725  10.073  70.390  1.00  0.00    -0.138 A  
ENDROOT
BRANCH   6   9
HETATM    9  O   UNL     1      -9.129   7.529  71.357  1.00  0.00    -0.136 OA 
BRANCH   9  10
HETATM   10  C   UNL     1     -10.353   7.123  70.741  1.00  0.00    -0.206 C  
BRANCH  10  11
HETATM   11  C   UNL     1     -11.455   8.076  71.128  1.00  0.00    -0.302 A  
HETATM   12  C   UNL     1     -11.202   9.448  71.256  1.00  0.00    -0.437 A  
HETATM   13  C   UNL     1     -12.239  10.329  71.567  1.00  0.00    -0.449 A  
HETATM   14  C   UNL     1     -13.535   9.846  71.745  1.00  0.00    -0.444 A  
HETATM   15  C   UNL     1     -13.799   8.485  71.613  1.00  0.00    -0.437 A  
HETATM   16  C   UNL     1     -12.765   7.604  71.302  1.00  0.00    -0.306 A  
ENDBRANCH  10  11
ENDBRANCH   9  10
ENDBRANCH   6   9
TORSDOF 3
ENDMDL
MODEL      205
REMARK 921   NORMALIZED FREE ENERGY PREDICTED BY IDOCK:   -2.59 KCAL/MOL
REMARK 922        TOTAL FREE ENERGY PREDICTED BY IDOCK:   -3.48 KCAL/MOL
REMARK 923 INTER-LIGAND FREE ENERGY PREDICTED BY IDOCK:   -3.10 KCAL/MOL
REMARK 924 INTRA-LIGAND FREE ENERGY PREDICTED BY IDOCK:   -0.38 KCAL/MOL
REMARK 927      BINDING AFFINITY PREDICTED BY RF-SCORE:    0.00 PKD
ROOT
HETATM    1  O   UNL     1      -6.616   3.987  63.606  1.00  0.00    -0.036 OA 
HETATM    2  C   UNL     1      -7.428   4.671  64.461  1.00  0.00    -0.072 A  
HETATM    3  H   UNL     1      -5.740   4.295  63.406  1.00  0.00     0.000 HD 
HETATM    4  C   UNL     1      -8.711   4.218  64.752  1.00  0.00    -0.135 A  
HETATM    5  C   UNL     1      -9.508   4.938  65.644  1.00  0.00    -0.168 A  
HETATM    6  C   UNL     1      -9.011   6.092  66.258  1.00  0.00    -0.149 A  
HETATM    7  C   UNL     1      -7.733   6.552  65.931  1.00  0.00    -0.090 A  
HETATM    8  C   UNL     1      -6.937   5.837  65.036  1.00  0.00    -0.059 A  
ENDROOT
BRANCH   6   9
HETATM    9  O   UNL     1      -9.688   6.840  67.183  1.00  0.00    -0.138 OA 
BRANCH   9  10
HETATM   10  C   UNL     1     -10.889   6.248  67.683  1.00  0.00    -0.346 C  
BRANCH  10  11
HETATM   11  C   UNL     1     -10.654   5.730  69.079  1.00  0.00    -0.351 A  
HETATM   12  C   UNL     1      -9.867   4.591  69.297  1.00  0.00    -0.241 A  
HETATM   13  C   UNL     1      -9.616   4.148  70.596  1.00  0.00    -0.264 A  
HETATM   14  C   UNL     1     -10.142   4.842  71.685  1.00  0.00    -0.266 A  
HETATM   15  C   UNL     1     -10.920   5.979  71.480  1.00  0.00    -0.335 A  
HETATM   16  C   UNL     1     -11.172   6.424  70.183  1.00  0.00    -0.454 A  
ENDBRANCH  10  11
ENDBRANCH   9  10
ENDBRANCH   6   9
TORSDOF 3
ENDMDL
MODEL      206
REMARK 921   NORMALIZED FREE ENERGY PREDICTED BY IDOCK:   -2.52 KCAL/MOL
REMARK 922        TOTAL FREE ENERGY PREDICTED BY IDOCK:   -3.40 KCAL/MOL
REMARK 923 INTER-LIGAND FREE ENERGY PREDICTED BY IDOCK:   -2.93 KCAL/MOL
REMARK 924 INTRA-LIGAND FREE ENERGY PREDICTED BY IDOCK:   -0.47 KCAL/MOL
REMARK 927      BINDING AFFINITY PREDICTED BY RF-SCORE:    0.00 PKD
ROOT
HETATM    1  O   UNL     1      -5.159  11.517  69.932  1.00  0.00    -0.056 OA 
HETATM    2  C   UNL     1      -6.338  11.293  69.286  1.00  0.00    -0.081 A  
HETATM    3  H   UNL     1      -4.823  12.398  70.051  1.00  0.00     0.000 HD 
HETATM    4  C   UNL     1      -6.830  10.003  69.113  1.00  0.00    -0.056 A  
HETATM    5  C   UNL     1      -8.049   9.814  68.458  1.00  0.00    -0.104 A  
HETATM    6  C   UNL     1      -8.780  10.914  68.002  1.00  0.00    -0.132 A  
HETATM    7  C   UNL     1      -8.258  12.201  68.153  1.00  0.00    -0.164 A  
HETATM    8  C   UNL     1      -7.038  12.392  68.803  1.00  0.00    -0.098 A  
ENDROOT
BRANCH   6   9
HETATM    9  O   UNL     1     -10.005  10.842  67.395  1.00  0.00    -0.180 OA 
BRANCH   9  10
HETATM   10  C   UNL     1     -10.818   9.736  67.795  1.00  0.00    -0.246 C  
BRANCH  10  11
HETATM   11  C   UNL     1     -11.468  10.041  69.120  1.00  0.00    -0.090 A  
HETATM   12  C   UNL     1     -11.555   9.060  70.117  1.00  0.00    -0.007 A  
HETATM   13  C   UNL     1     -12.115   9.365  71.358  1.00  0.00    -0.442 A  
HETATM   14  C   UNL     1     -12.586  10.652  71.614  1.00  0.00    -0.482 A  
HETATM   15  C   UNL     1     -12.498  11.637  70.633  1.00  0.00    -0.386 A  
HETATM   16  C   UNL     1     -11.939  11.334  69.393  1.00  0.00    -0.410 A  
ENDBRANCH  10  11
ENDBRANCH   9  10
ENDBRANCH   6   9
TORSDOF 3
ENDMDL
MODEL      207
REMARK 921   NORMALIZED FREE ENERGY PREDICTED BY IDOCK:   -2.51 KCAL/MOL
REMARK 922        TOTAL FREE ENERGY PREDICTED BY IDOCK:   -3.39 KCAL/MOL
REMARK 923 INTER-LIGAND FREE ENERGY PREDICTED BY IDOCK:   -3.15 KCAL/MOL
REMARK 924 INTRA-LIGAND FREE ENERGY PREDICTED BY IDOCK:   -0.25 KCAL/MOL
REMARK 927      BINDING AFFINITY PREDICTED BY RF-SCORE:    0.00 PKD
ROOT
HETATM    1  O   UNL     1     -11.296   8.797  71.786  1.00  0.00    -0.292 OA 
HETATM    2  C   UNL     1     -10.491   8.873  70.690  1.00  0.00    -0.221 A  
HETATM    3  H   UNL     1     -11.265   9.459  72.467  1.00  0.00     0.000 HD 
HETATM    4  C   UNL     1     -10.537   7.903  69.694  1.00  0.00    -0.234 A  
HETATM    5  C   UNL     1      -9.707   8.023  68.578  1.00  0.00    -0.166 A  
HETATM    6  C   UNL     1      -8.853   9.123  68.452  1.00  0.00    -0.129 A  
HETATM    7  C   UNL     1      -8.793  10.072  69.475  1.00  0.00    -0.209 A  
HETATM    8  C   UNL     1      -9.619   9.952  70.593  1.00  0.00     0.053 A  
ENDROOT
BRANCH   6   9
HETATM    9  O   UNL     1      -8.038   9.362  67.378  1.00  0.00    -0.109 OA 
BRANCH   9  10
HETATM   10  C   UNL     1      -8.666   9.245  66.099  1.00  0.00    -0.149 C  
BRANCH  10  11
HETATM   11  C   UNL     1      -9.386  10.529  65.771  1.00  0.00    -0.229 A  
HETATM   12  C   UNL     1     -10.408  10.551  64.813  1.00  0.00    -0.300 A  
HETATM   13  C   UNL     1     -11.101  11.734  64.550  1.00  0.00    -0.376 A  
HETATM   14  C   UNL     1     -10.783  12.898  65.248  1.00  0.00    -0.318 A  
HETATM   15  C   UNL     1      -9.773  12.886  66.207  1.00  0.00    -0.268 A  
HETATM   16  C   UNL     1      -9.080  11.706  66.471  1.00  0.00    -0.200 A  
ENDBRANCH  10  11
ENDBRANCH   9  10
ENDBRANCH   6   9
TORSDOF 3
ENDMDL
MODEL      208
REMARK 921   NORMALIZED FREE ENERGY PREDICTED BY IDOCK:   -2.49 KCAL/MOL
REMARK 922        TOTAL FREE ENERGY PREDICTED BY IDOCK:   -3.36 KCAL/MOL
REMARK 923 INTER-LIGAND FREE ENERGY PREDICTED BY IDOCK:   -3.07 KCAL/MOL
REMARK 924 INTRA-LIGAND FREE ENERGY PREDICTED BY IDOCK:   -0.29 KCAL/MOL
REMARK 927      BINDING AFFINITY PREDICTED BY RF-SCORE:    0.00 PKD
ROOT
HETATM    1  O   UNL     1      -8.052   4.108  72.201  1.00  0.00    -0.086 OA 
HETATM    2  C   UNL     1      -8.761   5.224  71.870  1.00  0.00    -0.131 A  
HETATM    3  H   UNL     1      -7.188   4.171  72.589  1.00  0.00     0.000 HD 
HETATM    4  C   UNL     1     -10.027   5.131  71.302  1.00  0.00    -0.257 A  
HETATM    5  C   UNL     1     -10.729   6.298  70.991  1.00  0.00    -0.313 A  
HETATM    6  C   UNL     1     -10.172   7.549  71.271  1.00  0.00    -0.188 A  
HETATM    7  C   UNL     1      -8.887   7.628  71.812  1.00  0.00    -0.139 A  
HETATM    8  C   UNL     1      -8.182   6.464  72.119  1.00  0.00    -0.108 A  
ENDROOT
BRANCH   6   9
HETATM    9  O   UNL     1     -10.795   8.749  71.053  1.00  0.00    -0.233 OA 
BRANCH   9  10
HETATM   10  C   UNL     1     -11.391   8.899  69.763  1.00  0.00     0.085 C  
BRANCH  10  11
HETATM   11  C   UNL     1     -11.169  10.305  69.264  1.00  0.00    -0.281 A  
HETATM   12  C   UNL     1     -10.616  10.536  67.998  1.00  0.00    -0.251 A  
HETATM   13  C   UNL     1     -10.460  11.840  67.526  1.00  0.00    -0.228 A  
HETATM   14  C   UNL     1     -10.860  12.920  68.312  1.00  0.00    -0.263 A  
HETATM   15  C   UNL     1     -11.417  12.701  69.570  1.00  0.00    -0.294 A  
HETATM   16  C   UNL     1     -11.574  11.400  70.043  1.00  0.00    -0.382 A  
ENDBRANCH  10  11
ENDBRANCH   9  10
ENDBRANCH   6   9
TORSDOF 3
ENDMDL
MODEL      209
REMARK 921   NORMALIZED FREE ENERGY PREDICTED BY IDOCK:   -2.48 KCAL/MOL
REMARK 922        TOTAL FREE ENERGY PREDICTED BY IDOCK:   -3.35 KCAL/MOL
REMARK 923 INTER-LIGAND FREE ENERGY PREDICTED BY IDOCK:   -2.94 KCAL/MOL
REMARK 924 INTRA-LIGAND FREE ENERGY PREDICTED BY IDOCK:   -0.41 KCAL/MOL
REMARK 927      BINDING AFFINITY PREDICTED BY RF-SCORE:    0.00 PKD
ROOT
HETATM    1  O   UNL     1     -12.451  10.956  68.754  1.00  0.00    -0.767 OA 
HETATM    2  C   UNL     1     -11.270  10.437  68.314  1.00  0.00    -0.267 A  
HETATM    3  H   UNL     1     -12.993  11.494  68.189  1.00  0.00     0.000 HD 
HETATM    4  C   UNL     1     -10.477   9.648  69.142  1.00  0.00    -0.230 A  
HETATM    5  C   UNL     1      -9.281   9.122  68.650  1.00  0.00    -0.136 A  
HETATM    6  C   UNL     1      -8.895   9.366  67.329  1.00  0.00    -0.128 A  
HETATM    7  C   UNL     1      -9.685  10.186  66.520  1.00  0.00    -0.252 A  
HETATM    8  C   UNL     1     -10.878  10.717  67.010  1.00  0.00    -0.298 A  
ENDROOT
BRANCH   6   9
HETATM    9  O   UNL     1      -7.771   8.857  66.735  1.00  0.00    -0.095 OA 
BRANCH   9  10
HETATM   10  C   UNL     1      -7.169   7.755  67.417  1.00  0.00    -0.091 C  
BRANCH  10  11
HETATM   11  C   UNL     1      -7.617   6.462  66.782  1.00  0.00    -0.098 A  
HETATM   12  C   UNL     1      -8.169   6.451  65.495  1.00  0.00    -0.142 A  
HETATM   13  C   UNL     1      -8.535   5.244  64.897  1.00  0.00    -0.150 A  
HETATM   14  C   UNL     1      -8.346   4.042  65.578  1.00  0.00    -0.109 A  
HETATM   15  C   UNL     1      -7.791   4.041  66.856  1.00  0.00    -0.096 A  
HETATM   16  C   UNL     1      -7.425   5.246  67.454  1.00  0.00    -0.084 A  
ENDBRANCH  10  11
ENDBRANCH   9  10
ENDBRANCH   6   9
TORSDOF 3
ENDMDL
MODEL      210
REMARK 921   NORMALIZED FREE ENERGY PREDICTED BY IDOCK:   -2.47 KCAL/MOL
REMARK 922        TOTAL FREE ENERGY PREDICTED BY IDOCK:   -3.34 KCAL/MOL
REMARK 923 INTER-LIGAND FREE ENERGY PREDICTED BY IDOCK:   -3.03 KCAL/MOL
REMARK 924 INTRA-LIGAND FREE ENERGY PREDICTED BY IDOCK:   -0.31 KCAL/MOL
REMARK 927      BINDING AFFINITY PREDICTED BY RF-SCORE:    0.00 PKD
ROOT
HETATM    1  O   UNL     1      -7.541  11.623  68.390  1.00  0.00    -0.111 OA 
HETATM    2  C   UNL     1      -8.476  10.665  68.646  1.00  0.00    -0.142 A  
HETATM    3  H   UNL     1      -6.698  11.618  68.829  1.00  0.00     0.000 HD 
HETATM    4  C   UNL     1      -9.709  10.673  68.003  1.00  0.00    -0.170 A  
HETATM    5  C   UNL     1     -10.636   9.666  68.281  1.00  0.00    -0.268 A  
HETATM    6  C   UNL     1     -10.317   8.645  69.181  1.00  0.00    -0.217 A  
HETATM    7  C   UNL     1      -9.088   8.668  69.844  1.00  0.00    -0.151 A  
HETATM    8  C   UNL     1      -8.162   9.676  69.571  1.00  0.00    -0.136 A  
ENDROOT
BRANCH   6   9
HETATM    9  O   UNL     1     -11.131   7.587  69.485  1.00  0.00    -0.174 OA 
BRANCH   9  10
HETATM   10  C   UNL     1     -10.453   6.360  69.764  1.00  0.00    -0.215 C  
BRANCH  10  11
HETATM   11  C   UNL     1     -10.207   5.614  68.478  1.00  0.00    -0.253 A  
HETATM   12  C   UNL     1      -9.337   4.516  68.442  1.00  0.00    -0.194 A  
HETATM   13  C   UNL     1      -9.153   3.802  67.257  1.00  0.00    -0.181 A  
HETATM   14  C   UNL     1      -9.841   4.176  66.103  1.00  0.00    -0.207 A  
HETATM   15  C   UNL     1     -10.713   5.262  66.129  1.00  0.00    -0.211 A  
HETATM   16  C   UNL     1     -10.898   5.976  67.311  1.00  0.00    -0.403 A  
ENDBRANCH  10  11
ENDBRANCH   9  10
ENDBRANCH   6   9
TORSDOF 3
ENDMDL
MODEL      211
REMARK 921   NORMALIZED FREE ENERGY PREDICTED BY IDOCK:   -2.42 KCAL/MOL
REMARK 922        TOTAL FREE ENERGY PREDICTED BY IDOCK:   -3.28 KCAL/MOL
REMARK 923 INTER-LIGAND FREE ENERGY PREDICTED BY IDOCK:   -2.87 KCAL/MOL
REMARK 924 INTRA-LIGAND FREE ENERGY PREDICTED BY IDOCK:   -0.41 KCAL/MOL
REMARK 927      BINDING AFFINITY PREDICTED BY RF-SCORE:    0.00 PKD
ROOT
HETATM    1  O   UNL     1     -12.736  10.662  69.292  1.00  0.00    -0.689 OA 
HETATM    2  C   UNL     1     -11.443  10.481  68.903  1.00  0.00    -0.226 A  
HETATM    3  H   UNL     1     -13.417  10.857  68.659  1.00  0.00     0.000 HD 
HETATM    4  C   UNL     1     -10.446  10.195  69.830  1.00  0.00    -0.322 A  
HETATM    5  C   UNL     1      -9.134  10.001  69.392  1.00  0.00    -0.228 A  
HETATM    6  C   UNL     1      -8.830  10.071  68.030  1.00  0.00    -0.125 A  
HETATM    7  C   UNL     1      -9.835  10.390  67.113  1.00  0.00    -0.221 A  
HETATM    8  C   UNL     1     -11.146  10.589  67.549  1.00  0.00    -0.358 A  
ENDROOT
BRANCH   6   9
HETATM    9  O   UNL     1      -7.591   9.847  67.491  1.00  0.00    -0.091 OA 
BRANCH   9  10
HETATM   10  C   UNL     1      -7.408   8.558  66.902  1.00  0.00    -0.083 C  
BRANCH  10  11
HETATM   11  C   UNL     1      -6.936   8.715  65.479  1.00  0.00    -0.078 A  
HETATM   12  C   UNL     1      -6.730   9.987  64.929  1.00  0.00    -0.126 A  
HETATM   13  C   UNL     1      -6.248  10.122  63.627  1.00  0.00    -0.138 A  
HETATM   14  C   UNL     1      -5.961   8.987  62.868  1.00  0.00    -0.089 A  
HETATM   15  C   UNL     1      -6.156   7.718  63.407  1.00  0.00    -0.059 A  
HETATM   16  C   UNL     1      -6.637   7.582  64.708  1.00  0.00    -0.040 A  
ENDBRANCH  10  11
ENDBRANCH   9  10
ENDBRANCH   6   9
TORSDOF 3
ENDMDL
MODEL      212
REMARK 921   NORMALIZED FREE ENERGY PREDICTED BY IDOCK:   -2.42 KCAL/MOL
REMARK 922        TOTAL FREE ENERGY PREDICTED BY IDOCK:   -3.28 KCAL/MOL
REMARK 923 INTER-LIGAND FREE ENERGY PREDICTED BY IDOCK:   -2.66 KCAL/MOL
REMARK 924 INTRA-LIGAND FREE ENERGY PREDICTED BY IDOCK:   -0.62 KCAL/MOL
REMARK 927      BINDING AFFINITY PREDICTED BY RF-SCORE:    0.00 PKD
ROOT
HETATM    1  O   UNL     1      -9.409  13.421  66.601  1.00  0.00    -0.252 OA 
HETATM    2  C   UNL     1      -9.793  12.271  67.222  1.00  0.00    -0.205 A  
HETATM    3  H   UNL     1      -8.818  14.035  67.023  1.00  0.00     0.000 HD 
HETATM    4  C   UNL     1     -10.658  11.373  66.604  1.00  0.00    -0.302 A  
HETATM    5  C   UNL     1     -11.017  10.198  67.265  1.00  0.00    -0.250 A  
HETATM    6  C   UNL     1     -10.493   9.914  68.529  1.00  0.00    -0.205 A  
HETATM    7  C   UNL     1      -9.651  10.838  69.152  1.00  0.00    -0.169 A  
HETATM    8  C   UNL     1      -9.294  12.017  68.495  1.00  0.00    -0.127 A  
ENDROOT
BRANCH   6   9
HETATM    9  O   UNL     1     -10.739   8.770  69.240  1.00  0.00    -0.221 OA 
BRANCH   9  10
HETATM   10  C   UNL     1      -9.588   7.975  69.532  1.00  0.00    -0.164 C  
BRANCH  10  11
HETATM   11  C   UNL     1      -9.160   7.231  68.292  1.00  0.00    -0.134 A  
HETATM   12  C   UNL     1      -7.921   7.491  67.693  1.00  0.00    -0.117 A  
HETATM   13  C   UNL     1      -7.513   6.763  66.574  1.00  0.00    -0.078 A  
HETATM   14  C   UNL     1      -8.337   5.767  66.052  1.00  0.00    -0.126 A  
HETATM   15  C   UNL     1      -9.568   5.495  66.643  1.00  0.00    -0.163 A  
HETATM   16  C   UNL     1      -9.977   6.221  67.761  1.00  0.00    -0.143 A  
ENDBRANCH  10  11
ENDBRANCH   9  10
ENDBRANCH   6   9
TORSDOF 3
ENDMDL
MODEL      213
REMARK 921   NORMALIZED FREE ENERGY PREDICTED BY IDOCK:   -2.42 KCAL/MOL
REMARK 922        TOTAL FREE ENERGY PREDICTED BY IDOCK:   -3.28 KCAL/MOL
REMARK 923 INTER-LIGAND FREE ENERGY PREDICTED BY IDOCK:   -2.90 KCAL/MOL
REMARK 924 INTRA-LIGAND FREE ENERGY PREDICTED BY IDOCK:   -0.37 KCAL/MOL
REMARK 927      BINDING AFFINITY PREDICTED BY RF-SCORE:    0.00 PKD
ROOT
HETATM    1  O   UNL     1      -8.632   4.072  72.866  1.00  0.00    -0.098 OA 
HETATM    2  C   UNL     1      -9.074   4.977  71.948  1.00  0.00    -0.137 A  
HETATM    3  H   UNL     1      -7.930   4.286  73.469  1.00  0.00     0.000 HD 
HETATM    4  C   UNL     1     -10.103   4.664  71.065  1.00  0.00    -0.246 A  
HETATM    5  C   UNL     1     -10.538   5.622  70.148  1.00  0.00    -0.380 A  
HETATM    6  C   UNL     1      -9.961   6.895  70.134  1.00  0.00    -0.178 A  
HETATM    7  C   UNL     1      -8.908   7.185  71.004  1.00  0.00    -0.145 A  
HETATM    8  C   UNL     1      -8.467   6.228  71.918  1.00  0.00    -0.124 A  
ENDROOT
BRANCH   6   9
HETATM    9  O   UNL     1     -10.347   7.921  69.313  1.00  0.00    -0.213 OA 
BRANCH   9  10
HETATM   10  C   UNL     1     -10.521   7.567  67.939  1.00  0.00    -0.204 C  
BRANCH  10  11
HETATM   11  C   UNL     1      -9.727   8.509  67.070  1.00  0.00    -0.266 A  
HETATM   12  C   UNL     1      -8.327   8.462  67.055  1.00  0.00    -0.114 A  
HETATM   13  C   UNL     1      -7.603   9.305  66.212  1.00  0.00    -0.096 A  
HETATM   14  C   UNL     1      -8.272  10.195  65.373  1.00  0.00    -0.151 A  
HETATM   15  C   UNL     1      -9.664  10.246  65.374  1.00  0.00    -0.340 A  
HETATM   16  C   UNL     1     -10.389   9.404  66.216  1.00  0.00    -0.211 A  
ENDBRANCH  10  11
ENDBRANCH   9  10
ENDBRANCH   6   9
TORSDOF 3
ENDMDL
MODEL      214
REMARK 921   NORMALIZED FREE ENERGY PREDICTED BY IDOCK:   -2.41 KCAL/MOL
REMARK 922        TOTAL FREE ENERGY PREDICTED BY IDOCK:   -3.26 KCAL/MOL
REMARK 923 INTER-LIGAND FREE ENERGY PREDICTED BY IDOCK:   -2.87 KCAL/MOL
REMARK 924 INTRA-LIGAND FREE ENERGY PREDICTED BY IDOCK:   -0.39 KCAL/MOL
REMARK 927      BINDING AFFINITY PREDICTED BY RF-SCORE:    0.00 PKD
ROOT
HETATM    1  O   UNL     1      -8.447  12.918  66.478  1.00  0.00    -0.420 OA 
HETATM    2  C   UNL     1      -8.892  11.641  66.647  1.00  0.00    -0.187 A  
HETATM    3  H   UNL     1      -7.789  13.290  67.052  1.00  0.00     0.000 HD 
HETATM    4  C   UNL     1      -9.856  11.097  65.805  1.00  0.00    -0.279 A  
HETATM    5  C   UNL     1     -10.276   9.780  66.001  1.00  0.00    -0.263 A  
HETATM    6  C   UNL     1      -9.714   9.007  67.021  1.00  0.00    -0.189 A  
HETATM    7  C   UNL     1      -8.771   9.576  67.879  1.00  0.00    -0.119 A  
HETATM    8  C   UNL     1      -8.353  10.894  67.688  1.00  0.00    -0.116 A  
ENDROOT
BRANCH   6   9
HETATM    9  O   UNL     1     -10.017   7.694  67.266  1.00  0.00    -0.169 OA 
BRANCH   9  10
HETATM   10  C   UNL     1      -8.916   6.788  67.166  1.00  0.00    -0.115 C  
BRANCH  10  11
HETATM   11  C   UNL     1      -9.163   5.814  66.042  1.00  0.00    -0.155 A  
HETATM   12  C   UNL     1      -8.240   5.677  64.998  1.00  0.00    -0.137 A  
HETATM   13  C   UNL     1      -8.454   4.739  63.987  1.00  0.00    -0.132 A  
HETATM   14  C   UNL     1      -9.587   3.927  64.017  1.00  0.00    -0.162 A  
HETATM   15  C   UNL     1     -10.508   4.050  65.054  1.00  0.00    -0.152 A  
HETATM   16  C   UNL     1     -10.296   4.986  66.065  1.00  0.00    -0.276 A  
ENDBRANCH  10  11
ENDBRANCH   9  10
ENDBRANCH   6   9
TORSDOF 3
ENDMDL
MODEL      215
REMARK 921   NORMALIZED FREE ENERGY PREDICTED BY IDOCK:   -2.40 KCAL/MOL
REMARK 922        TOTAL FREE ENERGY PREDICTED BY IDOCK:   -3.26 KCAL/MOL
REMARK 923 INTER-LIGAND FREE ENERGY PREDICTED BY IDOCK:   -2.82 KCAL/MOL
REMARK 924 INTRA-LIGAND FREE ENERGY PREDICTED BY IDOCK:   -0.44 KCAL/MOL
REMARK 927      BINDING AFFINITY PREDICTED BY RF-SCORE:    0.00 PKD
ROOT
HETATM    1  O   UNL     1      -9.468   3.958  74.544  1.00  0.00    -0.102 OA 
HETATM    2  C   UNL     1      -9.543   4.844  73.511  1.00  0.00    -0.132 A  
HETATM    3  H   UNL     1      -8.713   3.936  75.119  1.00  0.00     0.000 HD 
HETATM    4  C   UNL     1     -10.649   4.877  72.668  1.00  0.00    -0.272 A  
HETATM    5  C   UNL     1     -10.696   5.808  71.630  1.00  0.00    -0.314 A  
HETATM    6  C   UNL     1      -9.649   6.717  71.453  1.00  0.00    -0.167 A  
HETATM    7  C   UNL     1      -8.529   6.652  72.286  1.00  0.00    -0.111 A  
HETATM    8  C   UNL     1      -8.478   5.719  73.322  1.00  0.00    -0.116 A  
ENDROOT
BRANCH   6   9
HETATM    9  O   UNL     1      -9.618   7.701  70.501  1.00  0.00    -0.168 OA 
BRANCH   9  10
HETATM   10  C   UNL     1     -10.597   7.577  69.467  1.00  0.00    -0.236 C  
BRANCH  10  11
HETATM   11  C   UNL     1     -10.000   6.848  68.290  1.00  0.00    -0.162 A  
HETATM   12  C   UNL     1     -10.793   6.026  67.480  1.00  0.00    -0.393 A  
HETATM   13  C   UNL     1     -10.241   5.393  66.364  1.00  0.00    -0.268 A  
HETATM   14  C   UNL     1      -8.897   5.585  66.047  1.00  0.00    -0.147 A  
HETATM   15  C   UNL     1      -8.101   6.406  66.842  1.00  0.00    -0.109 A  
HETATM   16  C   UNL     1      -8.650   7.038  67.956  1.00  0.00    -0.124 A  
ENDBRANCH  10  11
ENDBRANCH   9  10
ENDBRANCH   6   9
TORSDOF 3
ENDMDL
MODEL      216
REMARK 921   NORMALIZED FREE ENERGY PREDICTED BY IDOCK:   -2.38 KCAL/MOL
REMARK 922        TOTAL FREE ENERGY PREDICTED BY IDOCK:   -3.24 KCAL/MOL
REMARK 923 INTER-LIGAND FREE ENERGY PREDICTED BY IDOCK:   -2.86 KCAL/MOL
REMARK 924 INTRA-LIGAND FREE ENERGY PREDICTED BY IDOCK:   -0.38 KCAL/MOL
REMARK 927      BINDING AFFINITY PREDICTED BY RF-SCORE:    0.00 PKD
ROOT
HETATM    1  O   UNL     1      -6.531  11.174  68.252  1.00  0.00    -0.056 OA 
HETATM    2  C   UNL     1      -7.557  10.277  68.265  1.00  0.00    -0.091 A  
HETATM    3  H   UNL     1      -6.233  11.593  69.052  1.00  0.00     0.000 HD 
HETATM    4  C   UNL     1      -7.993   9.665  67.094  1.00  0.00    -0.106 A  
HETATM    5  C   UNL     1      -9.037   8.740  67.149  1.00  0.00    -0.155 A  
HETATM    6  C   UNL     1      -9.623   8.414  68.375  1.00  0.00    -0.148 A  
HETATM    7  C   UNL     1      -9.198   9.060  69.538  1.00  0.00    -0.152 A  
HETATM    8  C   UNL     1      -8.158   9.989  69.485  1.00  0.00    -0.166 A  
ENDROOT
BRANCH   6   9
HETATM    9  O   UNL     1     -10.616   7.486  68.546  1.00  0.00    -0.195 OA 
BRANCH   9  10
HETATM   10  C   UNL     1     -11.020   7.271  69.900  1.00  0.00    -0.243 C  
BRANCH  10  11
HETATM   11  C   UNL     1     -10.464   5.958  70.391  1.00  0.00    -0.324 A  
HETATM   12  C   UNL     1     -10.087   4.957  69.486  1.00  0.00    -0.286 A  
HETATM   13  C   UNL     1      -9.529   3.764  69.947  1.00  0.00    -0.267 A  
HETATM   14  C   UNL     1      -9.338   3.566  71.315  1.00  0.00    -0.209 A  
HETATM   15  C   UNL     1      -9.703   4.557  72.223  1.00  0.00    -0.217 A  
HETATM   16  C   UNL     1     -10.261   5.749  71.763  1.00  0.00    -0.245 A  
ENDBRANCH  10  11
ENDBRANCH   9  10
ENDBRANCH   6   9
TORSDOF 3
ENDMDL
MODEL      217
REMARK 921   NORMALIZED FREE ENERGY PREDICTED BY IDOCK:   -2.38 KCAL/MOL
REMARK 922        TOTAL FREE ENERGY PREDICTED BY IDOCK:   -3.23 KCAL/MOL
REMARK 923 INTER-LIGAND FREE ENERGY PREDICTED BY IDOCK:   -2.96 KCAL/MOL
REMARK 924 INTRA-LIGAND FREE ENERGY PREDICTED BY IDOCK:   -0.27 KCAL/MOL
REMARK 927      BINDING AFFINITY PREDICTED BY RF-SCORE:    0.00 PKD
ROOT
HETATM    1  O   UNL     1     -11.914   6.856  70.213  1.00  0.00    -0.566 OA 
HETATM    2  C   UNL     1     -11.654   8.193  70.163  1.00  0.00     0.097 A  
HETATM    3  H   UNL     1     -11.824   6.308  69.443  1.00  0.00     0.000 HD 
HETATM    4  C   UNL     1     -11.786   8.996  71.291  1.00  0.00    -0.379 A  
HETATM    5  C   UNL     1     -11.496  10.358  71.204  1.00  0.00    -0.223 A  
HETATM    6  C   UNL     1     -11.053  10.907  69.997  1.00  0.00    -0.211 A  
HETATM    7  C   UNL     1     -10.956  10.096  68.864  1.00  0.00    -0.261 A  
HETATM    8  C   UNL     1     -11.250   8.735  68.948  1.00  0.00     0.341 A  
ENDROOT
BRANCH   6   9
HETATM    9  O   UNL     1     -10.694  12.216  69.817  1.00  0.00     0.213 OA 
BRANCH   9  10
HETATM   10  C   UNL     1     -11.710  13.054  69.260  1.00  0.00    -0.320 C  
BRANCH  10  11
HETATM   11  C   UNL     1     -11.071  14.240  68.583  1.00  0.00    -0.273 A  
HETATM   12  C   UNL     1     -10.934  14.282  67.190  1.00  0.00    -0.305 A  
HETATM   13  C   UNL     1     -10.386  15.406  66.570  1.00  0.00    -0.293 A  
HETATM   14  C   UNL     1      -9.978  16.497  67.337  1.00  0.00    -0.267 A  
HETATM   15  C   UNL     1     -10.116  16.469  68.722  1.00  0.00    -0.255 A  
HETATM   16  C   UNL     1     -10.663  15.347  69.343  1.00  0.00    -0.258 A  
ENDBRANCH  10  11
ENDBRANCH   9  10
ENDBRANCH   6   9
TORSDOF 3
ENDMDL
MODEL      218
REMARK 921   NORMALIZED FREE ENERGY PREDICTED BY IDOCK:   -2.37 KCAL/MOL
REMARK 922        TOTAL FREE ENERGY PREDICTED BY IDOCK:   -3.22 KCAL/MOL
REMARK 923 INTER-LIGAND FREE ENERGY PREDICTED BY IDOCK:   -2.83 KCAL/MOL
REMARK 924 INTRA-LIGAND FREE ENERGY PREDICTED BY IDOCK:   -0.39 KCAL/MOL
REMARK 927      BINDING AFFINITY PREDICTED BY RF-SCORE:    0.00 PKD
ROOT
HETATM    1  O   UNL     1      -8.306  16.319  69.246  1.00  0.00    -0.228 OA 
HETATM    2  C   UNL     1      -8.152  15.002  68.933  1.00  0.00    -0.176 A  
HETATM    3  H   UNL     1      -9.081  16.801  68.981  1.00  0.00     0.000 HD 
HETATM    4  C   UNL     1      -7.017  14.298  69.322  1.00  0.00    -0.116 A  
HETATM    5  C   UNL     1      -6.901  12.945  68.995  1.00  0.00    -0.080 A  
HETATM    6  C   UNL     1      -7.930  12.298  68.304  1.00  0.00    -0.163 A  
HETATM    7  C   UNL     1      -9.049  13.025  67.892  1.00  0.00    -0.207 A  
HETATM    8  C   UNL     1      -9.165  14.378  68.213  1.00  0.00    -0.201 A  
ENDROOT
BRANCH   6   9
HETATM    9  O   UNL     1      -7.939  10.968  67.980  1.00  0.00    -0.108 OA 
BRANCH   9  10
HETATM   10  C   UNL     1      -9.127  10.509  67.331  1.00  0.00    -0.139 C  
BRANCH  10  11
HETATM   11  C   UNL     1      -9.544   9.184  67.917  1.00  0.00    -0.168 A  
HETATM   12  C   UNL     1      -9.260   8.871  69.253  1.00  0.00    -0.145 A  
HETATM   13  C   UNL     1      -9.693   7.663  69.800  1.00  0.00    -0.171 A  
HETATM   14  C   UNL     1     -10.418   6.764  69.020  1.00  0.00    -0.229 A  
HETATM   15  C   UNL     1     -10.713   7.067  67.693  1.00  0.00    -0.331 A  
HETATM   16  C   UNL     1     -10.281   8.274  67.144  1.00  0.00    -0.365 A  
ENDBRANCH  10  11
ENDBRANCH   9  10
ENDBRANCH   6   9
TORSDOF 3
ENDMDL
MODEL      219
REMARK 921   NORMALIZED FREE ENERGY PREDICTED BY IDOCK:   -2.35 KCAL/MOL
REMARK 922        TOTAL FREE ENERGY PREDICTED BY IDOCK:   -3.20 KCAL/MOL
REMARK 923 INTER-LIGAND FREE ENERGY PREDICTED BY IDOCK:   -2.78 KCAL/MOL
REMARK 924 INTRA-LIGAND FREE ENERGY PREDICTED BY IDOCK:   -0.42 KCAL/MOL
REMARK 927      BINDING AFFINITY PREDICTED BY RF-SCORE:    0.00 PKD
ROOT
HETATM    1  O   UNL     1     -12.749   7.453  70.842  1.00  0.00    -0.552 OA 
HETATM    2  C   UNL     1     -11.529   7.320  70.249  1.00  0.00    -0.210 A  
HETATM    3  H   UNL     1     -13.473   6.884  70.611  1.00  0.00     0.000 HD 
HETATM    4  C   UNL     1     -10.468   8.153  70.589  1.00  0.00    -0.224 A  
HETATM    5  C   UNL     1      -9.229   7.976  69.970  1.00  0.00    -0.156 A  
HETATM    6  C   UNL     1      -9.050   6.954  69.034  1.00  0.00    -0.138 A  
HETATM    7  C   UNL     1     -10.132   6.145  68.679  1.00  0.00    -0.196 A  
HETATM    8  C   UNL     1     -11.373   6.323  69.292  1.00  0.00    -0.411 A  
ENDROOT
BRANCH   6   9
HETATM    9  O   UNL     1      -7.867   6.663  68.409  1.00  0.00    -0.103 OA 
BRANCH   9  10
HETATM   10  C   UNL     1      -7.976   6.338  67.022  1.00  0.00    -0.109 C  
BRANCH  10  11
HETATM   11  C   UNL     1      -7.793   7.585  66.194  1.00  0.00    -0.096 A  
HETATM   12  C   UNL     1      -7.179   8.721  66.737  1.00  0.00    -0.082 A  
HETATM   13  C   UNL     1      -6.970   9.853  65.949  1.00  0.00    -0.106 A  
HETATM   14  C   UNL     1      -7.366   9.856  64.613  1.00  0.00    -0.140 A  
HETATM   15  C   UNL     1      -7.972   8.730  64.060  1.00  0.00    -0.156 A  
HETATM   16  C   UNL     1      -8.181   7.598  64.846  1.00  0.00    -0.098 A  
ENDBRANCH  10  11
ENDBRANCH   9  10
ENDBRANCH   6   9
TORSDOF 3
ENDMDL
MODEL      220
REMARK 921   NORMALIZED FREE ENERGY PREDICTED BY IDOCK:   -2.33 KCAL/MOL
REMARK 922        TOTAL FREE ENERGY PREDICTED BY IDOCK:   -3.18 KCAL/MOL
REMARK 923 INTER-LIGAND FREE ENERGY PREDICTED BY IDOCK:   -2.70 KCAL/MOL
REMARK 924 INTRA-LIGAND FREE ENERGY PREDICTED BY IDOCK:   -0.48 KCAL/MOL
REMARK 927      BINDING AFFINITY PREDICTED BY RF-SCORE:    0.00 PKD
ROOT
HETATM    1  O   UNL     1      -5.919  12.319  69.653  1.00  0.00    -0.097 OA 
HETATM    2  C   UNL     1      -6.983  11.493  69.444  1.00  0.00    -0.071 A  
HETATM    3  H   UNL     1      -5.771  13.079  69.104  1.00  0.00     0.000 HD 
HETATM    4  C   UNL     1      -7.199  10.380  70.249  1.00  0.00    -0.000 A  
HETATM    5  C   UNL     1      -8.309   9.566  70.013  1.00  0.00    -0.192 A  
HETATM    6  C   UNL     1      -9.208   9.881  68.991  1.00  0.00    -0.168 A  
HETATM    7  C   UNL     1      -8.961  10.984  68.169  1.00  0.00    -0.152 A  
HETATM    8  C   UNL     1      -7.850  11.796  68.400  1.00  0.00    -0.141 A  
ENDROOT
BRANCH   6   9
HETATM    9  O   UNL     1     -10.350   9.181  68.709  1.00  0.00    -0.205 OA 
BRANCH   9  10
HETATM   10  C   UNL     1     -10.644   9.031  67.318  1.00  0.00    -0.231 C  
BRANCH  10  11
HETATM   11  C   UNL     1     -10.270   7.641  66.870  1.00  0.00    -0.365 A  
HETATM   12  C   UNL     1     -11.147   6.566  67.064  1.00  0.00    -0.411 A  
HETATM   13  C   UNL     1     -10.813   5.292  66.602  1.00  0.00    -0.168 A  
HETATM   14  C   UNL     1      -9.604   5.086  65.938  1.00  0.00    -0.176 A  
HETATM   15  C   UNL     1      -8.728   6.148  65.733  1.00  0.00    -0.151 A  
HETATM   16  C   UNL     1      -9.060   7.421  66.193  1.00  0.00    -0.167 A  
ENDBRANCH  10  11
ENDBRANCH   9  10
ENDBRANCH   6   9
TORSDOF 3
ENDMDL
MODEL      221
REMARK 921   NORMALIZED FREE ENERGY PREDICTED BY IDOCK:   -2.32 KCAL/MOL
REMARK 922        TOTAL FREE ENERGY PREDICTED BY IDOCK:   -3.17 KCAL/MOL
REMARK 923 INTER-LIGAND FREE ENERGY PREDICTED BY IDOCK:   -2.75 KCAL/MOL
REMARK 924 INTRA-LIGAND FREE ENERGY PREDICTED BY IDOCK:   -0.41 KCAL/MOL
REMARK 927      BINDING AFFINITY PREDICTED BY RF-SCORE:    0.00 PKD
ROOT
HETATM    1  O   UNL     1     -11.657   6.586  68.785  1.00  0.00    -0.588 OA 
HETATM    2  C   UNL     1     -10.689   6.573  67.826  1.00  0.00    -0.296 A  
HETATM    3  H   UNL     1     -12.021   5.778  69.128  1.00  0.00     0.000 HD 
HETATM    4  C   UNL     1     -10.156   7.756  67.325  1.00  0.00    -0.307 A  
HETATM    5  C   UNL     1      -9.155   7.702  66.353  1.00  0.00    -0.214 A  
HETATM    6  C   UNL     1      -8.675   6.468  65.905  1.00  0.00    -0.141 A  
HETATM    7  C   UNL     1      -9.242   5.289  66.394  1.00  0.00    -0.145 A  
HETATM    8  C   UNL     1     -10.246   5.340  67.361  1.00  0.00    -0.240 A  
ENDROOT
BRANCH   6   9
HETATM    9  O   UNL     1      -7.664   6.304  64.996  1.00  0.00    -0.087 OA 
BRANCH   9  10
HETATM   10  C   UNL     1      -8.000   6.639  63.648  1.00  0.00    -0.070 C  
BRANCH  10  11
HETATM   11  C   UNL     1      -7.564   8.052  63.355  1.00  0.00    -0.130 A  
HETATM   12  C   UNL     1      -8.432   8.951  62.720  1.00  0.00    -0.191 A  
HETATM   13  C   UNL     1      -8.037  10.271  62.497  1.00  0.00    -0.169 A  
HETATM   14  C   UNL     1      -6.778  10.703  62.912  1.00  0.00     0.003 A  
HETATM   15  C   UNL     1      -5.910   9.820  63.549  1.00  0.00    -0.107 A  
HETATM   16  C   UNL     1      -6.303   8.501  63.774  1.00  0.00    -0.073 A  
ENDBRANCH  10  11
ENDBRANCH   9  10
ENDBRANCH   6   9
TORSDOF 3
ENDMDL
MODEL      222
REMARK 921   NORMALIZED FREE ENERGY PREDICTED BY IDOCK:   -2.29 KCAL/MOL
REMARK 922        TOTAL FREE ENERGY PREDICTED BY IDOCK:   -3.13 KCAL/MOL
REMARK 923 INTER-LIGAND FREE ENERGY PREDICTED BY IDOCK:   -2.81 KCAL/MOL
REMARK 924 INTRA-LIGAND FREE ENERGY PREDICTED BY IDOCK:   -0.32 KCAL/MOL
REMARK 927      BINDING AFFINITY PREDICTED BY RF-SCORE:    0.00 PKD
ROOT
HETATM    1  O   UNL     1      -6.181  10.300  65.250  1.00  0.00    -0.110 OA 
HETATM    2  C   UNL     1      -7.031   9.599  66.052  1.00  0.00    -0.093 A  
HETATM    3  H   UNL     1      -6.487  10.713  64.451  1.00  0.00     0.000 HD 
HETATM    4  C   UNL     1      -6.583   8.996  67.223  1.00  0.00    -0.061 A  
HETATM    5  C   UNL     1      -7.486   8.299  68.027  1.00  0.00    -0.097 A  
HETATM    6  C   UNL     1      -8.836   8.228  67.670  1.00  0.00    -0.136 A  
HETATM    7  C   UNL     1      -9.266   8.811  66.476  1.00  0.00    -0.228 A  
HETATM    8  C   UNL     1      -8.364   9.504  65.668  1.00  0.00    -0.131 A  
ENDROOT
BRANCH   6   9
HETATM    9  O   UNL     1      -9.810   7.615  68.411  1.00  0.00    -0.158 OA 
BRANCH   9  10
HETATM   10  C   UNL     1      -9.849   6.190  68.305  1.00  0.00    -0.125 C  
BRANCH  10  11
HETATM   11  C   UNL     1     -10.101   5.588  69.664  1.00  0.00    -0.309 A  
HETATM   12  C   UNL     1      -9.529   4.360  70.021  1.00  0.00    -0.251 A  
HETATM   13  C   UNL     1      -9.729   3.835  71.298  1.00  0.00    -0.245 A  
HETATM   14  C   UNL     1     -10.496   4.536  72.228  1.00  0.00    -0.215 A  
HETATM   15  C   UNL     1     -11.064   5.760  71.887  1.00  0.00    -0.308 A  
HETATM   16  C   UNL     1     -10.865   6.287  70.612  1.00  0.00    -0.339 A  
ENDBRANCH  10  11
ENDBRANCH   9  10
ENDBRANCH   6   9
TORSDOF 3
ENDMDL
MODEL      223
REMARK 921   NORMALIZED FREE ENERGY PREDICTED BY IDOCK:   -2.28 KCAL/MOL
REMARK 922        TOTAL FREE ENERGY PREDICTED BY IDOCK:   -3.12 KCAL/MOL
REMARK 923 INTER-LIGAND FREE ENERGY PREDICTED BY IDOCK:   -2.61 KCAL/MOL
REMARK 924 INTRA-LIGAND FREE ENERGY PREDICTED BY IDOCK:   -0.51 KCAL/MOL
REMARK 927      BINDING AFFINITY PREDICTED BY RF-SCORE:    0.00 PKD
ROOT
HETATM    1  O   UNL     1      -6.316  10.986  68.247  1.00  0.00    -0.055 OA 
HETATM    2  C   UNL     1      -6.664   9.819  68.859  1.00  0.00    -0.050 A  
HETATM    3  H   UNL     1      -5.980  11.722  68.745  1.00  0.00     0.000 HD 
HETATM    4  C   UNL     1      -7.156   8.742  68.130  1.00  0.00    -0.078 A  
HETATM    5  C   UNL     1      -7.488   7.558  68.790  1.00  0.00    -0.097 A  
HETATM    6  C   UNL     1      -7.304   7.448  70.171  1.00  0.00    -0.078 A  
HETATM    7  C   UNL     1      -6.840   8.548  70.896  1.00  0.00    -0.052 A  
HETATM    8  C   UNL     1      -6.512   9.734  70.239  1.00  0.00    -0.093 A  
ENDROOT
BRANCH   6   9
HETATM    9  O   UNL     1      -7.549   6.319  70.907  1.00  0.00    -0.092 OA 
BRANCH   9  10
HETATM   10  C   UNL     1      -8.723   5.594  70.534  1.00  0.00    -0.137 C  
BRANCH  10  11
HETATM   11  C   UNL     1      -9.943   6.295  71.076  1.00  0.00    -0.213 A  
HETATM   12  C   UNL     1     -11.113   6.389  70.311  1.00  0.00    -0.416 A  
HETATM   13  C   UNL     1     -12.253   6.997  70.840  1.00  0.00    -0.388 A  
HETATM   14  C   UNL     1     -12.233   7.508  72.137  1.00  0.00    -0.283 A  
HETATM   15  C   UNL     1     -11.077   7.414  72.909  1.00  0.00    -0.397 A  
HETATM   16  C   UNL     1      -9.938   6.806  72.382  1.00  0.00    -0.184 A  
ENDBRANCH  10  11
ENDBRANCH   9  10
ENDBRANCH   6   9
TORSDOF 3
ENDMDL
MODEL      224
REMARK 921   NORMALIZED FREE ENERGY PREDICTED BY IDOCK:   -2.25 KCAL/MOL
REMARK 922        TOTAL FREE ENERGY PREDICTED BY IDOCK:   -3.08 KCAL/MOL
REMARK 923 INTER-LIGAND FREE ENERGY PREDICTED BY IDOCK:   -2.65 KCAL/MOL
REMARK 924 INTRA-LIGAND FREE ENERGY PREDICTED BY IDOCK:   -0.44 KCAL/MOL
REMARK 927      BINDING AFFINITY PREDICTED BY RF-SCORE:    0.00 PKD
ROOT
HETATM    1  O   UNL     1      -8.292   2.262  63.204  1.00  0.00    -0.075 OA 
HETATM    2  C   UNL     1      -8.408   3.003  64.342  1.00  0.00    -0.086 A  
HETATM    3  H   UNL     1      -8.595   1.362  63.169  1.00  0.00     0.000 HD 
HETATM    4  C   UNL     1      -7.964   4.320  64.392  1.00  0.00    -0.087 A  
HETATM    5  C   UNL     1      -8.112   5.052  65.572  1.00  0.00    -0.115 A  
HETATM    6  C   UNL     1      -8.724   4.472  66.686  1.00  0.00    -0.111 A  
HETATM    7  C   UNL     1      -9.135   3.138  66.633  1.00  0.00    -0.177 A  
HETATM    8  C   UNL     1      -8.984   2.403  65.456  1.00  0.00    -0.125 A  
ENDROOT
BRANCH   6   9
HETATM    9  O   UNL     1      -8.964   5.115  67.871  1.00  0.00    -0.109 OA 
BRANCH   9  10
HETATM   10  C   UNL     1     -10.325   5.490  68.095  1.00  0.00    -0.176 C  
BRANCH  10  11
HETATM   11  C   UNL     1     -10.443   6.993  68.091  1.00  0.00    -0.242 A  
HETATM   12  C   UNL     1     -10.393   7.717  69.289  1.00  0.00    -0.220 A  
HETATM   13  C   UNL     1     -10.455   9.112  69.272  1.00  0.00    -0.231 A  
HETATM   14  C   UNL     1     -10.559   9.790  68.058  1.00  0.00    -0.291 A  
HETATM   15  C   UNL     1     -10.602   9.080  66.861  1.00  0.00    -0.243 A  
HETATM   16  C   UNL     1     -10.540   7.688  66.876  1.00  0.00    -0.359 A  
ENDBRANCH  10  11
ENDBRANCH   9  10
ENDBRANCH   6   9
TORSDOF 3
ENDMDL
MODEL      225
REMARK 921   NORMALIZED FREE ENERGY PREDICTED BY IDOCK:   -2.15 KCAL/MOL
REMARK 922        TOTAL FREE ENERGY PREDICTED BY IDOCK:   -2.96 KCAL/MOL
REMARK 923 INTER-LIGAND FREE ENERGY PREDICTED BY IDOCK:   -2.63 KCAL/MOL
REMARK 924 INTRA-LIGAND FREE ENERGY PREDICTED BY IDOCK:   -0.34 KCAL/MOL
REMARK 927      BINDING AFFINITY PREDICTED BY RF-SCORE:    0.00 PKD
ROOT
HETATM    1  O   UNL     1      -9.493  13.118  65.539  1.00  0.00    -0.477 OA 
HETATM    2  C   UNL     1      -9.427  11.945  66.230  1.00  0.00    -0.227 A  
HETATM    3  H   UNL     1     -10.011  13.193  64.746  1.00  0.00     0.000 HD 
HETATM    4  C   UNL     1      -8.669  11.836  67.391  1.00  0.00    -0.162 A  
HETATM    5  C   UNL     1      -8.638  10.622  68.080  1.00  0.00    -0.123 A  
HETATM    6  C   UNL     1      -9.383   9.533  67.620  1.00  0.00    -0.123 A  
HETATM    7  C   UNL     1     -10.114   9.647  66.435  1.00  0.00    -0.317 A  
HETATM    8  C   UNL     1     -10.143  10.858  65.742  1.00  0.00    -0.308 A  
ENDROOT
BRANCH   6   9
HETATM    9  O   UNL     1      -9.463   8.318  68.246  1.00  0.00    -0.138 OA 
BRANCH   9  10
HETATM   10  C   UNL     1      -9.556   7.189  67.374  1.00  0.00    -0.137 C  
BRANCH  10  11
HETATM   11  C   UNL     1      -8.937   5.985  68.037  1.00  0.00    -0.112 A  
HETATM   12  C   UNL     1      -8.139   6.128  69.179  1.00  0.00    -0.109 A  
HETATM   13  C   UNL     1      -7.610   5.003  69.814  1.00  0.00    -0.060 A  
HETATM   14  C   UNL     1      -7.882   3.729  69.317  1.00  0.00    -0.052 A  
HETATM   15  C   UNL     1      -8.680   3.575  68.186  1.00  0.00    -0.133 A  
HETATM   16  C   UNL     1      -9.209   4.697  67.551  1.00  0.00    -0.148 A  
ENDBRANCH  10  11
ENDBRANCH   9  10
ENDBRANCH   6   9
TORSDOF 3
ENDMDL
MODEL      226
REMARK 921   NORMALIZED FREE ENERGY PREDICTED BY IDOCK:   -1.86 KCAL/MOL
REMARK 922        TOTAL FREE ENERGY PREDICTED BY IDOCK:   -2.62 KCAL/MOL
REMARK 923 INTER-LIGAND FREE ENERGY PREDICTED BY IDOCK:   -2.34 KCAL/MOL
REMARK 924 INTRA-LIGAND FREE ENERGY PREDICTED BY IDOCK:   -0.28 KCAL/MOL
REMARK 927      BINDING AFFINITY PREDICTED BY RF-SCORE:    0.00 PKD
ROOT
HETATM    1  O   UNL     1      -5.868   9.992  67.919  1.00  0.00    -0.039 OA 
HETATM    2  C   UNL     1      -6.323   8.969  68.696  1.00  0.00    -0.053 A  
HETATM    3  H   UNL     1      -5.650   9.856  67.005  1.00  0.00     0.000 HD 
HETATM    4  C   UNL     1      -6.643   9.169  70.035  1.00  0.00    -0.045 A  
HETATM    5  C   UNL     1      -7.120   8.099  70.795  1.00  0.00    -0.049 A  
HETATM    6  C   UNL     1      -7.297   6.843  70.208  1.00  0.00    -0.084 A  
HETATM    7  C   UNL     1      -6.941   6.649  68.872  1.00  0.00    -0.079 A  
HETATM    8  C   UNL     1      -6.459   7.715  68.111  1.00  0.00    -0.054 A  
ENDROOT
BRANCH   6   9
HETATM    9  O   UNL     1      -7.804   5.744  70.848  1.00  0.00    -0.100 OA 
BRANCH   9  10
HETATM   10  C   UNL     1      -9.037   5.249  70.321  1.00  0.00    -0.134 C  
BRANCH  10  11
HETATM   11  C   UNL     1      -9.798   4.530  71.405  1.00  0.00    -0.264 A  
HETATM   12  C   UNL     1      -9.637   3.152  71.600  1.00  0.00    -0.227 A  
HETATM   13  C   UNL     1     -10.309   2.504  72.638  1.00  0.00    -0.228 A  
HETATM   14  C   UNL     1     -11.141   3.229  73.490  1.00  0.00    -0.314 A  
HETATM   15  C   UNL     1     -11.303   4.600  73.310  1.00  0.00    -0.393 A  
HETATM   16  C   UNL     1     -10.633   5.249  72.274  1.00  0.00    -0.280 A  
ENDBRANCH  10  11
ENDBRANCH   9  10
ENDBRANCH   6   9
TORSDOF 3
ENDMDL
MODEL      227
REMARK 921   NORMALIZED FREE ENERGY PREDICTED BY IDOCK:   -1.73 KCAL/MOL
REMARK 922        TOTAL FREE ENERGY PREDICTED BY IDOCK:   -2.46 KCAL/MOL
REMARK 923 INTER-LIGAND FREE ENERGY PREDICTED BY IDOCK:   -2.09 KCAL/MOL
REMARK 924 INTRA-LIGAND FREE ENERGY PREDICTED BY IDOCK:   -0.37 KCAL/MOL
REMARK 927      BINDING AFFINITY PREDICTED BY RF-SCORE:    0.00 PKD
ROOT
HETATM    1  O   UNL     1      -5.981  11.291  68.651  1.00  0.00    -0.043 OA 
HETATM    2  C   UNL     1      -6.752  10.205  68.940  1.00  0.00    -0.053 A  
HETATM    3  H   UNL     1      -5.543  11.374  67.812  1.00  0.00     0.000 HD 
HETATM    4  C   UNL     1      -7.393  10.085  70.169  1.00  0.00    -0.171 A  
HETATM    5  C   UNL     1      -8.186   8.965  70.424  1.00  0.00    -0.146 A  
HETATM    6  C   UNL     1      -8.354   7.984  69.442  1.00  0.00    -0.131 A  
HETATM    7  C   UNL     1      -7.679   8.102  68.225  1.00  0.00    -0.114 A  
HETATM    8  C   UNL     1      -6.881   9.218  67.970  1.00  0.00    -0.068 A  
ENDROOT
BRANCH   6   9
HETATM    9  O   UNL     1      -9.148   6.876  69.571  1.00  0.00    -0.142 OA 
BRANCH   9  10
HETATM   10  C   UNL     1     -10.267   6.824  68.683  1.00  0.00    -0.175 C  
BRANCH  10  11
HETATM   11  C   UNL     1     -10.074   5.704  67.692  1.00  0.00    -0.208 A  
HETATM   12  C   UNL     1     -10.472   5.853  66.357  1.00  0.00    -0.178 A  
HETATM   13  C   UNL     1     -10.246   4.829  65.436  1.00  0.00    -0.104 A  
HETATM   14  C   UNL     1      -9.614   3.653  65.841  1.00  0.00    -0.142 A  
HETATM   15  C   UNL     1      -9.208   3.497  67.164  1.00  0.00    -0.217 A  
HETATM   16  C   UNL     1      -9.433   4.519  68.085  1.00  0.00    -0.201 A  
ENDBRANCH  10  11
ENDBRANCH   9  10
ENDBRANCH   6   9
TORSDOF 3
ENDMDL
MODEL      228
REMARK 921   NORMALIZED FREE ENERGY PREDICTED BY IDOCK:   -1.30 KCAL/MOL
REMARK 922        TOTAL FREE ENERGY PREDICTED BY IDOCK:   -1.96 KCAL/MOL
REMARK 923 INTER-LIGAND FREE ENERGY PREDICTED BY IDOCK:   -1.60 KCAL/MOL
REMARK 924 INTRA-LIGAND FREE ENERGY PREDICTED BY IDOCK:   -0.36 KCAL/MOL
REMARK 927      BINDING AFFINITY PREDICTED BY RF-SCORE:    0.00 PKD
ROOT
HETATM    1  O   UNL     1      -5.623  10.323  68.790  1.00  0.00    -0.038 OA 
HETATM    2  C   UNL     1      -5.810   9.538  69.888  1.00  0.00    -0.036 A  
HETATM    3  H   UNL     1      -5.950  10.063  67.937  1.00  0.00     0.000 HD 
HETATM    4  C   UNL     1      -5.330   9.920  71.137  1.00  0.00    -0.069 A  
HETATM    5  C   UNL     1      -5.554   9.095  72.241  1.00  0.00    -0.071 A  
HETATM    6  C   UNL     1      -6.275   7.907  72.097  1.00  0.00    -0.042 A  
HETATM    7  C   UNL     1      -6.723   7.520  70.831  1.00  0.00    -0.043 A  
HETATM    8  C   UNL     1      -6.496   8.340  69.725  1.00  0.00    -0.036 A  
ENDROOT
BRANCH   6   9
HETATM    9  O   UNL     1      -6.593   7.054  73.120  1.00  0.00    -0.065 OA 
BRANCH   9  10
HETATM   10  C   UNL     1      -6.898   5.715  72.723  1.00  0.00    -0.075 C  
BRANCH  10  11
HETATM   11  C   UNL     1      -8.271   5.341  73.221  1.00  0.00    -0.111 A  
HETATM   12  C   UNL     1      -9.409   6.013  72.756  1.00  0.00    -0.145 A  
HETATM   13  C   UNL     1     -10.679   5.627  73.185  1.00  0.00    -0.301 A  
HETATM   14  C   UNL     1     -10.821   4.563  74.076  1.00  0.00    -0.316 A  
HETATM   15  C   UNL     1      -9.698   3.884  74.540  1.00  0.00    -0.160 A  
HETATM   16  C   UNL     1      -8.428   4.268  74.111  1.00  0.00    -0.094 A  
ENDBRANCH  10  11
ENDBRANCH   9  10
ENDBRANCH   6   9
TORSDOF 3
ENDMDL
MODEL      229
REMARK 921   NORMALIZED FREE ENERGY PREDICTED BY IDOCK:   -1.26 KCAL/MOL
REMARK 922        TOTAL FREE ENERGY PREDICTED BY IDOCK:   -1.92 KCAL/MOL
REMARK 923 INTER-LIGAND FREE ENERGY PREDICTED BY IDOCK:   -1.69 KCAL/MOL
REMARK 924 INTRA-LIGAND FREE ENERGY PREDICTED BY IDOCK:   -0.24 KCAL/MOL
REMARK 927      BINDING AFFINITY PREDICTED BY RF-SCORE:    0.00 PKD
ROOT
HETATM    1  O   UNL     1      -5.791   9.992  67.902  1.00  0.00    -0.039 OA 
HETATM    2  C   UNL     1      -6.499   8.905  68.322  1.00  0.00    -0.059 A  
HETATM    3  H   UNL     1      -5.301   9.975  67.089  1.00  0.00     0.000 HD 
HETATM    4  C   UNL     1      -7.218   8.930  69.513  1.00  0.00    -0.063 A  
HETATM    5  C   UNL     1      -7.943   7.802  69.902  1.00  0.00    -0.110 A  
HETATM    6  C   UNL     1      -7.965   6.666  69.090  1.00  0.00    -0.112 A  
HETATM    7  C   UNL     1      -7.213   6.643  67.913  1.00  0.00    -0.091 A  
HETATM    8  C   UNL     1      -6.484   7.767  67.524  1.00  0.00    -0.055 A  
ENDROOT
BRANCH   6   9
HETATM    9  O   UNL     1      -8.682   5.529  69.352  1.00  0.00    -0.106 OA 
BRANCH   9  10
HETATM   10  C   UNL     1      -9.651   5.179  68.361  1.00  0.00    -0.139 C  
BRANCH  10  11
HETATM   11  C   UNL     1      -9.242   3.894  67.687  1.00  0.00    -0.203 A  
HETATM   12  C   UNL     1      -9.443   2.659  68.317  1.00  0.00    -0.219 A  
HETATM   13  C   UNL     1      -9.105   1.472  67.665  1.00  0.00    -0.174 A  
HETATM   14  C   UNL     1      -8.572   1.511  66.377  1.00  0.00    -0.107 A  
HETATM   15  C   UNL     1      -8.374   2.733  65.738  1.00  0.00    -0.093 A  
HETATM   16  C   UNL     1      -8.711   3.919  66.388  1.00  0.00    -0.115 A  
ENDBRANCH  10  11
ENDBRANCH   9  10
ENDBRANCH   6   9
TORSDOF 3
ENDMDL
MODEL      230
REMARK 921   NORMALIZED FREE ENERGY PREDICTED BY IDOCK:   -1.18 KCAL/MOL
REMARK 922        TOTAL FREE ENERGY PREDICTED BY IDOCK:   -1.82 KCAL/MOL
REMARK 923 INTER-LIGAND FREE ENERGY PREDICTED BY IDOCK:   -1.51 KCAL/MOL
REMARK 924 INTRA-LIGAND FREE ENERGY PREDICTED BY IDOCK:   -0.31 KCAL/MOL
REMARK 927      BINDING AFFINITY PREDICTED BY RF-SCORE:    0.00 PKD
ROOT
HETATM    1  O   UNL     1      -5.560  12.349  68.735  1.00  0.00    -0.053 OA 
HETATM    2  C   UNL     1      -6.122  11.272  69.353  1.00  0.00    -0.074 A  
HETATM    3  H   UNL     1      -5.889  12.665  67.902  1.00  0.00     0.000 HD 
HETATM    4  C   UNL     1      -5.640  10.809  70.573  1.00  0.00    -0.106 A  
HETATM    5  C   UNL     1      -6.251   9.711  71.182  1.00  0.00    -0.046 A  
HETATM    6  C   UNL     1      -7.354   9.097  70.581  1.00  0.00    -0.111 A  
HETATM    7  C   UNL     1      -7.806   9.552  69.340  1.00  0.00    -0.097 A  
HETATM    8  C   UNL     1      -7.194  10.646  68.727  1.00  0.00    -0.087 A  
ENDROOT
BRANCH   6   9
HETATM    9  O   UNL     1      -8.055   8.051  71.117  1.00  0.00    -0.087 OA 
BRANCH   9  10
HETATM   10  C   UNL     1      -9.434   7.990  70.745  1.00  0.00    -0.161 C  
BRANCH  10  11
HETATM   11  C   UNL     1     -10.042   6.711  71.265  1.00  0.00    -0.207 A  
HETATM   12  C   UNL     1      -9.274   5.544  71.367  1.00  0.00    -0.167 A  
HETATM   13  C   UNL     1      -9.832   4.378  71.894  1.00  0.00    -0.247 A  
HETATM   14  C   UNL     1     -11.157   4.374  72.329  1.00  0.00     0.214 A  
HETATM   15  C   UNL     1     -11.927   5.531  72.238  1.00  0.00     0.037 A  
HETATM   16  C   UNL     1     -11.372   6.696  71.712  1.00  0.00    -0.320 A  
ENDBRANCH  10  11
ENDBRANCH   9  10
ENDBRANCH   6   9
TORSDOF 3
ENDMDL
MODEL      231
REMARK 921   NORMALIZED FREE ENERGY PREDICTED BY IDOCK:   -0.54 KCAL/MOL
REMARK 922        TOTAL FREE ENERGY PREDICTED BY IDOCK:   -1.08 KCAL/MOL
REMARK 923 INTER-LIGAND FREE ENERGY PREDICTED BY IDOCK:   -2.39 KCAL/MOL
REMARK 924 INTRA-LIGAND FREE ENERGY PREDICTED BY IDOCK:    1.32 KCAL/MOL
REMARK 927      BINDING AFFINITY PREDICTED BY RF-SCORE:    0.00 PKD
ROOT
HETATM    1  O   UNL     1     -11.055  12.117  63.385  1.00  0.00    -0.544 OA 
HETATM    2  C   UNL     1     -11.066  13.284  64.089  1.00  0.00    -0.365 A  
HETATM    3  H   UNL     1     -10.326  11.511  63.449  1.00  0.00     0.000 HD 
HETATM    4  C   UNL     1     -12.134  14.171  63.995  1.00  0.00    -0.382 A  
HETATM    5  C   UNL     1     -12.116  15.350  64.742  1.00  0.00    -0.034 A  
HETATM    6  C   UNL     1     -11.045  15.625  65.597  1.00  0.00    -0.194 A  
HETATM    7  C   UNL     1      -9.965  14.741  65.656  1.00  0.00    -0.390 A  
HETATM    8  C   UNL     1      -9.977  13.564  64.907  1.00  0.00    -0.176 A  
ENDROOT
BRANCH   6   9
HETATM    9  O   UNL     1     -10.953  16.723  66.409  1.00  0.00    -0.058 OA 
BRANCH   9  10
HETATM   10  C   UNL     1     -10.010  16.612  67.477  1.00  0.00    -0.264 C  
BRANCH  10  11
HETATM   11  C   UNL     1     -10.248  15.327  68.230  1.00  0.00    -0.226 A  
HETATM   12  C   UNL     1      -9.234  14.368  68.347  1.00  0.00    -0.195 A  
HETATM   13  C   UNL     1      -9.448  13.203  69.086  1.00  0.00     0.570 A  
HETATM   14  C   UNL     1     -10.673  12.994  69.718  1.00  0.00     0.570 A  
HETATM   15  C   UNL     1     -11.686  13.944  69.614  1.00  0.00    -0.370 A  
HETATM   16  C   UNL     1     -11.474  15.107  68.877  1.00  0.00    -0.337 A  
ENDBRANCH  10  11
ENDBRANCH   9  10
ENDBRANCH   6   9
TORSDOF 3
ENDMDL
MODEL      232
REMARK 921   NORMALIZED FREE ENERGY PREDICTED BY IDOCK:    1.77 KCAL/MOL
REMARK 922        TOTAL FREE ENERGY PREDICTED BY IDOCK:    1.65 KCAL/MOL
REMARK 923 INTER-LIGAND FREE ENERGY PREDICTED BY IDOCK:   -1.41 KCAL/MOL
REMARK 924 INTRA-LIGAND FREE ENERGY PREDICTED BY IDOCK:    3.06 KCAL/MOL
REMARK 927      BINDING AFFINITY PREDICTED BY RF-SCORE:    0.00 PKD
ROOT
HETATM    1  O   UNL     1     -11.237  16.732  71.045  1.00  0.00    -0.393 OA 
HETATM    2  C   UNL     1     -10.646  16.585  69.825  1.00  0.00    -0.265 A  
HETATM    3  H   UNL     1     -12.052  16.291  71.253  1.00  0.00     0.000 HD 
HETATM    4  C   UNL     1      -9.453  17.232  69.521  1.00  0.00     0.355 A  
HETATM    5  C   UNL     1      -8.870  17.044  68.266  1.00  0.00    -0.242 A  
HETATM    6  C   UNL     1      -9.469  16.195  67.332  1.00  0.00    -0.226 A  
HETATM    7  C   UNL     1     -10.684  15.578  67.639  1.00  0.00    -0.302 A  
HETATM    8  C   UNL     1     -11.271  15.767  68.891  1.00  0.00    -0.332 A  
ENDROOT
BRANCH   6   9
HETATM    9  O   UNL     1      -8.956  15.903  66.097  1.00  0.00    -0.317 OA 
BRANCH   9  10
HETATM   10  C   UNL     1      -7.539  15.719  66.055  1.00  0.00     1.477 C  
BRANCH  10  11
HETATM   11  C   UNL     1      -6.871  16.730  66.952  1.00  0.00    -0.255 A  
HETATM   12  C   UNL     1      -6.077  16.318  68.029  1.00  0.00    -0.133 A  
HETATM   13  C   UNL     1      -5.423  17.261  68.824  1.00  0.00    -0.148 A  
HETATM   14  C   UNL     1      -5.553  18.621  68.543  1.00  0.00    -0.192 A  
HETATM   15  C   UNL     1      -6.335  19.042  67.470  1.00  0.00    -0.199 A  
HETATM   16  C   UNL     1      -6.988  18.101  66.675  1.00  0.00    -0.243 A  
ENDBRANCH  10  11
ENDBRANCH   9  10
ENDBRANCH   6   9
TORSDOF 3
ENDMDL
MODEL      233
REMARK 921   NORMALIZED FREE ENERGY PREDICTED BY IDOCK:    2.26 KCAL/MOL
REMARK 922        TOTAL FREE ENERGY PREDICTED BY IDOCK:    2.23 KCAL/MOL
REMARK 923 INTER-LIGAND FREE ENERGY PREDICTED BY IDOCK:    2.08 KCAL/MOL
REMARK 924 INTRA-LIGAND FREE ENERGY PREDICTED BY IDOCK:    0.14 KCAL/MOL
REMARK 927      BINDING AFFINITY PREDICTED BY RF-SCORE:    0.00 PKD
ROOT
HETATM    1  O   UNL     1     -12.924  13.265  66.424  1.00  0.00     0.016 OA 
HETATM    2  C   UNL     1     -12.153  14.321  66.041  1.00  0.00    -0.408 A  
HETATM    3  H   UNL     1     -13.612  13.367  67.072  1.00  0.00     0.000 HD 
HETATM    4  C   UNL     1     -11.147  14.172  65.093  1.00  0.00    -0.349 A  
HETATM    5  C   UNL     1     -10.387  15.281  64.715  1.00  0.00    -0.132 A  
HETATM    6  C   UNL     1     -10.653  16.536  65.268  1.00  0.00    -0.253 A  
HETATM    7  C   UNL     1     -11.646  16.666  66.242  1.00  0.00     1.193 A  
HETATM    8  C   UNL     1     -12.403  15.558  66.625  1.00  0.00     1.202 A  
ENDROOT
BRANCH   6   9
HETATM    9  O   UNL     1     -10.005  17.694  64.930  1.00  0.00     0.713 OA 
BRANCH   9  10
HETATM   10  C   UNL     1      -8.969  18.095  65.830  1.00  0.00     0.443 C  
BRANCH  10  11
HETATM   11  C   UNL     1      -9.582  18.675  67.079  1.00  0.00    -0.319 A  
HETATM   12  C   UNL     1      -9.524  17.981  68.294  1.00  0.00    -0.305 A  
HETATM   13  C   UNL     1     -10.051  18.547  69.455  1.00  0.00     0.247 A  
HETATM   14  C   UNL     1     -10.632  19.814  69.411  1.00  0.00     0.399 A  
HETATM   15  C   UNL     1     -10.689  20.517  68.210  1.00  0.00     0.223 A  
HETATM   16  C   UNL     1     -10.163  19.952  67.049  1.00  0.00    -0.588 A  
ENDBRANCH  10  11
ENDBRANCH   9  10
ENDBRANCH   6   9
TORSDOF 3
ENDMDL
MODEL      234
REMARK 921   NORMALIZED FREE ENERGY PREDICTED BY IDOCK:    4.04 KCAL/MOL
REMARK 922        TOTAL FREE ENERGY PREDICTED BY IDOCK:    4.31 KCAL/MOL
REMARK 923 INTER-LIGAND FREE ENERGY PREDICTED BY IDOCK:   -0.06 KCAL/MOL
REMARK 924 INTRA-LIGAND FREE ENERGY PREDICTED BY IDOCK:    4.37 KCAL/MOL
REMARK 927      BINDING AFFINITY PREDICTED BY RF-SCORE:    0.00 PKD
ROOT
HETATM    1  O   UNL     1     -11.220  16.776  71.116  1.00  0.00    -0.353 OA 
HETATM    2  C   UNL     1     -10.453  16.988  70.009  1.00  0.00     0.215 A  
HETATM    3  H   UNL     1     -11.931  16.145  71.108  1.00  0.00     0.000 HD 
HETATM    4  C   UNL     1      -9.413  17.911  70.021  1.00  0.00     1.567 A  
HETATM    5  C   UNL     1      -8.639  18.091  68.873  1.00  0.00    -0.125 A  
HETATM    6  C   UNL     1      -8.894  17.330  67.728  1.00  0.00    -0.234 A  
HETATM    7  C   UNL     1      -9.962  16.430  67.720  1.00  0.00    -0.248 A  
HETATM    8  C   UNL     1     -10.739  16.253  68.865  1.00  0.00    -0.300 A  
ENDROOT
BRANCH   6   9
HETATM    9  O   UNL     1      -8.165  17.391  66.570  1.00  0.00    -0.237 OA 
BRANCH   9  10
HETATM   10  C   UNL     1      -8.620  16.533  65.521  1.00  0.00     0.936 C  
BRANCH  10  11
HETATM   11  C   UNL     1      -9.081  15.222  66.104  1.00  0.00    -0.314 A  
HETATM   12  C   UNL     1     -10.393  14.773  65.909  1.00  0.00    -0.335 A  
HETATM   13  C   UNL     1     -10.797  13.535  66.411  1.00  0.00    -0.291 A  
HETATM   14  C   UNL     1      -9.889  12.735  67.105  1.00  0.00    -0.216 A  
HETATM   15  C   UNL     1      -8.580  13.168  67.299  1.00  0.00    -0.210 A  
HETATM   16  C   UNL     1      -8.176  14.404  66.797  1.00  0.00     0.080 A  
ENDBRANCH  10  11
ENDBRANCH   9  10
ENDBRANCH   6   9
TORSDOF 3
ENDMDL
MODEL      235
REMARK 921   NORMALIZED FREE ENERGY PREDICTED BY IDOCK:   20.21 KCAL/MOL
REMARK 922        TOTAL FREE ENERGY PREDICTED BY IDOCK:   23.32 KCAL/MOL
REMARK 923 INTER-LIGAND FREE ENERGY PREDICTED BY IDOCK:   17.36 KCAL/MOL
REMARK 924 INTRA-LIGAND FREE ENERGY PREDICTED BY IDOCK:    5.96 KCAL/MOL
REMARK 927      BINDING AFFINITY PREDICTED BY RF-SCORE:    0.00 PKD
ROOT
HETATM    1  O   UNL     1      -7.316  16.121  64.862  1.00  0.00     4.188 OA 
HETATM    2  C   UNL     1      -6.885  16.615  66.057  1.00  0.00     0.689 A  
HETATM    3  H   UNL     1      -7.216  15.202  64.644  1.00  0.00     0.000 HD 
HETATM    4  C   UNL     1      -7.031  17.962  66.374  1.00  0.00    -0.284 A  
HETATM    5  C   UNL     1      -6.591  18.427  67.614  1.00  0.00    -0.197 A  
HETATM    6  C   UNL     1      -6.029  17.543  68.539  1.00  0.00    -0.167 A  
HETATM    7  C   UNL     1      -5.859  16.200  68.194  1.00  0.00    -0.114 A  
HETATM    8  C   UNL     1      -6.294  15.732  66.953  1.00  0.00     0.346 A  
ENDROOT
BRANCH   6   9
HETATM    9  O   UNL     1      -5.614  17.885  69.798  1.00  0.00    -0.202 OA 
BRANCH   9  10
HETATM   10  C   UNL     1      -5.272  16.786  70.645  1.00  0.00    -0.214 C  
BRANCH  10  11
HETATM   11  C   UNL     1      -6.421  15.811  70.695  1.00  0.00     0.516 A  
HETATM   12  C   UNL     1      -7.029  15.483  71.914  1.00  0.00     3.351 A  
HETATM   13  C   UNL     1      -8.123  14.616  71.944  1.00  0.00     5.170 A  
HETATM   14  C   UNL     1      -8.620  14.078  70.758  1.00  0.00     4.240 A  
HETATM   15  C   UNL     1      -8.027  14.402  69.540  1.00  0.00     0.229 A  
HETATM   16  C   UNL     1      -6.935  15.268  69.508  1.00  0.00    -0.191 A  
ENDBRANCH  10  11
ENDBRANCH   9  10
ENDBRANCH   6   9
TORSDOF 3
ENDMDL
