MODEL        1
REMARK 921   NORMALIZED FREE ENERGY PREDICTED BY IDOCK:   -9.16 KCAL/MOL
REMARK 922        TOTAL FREE ENERGY PREDICTED BY IDOCK:  -16.17 KCAL/MOL
REMARK 923 INTER-LIGAND FREE ENERGY PREDICTED BY IDOCK:  -14.51 KCAL/MOL
REMARK 924 INTRA-LIGAND FREE ENERGY PREDICTED BY IDOCK:   -1.66 KCAL/MOL
REMARK 927      BINDING AFFINITY PREDICTED BY RF-SCORE:    0.00 PKD
ROOT
HETATM    1  O   UNL     1     -11.379  16.962  64.153  1.00  0.00    -1.208 OA 
HETATM    2  C   UNL     1     -10.548  16.667  65.185  1.00  0.00    -0.161 C  
HETATM    3  C   UNL     1     -10.525  17.747  66.247  1.00  0.00    -0.307 C  
HETATM    4  O   UNL     1      -9.942  15.609  65.238  1.00  0.00    -0.335 OA 
ENDROOT
BRANCH   3   5
HETATM    5  C   UNL     1      -9.258  17.757  67.102  1.00  0.00    -0.253 C  
HETATM    6  C   UNL     1      -8.448  19.047  67.114  1.00  0.00    -0.297 C  
HETATM    7  C   UNL     1      -7.934  17.853  66.361  1.00  0.00    -0.302 C  
BRANCH   5   8
HETATM    8  C   UNL     1      -9.386  16.884  68.344  1.00  0.00    -0.255 C  
BRANCH   8   9
HETATM    9  S   UNL     1     -10.988  16.802  69.169  1.00  0.00    -0.137 SA 
BRANCH   9  10
HETATM   10  C   UNL     1     -11.338  14.982  69.057  1.00  0.00    -0.290 C  
BRANCH  10  11
HETATM   11  C   UNL     1     -11.716  14.488  67.640  1.00  0.00    -0.410 C  
BRANCH  11  12
HETATM   12  C   UNL     1     -11.878  12.958  67.500  1.00  0.00    -0.407 C  
BRANCH  12  13
HETATM   13  C   UNL     1     -11.622  12.477  66.078  1.00  0.00    -0.456 A  
HETATM   14  C   UNL     1     -12.287  13.214  65.065  1.00  0.00    -0.511 A  
HETATM   15  C   UNL     1     -11.313  11.881  63.340  1.00  0.00    -0.465 A  
HETATM   16  H   UNL     1      -8.600  10.883  68.106  1.00  0.00     0.000 HD 
HETATM   17  C   UNL     1     -12.152  12.911  63.716  1.00  0.00    -0.583 A  
HETATM   18  C   UNL     1      -8.994   9.533  66.048  1.00  0.00    -0.198 C  
HETATM   19  C   UNL     1     -10.623  11.157  64.315  1.00  0.00    -0.425 A  
HETATM   20  C   UNL     1     -10.755  11.414  65.703  1.00  0.00    -0.301 A  
HETATM   21  O   UNL     1      -9.099  11.408  67.491  1.00  0.00    -0.153 OA 
HETATM   22  C   UNL     1     -10.843   9.766  67.663  1.00  0.00    -0.301 C  
HETATM   23  C   UNL     1      -9.946  10.561  66.702  1.00  0.00    -0.211 C  
ENDBRANCH  12  13
ENDBRANCH  11  12
ENDBRANCH  10  11
BRANCH  10  24
HETATM   24  C   UNL     1     -12.308  14.563  70.165  1.00  0.00    -0.398 A  
HETATM   25  C   UNL     1     -14.005  13.707  72.251  1.00  0.00    -0.661 A  
HETATM   26  C   UNL     1     -13.177  15.461  70.804  1.00  0.00    -0.440 A  
HETATM   27  C   UNL     1     -12.313  13.222  70.605  1.00  0.00    -0.416 A  
HETATM   28  C   UNL     1     -14.016  15.037  71.836  1.00  0.00    -0.604 A  
HETATM   29  C   UNL     1     -13.166  12.777  71.630  1.00  0.00    -0.410 A  
BRANCH  29  30
HETATM   30  C   UNL     1     -13.086  11.374  72.067  1.00  0.00    -0.423 C  
HETATM   31  C   UNL     1     -12.422  10.404  71.413  1.00  0.00    -0.521 C  
BRANCH  31  32
HETATM   32  C   UNL     1     -12.354   8.996  71.819  1.00  0.00    -0.367 A  
HETATM   33  N   UNL     1     -11.190   8.638  72.414  1.00  0.00    -0.331 NA 
HETATM   34  C   UNL     1     -11.008   7.351  72.763  1.00  0.00    -0.339 A  
HETATM   35  C   UNL     1     -11.981   6.361  72.514  1.00  0.00    -0.123 A  
HETATM   36  C   UNL     1     -13.171   6.751  71.895  1.00  0.00    -0.166 A  
HETATM   37  C   UNL     1     -11.744   5.022  72.872  1.00  0.00    -0.200 A  
HETATM   38  C   UNL     1     -10.541   4.663  73.473  1.00  0.00    -0.304 A  
HETATM   39  C   UNL     1     -13.357   8.081  71.536  1.00  0.00    -0.324 A  
HETATM   40  C   UNL     1      -9.586   5.642  73.725  1.00  0.00    -0.143 A  
HETATM   41  C   UNL     1      -9.823   6.970  73.373  1.00  0.00    -0.273 A  
HETATM   42 CL   UNL     1      -8.096   5.203  74.467  1.00  0.00    -0.101 Cl 
ENDBRANCH  31  32
ENDBRANCH  29  30
ENDBRANCH  10  24
ENDBRANCH   9  10
ENDBRANCH   8   9
ENDBRANCH   5   8
ENDBRANCH   3   5
TORSDOF 10
ENDMDL
MODEL        2
REMARK 921   NORMALIZED FREE ENERGY PREDICTED BY IDOCK:   -9.00 KCAL/MOL
REMARK 922        TOTAL FREE ENERGY PREDICTED BY IDOCK:  -15.91 KCAL/MOL
REMARK 923 INTER-LIGAND FREE ENERGY PREDICTED BY IDOCK:  -14.19 KCAL/MOL
REMARK 924 INTRA-LIGAND FREE ENERGY PREDICTED BY IDOCK:   -1.72 KCAL/MOL
REMARK 927      BINDING AFFINITY PREDICTED BY RF-SCORE:    0.00 PKD
ROOT
HETATM    1  O   UNL     1     -11.550  16.953  64.001  1.00  0.00    -1.123 OA 
HETATM    2  C   UNL     1     -11.129  15.804  64.588  1.00  0.00    -0.361 C  
HETATM    3  C   UNL     1     -12.028  14.624  64.277  1.00  0.00    -0.406 C  
HETATM    4  O   UNL     1     -10.101  15.758  65.244  1.00  0.00    -0.388 OA 
ENDROOT
BRANCH   3   5
HETATM    5  C   UNL     1     -11.954  13.494  65.304  1.00  0.00    -0.397 C  
HETATM    6  C   UNL     1     -10.879  12.437  65.086  1.00  0.00    -0.333 C  
HETATM    7  C   UNL     1     -12.319  12.101  64.816  1.00  0.00    -0.310 C  
BRANCH   5   8
HETATM    8  C   UNL     1     -12.351  13.952  66.702  1.00  0.00    -0.369 C  
BRANCH   8   9
HETATM    9  S   UNL     1     -11.080  13.991  67.982  1.00  0.00    -0.274 SA 
BRANCH   9  10
HETATM   10  C   UNL     1     -11.858  15.159  69.199  1.00  0.00    -0.313 C  
BRANCH  10  11
HETATM   11  C   UNL     1     -10.930  16.305  69.670  1.00  0.00    -0.346 C  
BRANCH  11  12
HETATM   12  C   UNL     1      -9.536  16.336  69.004  1.00  0.00    -0.257 C  
BRANCH  12  13
HETATM   13  C   UNL     1      -9.346  17.559  68.118  1.00  0.00    -0.276 A  
HETATM   14  C   UNL     1     -10.535  18.266  67.804  1.00  0.00    -0.430 A  
HETATM   15  C   UNL     1      -9.330  19.901  66.548  1.00  0.00    -0.501 A  
HETATM   16  H   UNL     1      -5.693  16.925  69.545  1.00  0.00     0.000 HD 
HETATM   17  C   UNL     1     -10.533  19.410  67.016  1.00  0.00    -0.571 A  
HETATM   18  C   UNL     1      -5.516  18.185  67.402  1.00  0.00    -0.144 C  
HETATM   19  C   UNL     1      -8.141  19.241  66.865  1.00  0.00    -0.285 A  
HETATM   20  C   UNL     1      -8.101  18.055  67.641  1.00  0.00    -0.232 A  
HETATM   21  O   UNL     1      -6.534  17.327  69.360  1.00  0.00    -0.233 OA 
HETATM   22  C   UNL     1      -6.622  15.981  67.372  1.00  0.00    -0.224 C  
HETATM   23  C   UNL     1      -6.736  17.403  67.942  1.00  0.00    -0.173 C  
ENDBRANCH  12  13
ENDBRANCH  11  12
ENDBRANCH  10  11
BRANCH  10  24
HETATM   24  C   UNL     1     -12.533  14.373  70.326  1.00  0.00    -0.413 A  
HETATM   25  C   UNL     1     -13.667  12.849  72.412  1.00  0.00    -0.530 A  
HETATM   26  C   UNL     1     -13.397  14.961  71.261  1.00  0.00    -0.490 A  
HETATM   27  C   UNL     1     -12.252  12.997  70.468  1.00  0.00    -0.392 A  
HETATM   28  C   UNL     1     -13.957  14.207  72.295  1.00  0.00    -0.646 A  
HETATM   29  C   UNL     1     -12.824  12.221  71.492  1.00  0.00    -0.384 A  
BRANCH  29  30
HETATM   30  C   UNL     1     -12.451  10.802  71.605  1.00  0.00    -0.381 C  
HETATM   31  C   UNL     1     -11.512  10.193  70.858  1.00  0.00    -0.444 C  
BRANCH  31  32
HETATM   32  C   UNL     1     -11.147   8.775  70.939  1.00  0.00    -0.268 A  
HETATM   33  N   UNL     1     -10.717   8.237  69.773  1.00  0.00    -0.238 NA 
HETATM   34  C   UNL     1     -10.422   6.925  69.733  1.00  0.00    -0.217 A  
HETATM   35  C   UNL     1     -10.561   6.089  70.859  1.00  0.00    -0.310 A  
HETATM   36  C   UNL     1     -11.011   6.663  72.051  1.00  0.00    -0.274 A  
HETATM   37  C   UNL     1     -10.264   4.717  70.771  1.00  0.00    -0.246 A  
HETATM   38  C   UNL     1      -9.834   4.172  69.565  1.00  0.00    -0.183 A  
HETATM   39  C   UNL     1     -11.315   8.018  72.090  1.00  0.00    -0.387 A  
HETATM   40  C   UNL     1      -9.688   4.999  68.457  1.00  0.00    -0.154 A  
HETATM   41  C   UNL     1      -9.979   6.361  68.546  1.00  0.00    -0.155 A  
HETATM   42 CL   UNL     1      -9.157   4.331  66.963  1.00  0.00    -0.135 Cl 
ENDBRANCH  31  32
ENDBRANCH  29  30
ENDBRANCH  10  24
ENDBRANCH   9  10
ENDBRANCH   8   9
ENDBRANCH   5   8
ENDBRANCH   3   5
TORSDOF 10
ENDMDL
MODEL        3
REMARK 921   NORMALIZED FREE ENERGY PREDICTED BY IDOCK:   -8.90 KCAL/MOL
REMARK 922        TOTAL FREE ENERGY PREDICTED BY IDOCK:  -15.76 KCAL/MOL
REMARK 923 INTER-LIGAND FREE ENERGY PREDICTED BY IDOCK:  -13.83 KCAL/MOL
REMARK 924 INTRA-LIGAND FREE ENERGY PREDICTED BY IDOCK:   -1.92 KCAL/MOL
REMARK 927      BINDING AFFINITY PREDICTED BY RF-SCORE:    0.00 PKD
ROOT
HETATM    1  O   UNL     1     -12.543  13.539  63.069  1.00  0.00    -0.716 OA 
HETATM    2  C   UNL     1     -11.707  12.937  63.952  1.00  0.00    -0.460 C  
HETATM    3  C   UNL     1     -12.358  12.684  65.297  1.00  0.00    -0.528 C  
HETATM    4  O   UNL     1     -10.575  12.604  63.639  1.00  0.00    -0.418 OA 
ENDROOT
BRANCH   3   5
HETATM    5  C   UNL     1     -11.369  12.548  66.455  1.00  0.00    -0.379 C  
HETATM    6  C   UNL     1     -10.509  11.291  66.479  1.00  0.00    -0.299 C  
HETATM    7  C   UNL     1     -11.640  11.438  67.458  1.00  0.00    -0.298 C  
BRANCH   5   8
HETATM    8  C   UNL     1     -10.829  13.894  66.920  1.00  0.00    -0.286 C  
BRANCH   8   9
HETATM    9  S   UNL     1     -10.360  14.074  68.653  1.00  0.00    -0.221 SA 
BRANCH   9  10
HETATM   10  C   UNL     1     -11.615  15.320  69.219  1.00  0.00    -0.332 C  
BRANCH  10  11
HETATM   11  C   UNL     1     -11.033  16.719  69.536  1.00  0.00    -0.158 C  
BRANCH  11  12
HETATM   12  C   UNL     1      -9.569  16.935  69.093  1.00  0.00    -0.158 C  
BRANCH  12  13
HETATM   13  C   UNL     1      -9.451  17.948  67.962  1.00  0.00    -0.279 A  
HETATM   14  C   UNL     1     -10.589  18.772  67.771  1.00  0.00    -0.452 A  
HETATM   15  C   UNL     1      -9.532  19.962  65.991  1.00  0.00    -0.403 A  
HETATM   16  H   UNL     1      -5.664  16.988  68.687  1.00  0.00     0.000 HD 
HETATM   17  C   UNL     1     -10.639  19.752  66.789  1.00  0.00    -0.586 A  
HETATM   18  C   UNL     1      -5.852  17.828  66.348  1.00  0.00    -0.230 C  
HETATM   19  C   UNL     1      -8.387  19.184  66.175  1.00  0.00    -0.254 A  
HETATM   20  C   UNL     1      -8.304  18.153  67.146  1.00  0.00    -0.244 A  
HETATM   21  O   UNL     1      -6.472  17.481  68.606  1.00  0.00    -0.179 OA 
HETATM   22  C   UNL     1      -7.183  15.855  66.989  1.00  0.00    -0.232 C  
HETATM   23  C   UNL     1      -6.993  17.351  67.277  1.00  0.00    -0.168 C  
ENDBRANCH  12  13
ENDBRANCH  11  12
ENDBRANCH  10  11
BRANCH  10  24
HETATM   24  C   UNL     1     -12.490  14.721  70.324  1.00  0.00    -0.393 A  
HETATM   25  C   UNL     1     -14.001  13.535  72.390  1.00  0.00    -0.638 A  
HETATM   26  C   UNL     1     -13.392  15.480  71.084  1.00  0.00    -0.553 A  
HETATM   27  C   UNL     1     -12.366  13.349  70.630  1.00  0.00    -0.423 A  
HETATM   28  C   UNL     1     -14.139  14.893  72.108  1.00  0.00    -0.616 A  
HETATM   29  C   UNL     1     -13.126  12.741  71.645  1.00  0.00    -0.428 A  
BRANCH  29  30
HETATM   30  C   UNL     1     -12.913  11.315  71.939  1.00  0.00    -0.471 C  
HETATM   31  C   UNL     1     -11.947  10.554  71.391  1.00  0.00    -0.325 C  
BRANCH  31  32
HETATM   32  C   UNL     1     -11.737   9.126  71.652  1.00  0.00    -0.378 A  
HETATM   33  N   UNL     1     -10.467   8.797  71.989  1.00  0.00    -0.346 NA 
HETATM   34  C   UNL     1     -10.162   7.501  72.183  1.00  0.00    -0.196 A  
HETATM   35  C   UNL     1     -11.116   6.474  72.032  1.00  0.00    -0.296 A  
HETATM   36  C   UNL     1     -12.418   6.835  71.679  1.00  0.00    -0.398 A  
HETATM   37  C   UNL     1     -10.752   5.129  72.221  1.00  0.00    -0.266 A  
HETATM   38  C   UNL     1      -9.442   4.800  72.556  1.00  0.00    -0.165 A  
HETATM   39  C   UNL     1     -12.732   8.174  71.479  1.00  0.00    -0.327 A  
HETATM   40  C   UNL     1      -8.504   5.815  72.714  1.00  0.00    -0.119 A  
HETATM   41  C   UNL     1      -8.866   7.150  72.530  1.00  0.00    -0.141 A  
HETATM   42 CL   UNL     1      -6.882   5.415  73.127  1.00  0.00    -0.077 Cl 
ENDBRANCH  31  32
ENDBRANCH  29  30
ENDBRANCH  10  24
ENDBRANCH   9  10
ENDBRANCH   8   9
ENDBRANCH   5   8
ENDBRANCH   3   5
TORSDOF 10
ENDMDL
MODEL        4
REMARK 921   NORMALIZED FREE ENERGY PREDICTED BY IDOCK:   -8.84 KCAL/MOL
REMARK 922        TOTAL FREE ENERGY PREDICTED BY IDOCK:  -15.66 KCAL/MOL
REMARK 923 INTER-LIGAND FREE ENERGY PREDICTED BY IDOCK:  -13.67 KCAL/MOL
REMARK 924 INTRA-LIGAND FREE ENERGY PREDICTED BY IDOCK:   -1.99 KCAL/MOL
REMARK 927      BINDING AFFINITY PREDICTED BY RF-SCORE:    0.00 PKD
ROOT
HETATM    1  O   UNL     1     -11.263  20.061  65.124  1.00  0.00    -0.247 OA 
HETATM    2  C   UNL     1     -10.865  18.875  65.653  1.00  0.00    -0.051 C  
HETATM    3  C   UNL     1     -10.460  18.989  67.109  1.00  0.00    -0.522 C  
HETATM    4  O   UNL     1     -10.898  17.842  65.005  1.00  0.00    -0.774 OA 
ENDROOT
BRANCH   3   5
HETATM    5  C   UNL     1      -9.511  17.888  67.581  1.00  0.00    -0.260 C  
HETATM    6  C   UNL     1      -8.347  18.317  68.465  1.00  0.00    -0.327 C  
HETATM    7  C   UNL     1      -8.092  17.928  67.036  1.00  0.00    -0.238 C  
BRANCH   5   8
HETATM    8  C   UNL     1     -10.221  16.556  67.788  1.00  0.00    -0.278 C  
BRANCH   8   9
HETATM    9  S   UNL     1      -9.502  15.079  67.042  1.00  0.00    -0.239 SA 
BRANCH   9  10
HETATM   10  C   UNL     1     -11.040  14.123  66.628  1.00  0.00    -0.312 C  
BRANCH  10  11
HETATM   11  C   UNL     1     -11.903  13.735  67.853  1.00  0.00    -0.413 C  
BRANCH  11  12
HETATM   12  C   UNL     1     -11.114  13.476  69.155  1.00  0.00    -0.271 C  
BRANCH  12  13
HETATM   13  C   UNL     1     -11.915  12.666  70.165  1.00  0.00    -0.375 A  
HETATM   14  C   UNL     1     -11.972  11.272  69.910  1.00  0.00    -0.440 A  
HETATM   15  C   UNL     1     -13.269  10.880  71.876  1.00  0.00    -0.508 A  
HETATM   16  H   UNL     1     -11.160  16.034  72.133  1.00  0.00     0.000 HD 
HETATM   17  C   UNL     1     -12.653  10.392  70.741  1.00  0.00    -0.462 A  
HETATM   18  C   UNL     1     -13.192  14.968  73.105  1.00  0.00    -0.587 C  
HETATM   19  C   UNL     1     -13.205  12.245  72.168  1.00  0.00    -0.466 A  
HETATM   20  C   UNL     1     -12.546  13.181  71.331  1.00  0.00    -0.352 A  
HETATM   21  O   UNL     1     -11.172  15.118  71.880  1.00  0.00    -0.397 OA 
HETATM   22  C   UNL     1     -13.222  15.574  70.716  1.00  0.00    -0.391 C  
HETATM   23  C   UNL     1     -12.526  14.668  71.742  1.00  0.00    -0.345 C  
ENDBRANCH  12  13
ENDBRANCH  11  12
ENDBRANCH  10  11
BRANCH  10  24
HETATM   24  C   UNL     1     -10.701  12.965  65.685  1.00  0.00    -0.295 A  
HETATM   25  C   UNL     1     -10.148  10.750  64.027  1.00  0.00    -0.410 A  
HETATM   26  C   UNL     1     -10.577  13.117  64.296  1.00  0.00    -0.432 A  
HETATM   27  C   UNL     1     -10.542  11.668  66.219  1.00  0.00    -0.301 A  
HETATM   28  C   UNL     1     -10.305  12.021  63.475  1.00  0.00    -0.492 A  
HETATM   29  C   UNL     1     -10.249  10.558  65.407  1.00  0.00    -0.340 A  
BRANCH  29  30
HETATM   30  C   UNL     1     -10.139   9.229  66.027  1.00  0.00    -0.262 C  
HETATM   31  C   UNL     1     -10.456   8.950  67.305  1.00  0.00    -0.348 C  
BRANCH  31  32
HETATM   32  C   UNL     1     -10.328   7.637  67.947  1.00  0.00    -0.212 A  
HETATM   33  N   UNL     1     -10.520   7.645  69.288  1.00  0.00    -0.218 NA 
HETATM   34  C   UNL     1     -10.358   6.499  69.974  1.00  0.00    -0.198 A  
HETATM   35  C   UNL     1      -9.981   5.294  69.346  1.00  0.00    -0.288 A  
HETATM   36  C   UNL     1      -9.783   5.309  67.963  1.00  0.00    -0.179 A  
HETATM   37  C   UNL     1      -9.800   4.122  70.101  1.00  0.00    -0.242 A  
HETATM   38  C   UNL     1      -9.988   4.144  71.480  1.00  0.00    -0.230 A  
HETATM   39  C   UNL     1      -9.951   6.494  67.256  1.00  0.00    -0.189 A  
HETATM   40  C   UNL     1     -10.368   5.330  72.097  1.00  0.00    -0.212 A  
HETATM   41  C   UNL     1     -10.552   6.492  71.347  1.00  0.00    -0.266 A  
HETATM   42 CL   UNL     1     -10.602   5.364  73.801  1.00  0.00    -0.301 Cl 
ENDBRANCH  31  32
ENDBRANCH  29  30
ENDBRANCH  10  24
ENDBRANCH   9  10
ENDBRANCH   8   9
ENDBRANCH   5   8
ENDBRANCH   3   5
TORSDOF 10
ENDMDL
MODEL        5
REMARK 921   NORMALIZED FREE ENERGY PREDICTED BY IDOCK:   -8.84 KCAL/MOL
REMARK 922        TOTAL FREE ENERGY PREDICTED BY IDOCK:  -15.66 KCAL/MOL
REMARK 923 INTER-LIGAND FREE ENERGY PREDICTED BY IDOCK:  -13.58 KCAL/MOL
REMARK 924 INTRA-LIGAND FREE ENERGY PREDICTED BY IDOCK:   -2.08 KCAL/MOL
REMARK 927      BINDING AFFINITY PREDICTED BY RF-SCORE:    0.00 PKD
ROOT
HETATM    1  O   UNL     1     -10.759   5.098  73.856  1.00  0.00    -0.274 OA 
HETATM    2  C   UNL     1     -10.982   6.255  73.182  1.00  0.00    -0.223 C  
HETATM    3  C   UNL     1     -12.018   6.104  72.086  1.00  0.00    -0.314 C  
HETATM    4  O   UNL     1     -10.426   7.295  73.493  1.00  0.00    -0.349 OA 
ENDROOT
BRANCH   3   5
HETATM    5  C   UNL     1     -11.908   7.148  70.975  1.00  0.00    -0.373 C  
HETATM    6  C   UNL     1     -11.445   6.653  69.611  1.00  0.00    -0.358 C  
HETATM    7  C   UNL     1     -10.510   7.460  70.466  1.00  0.00    -0.227 C  
BRANCH   5   8
HETATM    8  C   UNL     1     -12.945   8.256  71.112  1.00  0.00    -0.050 C  
BRANCH   8   9
HETATM    9  S   UNL     1     -12.464   9.777  71.954  1.00  0.00    -0.324 SA 
BRANCH   9  10
HETATM   10  C   UNL     1     -12.552  10.988  70.548  1.00  0.00    -0.304 C  
BRANCH  10  11
HETATM   11  C   UNL     1     -11.453  10.803  69.474  1.00  0.00    -0.365 C  
BRANCH  11  12
HETATM   12  C   UNL     1     -11.872  11.180  68.036  1.00  0.00    -0.203 C  
BRANCH  12  13
HETATM   13  C   UNL     1     -10.963  10.555  66.986  1.00  0.00    -0.247 A  
HETATM   14  C   UNL     1     -10.386   9.313  67.353  1.00  0.00    -0.327 A  
HETATM   15  C   UNL     1      -9.280   9.110  65.246  1.00  0.00    -0.243 A  
HETATM   16  H   UNL     1     -13.092  13.159  64.872  1.00  0.00     0.000 HD 
HETATM   17  C   UNL     1      -9.542   8.607  66.505  1.00  0.00    -0.303 A  
HETATM   18  C   UNL     1     -10.946  12.717  63.685  1.00  0.00    -0.464 C  
HETATM   19  C   UNL     1      -9.857  10.318  64.848  1.00  0.00    -0.404 A  
HETATM   20  C   UNL     1     -10.700  11.084  65.692  1.00  0.00    -0.217 A  
HETATM   21  O   UNL     1     -12.726  12.347  65.201  1.00  0.00    -0.630 OA 
HETATM   22  C   UNL     1     -10.847  13.626  65.974  1.00  0.00    -0.275 C  
HETATM   23  C   UNL     1     -11.294  12.404  65.159  1.00  0.00    -0.323 C  
ENDBRANCH  12  13
ENDBRANCH  11  12
ENDBRANCH  10  11
BRANCH  10  24
HETATM   24  C   UNL     1     -12.691  12.413  71.089  1.00  0.00    -0.336 A  
HETATM   25  C   UNL     1     -12.939  15.085  71.962  1.00  0.00    -0.427 A  
HETATM   26  C   UNL     1     -13.503  12.742  72.185  1.00  0.00    -0.591 A  
HETATM   27  C   UNL     1     -12.007  13.464  70.442  1.00  0.00    -0.358 A  
HETATM   28  C   UNL     1     -13.627  14.064  72.616  1.00  0.00    -0.623 A  
HETATM   29  C   UNL     1     -12.107  14.798  70.877  1.00  0.00    -0.387 A  
BRANCH  29  30
HETATM   30  C   UNL     1     -11.400  15.848  70.127  1.00  0.00    -0.369 C  
HETATM   31  C   UNL     1     -11.228  15.854  68.792  1.00  0.00    -0.359 C  
BRANCH  31  32
HETATM   32  C   UNL     1     -10.504  16.878  68.032  1.00  0.00    -0.347 A  
HETATM   33  N   UNL     1      -9.503  17.484  68.716  1.00  0.00    -0.273 NA 
HETATM   34  C   UNL     1      -8.825  18.484  68.123  1.00  0.00    -0.306 A  
HETATM   35  C   UNL     1      -9.131  18.931  66.822  1.00  0.00    -0.323 A  
HETATM   36  C   UNL     1     -10.169  18.296  66.136  1.00  0.00    -0.393 A  
HETATM   37  C   UNL     1      -8.414  19.995  66.246  1.00  0.00    -0.329 A  
HETATM   38  C   UNL     1      -7.395  20.618  66.961  1.00  0.00    -0.370 A  
HETATM   39  C   UNL     1     -10.869  17.264  66.750  1.00  0.00     0.031 A  
HETATM   40  C   UNL     1      -7.089  20.170  68.241  1.00  0.00    -0.269 A  
HETATM   41  C   UNL     1      -7.798  19.113  68.811  1.00  0.00    -0.383 A  
HETATM   42 CL   UNL     1      -5.831  20.937  69.130  1.00  0.00    -0.369 Cl 
ENDBRANCH  31  32
ENDBRANCH  29  30
ENDBRANCH  10  24
ENDBRANCH   9  10
ENDBRANCH   8   9
ENDBRANCH   5   8
ENDBRANCH   3   5
TORSDOF 10
ENDMDL
MODEL        6
REMARK 921   NORMALIZED FREE ENERGY PREDICTED BY IDOCK:   -8.82 KCAL/MOL
REMARK 922        TOTAL FREE ENERGY PREDICTED BY IDOCK:  -15.63 KCAL/MOL
REMARK 923 INTER-LIGAND FREE ENERGY PREDICTED BY IDOCK:  -13.47 KCAL/MOL
REMARK 924 INTRA-LIGAND FREE ENERGY PREDICTED BY IDOCK:   -2.16 KCAL/MOL
REMARK 927      BINDING AFFINITY PREDICTED BY RF-SCORE:    0.00 PKD
ROOT
HETATM    1  O   UNL     1     -11.153  17.585  64.697  1.00  0.00    -0.978 OA 
HETATM    2  C   UNL     1     -10.363  17.364  65.778  1.00  0.00    -0.216 C  
HETATM    3  C   UNL     1     -11.032  17.752  67.082  1.00  0.00     0.006 C  
HETATM    4  O   UNL     1      -9.259  16.856  65.672  1.00  0.00    -0.512 OA 
ENDROOT
BRANCH   3   5
HETATM    5  C   UNL     1     -10.056  18.057  68.218  1.00  0.00    -0.390 C  
HETATM    6  C   UNL     1      -9.922  19.516  68.634  1.00  0.00    -0.538 C  
HETATM    7  C   UNL     1      -8.816  18.859  67.857  1.00  0.00    -0.326 C  
BRANCH   5   8
HETATM    8  C   UNL     1      -9.975  16.926  69.236  1.00  0.00    -0.184 C  
BRANCH   8   9
HETATM    9  S   UNL     1     -11.516  16.214  69.847  1.00  0.00    -0.220 SA 
BRANCH   9  10
HETATM   10  C   UNL     1     -11.331  14.457  69.274  1.00  0.00    -0.284 C  
BRANCH  10  11
HETATM   11  C   UNL     1     -11.663  14.231  67.780  1.00  0.00    -0.408 C  
BRANCH  11  12
HETATM   12  C   UNL     1     -10.468  13.808  66.899  1.00  0.00    -0.272 C  
BRANCH  12  13
HETATM   13  C   UNL     1     -10.911  13.130  65.609  1.00  0.00    -0.295 A  
HETATM   14  C   UNL     1     -11.638  13.957  64.714  1.00  0.00    -0.383 A  
HETATM   15  C   UNL     1     -11.825  12.199  63.109  1.00  0.00    -0.320 A  
HETATM   16  H   UNL     1      -8.010  10.746  66.905  1.00  0.00     0.000 HD 
HETATM   17  C   UNL     1     -12.105  13.496  63.491  1.00  0.00    -0.425 A  
HETATM   18  C   UNL     1      -9.525   9.441  65.417  1.00  0.00    -0.322 C  
HETATM   19  C   UNL     1     -11.086  11.371  63.958  1.00  0.00    -0.400 A  
HETATM   20  C   UNL     1     -10.616  11.792  65.228  1.00  0.00    -0.327 A  
HETATM   21  O   UNL     1      -8.510  11.354  66.374  1.00  0.00    -0.173 OA 
HETATM   22  C   UNL     1     -10.487  10.490  67.430  1.00  0.00    -0.291 C  
HETATM   23  C   UNL     1      -9.804  10.805  66.091  1.00  0.00    -0.221 C  
ENDBRANCH  12  13
ENDBRANCH  11  12
ENDBRANCH  10  11
BRANCH  10  24
HETATM   24  C   UNL     1     -12.045  13.510  70.243  1.00  0.00    -0.425 A  
HETATM   25  C   UNL     1     -13.249  11.694  72.036  1.00  0.00    -0.443 A  
HETATM   26  C   UNL     1     -12.978  13.948  71.196  1.00  0.00    -0.388 A  
HETATM   27  C   UNL     1     -11.731  12.134  70.217  1.00  0.00    -0.240 A  
HETATM   28  C   UNL     1     -13.573  13.049  72.083  1.00  0.00    -0.618 A  
HETATM   29  C   UNL     1     -12.336  11.215  71.092  1.00  0.00    -0.451 A  
BRANCH  29  30
HETATM   30  C   UNL     1     -11.928   9.803  71.037  1.00  0.00    -0.440 C  
HETATM   31  C   UNL     1     -11.330   9.137  72.041  1.00  0.00    -0.333 C  
BRANCH  31  32
HETATM   32  C   UNL     1     -10.893   7.738  71.995  1.00  0.00    -0.245 A  
HETATM   33  N   UNL     1     -10.661   7.262  70.747  1.00  0.00    -0.228 NA 
HETATM   34  C   UNL     1     -10.320   5.969  70.598  1.00  0.00    -0.222 A  
HETATM   35  C   UNL     1     -10.212   5.090  71.695  1.00  0.00    -0.275 A  
HETATM   36  C   UNL     1     -10.460   5.599  72.972  1.00  0.00    -0.246 A  
HETATM   37  C   UNL     1      -9.875   3.739  71.496  1.00  0.00    -0.235 A  
HETATM   38  C   UNL     1      -9.651   3.257  70.210  1.00  0.00    -0.198 A  
HETATM   39  C   UNL     1     -10.812   6.935  73.124  1.00  0.00    -0.328 A  
HETATM   40  C   UNL     1      -9.749   4.128  69.130  1.00  0.00    -0.135 A  
HETATM   41  C   UNL     1     -10.079   5.469  69.328  1.00  0.00    -0.293 A  
HETATM   42 CL   UNL     1      -9.473   3.539  67.537  1.00  0.00    -0.247 Cl 
ENDBRANCH  31  32
ENDBRANCH  29  30
ENDBRANCH  10  24
ENDBRANCH   9  10
ENDBRANCH   8   9
ENDBRANCH   5   8
ENDBRANCH   3   5
TORSDOF 10
ENDMDL
MODEL        7
REMARK 921   NORMALIZED FREE ENERGY PREDICTED BY IDOCK:   -8.57 KCAL/MOL
REMARK 922        TOTAL FREE ENERGY PREDICTED BY IDOCK:  -15.24 KCAL/MOL
REMARK 923 INTER-LIGAND FREE ENERGY PREDICTED BY IDOCK:  -13.72 KCAL/MOL
REMARK 924 INTRA-LIGAND FREE ENERGY PREDICTED BY IDOCK:   -1.52 KCAL/MOL
REMARK 927      BINDING AFFINITY PREDICTED BY RF-SCORE:    0.00 PKD
ROOT
HETATM    1  O   UNL     1     -12.471  13.640  63.367  1.00  0.00    -0.784 OA 
HETATM    2  C   UNL     1     -11.592  12.947  64.134  1.00  0.00    -0.398 C  
HETATM    3  C   UNL     1     -12.202  12.467  65.436  1.00  0.00    -0.475 C  
HETATM    4  O   UNL     1     -10.456  12.712  63.755  1.00  0.00    -0.421 OA 
ENDROOT
BRANCH   3   5
HETATM    5  C   UNL     1     -11.182  12.199  66.542  1.00  0.00    -0.378 C  
HETATM    6  C   UNL     1     -10.231  11.028  66.331  1.00  0.00    -0.284 C  
HETATM    7  C   UNL     1     -11.349  10.907  67.327  1.00  0.00    -0.230 C  
BRANCH   5   8
HETATM    8  C   UNL     1     -10.733  13.475  67.243  1.00  0.00    -0.267 C  
BRANCH   8   9
HETATM    9  S   UNL     1     -11.910  14.836  67.375  1.00  0.00    -0.202 SA 
BRANCH   9  10
HETATM   10  C   UNL     1     -11.486  15.491  69.061  1.00  0.00    -0.352 C  
BRANCH  10  11
HETATM   11  C   UNL     1      -9.970  15.548  69.364  1.00  0.00    -0.277 C  
BRANCH  11  12
HETATM   12  C   UNL     1      -9.085  16.021  68.190  1.00  0.00    -0.187 C  
BRANCH  12  13
HETATM   13  C   UNL     1      -7.970  16.953  68.646  1.00  0.00    -0.256 A  
HETATM   14  C   UNL     1      -6.942  16.337  69.405  1.00  0.00    -0.212 A  
HETATM   15  C   UNL     1      -5.734  18.388  69.589  1.00  0.00    -0.242 A  
HETATM   16  H   UNL     1      -9.658  18.980  65.675  1.00  0.00     0.000 HD 
HETATM   17  C   UNL     1      -5.849  17.045  69.887  1.00  0.00    -0.228 A  
HETATM   18  C   UNL     1      -8.503  20.583  67.194  1.00  0.00    -0.357 C  
HETATM   19  C   UNL     1      -6.716  19.015  68.819  1.00  0.00    -0.316 A  
HETATM   20  C   UNL     1      -7.863  18.336  68.333  1.00  0.00    -0.318 A  
HETATM   21  O   UNL     1      -9.026  18.500  66.197  1.00  0.00    -0.462 OA 
HETATM   22  C   UNL     1     -10.281  19.159  68.136  1.00  0.00    -0.489 C  
HETATM   23  C   UNL     1      -8.890  19.115  67.485  1.00  0.00    -0.295 C  
ENDBRANCH  12  13
ENDBRANCH  11  12
ENDBRANCH  10  11
BRANCH  10  24
HETATM   24  C   UNL     1     -12.330  14.784  70.127  1.00  0.00    -0.381 A  
HETATM   25  C   UNL     1     -13.782  13.400  72.111  1.00  0.00    -0.646 A  
HETATM   26  C   UNL     1     -13.225  15.461  70.969  1.00  0.00    -0.560 A  
HETATM   27  C   UNL     1     -12.182  13.392  70.309  1.00  0.00    -0.405 A  
HETATM   28  C   UNL     1     -13.942  14.776  71.952  1.00  0.00    -0.577 A  
HETATM   29  C   UNL     1     -12.912  12.687  71.282  1.00  0.00    -0.306 A  
BRANCH  29  30
HETATM   30  C   UNL     1     -12.675  11.244  71.445  1.00  0.00    -0.501 C  
HETATM   31  C   UNL     1     -11.706  10.550  70.820  1.00  0.00    -0.454 C  
BRANCH  31  32
HETATM   32  C   UNL     1     -11.472   9.108  70.950  1.00  0.00    -0.296 A  
HETATM   33  N   UNL     1     -10.373   8.656  70.300  1.00  0.00    -0.193 NA 
HETATM   34  C   UNL     1     -10.112   7.335  70.307  1.00  0.00    -0.192 A  
HETATM   35  C   UNL     1     -10.953   6.407  70.954  1.00  0.00    -0.335 A  
HETATM   36  C   UNL     1     -12.084   6.894  71.614  1.00  0.00    -0.394 A  
HETATM   37  C   UNL     1     -10.659   5.032  70.919  1.00  0.00    -0.148 A  
HETATM   38  C   UNL     1      -9.534   4.576  70.239  1.00  0.00    -0.241 A  
HETATM   39  C   UNL     1     -12.352   8.258  71.606  1.00  0.00    -0.349 A  
HETATM   40  C   UNL     1      -8.700   5.494  69.608  1.00  0.00    -0.108 A  
HETATM   41  C   UNL     1      -8.990   6.858  69.646  1.00  0.00    -0.144 A  
HETATM   42 CL   UNL     1      -7.308   4.936  68.765  1.00  0.00    -0.061 Cl 
ENDBRANCH  31  32
ENDBRANCH  29  30
ENDBRANCH  10  24
ENDBRANCH   9  10
ENDBRANCH   8   9
ENDBRANCH   5   8
ENDBRANCH   3   5
TORSDOF 10
ENDMDL
MODEL        8
REMARK 921   NORMALIZED FREE ENERGY PREDICTED BY IDOCK:   -8.44 KCAL/MOL
REMARK 922        TOTAL FREE ENERGY PREDICTED BY IDOCK:  -15.04 KCAL/MOL
REMARK 923 INTER-LIGAND FREE ENERGY PREDICTED BY IDOCK:  -13.15 KCAL/MOL
REMARK 924 INTRA-LIGAND FREE ENERGY PREDICTED BY IDOCK:   -1.89 KCAL/MOL
REMARK 927      BINDING AFFINITY PREDICTED BY RF-SCORE:    0.00 PKD
ROOT
HETATM    1  O   UNL     1     -14.151   8.441  71.660  1.00  0.00    -0.398 OA 
HETATM    2  C   UNL     1     -13.014   7.698  71.669  1.00  0.00    -0.350 C  
HETATM    3  C   UNL     1     -11.902   8.338  72.475  1.00  0.00    -0.439 C  
HETATM    4  O   UNL     1     -12.955   6.611  71.117  1.00  0.00    -0.193 OA 
ENDROOT
BRANCH   3   5
HETATM    5  C   UNL     1     -10.499   7.878  72.080  1.00  0.00    -0.289 C  
HETATM    6  C   UNL     1      -9.933   6.678  72.827  1.00  0.00    -0.187 C  
HETATM    7  C   UNL     1      -9.403   8.054  73.119  1.00  0.00    -0.346 C  
BRANCH   5   8
HETATM    8  C   UNL     1     -10.206   8.110  70.602  1.00  0.00    -0.196 C  
BRANCH   8   9
HETATM    9  S   UNL     1      -9.724   9.766  70.076  1.00  0.00    -0.234 SA 
BRANCH   9  10
HETATM   10  C   UNL     1     -11.293  10.336  69.260  1.00  0.00    -0.196 C  
BRANCH  10  11
HETATM   11  C   UNL     1     -11.224  10.404  67.716  1.00  0.00    -0.309 C  
BRANCH  11  12
HETATM   12  C   UNL     1      -9.970  11.103  67.146  1.00  0.00    -0.215 C  
BRANCH  12  13
HETATM   13  C   UNL     1      -9.847  10.929  65.637  1.00  0.00    -0.292 A  
HETATM   14  C   UNL     1      -9.056   9.828  65.221  1.00  0.00    -0.259 A  
HETATM   15  C   UNL     1      -9.469  10.297  62.916  1.00  0.00    -0.333 A  
HETATM   16  H   UNL     1     -13.054  13.246  66.001  1.00  0.00     0.000 HD 
HETATM   17  C   UNL     1      -8.853   9.525  63.881  1.00  0.00    -0.240 A  
HETATM   18  C   UNL     1     -12.065  13.584  63.739  1.00  0.00    -0.482 C  
HETATM   19  C   UNL     1     -10.276  11.370  63.298  1.00  0.00    -0.430 A  
HETATM   20  C   UNL     1     -10.487  11.732  64.653  1.00  0.00    -0.347 A  
HETATM   21  O   UNL     1     -12.491  12.507  65.804  1.00  0.00    -0.626 OA 
HETATM   22  C   UNL     1     -10.661  14.060  65.709  1.00  0.00    -0.303 C  
HETATM   23  C   UNL     1     -11.401  12.932  64.974  1.00  0.00    -0.305 C  
ENDBRANCH  12  13
ENDBRANCH  11  12
ENDBRANCH  10  11
BRANCH  10  24
HETATM   24  C   UNL     1     -11.807  11.608  69.939  1.00  0.00    -0.434 A  
HETATM   25  C   UNL     1     -12.756  14.012  71.072  1.00  0.00    -0.431 A  
HETATM   26  C   UNL     1     -12.684  11.593  71.034  1.00  0.00    -0.395 A  
HETATM   27  C   UNL     1     -11.420  12.865  69.427  1.00  0.00    -0.323 A  
HETATM   28  C   UNL     1     -13.155  12.782  71.593  1.00  0.00    -0.428 A  
HETATM   29  C   UNL     1     -11.871  14.071  69.992  1.00  0.00    -0.388 A  
BRANCH  29  30
HETATM   30  C   UNL     1     -11.461  15.344  69.379  1.00  0.00    -0.335 C  
HETATM   31  C   UNL     1     -10.203  15.649  69.011  1.00  0.00    -0.225 C  
BRANCH  31  32
HETATM   32  C   UNL     1      -9.772  16.921  68.422  1.00  0.00    -0.263 A  
HETATM   33  N   UNL     1      -8.768  16.813  67.520  1.00  0.00    -0.197 NA 
HETATM   34  C   UNL     1      -8.260  17.934  66.975  1.00  0.00    -0.226 A  
HETATM   35  C   UNL     1      -8.729  19.217  67.325  1.00  0.00    -0.323 A  
HETATM   36  C   UNL     1      -9.762  19.307  68.260  1.00  0.00    -0.459 A  
HETATM   37  C   UNL     1      -8.157  20.366  66.750  1.00  0.00    -0.283 A  
HETATM   38  C   UNL     1      -7.117  20.245  65.833  1.00  0.00    -0.287 A  
HETATM   39  C   UNL     1     -10.285  18.148  68.822  1.00  0.00    -0.353 A  
HETATM   40  C   UNL     1      -6.662  18.978  65.483  1.00  0.00    -0.260 A  
HETATM   41  C   UNL     1      -7.232  17.838  66.050  1.00  0.00    -0.322 A  
HETATM   42 CL   UNL     1      -5.376  18.821  64.350  1.00  0.00    -0.249 Cl 
ENDBRANCH  31  32
ENDBRANCH  29  30
ENDBRANCH  10  24
ENDBRANCH   9  10
ENDBRANCH   8   9
ENDBRANCH   5   8
ENDBRANCH   3   5
TORSDOF 10
ENDMDL
MODEL        9
REMARK 921   NORMALIZED FREE ENERGY PREDICTED BY IDOCK:   -8.44 KCAL/MOL
REMARK 922        TOTAL FREE ENERGY PREDICTED BY IDOCK:  -15.02 KCAL/MOL
REMARK 923 INTER-LIGAND FREE ENERGY PREDICTED BY IDOCK:  -11.41 KCAL/MOL
REMARK 924 INTRA-LIGAND FREE ENERGY PREDICTED BY IDOCK:   -3.62 KCAL/MOL
REMARK 927      BINDING AFFINITY PREDICTED BY RF-SCORE:    0.00 PKD
ROOT
HETATM    1  O   UNL     1     -10.988  19.486  67.496  1.00  0.00    -0.452 OA 
HETATM    2  C   UNL     1     -10.638  18.522  66.606  1.00  0.00    -0.342 C  
HETATM    3  C   UNL     1     -10.362  17.186  67.266  1.00  0.00    -0.320 C  
HETATM    4  O   UNL     1     -10.612  18.738  65.405  1.00  0.00    -0.552 OA 
ENDROOT
BRANCH   3   5
HETATM    5  C   UNL     1      -9.457  16.262  66.451  1.00  0.00    -0.322 C  
HETATM    6  C   UNL     1      -8.286  15.625  67.186  1.00  0.00    -0.244 C  
HETATM    7  C   UNL     1      -8.034  16.738  66.208  1.00  0.00    -0.352 C  
BRANCH   5   8
HETATM    8  C   UNL     1     -10.218  15.514  65.363  1.00  0.00    -0.377 C  
BRANCH   8   9
HETATM    9  S   UNL     1     -11.742  14.662  65.817  1.00  0.00    -0.255 SA 
BRANCH   9  10
HETATM   10  C   UNL     1     -11.058  13.237  66.792  1.00  0.00    -0.292 C  
BRANCH  10  11
HETATM   11  C   UNL     1     -11.169  11.864  66.085  1.00  0.00    -0.387 C  
BRANCH  11  12
HETATM   12  C   UNL     1      -9.829  11.127  65.871  1.00  0.00    -0.275 C  
BRANCH  12  13
HETATM   13  C   UNL     1      -9.636   9.982  66.857  1.00  0.00    -0.219 A  
HETATM   14  C   UNL     1     -10.582   8.930  66.750  1.00  0.00    -0.212 A  
HETATM   15  C   UNL     1      -9.522   7.689  68.493  1.00  0.00    -0.147 A  
HETATM   16  H   UNL     1      -6.090  11.773  66.879  1.00  0.00     0.000 HD 
HETATM   17  C   UNL     1     -10.539   7.808  67.567  1.00  0.00    -0.319 A  
HETATM   18  C   UNL     1      -6.382  10.532  69.020  1.00  0.00    -0.045 C  
HETATM   19  C   UNL     1      -8.561   8.696  68.601  1.00  0.00    -0.131 A  
HETATM   20  C   UNL     1      -8.584   9.872  67.807  1.00  0.00    -0.121 A  
HETATM   21  O   UNL     1      -6.774  11.125  66.761  1.00  0.00    -0.115 OA 
HETATM   22  C   UNL     1      -8.021  12.285  68.454  1.00  0.00    -0.152 C  
HETATM   23  C   UNL     1      -7.473  10.925  67.997  1.00  0.00    -0.090 C  
ENDBRANCH  12  13
ENDBRANCH  11  12
ENDBRANCH  10  11
BRANCH  10  24
HETATM   24  C   UNL     1     -11.602  13.270  68.223  1.00  0.00    -0.369 A  
HETATM   25  C   UNL     1     -12.524  13.229  70.889  1.00  0.00    -0.424 A  
HETATM   26  C   UNL     1     -11.941  14.458  68.888  1.00  0.00    -0.337 A  
HETATM   27  C   UNL     1     -11.737  12.059  68.936  1.00  0.00    -0.383 A  
HETATM   28  C   UNL     1     -12.397  14.437  70.208  1.00  0.00    -0.410 A  
HETATM   29  C   UNL     1     -12.212  12.022  70.258  1.00  0.00    -0.348 A  
BRANCH  29  30
HETATM   30  C   UNL     1     -12.285  10.727  70.954  1.00  0.00    -0.487 C  
HETATM   31  C   UNL     1     -11.357   9.756  70.869  1.00  0.00    -0.439 C  
BRANCH  31  32
HETATM   32  C   UNL     1     -11.427   8.451  71.534  1.00  0.00    -0.278 A  
HETATM   33  N   UNL     1     -10.265   8.047  72.103  1.00  0.00    -0.223 NA 
HETATM   34  C   UNL     1     -10.213   6.832  72.679  1.00  0.00    -0.186 A  
HETATM   35  C   UNL     1     -11.322   5.961  72.698  1.00  0.00    -0.337 A  
HETATM   36  C   UNL     1     -12.508   6.396  72.102  1.00  0.00    -0.173 A  
HETATM   37  C   UNL     1     -11.221   4.690  73.291  1.00  0.00    -0.411 A  
HETATM   38  C   UNL     1     -10.020   4.279  73.862  1.00  0.00    -0.182 A  
HETATM   39  C   UNL     1     -12.560   7.651  71.507  1.00  0.00    -0.369 A  
HETATM   40  C   UNL     1      -8.930   5.143  73.850  1.00  0.00    -0.116 A  
HETATM   41  C   UNL     1      -9.031   6.405  73.266  1.00  0.00    -0.134 A  
HETATM   42 CL   UNL     1      -7.442   4.640  74.554  1.00  0.00    -0.083 Cl 
ENDBRANCH  31  32
ENDBRANCH  29  30
ENDBRANCH  10  24
ENDBRANCH   9  10
ENDBRANCH   8   9
ENDBRANCH   5   8
ENDBRANCH   3   5
TORSDOF 10
ENDMDL
MODEL       10
REMARK 921   NORMALIZED FREE ENERGY PREDICTED BY IDOCK:   -8.36 KCAL/MOL
REMARK 922        TOTAL FREE ENERGY PREDICTED BY IDOCK:  -14.90 KCAL/MOL
REMARK 923 INTER-LIGAND FREE ENERGY PREDICTED BY IDOCK:  -13.02 KCAL/MOL
REMARK 924 INTRA-LIGAND FREE ENERGY PREDICTED BY IDOCK:   -1.88 KCAL/MOL
REMARK 927      BINDING AFFINITY PREDICTED BY RF-SCORE:    0.00 PKD
ROOT
HETATM    1  O   UNL     1     -11.801   5.438  72.944  1.00  0.00    -0.263 OA 
HETATM    2  C   UNL     1     -10.921   6.038  72.102  1.00  0.00    -0.267 C  
HETATM    3  C   UNL     1     -11.602   6.900  71.058  1.00  0.00    -0.374 C  
HETATM    4  O   UNL     1      -9.715   5.912  72.240  1.00  0.00    -0.160 OA 
ENDROOT
BRANCH   3   5
HETATM    5  C   UNL     1     -10.770   7.130  69.797  1.00  0.00    -0.257 C  
HETATM    6  C   UNL     1     -11.278   6.490  68.512  1.00  0.00    -0.287 C  
HETATM    7  C   UNL     1     -10.076   5.914  69.205  1.00  0.00    -0.244 C  
BRANCH   5   8
HETATM    8  C   UNL     1     -10.082   8.489  69.794  1.00  0.00    -0.197 C  
BRANCH   8   9
HETATM    9  S   UNL     1     -10.598   9.711  71.018  1.00  0.00    -0.220 SA 
BRANCH   9  10
HETATM   10  C   UNL     1     -12.029  10.497  70.133  1.00  0.00    -0.316 C  
BRANCH  10  11
HETATM   11  C   UNL     1     -11.894  10.523  68.592  1.00  0.00    -0.047 C  
BRANCH  11  12
HETATM   12  C   UNL     1     -10.826  11.495  68.044  1.00  0.00    -0.259 C  
BRANCH  12  13
HETATM   13  C   UNL     1     -11.157  11.985  66.640  1.00  0.00    -0.358 A  
HETATM   14  C   UNL     1     -12.107  13.036  66.577  1.00  0.00    -0.410 A  
HETATM   15  C   UNL     1     -11.942  13.156  64.198  1.00  0.00    -0.499 A  
HETATM   16  H   UNL     1      -7.703  10.091  66.123  1.00  0.00     0.000 HD 
HETATM   17  C   UNL     1     -12.509  13.603  65.375  1.00  0.00    -0.537 A  
HETATM   18  C   UNL     1      -8.930  10.141  63.954  1.00  0.00    -0.270 C  
HETATM   19  C   UNL     1     -10.984  12.141  64.232  1.00  0.00    -0.391 A  
HETATM   20  C   UNL     1     -10.566  11.515  65.434  1.00  0.00    -0.336 A  
HETATM   21  O   UNL     1      -8.362  10.774  66.164  1.00  0.00    -0.156 OA 
HETATM   22  C   UNL     1     -10.014   9.054  65.883  1.00  0.00    -0.169 C  
HETATM   23  C   UNL     1      -9.497  10.405  65.368  1.00  0.00    -0.232 C  
ENDBRANCH  12  13
ENDBRANCH  11  12
ENDBRANCH  10  11
BRANCH  10  24
HETATM   24  C   UNL     1     -12.366  11.846  70.773  1.00  0.00    -0.416 A  
HETATM   25  C   UNL     1     -12.988  14.387  71.831  1.00  0.00    -0.426 A  
HETATM   26  C   UNL     1     -13.189  11.976  71.902  1.00  0.00    -0.469 A  
HETATM   27  C   UNL     1     -11.864  13.029  70.188  1.00  0.00    -0.324 A  
HETATM   28  C   UNL     1     -13.498  13.234  72.424  1.00  0.00    -0.670 A  
HETATM   29  C   UNL     1     -12.151  14.300  70.715  1.00  0.00    -0.418 A  
BRANCH  29  30
HETATM   30  C   UNL     1     -11.629  15.492  70.028  1.00  0.00    -0.356 C  
HETATM   31  C   UNL     1     -10.738  15.468  69.020  1.00  0.00    -0.243 C  
BRANCH  31  32
HETATM   32  C   UNL     1     -10.188  16.646  68.341  1.00  0.00    -0.284 A  
HETATM   33  N   UNL     1      -9.116  17.200  68.957  1.00  0.00    -0.185 NA 
HETATM   34  C   UNL     1      -8.583  18.325  68.444  1.00  0.00    -0.299 A  
HETATM   35  C   UNL     1      -9.112  18.953  67.299  1.00  0.00    -0.301 A  
HETATM   36  C   UNL     1     -10.221  18.368  66.682  1.00  0.00    -0.416 A  
HETATM   37  C   UNL     1      -8.540  20.140  66.807  1.00  0.00    -0.378 A  
HETATM   38  C   UNL     1      -7.446  20.708  67.454  1.00  0.00    -0.384 A  
HETATM   39  C   UNL     1     -10.770  17.207  67.213  1.00  0.00    -0.208 A  
HETATM   40  C   UNL     1      -6.920  20.082  68.578  1.00  0.00    -0.289 A  
HETATM   41  C   UNL     1      -7.485  18.903  69.063  1.00  0.00    -0.303 A  
HETATM   42 CL   UNL     1      -5.567  20.780  69.382  1.00  0.00    -0.403 Cl 
ENDBRANCH  31  32
ENDBRANCH  29  30
ENDBRANCH  10  24
ENDBRANCH   9  10
ENDBRANCH   8   9
ENDBRANCH   5   8
ENDBRANCH   3   5
TORSDOF 10
ENDMDL
MODEL       11
REMARK 921   NORMALIZED FREE ENERGY PREDICTED BY IDOCK:   -8.14 KCAL/MOL
REMARK 922        TOTAL FREE ENERGY PREDICTED BY IDOCK:  -14.56 KCAL/MOL
REMARK 923 INTER-LIGAND FREE ENERGY PREDICTED BY IDOCK:  -12.21 KCAL/MOL
REMARK 924 INTRA-LIGAND FREE ENERGY PREDICTED BY IDOCK:   -2.35 KCAL/MOL
REMARK 927      BINDING AFFINITY PREDICTED BY RF-SCORE:    0.00 PKD
ROOT
HETATM    1  O   UNL     1     -11.123  17.823  64.773  1.00  0.00    -0.852 OA 
HETATM    2  C   UNL     1     -10.348  17.503  65.840  1.00  0.00    -0.259 C  
HETATM    3  C   UNL     1     -10.980  17.890  67.162  1.00  0.00    -0.008 C  
HETATM    4  O   UNL     1      -9.285  16.918  65.708  1.00  0.00    -0.527 OA 
ENDROOT
BRANCH   3   5
HETATM    5  C   UNL     1      -9.980  18.079  68.302  1.00  0.00    -0.374 C  
HETATM    6  C   UNL     1      -9.842  19.485  68.870  1.00  0.00    -0.522 C  
HETATM    7  C   UNL     1      -8.752  18.923  68.002  1.00  0.00    -0.330 C  
BRANCH   5   8
HETATM    8  C   UNL     1      -9.870  16.845  69.190  1.00  0.00    -0.206 C  
BRANCH   8   9
HETATM    9  S   UNL     1     -11.387  16.145  69.870  1.00  0.00    -0.274 SA 
BRANCH   9  10
HETATM   10  C   UNL     1     -11.290  14.412  69.206  1.00  0.00    -0.284 C  
BRANCH  10  11
HETATM   11  C   UNL     1     -11.741  14.264  67.733  1.00  0.00    -0.408 C  
BRANCH  11  12
HETATM   12  C   UNL     1     -10.595  14.118  66.709  1.00  0.00    -0.277 C  
BRANCH  12  13
HETATM   13  C   UNL     1     -10.394  12.673  66.268  1.00  0.00    -0.269 A  
HETATM   14  C   UNL     1      -9.442  11.941  67.022  1.00  0.00    -0.192 A  
HETATM   15  C   UNL     1      -9.833   9.960  65.747  1.00  0.00    -0.356 A  
HETATM   16  H   UNL     1     -13.905  13.608  64.661  1.00  0.00     0.000 HD 
HETATM   17  C   UNL     1      -9.150  10.610  66.756  1.00  0.00    -0.167 A  
HETATM   18  C   UNL     1     -12.892  11.739  63.360  1.00  0.00    -0.310 C  
HETATM   19  C   UNL     1     -10.796  10.649  65.007  1.00  0.00     0.058 A  
HETATM   20  C   UNL     1     -11.104  12.016  65.226  1.00  0.00    -0.367 A  
HETATM   21  O   UNL     1     -13.237  13.195  65.195  1.00  0.00    -0.683 OA 
HETATM   22  C   UNL     1     -11.641  13.857  63.527  1.00  0.00     0.284 C  
HETATM   23  C   UNL     1     -12.189  12.687  64.359  1.00  0.00    -0.443 C  
ENDBRANCH  12  13
ENDBRANCH  11  12
ENDBRANCH  10  11
BRANCH  10  24
HETATM   24  C   UNL     1     -11.952  13.437  70.184  1.00  0.00    -0.396 A  
HETATM   25  C   UNL     1     -13.063  11.563  71.976  1.00  0.00    -0.430 A  
HETATM   26  C   UNL     1     -12.767  13.852  71.248  1.00  0.00    -0.444 A  
HETATM   27  C   UNL     1     -11.708  12.053  70.045  1.00  0.00    -0.346 A  
HETATM   28  C   UNL     1     -13.315  12.924  72.136  1.00  0.00    -0.615 A  
HETATM   29  C   UNL     1     -12.270  11.107  70.920  1.00  0.00    -0.468 A  
BRANCH  29  30
HETATM   30  C   UNL     1     -11.938   9.685  70.741  1.00  0.00    -0.356 C  
HETATM   31  C   UNL     1     -10.856   9.226  70.085  1.00  0.00    -0.275 C  
BRANCH  31  32
HETATM   32  C   UNL     1     -10.524   7.813  69.875  1.00  0.00    -0.232 A  
HETATM   33  N   UNL     1      -9.862   7.556  68.721  1.00  0.00    -0.162 NA 
HETATM   34  C   UNL     1      -9.572   6.280  68.409  1.00  0.00    -0.121 A  
HETATM   35  C   UNL     1      -9.948   5.201  69.235  1.00  0.00    -0.280 A  
HETATM   36  C   UNL     1     -10.633   5.487  70.418  1.00  0.00    -0.350 A  
HETATM   37  C   UNL     1      -9.646   3.878  68.863  1.00  0.00    -0.200 A  
HETATM   38  C   UNL     1      -8.976   3.625  67.670  1.00  0.00    -0.165 A  
HETATM   39  C   UNL     1     -10.932   6.806  70.738  1.00  0.00    -0.306 A  
HETATM   40  C   UNL     1      -8.599   4.691  66.860  1.00  0.00    -0.104 A  
HETATM   41  C   UNL     1      -8.894   6.002  67.231  1.00  0.00    -0.107 A  
HETATM   42 CL   UNL     1      -7.771   4.383  65.383  1.00  0.00    -0.085 Cl 
ENDBRANCH  31  32
ENDBRANCH  29  30
ENDBRANCH  10  24
ENDBRANCH   9  10
ENDBRANCH   8   9
ENDBRANCH   5   8
ENDBRANCH   3   5
TORSDOF 10
ENDMDL
MODEL       12
REMARK 921   NORMALIZED FREE ENERGY PREDICTED BY IDOCK:   -8.14 KCAL/MOL
REMARK 922        TOTAL FREE ENERGY PREDICTED BY IDOCK:  -14.56 KCAL/MOL
REMARK 923 INTER-LIGAND FREE ENERGY PREDICTED BY IDOCK:  -12.92 KCAL/MOL
REMARK 924 INTRA-LIGAND FREE ENERGY PREDICTED BY IDOCK:   -1.64 KCAL/MOL
REMARK 927      BINDING AFFINITY PREDICTED BY RF-SCORE:    0.00 PKD
ROOT
HETATM    1  O   UNL     1      -9.037  10.599  62.935  1.00  0.00    -0.221 OA 
HETATM    2  C   UNL     1      -9.967  11.067  63.807  1.00  0.00    -0.350 C  
HETATM    3  C   UNL     1     -10.632  12.341  63.326  1.00  0.00    -0.312 C  
HETATM    4  O   UNL     1     -10.245  10.466  64.831  1.00  0.00    -0.338 OA 
ENDROOT
BRANCH   3   5
HETATM    5  C   UNL     1     -11.235  13.192  64.444  1.00  0.00    -0.403 C  
HETATM    6  C   UNL     1     -12.532  12.692  65.065  1.00  0.00    -0.556 C  
HETATM    7  C   UNL     1     -12.557  13.879  64.144  1.00  0.00    -0.142 C  
BRANCH   5   8
HETATM    8  C   UNL     1     -10.171  13.896  65.277  1.00  0.00    -0.344 C  
BRANCH   8   9
HETATM    9  S   UNL     1      -9.970  13.402  67.001  1.00  0.00    -0.252 SA 
BRANCH   9  10
HETATM   10  C   UNL     1     -11.383  14.319  67.785  1.00  0.00    -0.307 C  
BRANCH  10  11
HETATM   11  C   UNL     1     -11.147  15.840  67.951  1.00  0.00    -0.326 C  
BRANCH  11  12
HETATM   12  C   UNL     1      -9.670  16.259  68.121  1.00  0.00    -0.227 C  
BRANCH  12  13
HETATM   13  C   UNL     1      -9.440  17.721  67.762  1.00  0.00    -0.262 A  
HETATM   14  C   UNL     1     -10.615  18.467  67.489  1.00  0.00    -0.447 A  
HETATM   15  C   UNL     1      -9.363  20.467  67.125  1.00  0.00    -0.537 A  
HETATM   16  H   UNL     1      -6.043  16.706  69.555  1.00  0.00     0.000 HD 
HETATM   17  C   UNL     1     -10.579  19.814  67.157  1.00  0.00    -0.577 A  
HETATM   18  C   UNL     1      -5.614  18.646  68.050  1.00  0.00    -0.184 C  
HETATM   19  C   UNL     1      -8.191  19.764  67.418  1.00  0.00    -0.342 A  
HETATM   20  C   UNL     1      -8.180  18.382  67.732  1.00  0.00    -0.265 A  
HETATM   21  O   UNL     1      -6.872  17.128  69.362  1.00  0.00    -0.234 OA 
HETATM   22  C   UNL     1      -6.499  16.571  67.056  1.00  0.00    -0.221 C  
HETATM   23  C   UNL     1      -6.835  17.696  68.046  1.00  0.00    -0.193 C  
ENDBRANCH  12  13
ENDBRANCH  11  12
ENDBRANCH  10  11
BRANCH  10  24
HETATM   24  C   UNL     1     -11.839  13.596  69.055  1.00  0.00    -0.393 A  
HETATM   25  C   UNL     1     -12.570  12.189  71.389  1.00  0.00    -0.314 A  
HETATM   26  C   UNL     1     -12.516  14.238  70.103  1.00  0.00    -0.393 A  
HETATM   27  C   UNL     1     -11.536  12.226  69.213  1.00  0.00    -0.383 A  
HETATM   28  C   UNL     1     -12.877  13.542  71.258  1.00  0.00    -0.420 A  
HETATM   29  C   UNL     1     -11.910  11.508  70.362  1.00  0.00    -0.413 A  
BRANCH  29  30
HETATM   30  C   UNL     1     -11.523  10.093  70.477  1.00  0.00    -0.417 C  
HETATM   31  C   UNL     1     -11.433   9.414  71.635  1.00  0.00    -0.463 C  
BRANCH  31  32
HETATM   32  C   UNL     1     -11.024   8.011  71.770  1.00  0.00    -0.251 A  
HETATM   33  N   UNL     1     -10.725   7.398  70.600  1.00  0.00    -0.225 NA 
HETATM   34  C   UNL     1     -10.403   6.091  70.616  1.00  0.00    -0.222 A  
HETATM   35  C   UNL     1     -10.382   5.337  71.807  1.00  0.00    -0.277 A  
HETATM   36  C   UNL     1     -10.698   5.988  73.002  1.00  0.00    -0.279 A  
HETATM   37  C   UNL     1     -10.062   3.968  71.779  1.00  0.00    -0.199 A  
HETATM   38  C   UNL     1      -9.768   3.344  70.571  1.00  0.00    -0.161 A  
HETATM   39  C   UNL     1     -11.031   7.338  72.983  1.00  0.00    -0.388 A  
HETATM   40  C   UNL     1      -9.780   4.091  69.398  1.00  0.00    -0.135 A  
HETATM   41  C   UNL     1     -10.093   5.450  69.426  1.00  0.00    -0.304 A  
HETATM   42 CL   UNL     1      -9.417   3.325  67.900  1.00  0.00    -0.244 Cl 
ENDBRANCH  31  32
ENDBRANCH  29  30
ENDBRANCH  10  24
ENDBRANCH   9  10
ENDBRANCH   8   9
ENDBRANCH   5   8
ENDBRANCH   3   5
TORSDOF 10
ENDMDL
MODEL       13
REMARK 921   NORMALIZED FREE ENERGY PREDICTED BY IDOCK:   -8.11 KCAL/MOL
REMARK 922        TOTAL FREE ENERGY PREDICTED BY IDOCK:  -14.51 KCAL/MOL
REMARK 923 INTER-LIGAND FREE ENERGY PREDICTED BY IDOCK:  -11.27 KCAL/MOL
REMARK 924 INTRA-LIGAND FREE ENERGY PREDICTED BY IDOCK:   -3.24 KCAL/MOL
REMARK 927      BINDING AFFINITY PREDICTED BY RF-SCORE:    0.00 PKD
ROOT
HETATM    1  O   UNL     1     -10.920  19.440  67.702  1.00  0.00    -0.429 OA 
HETATM    2  C   UNL     1     -10.645  18.522  66.741  1.00  0.00    -0.354 C  
HETATM    3  C   UNL     1     -10.621  17.103  67.275  1.00  0.00    -0.270 C  
HETATM    4  O   UNL     1     -10.493  18.842  65.574  1.00  0.00    -0.569 OA 
ENDROOT
BRANCH   3   5
HETATM    5  C   UNL     1      -9.799  16.131  66.429  1.00  0.00    -0.304 C  
HETATM    6  C   UNL     1      -8.629  15.441  67.117  1.00  0.00    -0.235 C  
HETATM    7  C   UNL     1      -8.366  16.535  66.121  1.00  0.00    -0.305 C  
BRANCH   5   8
HETATM    8  C   UNL     1     -10.642  15.416  65.380  1.00  0.00    -0.410 C  
BRANCH   8   9
HETATM    9  S   UNL     1     -11.994  14.363  65.944  1.00  0.00    -0.327 SA 
BRANCH   9  10
HETATM   10  C   UNL     1     -11.050  13.068  66.882  1.00  0.00    -0.277 C  
BRANCH  10  11
HETATM   11  C   UNL     1     -10.916  11.713  66.146  1.00  0.00    -0.339 C  
BRANCH  11  12
HETATM   12  C   UNL     1      -9.469  11.288  65.814  1.00  0.00    -0.252 C  
BRANCH  12  13
HETATM   13  C   UNL     1      -8.725  10.765  67.037  1.00  0.00    -0.136 A  
HETATM   14  C   UNL     1      -8.139  11.763  67.857  1.00  0.00    -0.144 A  
HETATM   15  C   UNL     1      -7.331  10.135  69.404  1.00  0.00    -0.106 A  
HETATM   16  H   UNL     1     -11.043   7.698  66.036  1.00  0.00     0.000 HD 
HETATM   17  C   UNL     1      -7.436  11.455  69.014  1.00  0.00    -0.093 A  
HETATM   18  C   UNL     1      -9.088   6.847  67.325  1.00  0.00    -0.127 C  
HETATM   19  C   UNL     1      -7.922   9.133  68.631  1.00  0.00    -0.101 A  
HETATM   20  C   UNL     1      -8.623   9.402  67.428  1.00  0.00    -0.125 A  
HETATM   21  O   UNL     1     -10.660   8.422  66.517  1.00  0.00    -0.204 OA 
HETATM   22  C   UNL     1      -8.659   8.079  65.234  1.00  0.00    -0.112 C  
HETATM   23  C   UNL     1      -9.245   8.227  66.646  1.00  0.00    -0.179 C  
ENDBRANCH  12  13
ENDBRANCH  11  12
ENDBRANCH  10  11
BRANCH  10  24
HETATM   24  C   UNL     1     -11.573  12.972  68.318  1.00  0.00    -0.375 A  
HETATM   25  C   UNL     1     -12.443  12.705  70.988  1.00  0.00    -0.354 A  
HETATM   26  C   UNL     1     -12.072  14.075  69.028  1.00  0.00    -0.358 A  
HETATM   27  C   UNL     1     -11.521  11.730  68.987  1.00  0.00    -0.358 A  
HETATM   28  C   UNL     1     -12.501  13.942  70.350  1.00  0.00    -0.404 A  
HETATM   29  C   UNL     1     -11.968  11.579  70.312  1.00  0.00    -0.455 A  
BRANCH  29  30
HETATM   30  C   UNL     1     -11.843  10.264  70.961  1.00  0.00    -0.472 C  
HETATM   31  C   UNL     1     -10.739   9.496  70.933  1.00  0.00    -0.403 C  
BRANCH  31  32
HETATM   32  C   UNL     1     -10.606   8.172  71.551  1.00  0.00    -0.228 A  
HETATM   33  N   UNL     1     -10.249   7.185  70.695  1.00  0.00    -0.195 NA 
HETATM   34  C   UNL     1     -10.167   5.924  71.157  1.00  0.00    -0.212 A  
HETATM   35  C   UNL     1     -10.455   5.595  72.498  1.00  0.00    -0.255 A  
HETATM   36  C   UNL     1     -10.826   6.627  73.362  1.00  0.00    -0.264 A  
HETATM   37  C   UNL     1     -10.379   4.261  72.937  1.00  0.00    -0.241 A  
HETATM   38  C   UNL     1     -10.023   3.252  72.047  1.00  0.00    -0.222 A  
HETATM   39  C   UNL     1     -10.911   7.929  72.883  1.00  0.00    -0.451 A  
HETATM   40  C   UNL     1      -9.730   3.579  70.727  1.00  0.00    -0.137 A  
HETATM   41  C   UNL     1      -9.801   4.903  70.293  1.00  0.00    -0.306 A  
HETATM   42 CL   UNL     1      -9.289   2.336  69.622  1.00  0.00    -0.184 Cl 
ENDBRANCH  31  32
ENDBRANCH  29  30
ENDBRANCH  10  24
ENDBRANCH   9  10
ENDBRANCH   8   9
ENDBRANCH   5   8
ENDBRANCH   3   5
TORSDOF 10
ENDMDL
MODEL       14
REMARK 921   NORMALIZED FREE ENERGY PREDICTED BY IDOCK:   -8.10 KCAL/MOL
REMARK 922        TOTAL FREE ENERGY PREDICTED BY IDOCK:  -14.49 KCAL/MOL
REMARK 923 INTER-LIGAND FREE ENERGY PREDICTED BY IDOCK:  -11.98 KCAL/MOL
REMARK 924 INTRA-LIGAND FREE ENERGY PREDICTED BY IDOCK:   -2.51 KCAL/MOL
REMARK 927      BINDING AFFINITY PREDICTED BY RF-SCORE:    0.00 PKD
ROOT
HETATM    1  O   UNL     1     -11.144  11.058  63.606  1.00  0.00    -0.216 OA 
HETATM    2  C   UNL     1     -11.478  12.283  64.085  1.00  0.00    -0.383 C  
HETATM    3  C   UNL     1     -10.273  13.176  64.304  1.00  0.00    -0.283 C  
HETATM    4  O   UNL     1     -12.641  12.609  64.258  1.00  0.00    -0.593 OA 
ENDROOT
BRANCH   3   5
HETATM    5  C   UNL     1     -10.498  14.292  65.323  1.00  0.00    -0.408 C  
HETATM    6  C   UNL     1     -11.174  15.560  64.816  1.00  0.00    -0.399 C  
HETATM    7  C   UNL     1      -9.703  15.572  65.123  1.00  0.00     0.036 C  
BRANCH   5   8
HETATM    8  C   UNL     1     -10.758  13.756  66.726  1.00  0.00    -0.276 C  
BRANCH   8   9
HETATM    9  S   UNL     1     -12.337  14.141  67.509  1.00  0.00     0.106 SA 
BRANCH   9  10
HETATM   10  C   UNL     1     -11.765  14.636  69.205  1.00  0.00    -0.312 C  
BRANCH  10  11
HETATM   11  C   UNL     1     -10.237  14.848  69.330  1.00  0.00    -0.219 C  
BRANCH  11  12
HETATM   12  C   UNL     1      -9.787  16.322  69.439  1.00  0.00    -0.217 C  
BRANCH  12  13
HETATM   13  C   UNL     1      -8.653  16.652  68.478  1.00  0.00    -0.234 A  
HETATM   14  C   UNL     1      -7.689  15.625  68.308  1.00  0.00    -0.130 A  
HETATM   15  C   UNL     1      -6.462  16.924  66.724  1.00  0.00    -0.247 A  
HETATM   16  H   UNL     1     -11.448  19.296  67.488  1.00  0.00     0.000 HD 
HETATM   17  C   UNL     1      -6.600  15.763  67.459  1.00  0.00    -0.213 A  
HETATM   18  C   UNL     1      -9.220  20.181  66.806  1.00  0.00    -0.487 C  
HETATM   19  C   UNL     1      -7.411  17.941  66.850  1.00  0.00    -0.227 A  
HETATM   20  C   UNL     1      -8.522  17.853  67.727  1.00  0.00    -0.242 A  
HETATM   21  O   UNL     1     -10.834  18.572  67.448  1.00  0.00    -0.421 OA 
HETATM   22  C   UNL     1      -9.591  19.666  69.188  1.00  0.00    -0.318 C  
HETATM   23  C   UNL     1      -9.519  19.029  67.792  1.00  0.00    -0.304 C  
ENDBRANCH  12  13
ENDBRANCH  11  12
ENDBRANCH  10  11
BRANCH  10  24
HETATM   24  C   UNL     1     -12.375  13.706  70.258  1.00  0.00    -0.392 A  
HETATM   25  C   UNL     1     -13.386  11.919  72.193  1.00  0.00    -0.361 A  
HETATM   26  C   UNL     1     -13.201  14.160  71.297  1.00  0.00    -0.399 A  
HETATM   27  C   UNL     1     -12.067  12.328  70.219  1.00  0.00    -0.376 A  
HETATM   28  C   UNL     1     -13.701  13.275  72.255  1.00  0.00    -0.686 A  
HETATM   29  C   UNL     1     -12.578  11.424  71.166  1.00  0.00    -0.490 A  
BRANCH  29  30
HETATM   30  C   UNL     1     -12.181  10.009  71.089  1.00  0.00    -0.477 C  
HETATM   31  C   UNL     1     -11.312   9.504  70.194  1.00  0.00    -0.241 C  
BRANCH  31  32
HETATM   32  C   UNL     1     -10.925   8.093  70.086  1.00  0.00    -0.223 A  
HETATM   33  N   UNL     1     -11.077   7.380  71.228  1.00  0.00    -0.243 NA 
HETATM   34  C   UNL     1     -10.686   6.092  71.245  1.00  0.00    -0.256 A  
HETATM   35  C   UNL     1     -10.109   5.467  70.121  1.00  0.00    -0.308 A  
HETATM   36  C   UNL     1      -9.957   6.222  68.956  1.00  0.00    -0.175 A  
HETATM   37  C   UNL     1      -9.692   4.125  70.186  1.00  0.00    -0.278 A  
HETATM   38  C   UNL     1      -9.841   3.404  71.367  1.00  0.00    -0.204 A  
HETATM   39  C   UNL     1     -10.362   7.552  68.939  1.00  0.00    -0.220 A  
HETATM   40  C   UNL     1     -10.418   4.020  72.472  1.00  0.00    -0.117 A  
HETATM   41  C   UNL     1     -10.835   5.349  72.406  1.00  0.00    -0.297 A  
HETATM   42 CL   UNL     1     -10.605   3.134  73.936  1.00  0.00    -0.247 Cl 
ENDBRANCH  31  32
ENDBRANCH  29  30
ENDBRANCH  10  24
ENDBRANCH   9  10
ENDBRANCH   8   9
ENDBRANCH   5   8
ENDBRANCH   3   5
TORSDOF 10
ENDMDL
MODEL       15
REMARK 921   NORMALIZED FREE ENERGY PREDICTED BY IDOCK:   -8.10 KCAL/MOL
REMARK 922        TOTAL FREE ENERGY PREDICTED BY IDOCK:  -14.49 KCAL/MOL
REMARK 923 INTER-LIGAND FREE ENERGY PREDICTED BY IDOCK:  -12.27 KCAL/MOL
REMARK 924 INTRA-LIGAND FREE ENERGY PREDICTED BY IDOCK:   -2.22 KCAL/MOL
REMARK 927      BINDING AFFINITY PREDICTED BY RF-SCORE:    0.00 PKD
ROOT
HETATM    1  O   UNL     1     -11.132  17.419  64.606  1.00  0.00    -1.029 OA 
HETATM    2  C   UNL     1     -10.370  17.062  65.671  1.00  0.00    -0.209 C  
HETATM    3  C   UNL     1     -10.783  17.766  66.948  1.00  0.00    -0.165 C  
HETATM    4  O   UNL     1      -9.491  16.222  65.578  1.00  0.00    -0.451 OA 
ENDROOT
BRANCH   3   5
HETATM    5  C   UNL     1      -9.677  17.852  68.000  1.00  0.00    -0.303 C  
HETATM    6  C   UNL     1      -9.249  19.248  68.433  1.00  0.00    -0.409 C  
HETATM    7  C   UNL     1      -8.348  18.434  67.548  1.00  0.00    -0.259 C  
BRANCH   5   8
HETATM    8  C   UNL     1      -9.717  16.689  68.983  1.00  0.00    -0.260 C  
BRANCH   8   9
HETATM    9  S   UNL     1     -11.326  16.109  69.556  1.00  0.00    -0.293 SA 
BRANCH   9  10
HETATM   10  C   UNL     1     -11.236  14.318  69.073  1.00  0.00    -0.266 C  
BRANCH  10  11
HETATM   11  C   UNL     1     -11.651  14.027  67.610  1.00  0.00    -0.385 C  
BRANCH  11  12
HETATM   12  C   UNL     1     -10.506  13.560  66.684  1.00  0.00    -0.274 C  
BRANCH  12  13
HETATM   13  C   UNL     1      -9.454  12.749  67.430  1.00  0.00    -0.190 A  
HETATM   14  C   UNL     1      -8.459  13.516  68.089  1.00  0.00    -0.172 A  
HETATM   15  C   UNL     1      -7.398  11.557  68.947  1.00  0.00    -0.116 A  
HETATM   16  H   UNL     1     -12.424  10.148  66.992  1.00  0.00     0.000 HD 
HETATM   17  C   UNL     1      -7.435  12.932  68.821  1.00  0.00    -0.047 A  
HETATM   18  C   UNL     1     -10.289   8.896  67.277  1.00  0.00    -0.350 C  
HETATM   19  C   UNL     1      -8.381  10.778  68.333  1.00  0.00    -0.132 A  
HETATM   20  C   UNL     1      -9.427  11.333  67.552  1.00  0.00    -0.177 A  
HETATM   21  O   UNL     1     -11.783  10.729  67.382  1.00  0.00    -0.462 OA 
HETATM   22  C   UNL     1     -10.478  10.463  65.384  1.00  0.00    -0.187 C  
HETATM   23  C   UNL     1     -10.470  10.389  66.918  1.00  0.00    -0.240 C  
ENDBRANCH  12  13
ENDBRANCH  11  12
ENDBRANCH  10  11
BRANCH  10  24
HETATM   24  C   UNL     1     -11.935  13.453  70.125  1.00  0.00    -0.396 A  
HETATM   25  C   UNL     1     -13.116  11.780  72.066  1.00  0.00    -0.436 A  
HETATM   26  C   UNL     1     -12.766  13.982  71.124  1.00  0.00    -0.436 A  
HETATM   27  C   UNL     1     -11.711  12.059  70.129  1.00  0.00    -0.316 A  
HETATM   28  C   UNL     1     -13.350  13.154  72.085  1.00  0.00    -0.621 A  
HETATM   29  C   UNL     1     -12.307  11.211  71.078  1.00  0.00    -0.487 A  
BRANCH  29  30
HETATM   30  C   UNL     1     -11.994   9.774  71.048  1.00  0.00    -0.440 C  
HETATM   31  C   UNL     1     -10.844   9.229  71.486  1.00  0.00    -0.442 C  
BRANCH  31  32
HETATM   32  C   UNL     1     -10.505   7.803  71.439  1.00  0.00    -0.208 A  
HETATM   33  N   UNL     1     -10.235   7.330  70.198  1.00  0.00    -0.200 NA 
HETATM   34  C   UNL     1      -9.978   6.017  70.046  1.00  0.00    -0.177 A  
HETATM   35  C   UNL     1      -9.997   5.118  71.132  1.00  0.00    -0.272 A  
HETATM   36  C   UNL     1     -10.282   5.626  72.401  1.00  0.00    -0.232 A  
HETATM   37  C   UNL     1      -9.745   3.749  70.928  1.00  0.00    -0.248 A  
HETATM   38  C   UNL     1      -9.480   3.270  69.649  1.00  0.00    -0.209 A  
HETATM   39  C   UNL     1     -10.547   6.982  72.556  1.00  0.00    -0.255 A  
HETATM   40  C   UNL     1      -9.455   4.160  68.580  1.00  0.00    -0.156 A  
HETATM   41  C   UNL     1      -9.700   5.518  68.783  1.00  0.00    -0.190 A  
HETATM   42 CL   UNL     1      -9.128   3.575  66.995  1.00  0.00    -0.171 Cl 
ENDBRANCH  31  32
ENDBRANCH  29  30
ENDBRANCH  10  24
ENDBRANCH   9  10
ENDBRANCH   8   9
ENDBRANCH   5   8
ENDBRANCH   3   5
TORSDOF 10
ENDMDL
MODEL       16
REMARK 921   NORMALIZED FREE ENERGY PREDICTED BY IDOCK:   -8.05 KCAL/MOL
REMARK 922        TOTAL FREE ENERGY PREDICTED BY IDOCK:  -14.41 KCAL/MOL
REMARK 923 INTER-LIGAND FREE ENERGY PREDICTED BY IDOCK:  -12.86 KCAL/MOL
REMARK 924 INTRA-LIGAND FREE ENERGY PREDICTED BY IDOCK:   -1.54 KCAL/MOL
REMARK 927      BINDING AFFINITY PREDICTED BY RF-SCORE:    0.00 PKD
ROOT
HETATM    1  O   UNL     1     -13.016  14.375  64.902  1.00  0.00    -0.641 OA 
HETATM    2  C   UNL     1     -12.744  13.095  65.263  1.00  0.00    -0.394 C  
HETATM    3  C   UNL     1     -11.996  13.002  66.577  1.00  0.00    -0.457 C  
HETATM    4  O   UNL     1     -13.126  12.147  64.596  1.00  0.00    -0.673 OA 
ENDROOT
BRANCH   3   5
HETATM    5  C   UNL     1     -11.195  11.711  66.750  1.00  0.00    -0.371 C  
HETATM    6  C   UNL     1      -9.741  11.739  66.300  1.00  0.00    -0.242 C  
HETATM    7  C   UNL     1     -10.760  11.001  65.479  1.00  0.00    -0.218 C  
BRANCH   5   8
HETATM    8  C   UNL     1     -11.637  10.911  67.970  1.00  0.00    -0.215 C  
BRANCH   8   9
HETATM    9  S   UNL     1     -10.468  10.708  69.329  1.00  0.00    -0.222 SA 
BRANCH   9  10
HETATM   10  C   UNL     1     -11.637  10.542  70.762  1.00  0.00    -0.338 C  
BRANCH  10  11
HETATM   11  C   UNL     1     -12.600   9.334  70.667  1.00  0.00     0.061 C  
BRANCH  11  12
HETATM   12  C   UNL     1     -12.236   8.133  71.568  1.00  0.00    -0.332 C  
BRANCH  12  13
HETATM   13  C   UNL     1     -11.240   7.193  70.902  1.00  0.00    -0.305 A  
HETATM   14  C   UNL     1     -11.650   6.671  69.648  1.00  0.00    -0.305 A  
HETATM   15  C   UNL     1      -9.602   5.471  69.384  1.00  0.00    -0.196 A  
HETATM   16  H   UNL     1      -8.993   9.138  73.538  1.00  0.00     0.000 HD 
HETATM   17  C   UNL     1     -10.853   5.809  68.906  1.00  0.00    -0.305 A  
HETATM   18  C   UNL     1      -7.917   6.951  73.016  1.00  0.00    -0.113 C  
HETATM   19  C   UNL     1      -9.161   5.992  70.603  1.00  0.00    -0.161 A  
HETATM   20  C   UNL     1      -9.954   6.852  71.405  1.00  0.00    -0.190 A  
HETATM   21  O   UNL     1      -9.349   8.813  72.719  1.00  0.00    -0.275 OA 
HETATM   22  C   UNL     1     -10.197   6.936  73.954  1.00  0.00    -0.401 C  
HETATM   23  C   UNL     1      -9.376   7.380  72.734  1.00  0.00    -0.156 C  
ENDBRANCH  12  13
ENDBRANCH  11  12
ENDBRANCH  10  11
BRANCH  10  24
HETATM   24  C   UNL     1     -12.315  11.885  71.047  1.00  0.00    -0.362 A  
HETATM   25  C   UNL     1     -13.547  14.392  71.444  1.00  0.00    -0.431 A  
HETATM   26  C   UNL     1     -13.367  12.035  71.963  1.00  0.00    -0.447 A  
HETATM   27  C   UNL     1     -11.899  13.030  70.334  1.00  0.00    -0.245 A  
HETATM   28  C   UNL     1     -13.978  13.275  72.159  1.00  0.00    -0.471 A  
HETATM   29  C   UNL     1     -12.492  14.289  70.534  1.00  0.00    -0.428 A  
BRANCH  29  30
HETATM   30  C   UNL     1     -12.037  15.429  69.724  1.00  0.00    -0.373 C  
HETATM   31  C   UNL     1     -10.781  15.596  69.270  1.00  0.00    -0.239 C  
BRANCH  31  32
HETATM   32  C   UNL     1     -10.305  16.739  68.484  1.00  0.00    -0.316 A  
HETATM   33  N   UNL     1      -9.158  17.297  68.941  1.00  0.00    -0.221 NA 
HETATM   34  C   UNL     1      -8.678  18.392  68.323  1.00  0.00    -0.302 A  
HETATM   35  C   UNL     1      -9.337  18.986  67.228  1.00  0.00    -0.344 A  
HETATM   36  C   UNL     1     -10.520  18.398  66.776  1.00  0.00    -0.415 A  
HETATM   37  C   UNL     1      -8.815  20.144  66.624  1.00  0.00    -0.382 A  
HETATM   38  C   UNL     1      -7.643  20.717  67.108  1.00  0.00    -0.364 A  
HETATM   39  C   UNL     1     -11.015  17.266  67.415  1.00  0.00    -0.053 A  
HETATM   40  C   UNL     1      -6.989  20.124  68.183  1.00  0.00    -0.291 A  
HETATM   41  C   UNL     1      -7.504  18.973  68.780  1.00  0.00    -0.369 A  
HETATM   42 CL   UNL     1      -5.539  20.827  68.787  1.00  0.00    -0.361 Cl 
ENDBRANCH  31  32
ENDBRANCH  29  30
ENDBRANCH  10  24
ENDBRANCH   9  10
ENDBRANCH   8   9
ENDBRANCH   5   8
ENDBRANCH   3   5
TORSDOF 10
ENDMDL
MODEL       17
REMARK 921   NORMALIZED FREE ENERGY PREDICTED BY IDOCK:   -8.00 KCAL/MOL
REMARK 922        TOTAL FREE ENERGY PREDICTED BY IDOCK:  -14.34 KCAL/MOL
REMARK 923 INTER-LIGAND FREE ENERGY PREDICTED BY IDOCK:  -10.92 KCAL/MOL
REMARK 924 INTRA-LIGAND FREE ENERGY PREDICTED BY IDOCK:   -3.42 KCAL/MOL
REMARK 927      BINDING AFFINITY PREDICTED BY RF-SCORE:    0.00 PKD
ROOT
HETATM    1  O   UNL     1     -11.587   2.139  73.353  1.00  0.00    -0.193 OA 
HETATM    2  C   UNL     1     -10.581   3.050  73.331  1.00  0.00    -0.174 C  
HETATM    3  C   UNL     1     -11.043   4.444  73.703  1.00  0.00    -0.361 C  
HETATM    4  O   UNL     1      -9.430   2.727  73.085  1.00  0.00    -0.088 OA 
ENDROOT
BRANCH   3   5
HETATM    5  C   UNL     1     -10.147   5.562  73.171  1.00  0.00    -0.201 C  
HETATM    6  C   UNL     1      -9.018   6.029  74.081  1.00  0.00    -0.128 C  
HETATM    7  C   UNL     1     -10.227   6.901  73.887  1.00  0.00    -0.401 C  
BRANCH   5   8
HETATM    8  C   UNL     1      -9.980   5.505  71.658  1.00  0.00    -0.182 C  
BRANCH   8   9
HETATM    9  S   UNL     1     -11.268   6.236  70.628  1.00  0.00    -0.332 SA 
BRANCH   9  10
HETATM   10  C   UNL     1     -10.434   7.810  70.103  1.00  0.00    -0.231 C  
BRANCH  10  11
HETATM   11  C   UNL     1      -8.935   7.897  70.479  1.00  0.00    -0.145 C  
BRANCH  11  12
HETATM   12  C   UNL     1      -7.967   8.050  69.285  1.00  0.00    -0.116 C  
BRANCH  12  13
HETATM   13  C   UNL     1      -7.928   9.477  68.753  1.00  0.00    -0.088 A  
HETATM   14  C   UNL     1      -7.388  10.438  69.645  1.00  0.00    -0.156 A  
HETATM   15  C   UNL     1      -7.661  12.195  68.051  1.00  0.00    -0.123 A  
HETATM   16  H   UNL     1      -8.308   7.311  65.444  1.00  0.00     0.000 HD 
HETATM   17  C   UNL     1      -7.271  11.780  69.310  1.00  0.00     0.009 A  
HETATM   18  C   UNL     1      -9.171   9.608  65.009  1.00  0.00    -0.310 C  
HETATM   19  C   UNL     1      -8.170  11.265  67.142  1.00  0.00    -0.149 A  
HETATM   20  C   UNL     1      -8.333   9.891  67.454  1.00  0.00    -0.118 A  
HETATM   21  O   UNL     1      -7.959   7.895  66.106  1.00  0.00    -0.097 OA 
HETATM   22  C   UNL     1     -10.222   8.287  66.806  1.00  0.00    -0.375 C  
HETATM   23  C   UNL     1      -8.900   8.942  66.378  1.00  0.00    -0.152 C  
ENDBRANCH  12  13
ENDBRANCH  11  12
ENDBRANCH  10  11
BRANCH  10  24
HETATM   24  C   UNL     1     -11.275   9.018  70.526  1.00  0.00    -0.301 A  
HETATM   25  C   UNL     1     -12.825  11.283  71.178  1.00  0.00    -0.452 A  
HETATM   26  C   UNL     1     -12.254   8.957  71.528  1.00  0.00    -0.388 A  
HETATM   27  C   UNL     1     -11.096  10.248  69.857  1.00  0.00    -0.362 A  
HETATM   28  C   UNL     1     -13.022  10.078  71.850  1.00  0.00    -0.547 A  
HETATM   29  C   UNL     1     -11.849  11.390  70.184  1.00  0.00    -0.440 A  
BRANCH  29  30
HETATM   30  C   UNL     1     -11.639  12.627  69.416  1.00  0.00    -0.369 C  
HETATM   31  C   UNL     1     -11.256  12.674  68.127  1.00  0.00    -0.311 C  
BRANCH  31  32
HETATM   32  C   UNL     1     -11.017  13.897  67.354  1.00  0.00    -0.288 A  
HETATM   33  N   UNL     1     -10.876  15.018  68.103  1.00  0.00    -0.255 NA 
HETATM   34  C   UNL     1     -10.719  16.200  67.480  1.00  0.00    -0.304 A  
HETATM   35  C   UNL     1     -10.713  16.313  66.074  1.00  0.00    -0.217 A  
HETATM   36  C   UNL     1     -10.864  15.146  65.321  1.00  0.00    -0.414 A  
HETATM   37  C   UNL     1     -10.569  17.570  65.460  1.00  0.00    -0.097 A  
HETATM   38  C   UNL     1     -10.437  18.716  66.238  1.00  0.00    -0.468 A  
HETATM   39  C   UNL     1     -11.026  13.926  65.966  1.00  0.00    -0.285 A  
HETATM   40  C   UNL     1     -10.435  18.602  67.624  1.00  0.00    -0.423 A  
HETATM   41  C   UNL     1     -10.574  17.355  68.233  1.00  0.00    -0.366 A  
HETATM   42 CL   UNL     1     -10.273  20.016  68.592  1.00  0.00    -0.523 Cl 
ENDBRANCH  31  32
ENDBRANCH  29  30
ENDBRANCH  10  24
ENDBRANCH   9  10
ENDBRANCH   8   9
ENDBRANCH   5   8
ENDBRANCH   3   5
TORSDOF 10
ENDMDL
MODEL       18
REMARK 921   NORMALIZED FREE ENERGY PREDICTED BY IDOCK:   -7.99 KCAL/MOL
REMARK 922        TOTAL FREE ENERGY PREDICTED BY IDOCK:  -14.32 KCAL/MOL
REMARK 923 INTER-LIGAND FREE ENERGY PREDICTED BY IDOCK:  -12.51 KCAL/MOL
REMARK 924 INTRA-LIGAND FREE ENERGY PREDICTED BY IDOCK:   -1.81 KCAL/MOL
REMARK 927      BINDING AFFINITY PREDICTED BY RF-SCORE:    0.00 PKD
ROOT
HETATM    1  O   UNL     1     -13.838  13.061  72.246  1.00  0.00    -0.525 OA 
HETATM    2  C   UNL     1     -12.790  13.154  71.388  1.00  0.00    -0.311 C  
HETATM    3  C   UNL     1     -12.346  14.584  71.158  1.00  0.00    -0.415 C  
HETATM    4  O   UNL     1     -12.258  12.162  70.916  1.00  0.00    -0.354 OA 
ENDROOT
BRANCH   3   5
HETATM    5  C   UNL     1     -11.598  14.803  69.842  1.00  0.00    -0.330 C  
HETATM    6  C   UNL     1     -10.233  15.472  69.930  1.00  0.00    -0.305 C  
HETATM    7  C   UNL     1     -11.407  16.243  69.396  1.00  0.00    -0.284 C  
BRANCH   5   8
HETATM    8  C   UNL     1     -11.887  13.709  68.821  1.00  0.00    -0.360 C  
BRANCH   8   9
HETATM    9  S   UNL     1     -12.232  14.199  67.119  1.00  0.00    -0.190 SA 
BRANCH   9  10
HETATM   10  C   UNL     1     -10.524  14.139  66.393  1.00  0.00    -0.283 C  
BRANCH  10  11
HETATM   11  C   UNL     1     -10.107  15.419  65.630  1.00  0.00    -0.406 C  
BRANCH  11  12
HETATM   12  C   UNL     1      -8.811  16.091  66.135  1.00  0.00    -0.366 C  
BRANCH  12  13
HETATM   13  C   UNL     1      -9.083  17.412  66.843  1.00  0.00    -0.258 A  
HETATM   14  C   UNL     1     -10.299  18.048  66.483  1.00  0.00    -0.376 A  
HETATM   15  C   UNL     1      -9.910  19.840  68.012  1.00  0.00    -0.533 A  
HETATM   16  H   UNL     1      -6.354  15.708  69.173  1.00  0.00     0.000 HD 
HETATM   17  C   UNL     1     -10.700  19.253  67.044  1.00  0.00    -0.565 A  
HETATM   18  C   UNL     1      -6.273  18.177  69.506  1.00  0.00    -0.235 C  
HETATM   19  C   UNL     1      -8.721  19.222  68.406  1.00  0.00    -0.395 A  
HETATM   20  C   UNL     1      -8.260  18.007  67.838  1.00  0.00    -0.248 A  
HETATM   21  O   UNL     1      -7.169  16.082  68.861  1.00  0.00    -0.145 OA 
HETATM   22  C   UNL     1      -5.874  17.291  67.240  1.00  0.00    -0.172 C  
HETATM   23  C   UNL     1      -6.936  17.399  68.345  1.00  0.00    -0.201 C  
ENDBRANCH  12  13
ENDBRANCH  11  12
ENDBRANCH  10  11
BRANCH  10  24
HETATM   24  C   UNL     1     -10.328  12.834  65.617  1.00  0.00    -0.296 A  
HETATM   25  C   UNL     1     -10.024  10.363  64.289  1.00  0.00    -0.368 A  
HETATM   26  C   UNL     1     -10.442  12.746  64.222  1.00  0.00    -0.423 A  
HETATM   27  C   UNL     1     -10.059  11.645  66.329  1.00  0.00    -0.254 A  
HETATM   28  C   UNL     1     -10.293  11.523  63.565  1.00  0.00    -0.484 A  
HETATM   29  C   UNL     1      -9.887  10.410  65.679  1.00  0.00    -0.321 A  
BRANCH  29  30
HETATM   30  C   UNL     1      -9.651   9.204  66.488  1.00  0.00    -0.289 C  
HETATM   31  C   UNL     1     -10.532   8.198  66.640  1.00  0.00    -0.204 C  
BRANCH  31  32
HETATM   32  C   UNL     1     -10.324   7.002  67.464  1.00  0.00    -0.225 A  
HETATM   33  N   UNL     1     -10.687   7.143  68.762  1.00  0.00    -0.198 NA 
HETATM   34  C   UNL     1     -10.472   6.121  69.610  1.00  0.00    -0.252 A  
HETATM   35  C   UNL     1      -9.869   4.915  69.196  1.00  0.00    -0.263 A  
HETATM   36  C   UNL     1      -9.499   4.793  67.855  1.00  0.00    -0.181 A  
HETATM   37  C   UNL     1      -9.641   3.878  70.119  1.00  0.00    -0.267 A  
HETATM   38  C   UNL     1     -10.006   4.037  71.452  1.00  0.00    -0.210 A  
HETATM   39  C   UNL     1      -9.721   5.850  66.980  1.00  0.00    -0.158 A  
HETATM   40  C   UNL     1     -10.608   5.223  71.857  1.00  0.00    -0.209 A  
HETATM   41  C   UNL     1     -10.838   6.250  70.941  1.00  0.00    -0.329 A  
HETATM   42 CL   UNL     1     -11.062   5.426  73.505  1.00  0.00    -0.326 Cl 
ENDBRANCH  31  32
ENDBRANCH  29  30
ENDBRANCH  10  24
ENDBRANCH   9  10
ENDBRANCH   8   9
ENDBRANCH   5   8
ENDBRANCH   3   5
TORSDOF 10
ENDMDL
MODEL       19
REMARK 921   NORMALIZED FREE ENERGY PREDICTED BY IDOCK:   -7.96 KCAL/MOL
REMARK 922        TOTAL FREE ENERGY PREDICTED BY IDOCK:  -14.27 KCAL/MOL
REMARK 923 INTER-LIGAND FREE ENERGY PREDICTED BY IDOCK:  -12.02 KCAL/MOL
REMARK 924 INTRA-LIGAND FREE ENERGY PREDICTED BY IDOCK:   -2.25 KCAL/MOL
REMARK 927      BINDING AFFINITY PREDICTED BY RF-SCORE:    0.00 PKD
ROOT
HETATM    1  O   UNL     1     -11.152  20.031  65.382  1.00  0.00    -0.267 OA 
HETATM    2  C   UNL     1     -10.418  19.475  66.379  1.00  0.00    -0.498 C  
HETATM    3  C   UNL     1      -8.926  19.572  66.133  1.00  0.00    -0.342 C  
HETATM    4  O   UNL     1     -10.943  19.004  67.375  1.00  0.00    -0.459 OA 
ENDROOT
BRANCH   3   5
HETATM    5  C   UNL     1      -8.100  18.523  66.878  1.00  0.00    -0.254 C  
HETATM    6  C   UNL     1      -7.978  18.688  68.386  1.00  0.00    -0.351 C  
HETATM    7  C   UNL     1      -6.799  18.996  67.507  1.00  0.00    -0.217 C  
BRANCH   5   8
HETATM    8  C   UNL     1      -8.188  17.146  66.230  1.00  0.00    -0.271 C  
BRANCH   8   9
HETATM    9  S   UNL     1      -7.931  15.694  67.270  1.00  0.00    -0.216 SA 
BRANCH   9  10
HETATM   10  C   UNL     1      -9.662  15.026  67.357  1.00  0.00    -0.216 C  
BRANCH  10  11
HETATM   11  C   UNL     1     -10.164  14.732  68.791  1.00  0.00    -0.239 C  
BRANCH  11  12
HETATM   12  C   UNL     1     -11.688  14.517  68.921  1.00  0.00    -0.354 C  
BRANCH  12  13
HETATM   13  C   UNL     1     -12.029  13.313  69.790  1.00  0.00    -0.391 A  
HETATM   14  C   UNL     1     -11.865  12.052  69.162  1.00  0.00    -0.369 A  
HETATM   15  C   UNL     1     -12.520  10.888  71.142  1.00  0.00    -0.511 A  
HETATM   16  H   UNL     1     -11.502  16.208  72.459  1.00  0.00     0.000 HD 
HETATM   17  C   UNL     1     -12.123  10.856  69.820  1.00  0.00    -0.409 A  
HETATM   18  C   UNL     1     -12.966  14.452  73.450  1.00  0.00    -0.246 C  
HETATM   19  C   UNL     1     -12.663  12.116  71.794  1.00  0.00    -0.265 A  
HETATM   20  C   UNL     1     -12.438  13.360  71.151  1.00  0.00    -0.414 A  
HETATM   21  O   UNL     1     -11.391  15.407  71.962  1.00  0.00    -0.432 OA 
HETATM   22  C   UNL     1     -13.717  15.567  71.384  1.00  0.00    -0.532 C  
HETATM   23  C   UNL     1     -12.617  14.662  71.958  1.00  0.00    -0.334 C  
ENDBRANCH  12  13
ENDBRANCH  11  12
ENDBRANCH  10  11
BRANCH  10  24
HETATM   24  C   UNL     1      -9.829  13.870  66.367  1.00  0.00    -0.304 A  
HETATM   25  C   UNL     1     -10.179  11.664  64.643  1.00  0.00    -0.327 A  
HETATM   26  C   UNL     1     -10.273  14.049  65.048  1.00  0.00    -0.395 A  
HETATM   27  C   UNL     1      -9.567  12.552  66.798  1.00  0.00    -0.231 A  
HETATM   28  C   UNL     1     -10.447  12.957  64.195  1.00  0.00    -0.429 A  
HETATM   29  C   UNL     1      -9.720  11.445  65.944  1.00  0.00    -0.257 A  
BRANCH  29  30
HETATM   30  C   UNL     1      -9.470  10.095  66.474  1.00  0.00    -0.214 C  
HETATM   31  C   UNL     1     -10.415   9.284  66.983  1.00  0.00    -0.303 C  
BRANCH  31  32
HETATM   32  C   UNL     1     -10.180   7.947  67.540  1.00  0.00    -0.242 A  
HETATM   33  N   UNL     1      -9.915   6.992  66.616  1.00  0.00    -0.181 NA 
HETATM   34  C   UNL     1      -9.751   5.721  67.025  1.00  0.00    -0.142 A  
HETATM   35  C   UNL     1      -9.861   5.348  68.381  1.00  0.00    -0.197 A  
HETATM   36  C   UNL     1     -10.139   6.348  69.316  1.00  0.00    -0.203 A  
HETATM   37  C   UNL     1      -9.705   4.005  68.766  1.00  0.00    -0.143 A  
HETATM   38  C   UNL     1      -9.445   3.029  67.808  1.00  0.00    -0.198 A  
HETATM   39  C   UNL     1     -10.308   7.660  68.891  1.00  0.00    -0.222 A  
HETATM   40  C   UNL     1      -9.328   3.400  66.473  1.00  0.00    -0.155 A  
HETATM   41  C   UNL     1      -9.479   4.733  66.091  1.00  0.00    -0.164 A  
HETATM   42 CL   UNL     1      -9.007   2.198  65.284  1.00  0.00    -0.123 Cl 
ENDBRANCH  31  32
ENDBRANCH  29  30
ENDBRANCH  10  24
ENDBRANCH   9  10
ENDBRANCH   8   9
ENDBRANCH   5   8
ENDBRANCH   3   5
TORSDOF 10
ENDMDL
MODEL       20
REMARK 921   NORMALIZED FREE ENERGY PREDICTED BY IDOCK:   -7.94 KCAL/MOL
REMARK 922        TOTAL FREE ENERGY PREDICTED BY IDOCK:  -14.24 KCAL/MOL
REMARK 923 INTER-LIGAND FREE ENERGY PREDICTED BY IDOCK:  -13.30 KCAL/MOL
REMARK 924 INTRA-LIGAND FREE ENERGY PREDICTED BY IDOCK:   -0.94 KCAL/MOL
REMARK 927      BINDING AFFINITY PREDICTED BY RF-SCORE:    0.00 PKD
ROOT
HETATM    1  O   UNL     1     -13.377  11.518  72.206  1.00  0.00    -0.422 OA 
HETATM    2  C   UNL     1     -13.408  12.845  71.922  1.00  0.00    -0.435 C  
HETATM    3  C   UNL     1     -12.425  13.237  70.838  1.00  0.00    -0.424 C  
HETATM    4  O   UNL     1     -14.197  13.599  72.470  1.00  0.00    -0.724 OA 
ENDROOT
BRANCH   3   5
HETATM    5  C   UNL     1     -12.014  14.709  70.868  1.00  0.00    -0.388 C  
HETATM    6  C   UNL     1     -11.601  15.279  72.218  1.00  0.00    -0.530 C  
HETATM    7  C   UNL     1     -12.928  15.659  71.625  1.00  0.00    -0.551 C  
BRANCH   5   8
HETATM    8  C   UNL     1     -11.340  15.152  69.575  1.00  0.00    -0.285 C  
BRANCH   8   9
HETATM    9  S   UNL     1     -12.036  14.583  68.011  1.00  0.00    -0.211 SA 
BRANCH   9  10
HETATM   10  C   UNL     1     -10.485  14.322  67.022  1.00  0.00    -0.271 C  
BRANCH  10  11
HETATM   11  C   UNL     1     -10.243  15.379  65.919  1.00  0.00    -0.365 C  
BRANCH  11  12
HETATM   12  C   UNL     1      -8.952  16.212  66.081  1.00  0.00    -0.372 C  
BRANCH  12  13
HETATM   13  C   UNL     1      -9.211  17.556  66.748  1.00  0.00    -0.277 A  
HETATM   14  C   UNL     1     -10.407  18.206  66.348  1.00  0.00    -0.404 A  
HETATM   15  C   UNL     1     -10.013  20.030  67.837  1.00  0.00    -0.558 A  
HETATM   16  H   UNL     1      -6.560  15.864  69.174  1.00  0.00     0.000 HD 
HETATM   17  C   UNL     1     -10.796  19.433  66.869  1.00  0.00    -0.509 A  
HETATM   18  C   UNL     1      -6.438  18.338  69.443  1.00  0.00    -0.239 C  
HETATM   19  C   UNL     1      -8.844  19.400  68.270  1.00  0.00    -0.382 A  
HETATM   20  C   UNL     1      -8.396  18.162  67.743  1.00  0.00    -0.253 A  
HETATM   21  O   UNL     1      -7.362  16.245  68.837  1.00  0.00    -0.172 OA 
HETATM   22  C   UNL     1      -6.014  17.385  67.209  1.00  0.00    -0.163 C  
HETATM   23  C   UNL     1      -7.093  17.543  68.291  1.00  0.00    -0.210 C  
ENDBRANCH  12  13
ENDBRANCH  11  12
ENDBRANCH  10  11
BRANCH  10  24
HETATM   24  C   UNL     1     -10.401  12.867  66.551  1.00  0.00    -0.272 A  
HETATM   25  C   UNL     1     -10.330  10.155  65.778  1.00  0.00    -0.216 A  
HETATM   26  C   UNL     1     -10.276  12.505  65.201  1.00  0.00    -0.299 A  
HETATM   27  C   UNL     1     -10.491  11.829  67.503  1.00  0.00    -0.228 A  
HETATM   28  C   UNL     1     -10.242  11.162  64.819  1.00  0.00    -0.365 A  
HETATM   29  C   UNL     1     -10.439  10.474  67.134  1.00  0.00    -0.302 A  
BRANCH  29  30
HETATM   30  C   UNL     1     -10.583   9.445  68.176  1.00  0.00    -0.261 C  
HETATM   31  C   UNL     1     -10.481   9.672  69.498  1.00  0.00    -0.240 C  
BRANCH  31  32
HETATM   32  C   UNL     1     -10.595   8.654  70.549  1.00  0.00    -0.217 A  
HETATM   33  N   UNL     1     -10.200   7.413  70.175  1.00  0.00    -0.202 NA 
HETATM   34  C   UNL     1     -10.331   6.400  71.050  1.00  0.00    -0.206 A  
HETATM   35  C   UNL     1     -10.879   6.583  72.336  1.00  0.00    -0.264 A  
HETATM   36  C   UNL     1     -11.284   7.870  72.699  1.00  0.00    -0.459 A  
HETATM   37  C   UNL     1     -11.019   5.494  73.214  1.00  0.00    -0.339 A  
HETATM   38  C   UNL     1     -10.622   4.221  72.817  1.00  0.00    -0.240 A  
HETATM   39  C   UNL     1     -11.149   8.916  71.794  1.00  0.00    -0.433 A  
HETATM   40  C   UNL     1     -10.073   4.043  71.551  1.00  0.00    -0.096 A  
HETATM   41  C   UNL     1      -9.930   5.124  70.682  1.00  0.00    -0.296 A  
HETATM   42 CL   UNL     1      -9.580   2.471  71.054  1.00  0.00    -0.221 Cl 
ENDBRANCH  31  32
ENDBRANCH  29  30
ENDBRANCH  10  24
ENDBRANCH   9  10
ENDBRANCH   8   9
ENDBRANCH   5   8
ENDBRANCH   3   5
TORSDOF 10
ENDMDL
MODEL       21
REMARK 921   NORMALIZED FREE ENERGY PREDICTED BY IDOCK:   -7.89 KCAL/MOL
REMARK 922        TOTAL FREE ENERGY PREDICTED BY IDOCK:  -14.16 KCAL/MOL
REMARK 923 INTER-LIGAND FREE ENERGY PREDICTED BY IDOCK:  -11.26 KCAL/MOL
REMARK 924 INTRA-LIGAND FREE ENERGY PREDICTED BY IDOCK:   -2.90 KCAL/MOL
REMARK 927      BINDING AFFINITY PREDICTED BY RF-SCORE:    0.00 PKD
ROOT
HETATM    1  O   UNL     1     -11.112  19.549  67.338  1.00  0.00    -0.433 OA 
HETATM    2  C   UNL     1     -10.627  18.532  66.581  1.00  0.00    -0.342 C  
HETATM    3  C   UNL     1     -10.361  17.276  67.386  1.00  0.00    -0.338 C  
HETATM    4  O   UNL     1     -10.486  18.642  65.373  1.00  0.00    -0.520 OA 
ENDROOT
BRANCH   3   5
HETATM    5  C   UNL     1      -9.335  16.335  66.756  1.00  0.00    -0.258 C  
HETATM    6  C   UNL     1      -8.109  15.995  67.593  1.00  0.00    -0.164 C  
HETATM    7  C   UNL     1      -7.975  16.929  66.424  1.00  0.00    -0.352 C  
BRANCH   5   8
HETATM    8  C   UNL     1      -9.977  15.311  65.829  1.00  0.00    -0.360 C  
BRANCH   8   9
HETATM    9  S   UNL     1     -11.543  14.568  66.330  1.00  0.00    -0.345 SA 
BRANCH   9  10
HETATM   10  C   UNL     1     -10.957  12.914  66.940  1.00  0.00    -0.266 C  
BRANCH  10  11
HETATM   11  C   UNL     1     -11.142  11.756  65.930  1.00  0.00    -0.355 C  
BRANCH  11  12
HETATM   12  C   UNL     1      -9.846  11.014  65.538  1.00  0.00    -0.292 C  
BRANCH  12  13
HETATM   13  C   UNL     1      -9.508   9.889  66.508  1.00  0.00    -0.230 A  
HETATM   14  C   UNL     1     -10.392   8.780  66.474  1.00  0.00    -0.254 A  
HETATM   15  C   UNL     1      -9.130   7.618  68.135  1.00  0.00    -0.132 A  
HETATM   16  H   UNL     1      -6.090  11.898  66.263  1.00  0.00     0.000 HD 
HETATM   17  C   UNL     1     -10.218   7.668  67.287  1.00  0.00    -0.342 A  
HETATM   18  C   UNL     1      -6.143  10.655  68.422  1.00  0.00    -0.046 C  
HETATM   19  C   UNL     1      -8.228   8.684  68.170  1.00  0.00    -0.115 A  
HETATM   20  C   UNL     1      -8.384   9.851  67.378  1.00  0.00    -0.118 A  
HETATM   21  O   UNL     1      -6.739  11.208  66.198  1.00  0.00    -0.106 OA 
HETATM   22  C   UNL     1      -7.926  12.299  67.977  1.00  0.00    -0.150 C  
HETATM   23  C   UNL     1      -7.330  10.972  67.483  1.00  0.00    -0.101 C  
ENDBRANCH  12  13
ENDBRANCH  11  12
ENDBRANCH  10  11
BRANCH  10  24
HETATM   24  C   UNL     1     -11.513  12.643  68.340  1.00  0.00    -0.350 A  
HETATM   25  C   UNL     1     -12.440  12.053  70.939  1.00  0.00    -0.384 A  
HETATM   26  C   UNL     1     -12.067  13.643  69.153  1.00  0.00    -0.361 A  
HETATM   27  C   UNL     1     -11.435  11.336  68.870  1.00  0.00    -0.363 A  
HETATM   28  C   UNL     1     -12.525  13.351  70.439  1.00  0.00    -0.322 A  
HETATM   29  C   UNL     1     -11.909  11.024  70.156  1.00  0.00    -0.441 A  
BRANCH  29  30
HETATM   30  C   UNL     1     -11.756   9.650  70.659  1.00  0.00    -0.353 C  
HETATM   31  C   UNL     1     -10.748   9.229  71.445  1.00  0.00    -0.432 C  
BRANCH  31  32
HETATM   32  C   UNL     1     -10.566   7.858  71.934  1.00  0.00    -0.231 A  
HETATM   33  N   UNL     1     -10.287   6.949  70.969  1.00  0.00    -0.204 NA 
HETATM   34  C   UNL     1     -10.168   5.654  71.312  1.00  0.00    -0.220 A  
HETATM   35  C   UNL     1     -10.339   5.209  72.639  1.00  0.00    -0.248 A  
HETATM   36  C   UNL     1     -10.630   6.162  73.618  1.00  0.00    -0.279 A  
HETATM   37  C   UNL     1     -10.229   3.843  72.954  1.00  0.00    -0.229 A  
HETATM   38  C   UNL     1      -9.955   2.916  71.953  1.00  0.00    -0.213 A  
HETATM   39  C   UNL     1     -10.753   7.500  73.262  1.00  0.00    -0.437 A  
HETATM   40  C   UNL     1      -9.778   3.356  70.646  1.00  0.00    -0.105 A  
HETATM   41  C   UNL     1      -9.883   4.712  70.335  1.00  0.00    -0.306 A  
HETATM   42 CL   UNL     1      -9.439   2.215  69.404  1.00  0.00    -0.161 Cl 
ENDBRANCH  31  32
ENDBRANCH  29  30
ENDBRANCH  10  24
ENDBRANCH   9  10
ENDBRANCH   8   9
ENDBRANCH   5   8
ENDBRANCH   3   5
TORSDOF 10
ENDMDL
MODEL       22
REMARK 921   NORMALIZED FREE ENERGY PREDICTED BY IDOCK:   -7.82 KCAL/MOL
REMARK 922        TOTAL FREE ENERGY PREDICTED BY IDOCK:  -14.05 KCAL/MOL
REMARK 923 INTER-LIGAND FREE ENERGY PREDICTED BY IDOCK:  -11.97 KCAL/MOL
REMARK 924 INTRA-LIGAND FREE ENERGY PREDICTED BY IDOCK:   -2.08 KCAL/MOL
REMARK 927      BINDING AFFINITY PREDICTED BY RF-SCORE:    0.00 PKD
ROOT
HETATM    1  O   UNL     1     -11.128  19.571  67.012  1.00  0.00    -0.424 OA 
HETATM    2  C   UNL     1      -9.952  19.049  67.442  1.00  0.00    -0.342 C  
HETATM    3  C   UNL     1      -8.832  19.218  66.435  1.00  0.00    -0.365 C  
HETATM    4  O   UNL     1      -9.839  18.553  68.552  1.00  0.00    -0.344 OA 
ENDROOT
BRANCH   3   5
HETATM    5  C   UNL     1      -7.695  18.208  66.591  1.00  0.00    -0.264 C  
HETATM    6  C   UNL     1      -6.820  18.344  67.830  1.00  0.00    -0.208 C  
HETATM    7  C   UNL     1      -6.279  18.752  66.489  1.00  0.00    -0.201 C  
BRANCH   5   8
HETATM    8  C   UNL     1      -8.042  16.845  66.006  1.00  0.00    -0.129 C  
BRANCH   8   9
HETATM    9  S   UNL     1      -8.030  15.415  67.105  1.00  0.00    -0.222 SA 
BRANCH   9  10
HETATM   10  C   UNL     1      -9.827  14.944  67.073  1.00  0.00    -0.237 C  
BRANCH  10  11
HETATM   11  C   UNL     1     -10.496  14.873  68.467  1.00  0.00    -0.242 C  
BRANCH  11  12
HETATM   12  C   UNL     1     -11.866  14.162  68.501  1.00  0.00    -0.390 C  
BRANCH  12  13
HETATM   13  C   UNL     1     -12.401  14.005  69.919  1.00  0.00    -0.367 A  
HETATM   14  C   UNL     1     -12.906  15.193  70.506  1.00  0.00    -0.395 A  
HETATM   15  C   UNL     1     -13.517  14.044  72.508  1.00  0.00    -0.661 A  
HETATM   16  H   UNL     1     -12.387  10.271  68.563  1.00  0.00     0.000 HD 
HETATM   17  C   UNL     1     -13.440  15.219  71.787  1.00  0.00    -0.558 A  
HETATM   18  C   UNL     1     -12.274  10.227  71.052  1.00  0.00    -0.487 C  
HETATM   19  C   UNL     1     -13.052  12.853  71.944  1.00  0.00    -0.474 A  
HETATM   20  C   UNL     1     -12.474  12.788  70.650  1.00  0.00    -0.328 A  
HETATM   21  O   UNL     1     -12.682  11.111  68.893  1.00  0.00    -0.202 OA 
HETATM   22  C   UNL     1     -10.487  11.399  69.823  1.00  0.00     0.318 C  
HETATM   23  C   UNL     1     -11.995  11.423  70.113  1.00  0.00    -0.377 C  
ENDBRANCH  12  13
ENDBRANCH  11  12
ENDBRANCH  10  11
BRANCH  10  24
HETATM   24  C   UNL     1     -10.031  13.706  66.196  1.00  0.00    -0.314 A  
HETATM   25  C   UNL     1     -10.449  11.358  64.688  1.00  0.00    -0.373 A  
HETATM   26  C   UNL     1     -10.468  13.772  64.865  1.00  0.00    -0.437 A  
HETATM   27  C   UNL     1      -9.812  12.427  66.752  1.00  0.00    -0.228 A  
HETATM   28  C   UNL     1     -10.676  12.610  64.119  1.00  0.00    -0.435 A  
HETATM   29  C   UNL     1      -9.999  11.249  66.007  1.00  0.00    -0.273 A  
BRANCH  29  30
HETATM   30  C   UNL     1      -9.793   9.949  66.664  1.00  0.00    -0.265 C  
HETATM   31  C   UNL     1     -10.773   9.077  66.964  1.00  0.00    -0.185 C  
BRANCH  31  32
HETATM   32  C   UNL     1     -10.589   7.790  67.642  1.00  0.00    -0.213 A  
HETATM   33  N   UNL     1     -10.475   7.875  68.989  1.00  0.00    -0.214 NA 
HETATM   34  C   UNL     1     -10.238   6.752  69.692  1.00  0.00    -0.187 A  
HETATM   35  C   UNL     1     -10.088   5.495  69.072  1.00  0.00    -0.275 A  
HETATM   36  C   UNL     1     -10.205   5.430  67.682  1.00  0.00    -0.236 A  
HETATM   37  C   UNL     1      -9.818   4.348  69.841  1.00  0.00    -0.290 A  
HETATM   38  C   UNL     1      -9.690   4.447  71.223  1.00  0.00    -0.252 A  
HETATM   39  C   UNL     1     -10.451   6.591  66.957  1.00  0.00    -0.364 A  
HETATM   40  C   UNL     1      -9.846   5.687  71.834  1.00  0.00    -0.166 A  
HETATM   41  C   UNL     1     -10.119   6.824  71.072  1.00  0.00    -0.206 A  
HETATM   42 CL   UNL     1      -9.690   5.817  73.543  1.00  0.00    -0.154 Cl 
ENDBRANCH  31  32
ENDBRANCH  29  30
ENDBRANCH  10  24
ENDBRANCH   9  10
ENDBRANCH   8   9
ENDBRANCH   5   8
ENDBRANCH   3   5
TORSDOF 10
ENDMDL
MODEL       23
REMARK 921   NORMALIZED FREE ENERGY PREDICTED BY IDOCK:   -7.78 KCAL/MOL
REMARK 922        TOTAL FREE ENERGY PREDICTED BY IDOCK:  -13.98 KCAL/MOL
REMARK 923 INTER-LIGAND FREE ENERGY PREDICTED BY IDOCK:  -11.47 KCAL/MOL
REMARK 924 INTRA-LIGAND FREE ENERGY PREDICTED BY IDOCK:   -2.51 KCAL/MOL
REMARK 927      BINDING AFFINITY PREDICTED BY RF-SCORE:    0.00 PKD
ROOT
HETATM    1  O   UNL     1     -11.227  11.065  63.347  1.00  0.00    -0.077 OA 
HETATM    2  C   UNL     1     -11.490  12.304  63.836  1.00  0.00    -0.435 C  
HETATM    3  C   UNL     1     -10.234  13.064  64.212  1.00  0.00    -0.316 C  
HETATM    4  O   UNL     1     -12.628  12.740  63.899  1.00  0.00    -0.638 OA 
ENDROOT
BRANCH   3   5
HETATM    5  C   UNL     1     -10.458  14.169  65.245  1.00  0.00    -0.402 C  
HETATM    6  C   UNL     1     -11.067  15.469  64.739  1.00  0.00    -0.421 C  
HETATM    7  C   UNL     1      -9.610  15.422  65.101  1.00  0.00     0.149 C  
BRANCH   5   8
HETATM    8  C   UNL     1     -10.791  13.616  66.625  1.00  0.00    -0.283 C  
BRANCH   8   9
HETATM    9  S   UNL     1     -12.389  14.033  67.351  1.00  0.00     0.047 SA 
BRANCH   9  10
HETATM   10  C   UNL     1     -11.870  14.508  69.070  1.00  0.00    -0.318 C  
BRANCH  10  11
HETATM   11  C   UNL     1     -10.381  14.908  69.202  1.00  0.00    -0.246 C  
BRANCH  11  12
HETATM   12  C   UNL     1     -10.094  16.420  69.081  1.00  0.00    -0.278 C  
BRANCH  12  13
HETATM   13  C   UNL     1      -8.857  16.709  68.242  1.00  0.00    -0.214 A  
HETATM   14  C   UNL     1      -7.859  15.701  68.274  1.00  0.00    -0.128 A  
HETATM   15  C   UNL     1      -6.471  16.909  66.752  1.00  0.00    -0.247 A  
HETATM   16  H   UNL     1     -11.560  19.184  66.709  1.00  0.00     0.000 HD 
HETATM   17  C   UNL     1      -6.675  15.805  67.556  1.00  0.00    -0.220 A  
HETATM   18  C   UNL     1      -9.283  20.079  66.234  1.00  0.00    -0.426 C  
HETATM   19  C   UNL     1      -7.449  17.904  66.680  1.00  0.00    -0.262 A  
HETATM   20  C   UNL     1      -8.658  17.852  67.419  1.00  0.00    -0.239 A  
HETATM   21  O   UNL     1     -10.932  18.477  66.802  1.00  0.00    -0.211 OA 
HETATM   22  C   UNL     1      -9.936  19.739  68.587  1.00  0.00    -0.535 C  
HETATM   23  C   UNL     1      -9.679  18.998  67.267  1.00  0.00    -0.314 C  
ENDBRANCH  12  13
ENDBRANCH  11  12
ENDBRANCH  10  11
BRANCH  10  24
HETATM   24  C   UNL     1     -12.346  13.454  70.073  1.00  0.00    -0.294 A  
HETATM   25  C   UNL     1     -13.108  11.449  71.906  1.00  0.00    -0.505 A  
HETATM   26  C   UNL     1     -13.141  13.760  71.188  1.00  0.00    -0.324 A  
HETATM   27  C   UNL     1     -11.942  12.112  69.905  1.00  0.00    -0.380 A  
HETATM   28  C   UNL     1     -13.517  12.768  72.096  1.00  0.00    -0.591 A  
HETATM   29  C   UNL     1     -12.329  11.100  70.800  1.00  0.00    -0.504 A  
BRANCH  29  30
HETATM   30  C   UNL     1     -11.834   9.731  70.587  1.00  0.00    -0.360 C  
HETATM   31  C   UNL     1     -10.967   9.370  69.623  1.00  0.00    -0.216 C  
BRANCH  31  32
HETATM   32  C   UNL     1     -10.483   8.007  69.380  1.00  0.00    -0.220 A  
HETATM   33  N   UNL     1     -10.606   7.587  68.097  1.00  0.00    -0.179 NA 
HETATM   34  C   UNL     1     -10.251   6.326  67.790  1.00  0.00    -0.170 A  
HETATM   35  C   UNL     1      -9.771   5.424  68.760  1.00  0.00    -0.194 A  
HETATM   36  C   UNL     1      -9.656   5.875  70.077  1.00  0.00    -0.200 A  
HETATM   37  C   UNL     1      -9.431   4.106  68.403  1.00  0.00    -0.212 A  
HETATM   38  C   UNL     1      -9.572   3.681  67.086  1.00  0.00    -0.194 A  
HETATM   39  C   UNL     1     -10.024   7.178  70.393  1.00  0.00    -0.191 A  
HETATM   40  C   UNL     1     -10.038   4.576  66.128  1.00  0.00    -0.258 A  
HETATM   41  C   UNL     1     -10.371   5.883  66.481  1.00  0.00    -0.237 A  
HETATM   42 CL   UNL     1     -10.215   4.056  64.497  1.00  0.00    -0.228 Cl 
ENDBRANCH  31  32
ENDBRANCH  29  30
ENDBRANCH  10  24
ENDBRANCH   9  10
ENDBRANCH   8   9
ENDBRANCH   5   8
ENDBRANCH   3   5
TORSDOF 10
ENDMDL
MODEL       24
REMARK 921   NORMALIZED FREE ENERGY PREDICTED BY IDOCK:   -7.73 KCAL/MOL
REMARK 922        TOTAL FREE ENERGY PREDICTED BY IDOCK:  -13.90 KCAL/MOL
REMARK 923 INTER-LIGAND FREE ENERGY PREDICTED BY IDOCK:  -11.67 KCAL/MOL
REMARK 924 INTRA-LIGAND FREE ENERGY PREDICTED BY IDOCK:   -2.23 KCAL/MOL
REMARK 927      BINDING AFFINITY PREDICTED BY RF-SCORE:    0.00 PKD
ROOT
HETATM    1  O   UNL     1     -10.270   6.253  73.945  1.00  0.00    -0.237 OA 
HETATM    2  C   UNL     1     -10.898   6.224  72.742  1.00  0.00    -0.252 C  
HETATM    3  C   UNL     1     -10.028   6.739  71.613  1.00  0.00    -0.183 C  
HETATM    4  O   UNL     1     -12.026   5.775  72.619  1.00  0.00    -0.250 OA 
ENDROOT
BRANCH   3   5
HETATM    5  C   UNL     1     -10.810   7.250  70.404  1.00  0.00    -0.265 C  
HETATM    6  C   UNL     1     -11.215   6.216  69.361  1.00  0.00    -0.466 C  
HETATM    7  C   UNL     1     -10.107   7.184  69.057  1.00  0.00    -0.183 C  
BRANCH   5   8
HETATM    8  C   UNL     1     -11.709   8.430  70.749  1.00  0.00    -0.202 C  
BRANCH   8   9
HETATM    9  S   UNL     1     -10.969  10.074  70.825  1.00  0.00    -0.233 SA 
BRANCH   9  10
HETATM   10  C   UNL     1     -12.285  11.081  69.986  1.00  0.00    -0.343 C  
BRANCH  10  11
HETATM   11  C   UNL     1     -12.107  11.221  68.455  1.00  0.00    -0.161 C  
BRANCH  11  12
HETATM   12  C   UNL     1     -10.781  10.660  67.896  1.00  0.00    -0.292 C  
BRANCH  12  13
HETATM   13  C   UNL     1      -9.724  11.742  67.722  1.00  0.00    -0.185 A  
HETATM   14  C   UNL     1      -8.577  11.601  68.545  1.00  0.00    -0.134 A  
HETATM   15  C   UNL     1      -7.558  13.543  67.601  1.00  0.00    -0.181 A  
HETATM   16  H   UNL     1     -11.864  12.055  64.390  1.00  0.00     0.000 HD 
HETATM   17  C   UNL     1      -7.517  12.496  68.501  1.00  0.00    -0.122 A  
HETATM   18  C   UNL     1     -10.732  14.231  64.831  1.00  0.00    -0.448 C  
HETATM   19  C   UNL     1      -8.663  13.691  66.759  1.00  0.00    -0.101 A  
HETATM   20  C   UNL     1      -9.779  12.817  66.792  1.00  0.00    -0.243 A  
HETATM   21  O   UNL     1     -11.143  11.905  64.990  1.00  0.00    -0.304 OA 
HETATM   22  C   UNL     1     -12.272  13.349  66.542  1.00  0.00    -0.414 C  
HETATM   23  C   UNL     1     -10.949  13.060  65.817  1.00  0.00    -0.277 C  
ENDBRANCH  12  13
ENDBRANCH  11  12
ENDBRANCH  10  11
BRANCH  10  24
HETATM   24  C   UNL     1     -12.495  12.400  70.734  1.00  0.00    -0.356 A  
HETATM   25  C   UNL     1     -12.889  14.893  71.995  1.00  0.00    -0.399 A  
HETATM   26  C   UNL     1     -13.217  12.496  71.933  1.00  0.00    -0.495 A  
HETATM   27  C   UNL     1     -11.977  13.592  70.183  1.00  0.00    -0.407 A  
HETATM   28  C   UNL     1     -13.413  13.731  72.556  1.00  0.00    -0.682 A  
HETATM   29  C   UNL     1     -12.150  14.839  70.810  1.00  0.00    -0.374 A  
BRANCH  29  30
HETATM   30  C   UNL     1     -11.620  16.046  70.156  1.00  0.00    -0.324 C  
HETATM   31  C   UNL     1     -10.715  16.045  69.161  1.00  0.00    -0.272 C  
BRANCH  31  32
HETATM   32  C   UNL     1     -10.156  17.238  68.516  1.00  0.00    -0.341 A  
HETATM   33  N   UNL     1      -9.140  16.989  67.655  1.00  0.00    -0.227 NA 
HETATM   34  C   UNL     1      -8.520  18.027  67.065  1.00  0.00    -0.237 A  
HETATM   35  C   UNL     1      -8.882  19.364  67.325  1.00  0.00    -0.342 A  
HETATM   36  C   UNL     1      -9.929  19.599  68.219  1.00  0.00    -0.543 A  
HETATM   37  C   UNL     1      -8.194  20.423  66.705  1.00  0.00    -0.276 A  
HETATM   38  C   UNL     1      -7.144  20.157  65.832  1.00  0.00    -0.312 A  
HETATM   39  C   UNL     1     -10.569  18.526  68.828  1.00  0.00     0.127 A  
HETATM   40  C   UNL     1      -6.794  18.837  65.570  1.00  0.00    -0.216 A  
HETATM   41  C   UNL     1      -7.479  17.787  66.181  1.00  0.00    -0.322 A  
HETATM   42 CL   UNL     1      -5.496  18.502  64.491  1.00  0.00    -0.193 Cl 
ENDBRANCH  31  32
ENDBRANCH  29  30
ENDBRANCH  10  24
ENDBRANCH   9  10
ENDBRANCH   8   9
ENDBRANCH   5   8
ENDBRANCH   3   5
TORSDOF 10
ENDMDL
MODEL       25
REMARK 921   NORMALIZED FREE ENERGY PREDICTED BY IDOCK:   -7.66 KCAL/MOL
REMARK 922        TOTAL FREE ENERGY PREDICTED BY IDOCK:  -13.80 KCAL/MOL
REMARK 923 INTER-LIGAND FREE ENERGY PREDICTED BY IDOCK:  -11.61 KCAL/MOL
REMARK 924 INTRA-LIGAND FREE ENERGY PREDICTED BY IDOCK:   -2.18 KCAL/MOL
REMARK 927      BINDING AFFINITY PREDICTED BY RF-SCORE:    0.00 PKD
ROOT
HETATM    1  O   UNL     1      -8.096   7.579  65.457  1.00  0.00    -0.117 OA 
HETATM    2  C   UNL     1      -8.353   8.712  66.159  1.00  0.00    -0.125 C  
HETATM    3  C   UNL     1      -8.297   8.498  67.658  1.00  0.00    -0.129 C  
HETATM    4  O   UNL     1      -8.551   9.779  65.602  1.00  0.00    -0.132 OA 
ENDROOT
BRANCH   3   5
HETATM    5  C   UNL     1      -9.094   9.522  68.466  1.00  0.00    -0.131 C  
HETATM    6  C   UNL     1      -8.458  10.893  68.657  1.00  0.00    -0.152 C  
HETATM    7  C   UNL     1      -8.517   9.933  69.811  1.00  0.00    -0.206 C  
BRANCH   5   8
HETATM    8  C   UNL     1     -10.599   9.358  68.289  1.00  0.00    -0.210 C  
BRANCH   8   9
HETATM    9  S   UNL     1     -11.652  10.800  68.551  1.00  0.00    -0.185 SA 
BRANCH   9  10
HETATM   10  C   UNL     1     -11.747  10.821  70.405  1.00  0.00    -0.351 C  
BRANCH  10  11
HETATM   11  C   UNL     1     -12.457   9.593  71.025  1.00  0.00    -0.382 C  
BRANCH  11  12
HETATM   12  C   UNL     1     -11.590   8.752  71.987  1.00  0.00    -0.436 C  
BRANCH  12  13
HETATM   13  C   UNL     1     -10.987   7.531  71.305  1.00  0.00    -0.262 A  
HETATM   14  C   UNL     1     -11.657   7.107  70.128  1.00  0.00    -0.211 A  
HETATM   15  C   UNL     1     -10.091   5.340  69.773  1.00  0.00    -0.334 A  
HETATM   16  H   UNL     1      -8.012   8.817  73.601  1.00  0.00     0.000 HD 
HETATM   17  C   UNL     1     -11.229   6.017  69.382  1.00  0.00    -0.397 A  
HETATM   18  C   UNL     1      -7.685   6.390  73.140  1.00  0.00    -0.098 C  
HETATM   19  C   UNL     1      -9.395   5.753  70.912  1.00  0.00    -0.185 A  
HETATM   20  C   UNL     1      -9.814   6.841  71.718  1.00  0.00    -0.170 A  
HETATM   21  O   UNL     1      -8.529   8.582  72.840  1.00  0.00    -0.350 OA 
HETATM   22  C   UNL     1      -9.762   7.095  74.267  1.00  0.00    -0.197 C  
HETATM   23  C   UNL     1      -8.974   7.224  72.954  1.00  0.00    -0.134 C  
ENDBRANCH  12  13
ENDBRANCH  11  12
ENDBRANCH  10  11
BRANCH  10  24
HETATM   24  C   UNL     1     -12.267  12.178  70.890  1.00  0.00    -0.310 A  
HETATM   25  C   UNL     1     -13.217  14.721  71.657  1.00  0.00    -0.431 A  
HETATM   26  C   UNL     1     -13.215  12.315  71.915  1.00  0.00    -0.481 A  
HETATM   27  C   UNL     1     -11.809  13.355  70.258  1.00  0.00    -0.316 A  
HETATM   28  C   UNL     1     -13.686  13.574  72.293  1.00  0.00    -0.700 A  
HETATM   29  C   UNL     1     -12.261  14.630  70.642  1.00  0.00    -0.394 A  
BRANCH  29  30
HETATM   30  C   UNL     1     -11.773  15.809  69.910  1.00  0.00    -0.365 C  
HETATM   31  C   UNL     1     -10.693  15.822  69.108  1.00  0.00    -0.246 C  
BRANCH  31  32
HETATM   32  C   UNL     1     -10.179  16.995  68.392  1.00  0.00    -0.331 A  
HETATM   33  N   UNL     1      -8.987  17.453  68.846  1.00  0.00    -0.212 NA 
HETATM   34  C   UNL     1      -8.466  18.564  68.295  1.00  0.00    -0.318 A  
HETATM   35  C   UNL     1      -9.126  19.276  67.273  1.00  0.00    -0.346 A  
HETATM   36  C   UNL     1     -10.356  18.789  66.822  1.00  0.00    -0.464 A  
HETATM   37  C   UNL     1      -8.560  20.447  66.738  1.00  0.00    -0.281 A  
HETATM   38  C   UNL     1      -7.341  20.916  67.220  1.00  0.00    -0.378 A  
HETATM   39  C   UNL     1     -10.892  17.641  67.393  1.00  0.00    -0.178 A  
HETATM   40  C   UNL     1      -6.687  20.208  68.223  1.00  0.00    -0.300 A  
HETATM   41  C   UNL     1      -7.247  19.045  68.750  1.00  0.00    -0.358 A  
HETATM   42 CL   UNL     1      -5.180  20.783  68.823  1.00  0.00    -0.309 Cl 
ENDBRANCH  31  32
ENDBRANCH  29  30
ENDBRANCH  10  24
ENDBRANCH   9  10
ENDBRANCH   8   9
ENDBRANCH   5   8
ENDBRANCH   3   5
TORSDOF 10
ENDMDL
MODEL       26
REMARK 921   NORMALIZED FREE ENERGY PREDICTED BY IDOCK:   -7.62 KCAL/MOL
REMARK 922        TOTAL FREE ENERGY PREDICTED BY IDOCK:  -13.73 KCAL/MOL
REMARK 923 INTER-LIGAND FREE ENERGY PREDICTED BY IDOCK:  -12.14 KCAL/MOL
REMARK 924 INTRA-LIGAND FREE ENERGY PREDICTED BY IDOCK:   -1.60 KCAL/MOL
REMARK 927      BINDING AFFINITY PREDICTED BY RF-SCORE:    0.00 PKD
ROOT
HETATM    1  O   UNL     1     -13.783  14.136  65.281  1.00  0.00    -0.248 OA 
HETATM    2  C   UNL     1     -12.525  13.810  64.890  1.00  0.00    -0.386 C  
HETATM    3  C   UNL     1     -12.416  12.382  64.394  1.00  0.00    -0.520 C  
HETATM    4  O   UNL     1     -11.619  14.627  64.903  1.00  0.00    -0.372 OA 
ENDROOT
BRANCH   3   5
HETATM    5  C   UNL     1     -11.006  11.798  64.478  1.00  0.00    -0.382 C  
HETATM    6  C   UNL     1      -9.937  12.458  63.618  1.00  0.00    -0.199 C  
HETATM    7  C   UNL     1     -10.476  11.110  63.230  1.00  0.00    -0.323 C  
BRANCH   5   8
HETATM    8  C   UNL     1     -10.687  11.242  65.860  1.00  0.00    -0.232 C  
BRANCH   8   9
HETATM    9  S   UNL     1      -9.212  11.846  66.705  1.00  0.00    -0.198 SA 
BRANCH   9  10
HETATM   10  C   UNL     1      -9.773  13.548  67.195  1.00  0.00    -0.244 C  
BRANCH  10  11
HETATM   11  C   UNL     1      -8.625  14.566  67.401  1.00  0.00    -0.213 C  
BRANCH  11  12
HETATM   12  C   UNL     1      -8.610  15.746  66.404  1.00  0.00    -0.346 C  
BRANCH  12  13
HETATM   13  C   UNL     1      -7.762  16.910  66.900  1.00  0.00    -0.252 A  
HETATM   14  C   UNL     1      -6.375  16.635  67.023  1.00  0.00    -0.222 A  
HETATM   15  C   UNL     1      -5.912  18.867  67.734  1.00  0.00    -0.201 A  
HETATM   16  H   UNL     1     -11.074  18.704  65.640  1.00  0.00     0.000 HD 
HETATM   17  C   UNL     1      -5.464  17.591  67.451  1.00  0.00    -0.153 A  
HETATM   18  C   UNL     1      -9.960  20.158  67.329  1.00  0.00    -0.583 C  
HETATM   19  C   UNL     1      -7.267  19.173  67.595  1.00  0.00    -0.246 A  
HETATM   20  C   UNL     1      -8.235  18.219  67.189  1.00  0.00    -0.239 A  
HETATM   21  O   UNL     1     -10.167  18.435  65.719  1.00  0.00    -0.571 OA 
HETATM   22  C   UNL     1     -10.639  17.888  68.010  1.00  0.00    -0.366 C  
HETATM   23  C   UNL     1      -9.709  18.657  67.060  1.00  0.00    -0.308 C  
ENDBRANCH  12  13
ENDBRANCH  11  12
ENDBRANCH  10  11
BRANCH  10  24
HETATM   24  C   UNL     1     -10.771  13.460  68.353  1.00  0.00    -0.271 A  
HETATM   25  C   UNL     1     -12.534  13.203  70.540  1.00  0.00    -0.322 A  
HETATM   26  C   UNL     1     -11.450  14.575  68.867  1.00  0.00    -0.327 A  
HETATM   27  C   UNL     1     -11.000  12.211  68.970  1.00  0.00    -0.255 A  
HETATM   28  C   UNL     1     -12.321  14.447  69.950  1.00  0.00    -0.365 A  
HETATM   29  C   UNL     1     -11.890  12.065  70.048  1.00  0.00    -0.392 A  
BRANCH  29  30
HETATM   30  C   UNL     1     -12.046  10.740  70.670  1.00  0.00    -0.467 C  
HETATM   31  C   UNL     1     -11.030   9.929  71.014  1.00  0.00    -0.360 C  
BRANCH  31  32
HETATM   32  C   UNL     1     -11.168   8.595  71.609  1.00  0.00    -0.309 A  
HETATM   33  N   UNL     1     -10.040   8.118  72.189  1.00  0.00    -0.228 NA 
HETATM   34  C   UNL     1     -10.052   6.875  72.704  1.00  0.00    -0.175 A  
HETATM   35  C   UNL     1     -11.192   6.049  72.647  1.00  0.00    -0.326 A  
HETATM   36  C   UNL     1     -12.343   6.558  72.041  1.00  0.00    -0.308 A  
HETATM   37  C   UNL     1     -11.157   4.746  73.177  1.00  0.00    -0.388 A  
HETATM   38  C   UNL     1      -9.990   4.261  73.760  1.00  0.00    -0.174 A  
HETATM   39  C   UNL     1     -12.330   7.842  71.509  1.00  0.00    -0.340 A  
HETATM   40  C   UNL     1      -8.868   5.081  73.823  1.00  0.00    -0.115 A  
HETATM   41  C   UNL     1      -8.905   6.374  73.301  1.00  0.00    -0.129 A  
HETATM   42 CL   UNL     1      -7.422   4.486  74.542  1.00  0.00    -0.080 Cl 
ENDBRANCH  31  32
ENDBRANCH  29  30
ENDBRANCH  10  24
ENDBRANCH   9  10
ENDBRANCH   8   9
ENDBRANCH   5   8
ENDBRANCH   3   5
TORSDOF 10
ENDMDL
MODEL       27
REMARK 921   NORMALIZED FREE ENERGY PREDICTED BY IDOCK:   -7.56 KCAL/MOL
REMARK 922        TOTAL FREE ENERGY PREDICTED BY IDOCK:  -13.63 KCAL/MOL
REMARK 923 INTER-LIGAND FREE ENERGY PREDICTED BY IDOCK:  -10.94 KCAL/MOL
REMARK 924 INTRA-LIGAND FREE ENERGY PREDICTED BY IDOCK:   -2.69 KCAL/MOL
REMARK 927      BINDING AFFINITY PREDICTED BY RF-SCORE:    0.00 PKD
ROOT
HETATM    1  O   UNL     1      -7.705   6.002  70.702  1.00  0.00    -0.096 OA 
HETATM    2  C   UNL     1      -8.973   6.391  70.417  1.00  0.00    -0.155 C  
HETATM    3  C   UNL     1      -9.504   7.423  71.392  1.00  0.00    -0.160 C  
HETATM    4  O   UNL     1      -9.568   5.969  69.439  1.00  0.00    -0.132 OA 
ENDROOT
BRANCH   3   5
HETATM    5  C   UNL     1     -11.029   7.478  71.477  1.00  0.00    -0.256 C  
HETATM    6  C   UNL     1     -11.659   7.055  72.797  1.00  0.00    -0.144 C  
HETATM    7  C   UNL     1     -11.754   6.148  71.603  1.00  0.00    -0.290 C  
BRANCH   5   8
HETATM    8  C   UNL     1     -11.619   8.602  70.635  1.00  0.00    -0.200 C  
BRANCH   8   9
HETATM    9  S   UNL     1     -11.168  10.301  71.042  1.00  0.00     0.021 SA 
BRANCH   9  10
HETATM   10  C   UNL     1     -12.489  11.233  70.127  1.00  0.00    -0.221 C  
BRANCH  10  11
HETATM   11  C   UNL     1     -12.344  11.203  68.587  1.00  0.00     0.231 C  
BRANCH  11  12
HETATM   12  C   UNL     1     -10.915  11.449  68.057  1.00  0.00    -0.290 C  
BRANCH  12  13
HETATM   13  C   UNL     1     -10.871  12.545  67.000  1.00  0.00    -0.287 A  
HETATM   14  C   UNL     1     -12.025  12.637  66.181  1.00  0.00    -0.458 A  
HETATM   15  C   UNL     1     -11.132  14.502  64.987  1.00  0.00    -0.393 A  
HETATM   16  H   UNL     1      -8.063  13.685  69.568  1.00  0.00     0.000 HD 
HETATM   17  C   UNL     1     -12.149  13.588  65.177  1.00  0.00    -0.432 A  
HETATM   18  C   UNL     1      -7.574  14.685  67.339  1.00  0.00    -0.218 C  
HETATM   19  C   UNL     1      -9.995  14.452  65.798  1.00  0.00    -0.354 A  
HETATM   20  C   UNL     1      -9.816  13.480  66.814  1.00  0.00    -0.267 A  
HETATM   21  O   UNL     1      -8.857  13.666  69.047  1.00  0.00     0.115 OA 
HETATM   22  C   UNL     1      -7.693  12.229  67.515  1.00  0.00    -0.158 C  
HETATM   23  C   UNL     1      -8.526  13.511  67.661  1.00  0.00    -0.184 C  
ENDBRANCH  12  13
ENDBRANCH  11  12
ENDBRANCH  10  11
BRANCH  10  24
HETATM   24  C   UNL     1     -12.661  12.630  70.731  1.00  0.00    -0.302 A  
HETATM   25  C   UNL     1     -12.963  15.254  71.721  1.00  0.00    -0.475 A  
HETATM   26  C   UNL     1     -13.527  12.902  71.801  1.00  0.00    -0.369 A  
HETATM   27  C   UNL     1     -11.951  13.714  70.170  1.00  0.00    -0.407 A  
HETATM   28  C   UNL     1     -13.677  14.202  72.290  1.00  0.00    -0.623 A  
HETATM   29  C   UNL     1     -12.078  15.023  70.665  1.00  0.00    -0.375 A  
BRANCH  29  30
HETATM   30  C   UNL     1     -11.341  16.111  70.003  1.00  0.00    -0.332 C  
HETATM   31  C   UNL     1     -11.219  16.256  68.671  1.00  0.00    -0.354 C  
BRANCH  31  32
HETATM   32  C   UNL     1     -10.466  17.318  67.995  1.00  0.00    -0.375 A  
HETATM   33  N   UNL     1      -9.380  17.758  68.675  1.00  0.00    -0.289 NA 
HETATM   34  C   UNL     1      -8.664  18.777  68.166  1.00  0.00    -0.306 A  
HETATM   35  C   UNL     1      -9.016  19.411  66.956  1.00  0.00    -0.350 A  
HETATM   36  C   UNL     1     -10.141  18.945  66.273  1.00  0.00    -0.460 A  
HETATM   37  C   UNL     1      -8.254  20.488  66.468  1.00  0.00    -0.104 A  
HETATM   38  C   UNL     1      -7.148  20.941  67.180  1.00  0.00    -0.413 A  
HETATM   39  C   UNL     1     -10.880  17.892  66.801  1.00  0.00    -0.025 A  
HETATM   40  C   UNL     1      -6.797  20.309  68.369  1.00  0.00    -0.259 A  
HETATM   41  C   UNL     1      -7.550  19.238  68.851  1.00  0.00    -0.384 A  
HETATM   42 CL   UNL     1      -5.430  20.864  69.254  1.00  0.00    -0.407 Cl 
ENDBRANCH  31  32
ENDBRANCH  29  30
ENDBRANCH  10  24
ENDBRANCH   9  10
ENDBRANCH   8   9
ENDBRANCH   5   8
ENDBRANCH   3   5
TORSDOF 10
ENDMDL
MODEL       28
REMARK 921   NORMALIZED FREE ENERGY PREDICTED BY IDOCK:   -7.52 KCAL/MOL
REMARK 922        TOTAL FREE ENERGY PREDICTED BY IDOCK:  -13.56 KCAL/MOL
REMARK 923 INTER-LIGAND FREE ENERGY PREDICTED BY IDOCK:  -11.54 KCAL/MOL
REMARK 924 INTRA-LIGAND FREE ENERGY PREDICTED BY IDOCK:   -2.02 KCAL/MOL
REMARK 927      BINDING AFFINITY PREDICTED BY RF-SCORE:    0.00 PKD
ROOT
HETATM    1  O   UNL     1      -7.449   3.573  69.607  1.00  0.00    -0.045 OA 
HETATM    2  C   UNL     1      -8.240   4.594  70.022  1.00  0.00    -0.067 C  
HETATM    3  C   UNL     1      -9.330   4.934  69.025  1.00  0.00    -0.183 C  
HETATM    4  O   UNL     1      -8.088   5.120  71.113  1.00  0.00    -0.102 OA 
ENDROOT
BRANCH   3   5
HETATM    5  C   UNL     1      -9.865   6.361  69.147  1.00  0.00    -0.158 C  
HETATM    6  C   UNL     1     -10.847   6.631  70.280  1.00  0.00    -0.321 C  
HETATM    7  C   UNL     1     -11.345   6.562  68.864  1.00  0.00    -0.267 C  
BRANCH   5   8
HETATM    8  C   UNL     1      -8.846   7.405  68.708  1.00  0.00    -0.130 C  
BRANCH   8   9
HETATM    9  S   UNL     1      -8.990   8.093  67.046  1.00  0.00    -0.146 SA 
BRANCH   9  10
HETATM   10  C   UNL     1      -9.203   9.895  67.441  1.00  0.00    -0.134 C  
BRANCH  10  11
HETATM   11  C   UNL     1     -10.064  10.180  68.695  1.00  0.00    -0.186 C  
BRANCH  11  12
HETATM   12  C   UNL     1     -11.410  10.885  68.419  1.00  0.00    -0.370 C  
BRANCH  12  13
HETATM   13  C   UNL     1     -12.037  11.450  69.688  1.00  0.00    -0.373 A  
HETATM   14  C   UNL     1     -12.561  10.482  70.583  1.00  0.00    -0.457 A  
HETATM   15  C   UNL     1     -13.210  12.161  72.150  1.00  0.00    -0.438 A  
HETATM   16  H   UNL     1      -9.778  14.456  68.405  1.00  0.00     0.000 HD 
HETATM   17  C   UNL     1     -13.155  10.830  71.788  1.00  0.00    -0.573 A  
HETATM   18  C   UNL     1     -11.601  15.369  69.838  1.00  0.00    -0.342 C  
HETATM   19  C   UNL     1     -12.677  13.134  71.301  1.00  0.00    -0.396 A  
HETATM   20  C   UNL     1     -12.088  12.824  70.049  1.00  0.00    -0.355 A  
HETATM   21  O   UNL     1     -10.126  13.750  68.938  1.00  0.00    -0.180 OA 
HETATM   22  C   UNL     1     -12.228  14.089  67.826  1.00  0.00    -0.209 C  
HETATM   23  C   UNL     1     -11.521  13.969  69.185  1.00  0.00    -0.296 C  
ENDBRANCH  12  13
ENDBRANCH  11  12
ENDBRANCH  10  11
BRANCH  10  24
HETATM   24  C   UNL     1      -9.622  10.663  66.184  1.00  0.00    -0.232 A  
HETATM   25  C   UNL     1     -10.311  12.175  63.904  1.00  0.00    -0.441 A  
HETATM   26  C   UNL     1      -9.908  10.036  64.962  1.00  0.00    -0.374 A  
HETATM   27  C   UNL     1      -9.689  12.072  66.229  1.00  0.00    -0.251 A  
HETATM   28  C   UNL     1     -10.248  10.784  63.833  1.00  0.00    -0.377 A  
HETATM   29  C   UNL     1     -10.049  12.837  65.106  1.00  0.00    -0.246 A  
BRANCH  29  30
HETATM   30  C   UNL     1     -10.057  14.305  65.214  1.00  0.00    -0.378 C  
HETATM   31  C   UNL     1      -9.297  15.015  66.068  1.00  0.00    -0.304 C  
BRANCH  31  32
HETATM   32  C   UNL     1      -9.311  16.475  66.208  1.00  0.00    -0.302 A  
HETATM   33  N   UNL     1      -8.199  16.995  66.782  1.00  0.00    -0.217 NA 
HETATM   34  C   UNL     1      -8.148  18.320  67.013  1.00  0.00    -0.230 A  
HETATM   35  C   UNL     1      -9.218  19.181  66.692  1.00  0.00    -0.367 A  
HETATM   36  C   UNL     1     -10.356  18.623  66.104  1.00  0.00    -0.481 A  
HETATM   37  C   UNL     1      -9.135  20.557  66.970  1.00  0.00    -0.416 A  
HETATM   38  C   UNL     1      -7.994  21.080  67.571  1.00  0.00    -0.049 A  
HETATM   39  C   UNL     1     -10.407  17.254  65.867  1.00  0.00    -0.287 A  
HETATM   40  C   UNL     1      -6.936  20.231  67.880  1.00  0.00    -0.290 A  
HETATM   41  C   UNL     1      -7.017  18.867  67.600  1.00  0.00    -0.220 A  
HETATM   42 CL   UNL     1      -5.523  20.872  68.623  1.00  0.00    -0.353 Cl 
ENDBRANCH  31  32
ENDBRANCH  29  30
ENDBRANCH  10  24
ENDBRANCH   9  10
ENDBRANCH   8   9
ENDBRANCH   5   8
ENDBRANCH   3   5
TORSDOF 10
ENDMDL
MODEL       29
REMARK 921   NORMALIZED FREE ENERGY PREDICTED BY IDOCK:   -7.47 KCAL/MOL
REMARK 922        TOTAL FREE ENERGY PREDICTED BY IDOCK:  -13.50 KCAL/MOL
REMARK 923 INTER-LIGAND FREE ENERGY PREDICTED BY IDOCK:  -11.97 KCAL/MOL
REMARK 924 INTRA-LIGAND FREE ENERGY PREDICTED BY IDOCK:   -1.53 KCAL/MOL
REMARK 927      BINDING AFFINITY PREDICTED BY RF-SCORE:    0.00 PKD
ROOT
HETATM    1  O   UNL     1     -13.078  10.713  71.307  1.00  0.00    -0.375 OA 
HETATM    2  C   UNL     1     -12.218  11.597  70.739  1.00  0.00    -0.344 C  
HETATM    3  C   UNL     1     -12.670  13.036  70.893  1.00  0.00    -0.299 C  
HETATM    4  O   UNL     1     -11.177  11.234  70.217  1.00  0.00    -0.191 OA 
ENDROOT
BRANCH   3   5
HETATM    5  C   UNL     1     -12.093  13.987  69.845  1.00  0.00    -0.406 C  
HETATM    6  C   UNL     1     -10.972  14.912  70.300  1.00  0.00    -0.186 C  
HETATM    7  C   UNL     1     -12.345  15.472  70.057  1.00  0.00    -0.345 C  
BRANCH   5   8
HETATM    8  C   UNL     1     -12.117  13.392  68.443  1.00  0.00    -0.235 C  
BRANCH   8   9
HETATM    9  S   UNL     1     -11.774  14.482  67.046  1.00  0.00    -0.372 SA 
BRANCH   9  10
HETATM   10  C   UNL     1     -10.034  13.977  66.638  1.00  0.00    -0.278 C  
BRANCH  10  11
HETATM   11  C   UNL     1      -9.128  15.134  66.152  1.00  0.00    -0.276 C  
BRANCH  11  12
HETATM   12  C   UNL     1      -8.517  16.003  67.273  1.00  0.00    -0.206 C  
BRANCH  12  13
HETATM   13  C   UNL     1      -7.766  17.209  66.725  1.00  0.00    -0.279 A  
HETATM   14  C   UNL     1      -6.388  16.993  66.465  1.00  0.00    -0.219 A  
HETATM   15  C   UNL     1      -6.107  19.220  65.650  1.00  0.00    -0.233 A  
HETATM   16  H   UNL     1     -11.562  18.129  65.999  1.00  0.00     0.000 HD 
HETATM   17  C   UNL     1      -5.565  17.987  65.953  1.00  0.00    -0.241 A  
HETATM   18  C   UNL     1     -10.229  20.231  66.112  1.00  0.00    -0.417 C  
HETATM   19  C   UNL     1      -7.467  19.452  65.869  1.00  0.00    -0.297 A  
HETATM   20  C   UNL     1      -8.337  18.475  66.418  1.00  0.00    -0.278 A  
HETATM   21  O   UNL     1     -10.645  17.912  65.876  1.00  0.00    -0.440 OA 
HETATM   22  C   UNL     1     -10.256  18.759  68.090  1.00  0.00    -0.433 C  
HETATM   23  C   UNL     1      -9.825  18.826  66.617  1.00  0.00    -0.356 C  
ENDBRANCH  12  13
ENDBRANCH  11  12
ENDBRANCH  10  11
BRANCH  10  24
HETATM   24  C   UNL     1     -10.043  12.742  65.733  1.00  0.00    -0.296 A  
HETATM   25  C   UNL     1     -10.116  10.398  64.165  1.00  0.00    -0.262 A  
HETATM   26  C   UNL     1     -10.273  12.806  64.351  1.00  0.00    -0.344 A  
HETATM   27  C   UNL     1      -9.853  11.466  66.308  1.00  0.00    -0.250 A  
HETATM   28  C   UNL     1     -10.310  11.645  63.575  1.00  0.00    -0.488 A  
HETATM   29  C   UNL     1      -9.869  10.292  65.536  1.00  0.00    -0.347 A  
BRANCH  29  30
HETATM   30  C   UNL     1      -9.707   8.993  66.209  1.00  0.00    -0.345 C  
HETATM   31  C   UNL     1     -10.524   8.518  67.167  1.00  0.00    -0.370 C  
BRANCH  31  32
HETATM   32  C   UNL     1     -10.362   7.239  67.866  1.00  0.00    -0.201 A  
HETATM   33  N   UNL     1     -10.586   7.296  69.201  1.00  0.00    -0.215 NA 
HETATM   34  C   UNL     1     -10.398   6.186  69.939  1.00  0.00    -0.213 A  
HETATM   35  C   UNL     1      -9.960   4.972  69.371  1.00  0.00    -0.290 A  
HETATM   36  C   UNL     1      -9.731   4.936  67.994  1.00  0.00    -0.202 A  
HETATM   37  C   UNL     1      -9.753   3.840  70.179  1.00  0.00    -0.217 A  
HETATM   38  C   UNL     1      -9.975   3.912  71.551  1.00  0.00    -0.209 A  
HETATM   39  C   UNL     1      -9.926   6.084  67.233  1.00  0.00    -0.177 A  
HETATM   40  C   UNL     1     -10.414   5.108  72.109  1.00  0.00    -0.220 A  
HETATM   41  C   UNL     1     -10.623   6.229  71.306  1.00  0.00    -0.285 A  
HETATM   42 CL   UNL     1     -10.689   5.203  73.805  1.00  0.00    -0.330 Cl 
ENDBRANCH  31  32
ENDBRANCH  29  30
ENDBRANCH  10  24
ENDBRANCH   9  10
ENDBRANCH   8   9
ENDBRANCH   5   8
ENDBRANCH   3   5
TORSDOF 10
ENDMDL
MODEL       30
REMARK 921   NORMALIZED FREE ENERGY PREDICTED BY IDOCK:   -7.47 KCAL/MOL
REMARK 922        TOTAL FREE ENERGY PREDICTED BY IDOCK:  -13.49 KCAL/MOL
REMARK 923 INTER-LIGAND FREE ENERGY PREDICTED BY IDOCK:  -11.30 KCAL/MOL
REMARK 924 INTRA-LIGAND FREE ENERGY PREDICTED BY IDOCK:   -2.19 KCAL/MOL
REMARK 927      BINDING AFFINITY PREDICTED BY RF-SCORE:    0.00 PKD
ROOT
HETATM    1  O   UNL     1     -13.503  15.967  72.889  1.00  0.00    -0.533 OA 
HETATM    2  C   UNL     1     -12.415  15.624  72.153  1.00  0.00    -0.427 C  
HETATM    3  C   UNL     1     -12.695  15.612  70.663  1.00  0.00    -0.443 C  
HETATM    4  O   UNL     1     -11.332  15.407  72.672  1.00  0.00    -0.417 OA 
ENDROOT
BRANCH   3   5
HETATM    5  C   UNL     1     -11.745  14.729  69.856  1.00  0.00    -0.352 C  
HETATM    6  C   UNL     1     -12.379  13.769  68.859  1.00  0.00    -0.067 C  
HETATM    7  C   UNL     1     -11.794  13.236  70.136  1.00  0.00    -0.333 C  
BRANCH   5   8
HETATM    8  C   UNL     1     -10.416  15.417  69.566  1.00  0.00    -0.261 C  
BRANCH   8   9
HETATM    9  S   UNL     1     -10.392  16.752  68.352  1.00  0.00    -0.340 SA 
BRANCH   9  10
HETATM   10  C   UNL     1      -9.206  16.056  67.103  1.00  0.00    -0.207 C  
BRANCH  10  11
HETATM   11  C   UNL     1      -8.521  17.117  66.209  1.00  0.00    -0.279 C  
BRANCH  11  12
HETATM   12  C   UNL     1      -6.983  17.189  66.338  1.00  0.00    -0.296 C  
BRANCH  12  13
HETATM   13  C   UNL     1      -6.501  16.795  67.728  1.00  0.00    -0.162 A  
HETATM   14  C   UNL     1      -6.288  15.406  67.920  1.00  0.00    -0.170 A  
HETATM   15  C   UNL     1      -5.552  15.744  70.166  1.00  0.00    -0.158 A  
HETATM   16  H   UNL     1      -5.656  20.673  67.565  1.00  0.00     0.000 HD 
HETATM   17  C   UNL     1      -5.839  14.883  69.125  1.00  0.00    -0.096 A  
HETATM   18  C   UNL     1      -5.884  19.995  69.952  1.00  0.00    -0.352 C  
HETATM   19  C   UNL     1      -5.725  17.120  69.996  1.00  0.00    -0.232 A  
HETATM   20  C   UNL     1      -6.210  17.692  68.792  1.00  0.00    -0.197 A  
HETATM   21  O   UNL     1      -5.562  19.730  67.622  1.00  0.00    -0.184 OA 
HETATM   22  C   UNL     1      -7.814  19.661  68.455  1.00  0.00    -0.358 C  
HETATM   23  C   UNL     1      -6.361  19.225  68.700  1.00  0.00    -0.249 C  
ENDBRANCH  12  13
ENDBRANCH  11  12
ENDBRANCH  10  11
BRANCH  10  24
HETATM   24  C   UNL     1      -9.862  14.900  66.343  1.00  0.00    -0.292 A  
HETATM   25  C   UNL     1     -11.083  12.705  65.059  1.00  0.00    -0.326 A  
HETATM   26  C   UNL     1     -10.694  15.087  65.230  1.00  0.00    -0.406 A  
HETATM   27  C   UNL     1      -9.661  13.578  66.797  1.00  0.00    -0.268 A  
HETATM   28  C   UNL     1     -11.299  14.001  64.595  1.00  0.00    -0.378 A  
HETATM   29  C   UNL     1     -10.249  12.473  66.155  1.00  0.00    -0.269 A  
BRANCH  29  30
HETATM   30  C   UNL     1     -10.031  11.127  66.709  1.00  0.00    -0.242 C  
HETATM   31  C   UNL     1     -10.946  10.425  67.400  1.00  0.00    -0.335 C  
BRANCH  31  32
HETATM   32  C   UNL     1     -10.738   9.094  67.981  1.00  0.00    -0.147 A  
HETATM   33  N   UNL     1     -10.838   9.048  69.332  1.00  0.00    -0.186 NA 
HETATM   34  C   UNL     1     -10.597   7.883  69.961  1.00  0.00    -0.242 A  
HETATM   35  C   UNL     1     -10.228   6.715  69.264  1.00  0.00    -0.206 A  
HETATM   36  C   UNL     1     -10.126   6.785  67.872  1.00  0.00    -0.189 A  
HETATM   37  C   UNL     1      -9.962   5.522  69.960  1.00  0.00    -0.285 A  
HETATM   38  C   UNL     1     -10.056   5.488  71.348  1.00  0.00    -0.258 A  
HETATM   39  C   UNL     1     -10.376   7.989  67.224  1.00  0.00    -0.371 A  
HETATM   40  C   UNL     1     -10.428   6.639  72.034  1.00  0.00    -0.204 A  
HETATM   41  C   UNL     1     -10.696   7.821  71.343  1.00  0.00    -0.250 A  
HETATM   42 CL   UNL     1     -10.546   6.604  73.750  1.00  0.00    -0.335 Cl 
ENDBRANCH  31  32
ENDBRANCH  29  30
ENDBRANCH  10  24
ENDBRANCH   9  10
ENDBRANCH   8   9
ENDBRANCH   5   8
ENDBRANCH   3   5
TORSDOF 10
ENDMDL
MODEL       31
REMARK 921   NORMALIZED FREE ENERGY PREDICTED BY IDOCK:   -7.45 KCAL/MOL
REMARK 922        TOTAL FREE ENERGY PREDICTED BY IDOCK:  -13.46 KCAL/MOL
REMARK 923 INTER-LIGAND FREE ENERGY PREDICTED BY IDOCK:  -10.94 KCAL/MOL
REMARK 924 INTRA-LIGAND FREE ENERGY PREDICTED BY IDOCK:   -2.52 KCAL/MOL
REMARK 927      BINDING AFFINITY PREDICTED BY RF-SCORE:    0.00 PKD
ROOT
HETATM    1  O   UNL     1     -10.924   4.497  73.919  1.00  0.00    -0.280 OA 
HETATM    2  C   UNL     1     -10.605   5.399  72.956  1.00  0.00    -0.235 C  
HETATM    3  C   UNL     1     -11.142   6.786  73.250  1.00  0.00    -0.167 C  
HETATM    4  O   UNL     1      -9.912   5.096  71.999  1.00  0.00    -0.174 OA 
ENDROOT
BRANCH   3   5
HETATM    5  C   UNL     1     -11.311   7.666  72.012  1.00  0.00    -0.322 C  
HETATM    6  C   UNL     1     -12.716   8.172  71.715  1.00  0.00    -0.356 C  
HETATM    7  C   UNL     1     -12.122   7.084  70.865  1.00  0.00    -0.403 C  
BRANCH   5   8
HETATM    8  C   UNL     1     -10.080   8.519  71.732  1.00  0.00    -0.281 C  
BRANCH   8   9
HETATM    9  S   UNL     1      -9.453   8.586  70.041  1.00  0.00    -0.166 SA 
BRANCH   9  10
HETATM   10  C   UNL     1      -9.905  10.327  69.579  1.00  0.00    -0.220 C  
BRANCH  10  11
HETATM   11  C   UNL     1     -11.397  10.529  69.222  1.00  0.00    -0.325 C  
BRANCH  11  12
HETATM   12  C   UNL     1     -11.660  11.325  67.925  1.00  0.00    -0.330 C  
BRANCH  12  13
HETATM   13  C   UNL     1     -11.731  12.826  68.173  1.00  0.00    -0.392 A  
HETATM   14  C   UNL     1     -11.881  13.206  69.531  1.00  0.00    -0.383 A  
HETATM   15  C   UNL     1     -11.836  15.527  68.975  1.00  0.00    -0.373 A  
HETATM   16  H   UNL     1     -10.099  12.605  64.557  1.00  0.00     0.000 HD 
HETATM   17  C   UNL     1     -11.951  14.535  69.928  1.00  0.00    -0.382 A  
HETATM   18  C   UNL     1     -11.202  14.825  64.812  1.00  0.00    -0.392 C  
HETATM   19  C   UNL     1     -11.660  15.183  67.632  1.00  0.00    -0.290 A  
HETATM   20  C   UNL     1     -11.612  13.839  67.182  1.00  0.00    -0.392 A  
HETATM   21  O   UNL     1     -10.225  12.776  65.483  1.00  0.00    -0.275 OA 
HETATM   22  C   UNL     1     -12.587  12.800  65.053  1.00  0.00    -0.538 C  
HETATM   23  C   UNL     1     -11.409  13.561  65.678  1.00  0.00    -0.298 C  
ENDBRANCH  12  13
ENDBRANCH  11  12
ENDBRANCH  10  11
BRANCH  10  24
HETATM   24  C   UNL     1      -8.916  10.869  68.543  1.00  0.00    -0.157 A  
HETATM   25  C   UNL     1      -7.051  11.955  66.726  1.00  0.00    -0.003 A  
HETATM   26  C   UNL     1      -8.275  10.057  67.595  1.00  0.00    -0.114 A  
HETATM   27  C   UNL     1      -8.593  12.244  68.554  1.00  0.00    -0.068 A  
HETATM   28  C   UNL     1      -7.351  10.595  66.697  1.00  0.00    -0.129 A  
HETATM   29  C   UNL     1      -7.679  12.801  67.643  1.00  0.00    -0.162 A  
BRANCH  29  30
HETATM   30  C   UNL     1      -7.357  14.234  67.741  1.00  0.00    -0.185 C  
HETATM   31  C   UNL     1      -8.186  15.232  67.385  1.00  0.00    -0.207 C  
BRANCH  31  32
HETATM   32  C   UNL     1      -7.872  16.664  67.451  1.00  0.00    -0.165 A  
HETATM   33  N   UNL     1      -7.409  17.193  66.293  1.00  0.00    -0.294 NA 
HETATM   34  C   UNL     1      -7.032  18.484  66.274  1.00  0.00    -0.240 A  
HETATM   35  C   UNL     1      -7.088  19.300  67.423  1.00  0.00    -0.225 A  
HETATM   36  C   UNL     1      -7.563  18.733  68.608  1.00  0.00    -0.357 A  
HETATM   37  C   UNL     1      -6.663  20.639  67.368  1.00  0.00    -0.363 A  
HETATM   38  C   UNL     1      -6.178  21.170  66.176  1.00  0.00    -0.289 A  
HETATM   39  C   UNL     1      -7.953  17.399  68.625  1.00  0.00    -0.271 A  
HETATM   40  C   UNL     1      -6.132  20.367  65.042  1.00  0.00    -0.257 A  
HETATM   41  C   UNL     1      -6.557  19.039  65.095  1.00  0.00    -0.215 A  
HETATM   42 CL   UNL     1      -5.533  21.017  63.565  1.00  0.00    -0.267 Cl 
ENDBRANCH  31  32
ENDBRANCH  29  30
ENDBRANCH  10  24
ENDBRANCH   9  10
ENDBRANCH   8   9
ENDBRANCH   5   8
ENDBRANCH   3   5
TORSDOF 10
ENDMDL
MODEL       32
REMARK 921   NORMALIZED FREE ENERGY PREDICTED BY IDOCK:   -7.44 KCAL/MOL
REMARK 922        TOTAL FREE ENERGY PREDICTED BY IDOCK:  -13.44 KCAL/MOL
REMARK 923 INTER-LIGAND FREE ENERGY PREDICTED BY IDOCK:  -10.74 KCAL/MOL
REMARK 924 INTRA-LIGAND FREE ENERGY PREDICTED BY IDOCK:   -2.70 KCAL/MOL
REMARK 927      BINDING AFFINITY PREDICTED BY RF-SCORE:    0.00 PKD
ROOT
HETATM    1  O   UNL     1      -7.480   3.210  70.336  1.00  0.00    -0.040 OA 
HETATM    2  C   UNL     1      -8.354   4.245  70.413  1.00  0.00    -0.065 C  
HETATM    3  C   UNL     1      -9.145   4.440  69.135  1.00  0.00    -0.181 C  
HETATM    4  O   UNL     1      -8.495   4.891  71.439  1.00  0.00    -0.112 OA 
ENDROOT
BRANCH   3   5
HETATM    5  C   UNL     1      -9.697   5.854  68.951  1.00  0.00    -0.168 C  
HETATM    6  C   UNL     1     -11.092   6.123  69.499  1.00  0.00    -0.490 C  
HETATM    7  C   UNL     1     -10.885   6.008  68.015  1.00  0.00    -0.374 C  
BRANCH   5   8
HETATM    8  C   UNL     1      -8.604   6.915  68.994  1.00  0.00    -0.128 C  
BRANCH   8   9
HETATM    9  S   UNL     1      -8.249   7.837  67.484  1.00  0.00    -0.125 SA 
BRANCH   9  10
HETATM   10  C   UNL     1      -8.731   9.551  68.009  1.00  0.00    -0.120 C  
BRANCH  10  11
HETATM   11  C   UNL     1      -9.586   9.610  69.298  1.00  0.00    -0.190 C  
BRANCH  11  12
HETATM   12  C   UNL     1     -11.110   9.709  69.070  1.00  0.00    -0.104 C  
BRANCH  12  13
HETATM   13  C   UNL     1     -11.754  10.793  69.925  1.00  0.00    -0.412 A  
HETATM   14  C   UNL     1     -11.578  12.118  69.450  1.00  0.00    -0.381 A  
HETATM   15  C   UNL     1     -12.869  13.022  71.243  1.00  0.00    -0.370 A  
HETATM   16  H   UNL     1     -13.662   7.507  71.084  1.00  0.00     0.000 HD 
HETATM   17  C   UNL     1     -12.110  13.219  70.107  1.00  0.00    -0.403 A  
HETATM   18  C   UNL     1     -13.786   9.200  72.908  1.00  0.00    -0.104 C  
HETATM   19  C   UNL     1     -13.082  11.726  71.719  1.00  0.00    -0.480 A  
HETATM   20  C   UNL     1     -12.532  10.577  71.095  1.00  0.00    -0.517 A  
HETATM   21  O   UNL     1     -13.479   8.363  70.715  1.00  0.00     0.222 OA 
HETATM   22  C   UNL     1     -11.559   8.457  72.155  1.00  0.00    -0.442 C  
HETATM   23  C   UNL     1     -12.830   9.186  71.693  1.00  0.00    -0.363 C  
ENDBRANCH  12  13
ENDBRANCH  11  12
ENDBRANCH  10  11
BRANCH  10  24
HETATM   24  C   UNL     1      -9.307  10.324  66.819  1.00  0.00    -0.187 A  
HETATM   25  C   UNL     1     -10.278  11.843  64.649  1.00  0.00    -0.316 A  
HETATM   26  C   UNL     1      -9.772   9.699  65.652  1.00  0.00    -0.363 A  
HETATM   27  C   UNL     1      -9.340  11.734  66.866  1.00  0.00    -0.197 A  
HETATM   28  C   UNL     1     -10.252  10.452  64.578  1.00  0.00    -0.281 A  
HETATM   29  C   UNL     1      -9.838  12.503  65.799  1.00  0.00    -0.244 A  
BRANCH  29  30
HETATM   30  C   UNL     1      -9.803  13.971  65.900  1.00  0.00    -0.302 C  
HETATM   31  C   UNL     1      -9.717  14.659  67.053  1.00  0.00    -0.247 C  
BRANCH  31  32
HETATM   32  C   UNL     1      -9.707  16.121  67.174  1.00  0.00    -0.233 A  
HETATM   33  N   UNL     1      -8.608  16.720  66.654  1.00  0.00    -0.228 NA 
HETATM   34  C   UNL     1      -8.478  18.054  66.776  1.00  0.00    -0.257 A  
HETATM   35  C   UNL     1      -9.438  18.845  67.441  1.00  0.00    -0.334 A  
HETATM   36  C   UNL     1     -10.560  18.206  67.973  1.00  0.00    -0.359 A  
HETATM   37  C   UNL     1      -9.254  20.233  67.567  1.00  0.00    -0.491 A  
HETATM   38  C   UNL     1      -8.117  20.838  67.040  1.00  0.00    -0.209 A  
HETATM   39  C   UNL     1     -10.693  16.828  67.846  1.00  0.00    -0.347 A  
HETATM   40  C   UNL     1      -7.175  20.058  66.378  1.00  0.00    -0.265 A  
HETATM   41  C   UNL     1      -7.360  18.681  66.249  1.00  0.00    -0.287 A  
HETATM   42 CL   UNL     1      -5.767  20.800  65.724  1.00  0.00    -0.246 Cl 
ENDBRANCH  31  32
ENDBRANCH  29  30
ENDBRANCH  10  24
ENDBRANCH   9  10
ENDBRANCH   8   9
ENDBRANCH   5   8
ENDBRANCH   3   5
TORSDOF 10
ENDMDL
MODEL       33
REMARK 921   NORMALIZED FREE ENERGY PREDICTED BY IDOCK:   -7.42 KCAL/MOL
REMARK 922        TOTAL FREE ENERGY PREDICTED BY IDOCK:  -13.42 KCAL/MOL
REMARK 923 INTER-LIGAND FREE ENERGY PREDICTED BY IDOCK:  -10.72 KCAL/MOL
REMARK 924 INTRA-LIGAND FREE ENERGY PREDICTED BY IDOCK:   -2.70 KCAL/MOL
REMARK 927      BINDING AFFINITY PREDICTED BY RF-SCORE:    0.00 PKD
ROOT
HETATM    1  O   UNL     1     -11.528   5.095  72.655  1.00  0.00    -0.229 OA 
HETATM    2  C   UNL     1     -11.437   6.446  72.563  1.00  0.00    -0.247 C  
HETATM    3  C   UNL     1     -12.520   7.049  71.691  1.00  0.00    -0.413 C  
HETATM    4  O   UNL     1     -10.589   7.074  73.177  1.00  0.00    -0.259 OA 
ENDROOT
BRANCH   3   5
HETATM    5  C   UNL     1     -12.162   8.415  71.106  1.00  0.00    -0.248 C  
HETATM    6  C   UNL     1     -12.320   9.619  72.025  1.00  0.00    -0.376 C  
HETATM    7  C   UNL     1     -13.306   9.397  70.913  1.00  0.00    -0.075 C  
BRANCH   5   8
HETATM    8  C   UNL     1     -11.033   8.333  70.085  1.00  0.00    -0.222 C  
BRANCH   8   9
HETATM    9  S   UNL     1      -9.593   9.395  70.316  1.00  0.00    -0.263 SA 
BRANCH   9  10
HETATM   10  C   UNL     1      -9.918  10.695  69.029  1.00  0.00    -0.213 C  
BRANCH  10  11
HETATM   11  C   UNL     1     -11.100  10.377  68.081  1.00  0.00    -0.344 C  
BRANCH  11  12
HETATM   12  C   UNL     1     -11.637  11.582  67.277  1.00  0.00    -0.280 C  
BRANCH  12  13
HETATM   13  C   UNL     1     -11.032  11.661  65.882  1.00  0.00    -0.334 A  
HETATM   14  C   UNL     1     -10.407  10.472  65.428  1.00  0.00    -0.292 A  
HETATM   15  C   UNL     1      -9.867  11.460  63.323  1.00  0.00    -0.428 A  
HETATM   16  H   UNL     1     -13.568  14.719  65.920  1.00  0.00     0.000 HD 
HETATM   17  C   UNL     1      -9.816  10.375  64.175  1.00  0.00    -0.379 A  
HETATM   18  C   UNL     1     -11.797  15.160  64.224  1.00  0.00    -0.263 C  
HETATM   19  C   UNL     1     -10.500  12.635  63.733  1.00  0.00    -0.411 A  
HETATM   20  C   UNL     1     -11.090  12.786  65.014  1.00  0.00    -0.317 A  
HETATM   21  O   UNL     1     -13.149  13.896  65.700  1.00  0.00    -0.625 OA 
HETATM   22  C   UNL     1     -11.110  14.822  66.568  1.00  0.00    -0.334 C  
HETATM   23  C   UNL     1     -11.772  14.123  65.371  1.00  0.00    -0.347 C  
ENDBRANCH  12  13
ENDBRANCH  11  12
ENDBRANCH  10  11
BRANCH  10  24
HETATM   24  C   UNL     1      -8.613  11.077  68.326  1.00  0.00    -0.143 A  
HETATM   25  C   UNL     1      -6.196  11.883  67.113  1.00  0.00    -0.154 A  
HETATM   26  C   UNL     1      -7.704  10.130  67.829  1.00  0.00    -0.090 A  
HETATM   27  C   UNL     1      -8.273  12.441  68.199  1.00  0.00    -0.173 A  
HETATM   28  C   UNL     1      -6.508  10.529  67.230  1.00  0.00    -0.071 A  
HETATM   29  C   UNL     1      -7.081  12.858  67.581  1.00  0.00    -0.151 A  
BRANCH  29  30
HETATM   30  C   UNL     1      -6.772  14.295  67.523  1.00  0.00    -0.128 C  
HETATM   31  C   UNL     1      -7.471  15.256  68.154  1.00  0.00    -0.117 C  
BRANCH  31  32
HETATM   32  C   UNL     1      -7.193  16.695  68.086  1.00  0.00    -0.157 A  
HETATM   33  N   UNL     1      -7.070  17.185  66.829  1.00  0.00    -0.198 NA 
HETATM   34  C   UNL     1      -6.749  18.482  66.667  1.00  0.00    -0.193 A  
HETATM   35  C   UNL     1      -6.522  19.342  67.760  1.00  0.00    -0.243 A  
HETATM   36  C   UNL     1      -6.650  18.815  69.047  1.00  0.00    -0.306 A  
HETATM   37  C   UNL     1      -6.167  20.686  67.549  1.00  0.00    -0.309 A  
HETATM   38  C   UNL     1      -6.031  21.177  66.254  1.00  0.00    -0.328 A  
HETATM   39  C   UNL     1      -6.981  17.476  69.214  1.00  0.00    -0.172 A  
HETATM   40  C   UNL     1      -6.264  20.330  65.176  1.00  0.00    -0.263 A  
HETATM   41  C   UNL     1      -6.620  18.997  65.386  1.00  0.00    -0.292 A  
HETATM   42 CL   UNL     1      -6.097  20.931  63.572  1.00  0.00    -0.328 Cl 
ENDBRANCH  31  32
ENDBRANCH  29  30
ENDBRANCH  10  24
ENDBRANCH   9  10
ENDBRANCH   8   9
ENDBRANCH   5   8
ENDBRANCH   3   5
TORSDOF 10
ENDMDL
MODEL       34
REMARK 921   NORMALIZED FREE ENERGY PREDICTED BY IDOCK:   -7.41 KCAL/MOL
REMARK 922        TOTAL FREE ENERGY PREDICTED BY IDOCK:  -13.40 KCAL/MOL
REMARK 923 INTER-LIGAND FREE ENERGY PREDICTED BY IDOCK:  -12.06 KCAL/MOL
REMARK 924 INTRA-LIGAND FREE ENERGY PREDICTED BY IDOCK:   -1.34 KCAL/MOL
REMARK 927      BINDING AFFINITY PREDICTED BY RF-SCORE:    0.00 PKD
ROOT
HETATM    1  O   UNL     1      -6.820   8.199  72.767  1.00  0.00    -0.082 OA 
HETATM    2  C   UNL     1      -7.919   7.969  72.004  1.00  0.00    -0.118 C  
HETATM    3  C   UNL     1      -9.205   8.394  72.683  1.00  0.00    -0.325 C  
HETATM    4  O   UNL     1      -7.830   7.516  70.874  1.00  0.00    -0.092 OA 
ENDROOT
BRANCH   3   5
HETATM    5  C   UNL     1     -10.452   7.681  72.162  1.00  0.00    -0.270 C  
HETATM    6  C   UNL     1     -11.283   6.915  73.183  1.00  0.00    -0.156 C  
HETATM    7  C   UNL     1     -10.436   6.161  72.198  1.00  0.00    -0.237 C  
BRANCH   5   8
HETATM    8  C   UNL     1     -11.101   8.419  70.997  1.00  0.00    -0.258 C  
BRANCH   8   9
HETATM    9  S   UNL     1     -10.420  10.018  70.513  1.00  0.00    -0.098 SA 
BRANCH   9  10
HETATM   10  C   UNL     1     -11.933  10.835  69.811  1.00  0.00    -0.325 C  
BRANCH  10  11
HETATM   11  C   UNL     1     -11.932  10.968  68.269  1.00  0.00    -0.113 C  
BRANCH  11  12
HETATM   12  C   UNL     1     -10.854  11.913  67.693  1.00  0.00    -0.271 C  
BRANCH  12  13
HETATM   13  C   UNL     1     -11.120  12.274  66.238  1.00  0.00    -0.342 A  
HETATM   14  C   UNL     1     -12.054  13.323  66.038  1.00  0.00    -0.491 A  
HETATM   15  C   UNL     1     -11.788  13.222  63.668  1.00  0.00    -0.515 A  
HETATM   16  H   UNL     1      -7.669  10.314  66.046  1.00  0.00     0.000 HD 
HETATM   17  C   UNL     1     -12.398  13.779  64.773  1.00  0.00    -0.420 A  
HETATM   18  C   UNL     1      -8.802  10.174  63.831  1.00  0.00    -0.248 C  
HETATM   19  C   UNL     1     -10.843  12.206  63.836  1.00  0.00    -0.461 A  
HETATM   20  C   UNL     1     -10.484  11.691  65.107  1.00  0.00    -0.329 A  
HETATM   21  O   UNL     1      -8.321  11.004  65.996  1.00  0.00    -0.168 OA 
HETATM   22  C   UNL     1      -9.980   9.278  65.803  1.00  0.00    -0.215 C  
HETATM   23  C   UNL     1      -9.425  10.572  65.189  1.00  0.00    -0.233 C  
ENDBRANCH  12  13
ENDBRANCH  11  12
ENDBRANCH  10  11
BRANCH  10  24
HETATM   24  C   UNL     1     -12.230  12.131  70.570  1.00  0.00    -0.392 A  
HETATM   25  C   UNL     1     -12.779  14.584  71.851  1.00  0.00    -0.410 A  
HETATM   26  C   UNL     1     -13.043  12.182  71.712  1.00  0.00    -0.457 A  
HETATM   27  C   UNL     1     -11.702  13.348  70.086  1.00  0.00    -0.266 A  
HETATM   28  C   UNL     1     -13.316  13.396  72.346  1.00  0.00    -0.629 A  
HETATM   29  C   UNL     1     -11.952  14.574  70.725  1.00  0.00    -0.388 A  
BRANCH  29  30
HETATM   30  C   UNL     1     -11.404  15.809  70.141  1.00  0.00    -0.361 C  
HETATM   31  C   UNL     1     -10.568  15.853  69.087  1.00  0.00    -0.246 C  
BRANCH  31  32
HETATM   32  C   UNL     1      -9.992  17.071  68.508  1.00  0.00    -0.293 A  
HETATM   33  N   UNL     1      -9.014  16.853  67.596  1.00  0.00    -0.217 NA 
HETATM   34  C   UNL     1      -8.379  17.911  67.059  1.00  0.00    -0.234 A  
HETATM   35  C   UNL     1      -8.687  19.237  67.425  1.00  0.00    -0.326 A  
HETATM   36  C   UNL     1      -9.695  19.440  68.370  1.00  0.00    -0.488 A  
HETATM   37  C   UNL     1      -7.985  20.315  66.857  1.00  0.00    -0.349 A  
HETATM   38  C   UNL     1      -6.975  20.080  65.930  1.00  0.00    -0.305 A  
HETATM   39  C   UNL     1     -10.350  18.346  68.924  1.00  0.00    -0.168 A  
HETATM   40  C   UNL     1      -6.678  18.771  65.564  1.00  0.00    -0.250 A  
HETATM   41  C   UNL     1      -7.377  17.702  66.124  1.00  0.00    -0.344 A  
HETATM   42 CL   UNL     1      -5.429  18.473  64.418  1.00  0.00    -0.171 Cl 
ENDBRANCH  31  32
ENDBRANCH  29  30
ENDBRANCH  10  24
ENDBRANCH   9  10
ENDBRANCH   8   9
ENDBRANCH   5   8
ENDBRANCH   3   5
TORSDOF 10
ENDMDL
MODEL       35
REMARK 921   NORMALIZED FREE ENERGY PREDICTED BY IDOCK:   -7.40 KCAL/MOL
REMARK 922        TOTAL FREE ENERGY PREDICTED BY IDOCK:  -13.39 KCAL/MOL
REMARK 923 INTER-LIGAND FREE ENERGY PREDICTED BY IDOCK:  -11.01 KCAL/MOL
REMARK 924 INTRA-LIGAND FREE ENERGY PREDICTED BY IDOCK:   -2.38 KCAL/MOL
REMARK 927      BINDING AFFINITY PREDICTED BY RF-SCORE:    0.00 PKD
ROOT
HETATM    1  O   UNL     1      -9.951   5.854  74.192  1.00  0.00    -0.193 OA 
HETATM    2  C   UNL     1     -10.562   5.764  72.983  1.00  0.00    -0.242 C  
HETATM    3  C   UNL     1      -9.776   6.439  71.877  1.00  0.00    -0.162 C  
HETATM    4  O   UNL     1     -11.606   5.149  72.837  1.00  0.00    -0.297 OA 
ENDROOT
BRANCH   3   5
HETATM    5  C   UNL     1     -10.623   6.859  70.675  1.00  0.00    -0.248 C  
HETATM    6  C   UNL     1     -11.036   5.757  69.709  1.00  0.00    -0.318 C  
HETATM    7  C   UNL     1      -9.973   6.740  69.306  1.00  0.00    -0.168 C  
BRANCH   5   8
HETATM    8  C   UNL     1     -11.545   8.029  70.993  1.00  0.00    -0.283 C  
BRANCH   8   9
HETATM    9  S   UNL     1     -10.838   9.689  71.029  1.00  0.00    -0.312 SA 
BRANCH   9  10
HETATM   10  C   UNL     1     -12.092  10.616  70.020  1.00  0.00    -0.316 C  
BRANCH  10  11
HETATM   11  C   UNL     1     -11.774  10.683  68.506  1.00  0.00    -0.200 C  
BRANCH  11  12
HETATM   12  C   UNL     1     -10.441  10.025  68.087  1.00  0.00    -0.250 C  
BRANCH  12  13
HETATM   13  C   UNL     1      -9.378  11.054  67.724  1.00  0.00    -0.162 A  
HETATM   14  C   UNL     1      -9.868  12.357  67.452  1.00  0.00    -0.199 A  
HETATM   15  C   UNL     1      -7.666  13.199  67.080  1.00  0.00    -0.032 A  
HETATM   16  H   UNL     1      -7.271   8.198  69.510  1.00  0.00     0.000 HD 
HETATM   17  C   UNL     1      -9.029  13.411  67.117  1.00  0.00    -0.227 A  
HETATM   18  C   UNL     1      -5.766   9.488  67.999  1.00  0.00    -0.041 C  
HETATM   19  C   UNL     1      -7.152  11.933  67.371  1.00  0.00    -0.129 A  
HETATM   20  C   UNL     1      -7.975  10.823  67.689  1.00  0.00    -0.110 A  
HETATM   21  O   UNL     1      -7.679   9.034  69.318  1.00  0.00    -0.086 OA 
HETATM   22  C   UNL     1      -7.726   8.365  67.012  1.00  0.00    -0.093 C  
HETATM   23  C   UNL     1      -7.312   9.465  68.001  1.00  0.00    -0.079 C  
ENDBRANCH  12  13
ENDBRANCH  11  12
ENDBRANCH  10  11
BRANCH  10  24
HETATM   24  C   UNL     1     -12.400  11.965  70.674  1.00  0.00    -0.405 A  
HETATM   25  C   UNL     1     -12.976  14.505  71.759  1.00  0.00    -0.413 A  
HETATM   26  C   UNL     1     -13.171  12.094  71.840  1.00  0.00    -0.474 A  
HETATM   27  C   UNL     1     -11.928  13.148  70.066  1.00  0.00    -0.391 A  
HETATM   28  C   UNL     1     -13.456  13.351  72.376  1.00  0.00    -0.685 A  
HETATM   29  C   UNL     1     -12.192  14.419  70.606  1.00  0.00    -0.414 A  
BRANCH  29  30
HETATM   30  C   UNL     1     -11.704  15.612  69.894  1.00  0.00    -0.372 C  
HETATM   31  C   UNL     1     -10.545  15.679  69.215  1.00  0.00    -0.238 C  
BRANCH  31  32
HETATM   32  C   UNL     1     -10.031  16.866  68.523  1.00  0.00    -0.275 A  
HETATM   33  N   UNL     1      -8.891  17.375  69.050  1.00  0.00    -0.132 NA 
HETATM   34  C   UNL     1      -8.380  18.503  68.523  1.00  0.00    -0.334 A  
HETATM   35  C   UNL     1      -9.000  19.180  67.453  1.00  0.00    -0.328 A  
HETATM   36  C   UNL     1     -10.176  18.641  66.928  1.00  0.00    -0.423 A  
HETATM   37  C   UNL     1      -8.446  20.369  66.945  1.00  0.00    -0.315 A  
HETATM   38  C   UNL     1      -7.282  20.890  67.501  1.00  0.00    -0.364 A  
HETATM   39  C   UNL     1     -10.703  17.476  67.473  1.00  0.00    -0.280 A  
HETATM   40  C   UNL     1      -6.667  20.217  68.551  1.00  0.00    -0.296 A  
HETATM   41  C   UNL     1      -7.214  19.035  69.052  1.00  0.00    -0.351 A  
HETATM   42 CL   UNL     1      -5.227  20.857  69.243  1.00  0.00    -0.373 Cl 
ENDBRANCH  31  32
ENDBRANCH  29  30
ENDBRANCH  10  24
ENDBRANCH   9  10
ENDBRANCH   8   9
ENDBRANCH   5   8
ENDBRANCH   3   5
TORSDOF 10
ENDMDL
MODEL       36
REMARK 921   NORMALIZED FREE ENERGY PREDICTED BY IDOCK:   -7.39 KCAL/MOL
REMARK 922        TOTAL FREE ENERGY PREDICTED BY IDOCK:  -13.36 KCAL/MOL
REMARK 923 INTER-LIGAND FREE ENERGY PREDICTED BY IDOCK:  -11.49 KCAL/MOL
REMARK 924 INTRA-LIGAND FREE ENERGY PREDICTED BY IDOCK:   -1.87 KCAL/MOL
REMARK 927      BINDING AFFINITY PREDICTED BY RF-SCORE:    0.00 PKD
ROOT
HETATM    1  O   UNL     1     -10.853  19.713  66.044  1.00  0.00    -0.435 OA 
HETATM    2  C   UNL     1     -10.112  18.881  66.819  1.00  0.00    -0.375 C  
HETATM    3  C   UNL     1      -8.623  19.140  66.701  1.00  0.00    -0.329 C  
HETATM    4  O   UNL     1     -10.632  18.061  67.557  1.00  0.00    -0.395 OA 
ENDROOT
BRANCH   3   5
HETATM    5  C   UNL     1      -7.749  17.942  67.072  1.00  0.00    -0.232 C  
HETATM    6  C   UNL     1      -7.293  17.847  68.521  1.00  0.00    -0.268 C  
HETATM    7  C   UNL     1      -6.309  18.239  67.456  1.00  0.00    -0.186 C  
BRANCH   5   8
HETATM    8  C   UNL     1      -8.091  16.699  66.259  1.00  0.00    -0.326 C  
BRANCH   8   9
HETATM    9  S   UNL     1      -8.022  15.095  67.082  1.00  0.00    -0.191 SA 
BRANCH   9  10
HETATM   10  C   UNL     1      -9.818  14.623  67.062  1.00  0.00    -0.244 C  
BRANCH  10  11
HETATM   11  C   UNL     1     -10.417  14.317  68.456  1.00  0.00    -0.253 C  
BRANCH  11  12
HETATM   12  C   UNL     1     -11.897  13.878  68.452  1.00  0.00    -0.409 C  
BRANCH  12  13
HETATM   13  C   UNL     1     -12.427  13.619  69.857  1.00  0.00    -0.226 A  
HETATM   14  C   UNL     1     -13.007  14.744  70.498  1.00  0.00    -0.336 A  
HETATM   15  C   UNL     1     -13.553  13.462  72.437  1.00  0.00    -0.708 A  
HETATM   16  H   UNL     1     -12.179   9.964  68.320  1.00  0.00     0.000 HD 
HETATM   17  C   UNL     1     -13.546  14.674  71.775  1.00  0.00    -0.481 A  
HETATM   18  C   UNL     1     -12.073   9.805  70.805  1.00  0.00    -0.364 C  
HETATM   19  C   UNL     1     -13.014  12.331  71.818  1.00  0.00    -0.431 A  
HETATM   20  C   UNL     1     -12.428  12.365  70.527  1.00  0.00    -0.270 A  
HETATM   21  O   UNL     1     -12.526  10.767  68.689  1.00  0.00    -0.348 OA 
HETATM   22  C   UNL     1     -10.356  11.142  69.647  1.00  0.00     0.084 C  
HETATM   23  C   UNL     1     -11.864  11.061  69.927  1.00  0.00    -0.353 C  
ENDBRANCH  12  13
ENDBRANCH  11  12
ENDBRANCH  10  11
BRANCH  10  24
HETATM   24  C   UNL     1     -10.067  13.545  66.004  1.00  0.00    -0.316 A  
HETATM   25  C   UNL     1     -10.578  11.481  64.149  1.00  0.00    -0.420 A  
HETATM   26  C   UNL     1     -10.426  13.838  64.679  1.00  0.00    -0.433 A  
HETATM   27  C   UNL     1      -9.973  12.185  66.372  1.00  0.00    -0.243 A  
HETATM   28  C   UNL     1     -10.680  12.816  63.762  1.00  0.00    -0.397 A  
HETATM   29  C   UNL     1     -10.208  11.147  65.454  1.00  0.00    -0.327 A  
BRANCH  29  30
HETATM   30  C   UNL     1     -10.134   9.753  65.919  1.00  0.00    -0.314 C  
HETATM   31  C   UNL     1      -9.571   9.358  67.076  1.00  0.00    -0.209 C  
BRANCH  31  32
HETATM   32  C   UNL     1      -9.466   7.972  67.542  1.00  0.00    -0.146 A  
HETATM   33  N   UNL     1      -9.336   7.054  66.554  1.00  0.00    -0.165 NA 
HETATM   34  C   UNL     1      -9.299   5.749  66.881  1.00  0.00    -0.127 A  
HETATM   35  C   UNL     1      -9.406   5.305  68.215  1.00  0.00    -0.143 A  
HETATM   36  C   UNL     1      -9.544   6.268  69.217  1.00  0.00    -0.147 A  
HETATM   37  C   UNL     1      -9.386   3.931  68.513  1.00  0.00    -0.224 A  
HETATM   38  C   UNL     1      -9.264   2.996  67.490  1.00  0.00    -0.233 A  
HETATM   39  C   UNL     1      -9.582   7.615  68.878  1.00  0.00    -0.150 A  
HETATM   40  C   UNL     1      -9.150   3.435  66.175  1.00  0.00    -0.152 A  
HETATM   41  C   UNL     1      -9.166   4.798  65.880  1.00  0.00    -0.149 A  
HETATM   42 CL   UNL     1      -9.000   2.284  64.906  1.00  0.00    -0.121 Cl 
ENDBRANCH  31  32
ENDBRANCH  29  30
ENDBRANCH  10  24
ENDBRANCH   9  10
ENDBRANCH   8   9
ENDBRANCH   5   8
ENDBRANCH   3   5
TORSDOF 10
ENDMDL
MODEL       37
REMARK 921   NORMALIZED FREE ENERGY PREDICTED BY IDOCK:   -7.38 KCAL/MOL
REMARK 922        TOTAL FREE ENERGY PREDICTED BY IDOCK:  -13.36 KCAL/MOL
REMARK 923 INTER-LIGAND FREE ENERGY PREDICTED BY IDOCK:  -11.39 KCAL/MOL
REMARK 924 INTRA-LIGAND FREE ENERGY PREDICTED BY IDOCK:   -1.97 KCAL/MOL
REMARK 927      BINDING AFFINITY PREDICTED BY RF-SCORE:    0.00 PKD
ROOT
HETATM    1  O   UNL     1     -13.869  15.574  72.747  1.00  0.00    -0.529 OA 
HETATM    2  C   UNL     1     -12.705  15.382  72.075  1.00  0.00    -0.376 C  
HETATM    3  C   UNL     1     -12.876  15.466  70.572  1.00  0.00    -0.425 C  
HETATM    4  O   UNL     1     -11.647  15.216  72.660  1.00  0.00    -0.412 OA 
ENDROOT
BRANCH   3   5
HETATM    5  C   UNL     1     -11.795  14.732  69.778  1.00  0.00    -0.362 C  
HETATM    6  C   UNL     1     -12.269  13.789  68.681  1.00  0.00    -0.202 C  
HETATM    7  C   UNL     1     -11.719  13.224  69.959  1.00  0.00    -0.295 C  
BRANCH   5   8
HETATM    8  C   UNL     1     -10.523  15.557  69.628  1.00  0.00    -0.286 C  
BRANCH   8   9
HETATM    9  S   UNL     1     -10.373  16.643  68.195  1.00  0.00    -0.319 SA 
BRANCH   9  10
HETATM   10  C   UNL     1      -9.059  15.755  67.229  1.00  0.00    -0.207 C  
BRANCH  10  11
HETATM   11  C   UNL     1      -8.016  16.684  66.561  1.00  0.00    -0.342 C  
BRANCH  11  12
HETATM   12  C   UNL     1      -8.465  18.151  66.382  1.00  0.00    -0.263 C  
BRANCH  12  13
HETATM   13  C   UNL     1      -7.290  19.120  66.393  1.00  0.00    -0.263 A  
HETATM   14  C   UNL     1      -6.804  19.491  65.113  1.00  0.00    -0.156 A  
HETATM   15  C   UNL     1      -5.164  20.943  66.064  1.00  0.00    -0.228 A  
HETATM   16  H   UNL     1      -8.829  19.558  70.029  1.00  0.00     0.000 HD 
HETATM   17  C   UNL     1      -5.745  20.374  64.948  1.00  0.00    -0.246 A  
HETATM   18  C   UNL     1      -6.432  20.237  70.079  1.00  0.00    -0.254 C  
HETATM   19  C   UNL     1      -5.641  20.617  67.336  1.00  0.00    -0.233 A  
HETATM   20  C   UNL     1      -6.700  19.698  67.550  1.00  0.00    -0.242 A  
HETATM   21  O   UNL     1      -8.547  19.736  69.140  1.00  0.00    -0.189 OA 
HETATM   22  C   UNL     1      -6.979  17.935  69.387  1.00  0.00    -0.073 C  
HETATM   23  C   UNL     1      -7.159  19.408  68.994  1.00  0.00    -0.362 C  
ENDBRANCH  12  13
ENDBRANCH  11  12
ENDBRANCH  10  11
BRANCH  10  24
HETATM   24  C   UNL     1      -9.698  14.727  66.292  1.00  0.00    -0.326 A  
HETATM   25  C   UNL     1     -10.914  12.762  64.673  1.00  0.00    -0.355 A  
HETATM   26  C   UNL     1     -10.337  15.075  65.092  1.00  0.00    -0.422 A  
HETATM   27  C   UNL     1      -9.689  13.363  66.658  1.00  0.00    -0.275 A  
HETATM   28  C   UNL     1     -10.939  14.102  64.291  1.00  0.00    -0.104 A  
HETATM   29  C   UNL     1     -10.275  12.372  65.852  1.00  0.00    -0.273 A  
BRANCH  29  30
HETATM   30  C   UNL     1     -10.265  10.976  66.318  1.00  0.00    -0.295 C  
HETATM   31  C   UNL     1     -10.566  10.582  67.570  1.00  0.00    -0.306 C  
BRANCH  31  32
HETATM   32  C   UNL     1     -10.536   9.200  68.058  1.00  0.00    -0.224 A  
HETATM   33  N   UNL     1     -10.471   9.080  69.406  1.00  0.00    -0.220 NA 
HETATM   34  C   UNL     1     -10.373   7.851  69.945  1.00  0.00    -0.224 A  
HETATM   35  C   UNL     1     -10.319   6.686  69.153  1.00  0.00    -0.220 A  
HETATM   36  C   UNL     1     -10.382   6.832  67.765  1.00  0.00    -0.245 A  
HETATM   37  C   UNL     1     -10.194   5.420  69.753  1.00  0.00    -0.348 A  
HETATM   38  C   UNL     1     -10.116   5.309  71.138  1.00  0.00    -0.284 A  
HETATM   39  C   UNL     1     -10.483   8.102  67.210  1.00  0.00    -0.379 A  
HETATM   40  C   UNL     1     -10.178   6.459  71.918  1.00  0.00    -0.195 A  
HETATM   41  C   UNL     1     -10.307   7.714  71.323  1.00  0.00    -0.215 A  
HETATM   42 CL   UNL     1     -10.083   6.328  73.632  1.00  0.00    -0.214 Cl 
ENDBRANCH  31  32
ENDBRANCH  29  30
ENDBRANCH  10  24
ENDBRANCH   9  10
ENDBRANCH   8   9
ENDBRANCH   5   8
ENDBRANCH   3   5
TORSDOF 10
ENDMDL
MODEL       38
REMARK 921   NORMALIZED FREE ENERGY PREDICTED BY IDOCK:   -7.36 KCAL/MOL
REMARK 922        TOTAL FREE ENERGY PREDICTED BY IDOCK:  -13.32 KCAL/MOL
REMARK 923 INTER-LIGAND FREE ENERGY PREDICTED BY IDOCK:  -12.67 KCAL/MOL
REMARK 924 INTRA-LIGAND FREE ENERGY PREDICTED BY IDOCK:   -0.64 KCAL/MOL
REMARK 927      BINDING AFFINITY PREDICTED BY RF-SCORE:    0.00 PKD
ROOT
HETATM    1  O   UNL     1     -13.108  11.535  71.838  1.00  0.00    -0.481 OA 
HETATM    2  C   UNL     1     -13.355  12.862  71.986  1.00  0.00    -0.482 C  
HETATM    3  C   UNL     1     -12.451  13.726  71.130  1.00  0.00    -0.450 C  
HETATM    4  O   UNL     1     -14.255  13.270  72.702  1.00  0.00    -0.724 OA 
ENDROOT
BRANCH   3   5
HETATM    5  C   UNL     1     -12.285  15.156  71.643  1.00  0.00    -0.412 C  
HETATM    6  C   UNL     1     -12.111  15.331  73.145  1.00  0.00    -0.537 C  
HETATM    7  C   UNL     1     -13.412  15.711  72.497  1.00  0.00    -0.630 C  
BRANCH   5   8
HETATM    8  C   UNL     1     -11.559  16.051  70.645  1.00  0.00    -0.383 C  
BRANCH   8   9
HETATM    9  S   UNL     1     -11.603  15.597  68.900  1.00  0.00    -0.386 SA 
BRANCH   9  10
HETATM   10  C   UNL     1     -10.040  14.602  68.767  1.00  0.00    -0.235 C  
BRANCH  10  11
HETATM   11  C   UNL     1      -8.819  15.395  68.241  1.00  0.00    -0.176 C  
BRANCH  11  12
HETATM   12  C   UNL     1      -8.774  16.882  68.656  1.00  0.00    -0.267 C  
BRANCH  12  13
HETATM   13  C   UNL     1      -7.974  17.731  67.677  1.00  0.00    -0.216 A  
HETATM   14  C   UNL     1      -6.595  17.412  67.590  1.00  0.00    -0.168 A  
HETATM   15  C   UNL     1      -6.230  19.076  65.917  1.00  0.00    -0.233 A  
HETATM   16  H   UNL     1     -11.720  18.289  66.476  1.00  0.00     0.000 HD 
HETATM   17  C   UNL     1      -5.730  18.085  66.737  1.00  0.00    -0.176 A  
HETATM   18  C   UNL     1     -10.338  20.226  65.737  1.00  0.00    -0.267 C  
HETATM   19  C   UNL     1      -7.590  19.392  65.961  1.00  0.00    -0.308 A  
HETATM   20  C   UNL     1      -8.502  18.751  66.837  1.00  0.00    -0.285 A  
HETATM   21  O   UNL     1     -10.806  18.032  66.494  1.00  0.00    -0.197 OA 
HETATM   22  C   UNL     1     -10.468  19.738  68.150  1.00  0.00    -0.494 C  
HETATM   23  C   UNL     1      -9.987  19.167  66.808  1.00  0.00    -0.361 C  
ENDBRANCH  12  13
ENDBRANCH  11  12
ENDBRANCH  10  11
BRANCH  10  24
HETATM   24  C   UNL     1     -10.315  13.285  68.037  1.00  0.00    -0.243 A  
HETATM   25  C   UNL     1     -10.892  10.816  66.799  1.00  0.00    -0.256 A  
HETATM   26  C   UNL     1     -10.527  13.204  66.653  1.00  0.00    -0.280 A  
HETATM   27  C   UNL     1     -10.403  12.090  68.785  1.00  0.00    -0.181 A  
HETATM   28  C   UNL     1     -10.813  11.982  66.040  1.00  0.00    -0.329 A  
HETATM   29  C   UNL     1     -10.672  10.851  68.179  1.00  0.00    -0.256 A  
BRANCH  29  30
HETATM   30  C   UNL     1     -10.792   9.653  69.026  1.00  0.00    -0.206 C  
HETATM   31  C   UNL     1     -10.242   9.519  70.246  1.00  0.00    -0.312 C  
BRANCH  31  32
HETATM   32  C   UNL     1     -10.330   8.324  71.093  1.00  0.00    -0.202 A  
HETATM   33  N   UNL     1      -9.922   7.179  70.493  1.00  0.00    -0.187 NA 
HETATM   34  C   UNL     1     -10.028   6.020  71.169  1.00  0.00    -0.186 A  
HETATM   35  C   UNL     1     -10.563   5.955  72.472  1.00  0.00    -0.256 A  
HETATM   36  C   UNL     1     -10.981   7.146  73.069  1.00  0.00    -0.357 A  
HETATM   37  C   UNL     1     -10.678   4.721  73.136  1.00  0.00    -0.309 A  
HETATM   38  C   UNL     1     -10.268   3.549  72.507  1.00  0.00    -0.228 A  
HETATM   39  C   UNL     1     -10.872   8.343  72.370  1.00  0.00    -0.416 A  
HETATM   40  C   UNL     1      -9.732   3.615  71.225  1.00  0.00    -0.169 A  
HETATM   41  C   UNL     1      -9.615   4.840  70.568  1.00  0.00    -0.258 A  
HETATM   42 CL   UNL     1      -9.224   2.170  70.442  1.00  0.00    -0.175 Cl 
ENDBRANCH  31  32
ENDBRANCH  29  30
ENDBRANCH  10  24
ENDBRANCH   9  10
ENDBRANCH   8   9
ENDBRANCH   5   8
ENDBRANCH   3   5
TORSDOF 10
ENDMDL
MODEL       39
REMARK 921   NORMALIZED FREE ENERGY PREDICTED BY IDOCK:   -7.35 KCAL/MOL
REMARK 922        TOTAL FREE ENERGY PREDICTED BY IDOCK:  -13.30 KCAL/MOL
REMARK 923 INTER-LIGAND FREE ENERGY PREDICTED BY IDOCK:  -11.45 KCAL/MOL
REMARK 924 INTRA-LIGAND FREE ENERGY PREDICTED BY IDOCK:   -1.85 KCAL/MOL
REMARK 927      BINDING AFFINITY PREDICTED BY RF-SCORE:    0.00 PKD
ROOT
HETATM    1  O   UNL     1     -14.396   9.115  73.048  1.00  0.00    -0.439 OA 
HETATM    2  C   UNL     1     -13.476   8.748  72.120  1.00  0.00    -0.427 C  
HETATM    3  C   UNL     1     -12.318   9.720  72.026  1.00  0.00    -0.336 C  
HETATM    4  O   UNL     1     -13.583   7.710  71.487  1.00  0.00    -0.368 OA 
ENDROOT
BRANCH   3   5
HETATM    5  C   UNL     1     -11.582   9.688  70.687  1.00  0.00    -0.371 C  
HETATM    6  C   UNL     1     -10.835   8.406  70.344  1.00  0.00    -0.246 C  
HETATM    7  C   UNL     1     -10.063   9.632  70.742  1.00  0.00    -0.293 C  
BRANCH   5   8
HETATM    8  C   UNL     1     -12.285  10.513  69.617  1.00  0.00    -0.137 C  
BRANCH   8   9
HETATM    9  S   UNL     1     -11.522  12.062  69.092  1.00  0.00    -0.319 SA 
BRANCH   9  10
HETATM   10  C   UNL     1     -11.016  11.624  67.360  1.00  0.00    -0.261 C  
BRANCH  10  11
HETATM   11  C   UNL     1      -9.629  10.947  67.250  1.00  0.00    -0.184 C  
BRANCH  11  12
HETATM   12  C   UNL     1      -9.660   9.436  66.930  1.00  0.00    -0.217 C  
BRANCH  12  13
HETATM   13  C   UNL     1      -9.185   9.135  65.514  1.00  0.00    -0.287 A  
HETATM   14  C   UNL     1      -9.554  10.096  64.538  1.00  0.00    -0.376 A  
HETATM   15  C   UNL     1      -8.413   8.904  62.812  1.00  0.00    -0.191 A  
HETATM   16  H   UNL     1      -6.814   6.858  67.744  1.00  0.00     0.000 HD 
HETATM   17  C   UNL     1      -9.191   9.976  63.203  1.00  0.00    -0.313 A  
HETATM   18  C   UNL     1      -6.943   5.889  65.452  1.00  0.00    -0.063 C  
HETATM   19  C   UNL     1      -8.011   7.957  63.757  1.00  0.00    -0.119 A  
HETATM   20  C   UNL     1      -8.384   8.026  65.124  1.00  0.00    -0.139 A  
HETATM   21  O   UNL     1      -7.121   7.531  67.149  1.00  0.00    -0.080 OA 
HETATM   22  C   UNL     1      -9.035   6.141  66.732  1.00  0.00    -0.125 C  
HETATM   23  C   UNL     1      -7.885   6.934  66.092  1.00  0.00    -0.102 C  
ENDBRANCH  12  13
ENDBRANCH  11  12
ENDBRANCH  10  11
BRANCH  10  24
HETATM   24  C   UNL     1     -11.223  12.824  66.432  1.00  0.00    -0.339 A  
HETATM   25  C   UNL     1     -11.476  15.068  64.741  1.00  0.00    -0.403 A  
HETATM   26  C   UNL     1     -12.060  12.789  65.307  1.00  0.00    -0.505 A  
HETATM   27  C   UNL     1     -10.513  14.018  66.684  1.00  0.00    -0.272 A  
HETATM   28  C   UNL     1     -12.185  13.899  64.470  1.00  0.00    -0.451 A  
HETATM   29  C   UNL     1     -10.644  15.150  65.860  1.00  0.00    -0.347 A  
BRANCH  29  30
HETATM   30  C   UNL     1      -9.841  16.346  66.159  1.00  0.00    -0.362 C  
HETATM   31  C   UNL     1      -8.500  16.361  66.277  1.00  0.00    -0.372 C  
BRANCH  31  32
HETATM   32  C   UNL     1      -7.686  17.538  66.599  1.00  0.00    -0.254 A  
HETATM   33  N   UNL     1      -7.440  17.706  67.921  1.00  0.00    -0.199 NA 
HETATM   34  C   UNL     1      -6.757  18.794  68.321  1.00  0.00    -0.232 A  
HETATM   35  C   UNL     1      -6.304  19.772  67.412  1.00  0.00    -0.212 A  
HETATM   36  C   UNL     1      -6.573  19.582  66.055  1.00  0.00    -0.237 A  
HETATM   37  C   UNL     1      -5.613  20.908  67.871  1.00  0.00    -0.338 A  
HETATM   38  C   UNL     1      -5.375  21.077  69.232  1.00  0.00    -0.381 A  
HETATM   39  C   UNL     1      -7.279  18.457  65.643  1.00  0.00    -0.148 A  
HETATM   40  C   UNL     1      -5.815  20.107  70.126  1.00  0.00    -0.333 A  
HETATM   41  C   UNL     1      -6.497  18.979  69.670  1.00  0.00    -0.259 A  
HETATM   42 CL   UNL     1      -5.524  20.311  71.810  1.00  0.00    -0.414 Cl 
ENDBRANCH  31  32
ENDBRANCH  29  30
ENDBRANCH  10  24
ENDBRANCH   9  10
ENDBRANCH   8   9
ENDBRANCH   5   8
ENDBRANCH   3   5
TORSDOF 10
ENDMDL
MODEL       40
REMARK 921   NORMALIZED FREE ENERGY PREDICTED BY IDOCK:   -7.33 KCAL/MOL
REMARK 922        TOTAL FREE ENERGY PREDICTED BY IDOCK:  -13.27 KCAL/MOL
REMARK 923 INTER-LIGAND FREE ENERGY PREDICTED BY IDOCK:  -11.38 KCAL/MOL
REMARK 924 INTRA-LIGAND FREE ENERGY PREDICTED BY IDOCK:   -1.89 KCAL/MOL
REMARK 927      BINDING AFFINITY PREDICTED BY RF-SCORE:    0.00 PKD
ROOT
HETATM    1  O   UNL     1     -13.895  16.028  73.439  1.00  0.00    -0.481 OA 
HETATM    2  C   UNL     1     -12.805  15.651  72.724  1.00  0.00    -0.452 C  
HETATM    3  C   UNL     1     -13.083  15.552  71.238  1.00  0.00    -0.581 C  
HETATM    4  O   UNL     1     -11.721  15.473  73.255  1.00  0.00    -0.428 OA 
ENDROOT
BRANCH   3   5
HETATM    5  C   UNL     1     -12.125  14.631  70.482  1.00  0.00    -0.388 C  
HETATM    6  C   UNL     1     -12.752  13.522  69.649  1.00  0.00     0.266 C  
HETATM    7  C   UNL     1     -12.064  13.183  70.941  1.00  0.00    -0.209 C  
BRANCH   5   8
HETATM    8  C   UNL     1     -10.861  15.352  70.030  1.00  0.00    -0.305 C  
BRANCH   8   9
HETATM    9  S   UNL     1     -10.995  16.551  68.689  1.00  0.00    -0.324 SA 
BRANCH   9  10
HETATM   10  C   UNL     1      -9.934  15.739  67.398  1.00  0.00    -0.237 C  
BRANCH  10  11
HETATM   11  C   UNL     1      -9.271  16.721  66.402  1.00  0.00    -0.309 C  
BRANCH  11  12
HETATM   12  C   UNL     1      -7.730  16.651  66.340  1.00  0.00    -0.328 C  
BRANCH  12  13
HETATM   13  C   UNL     1      -7.072  17.267  67.568  1.00  0.00    -0.181 A  
HETATM   14  C   UNL     1      -6.625  16.338  68.541  1.00  0.00    -0.130 A  
HETATM   15  C   UNL     1      -5.762  18.079  69.928  1.00  0.00    -0.245 A  
HETATM   16  H   UNL     1      -6.875  20.200  64.895  1.00  0.00     0.000 HD 
HETATM   17  C   UNL     1      -5.996  16.736  69.713  1.00  0.00    -0.226 A  
HETATM   18  C   UNL     1      -6.786  21.184  67.183  1.00  0.00    -0.411 C  
HETATM   19  C   UNL     1      -6.166  19.015  68.973  1.00  0.00    -0.276 A  
HETATM   20  C   UNL     1      -6.838  18.654  67.777  1.00  0.00    -0.221 A  
HETATM   21  O   UNL     1      -6.628  19.518  65.508  1.00  0.00    -0.239 OA 
HETATM   22  C   UNL     1      -8.759  19.841  66.567  1.00  0.00    -0.408 C  
HETATM   23  C   UNL     1      -7.240  19.762  66.781  1.00  0.00    -0.227 C  
ENDBRANCH  12  13
ENDBRANCH  11  12
ENDBRANCH  10  11
BRANCH  10  24
HETATM   24  C   UNL     1     -10.691  14.577  66.750  1.00  0.00    -0.291 A  
HETATM   25  C   UNL     1     -12.085  12.374  65.673  1.00  0.00    -0.396 A  
HETATM   26  C   UNL     1     -11.656  14.754  65.747  1.00  0.00    -0.290 A  
HETATM   27  C   UNL     1     -10.446  13.261  67.199  1.00  0.00    -0.248 A  
HETATM   28  C   UNL     1     -12.347  13.664  65.215  1.00  0.00    -0.498 A  
HETATM   29  C   UNL     1     -11.120  12.152  66.658  1.00  0.00    -0.353 A  
BRANCH  29  30
HETATM   30  C   UNL     1     -10.846  10.814  67.205  1.00  0.00    -0.344 C  
HETATM   31  C   UNL     1     -10.933  10.484  68.507  1.00  0.00    -0.300 C  
BRANCH  31  32
HETATM   32  C   UNL     1     -10.638   9.163  69.072  1.00  0.00    -0.199 A  
HETATM   33  N   UNL     1     -10.356   8.208  68.153  1.00  0.00    -0.208 NA 
HETATM   34  C   UNL     1     -10.137   6.949  68.573  1.00  0.00    -0.161 A  
HETATM   35  C   UNL     1     -10.206   6.587  69.934  1.00  0.00    -0.219 A  
HETATM   36  C   UNL     1     -10.502   7.586  70.864  1.00  0.00    -0.218 A  
HETATM   37  C   UNL     1      -9.993   5.255  70.330  1.00  0.00    -0.303 A  
HETATM   38  C   UNL     1      -9.716   4.279  69.377  1.00  0.00    -0.257 A  
HETATM   39  C   UNL     1     -10.729   8.887  70.429  1.00  0.00    -0.261 A  
HETATM   40  C   UNL     1      -9.640   4.638  68.036  1.00  0.00    -0.155 A  
HETATM   41  C   UNL     1      -9.847   5.961  67.644  1.00  0.00    -0.133 A  
HETATM   42 CL   UNL     1      -9.298   3.436  66.853  1.00  0.00    -0.209 Cl 
ENDBRANCH  31  32
ENDBRANCH  29  30
ENDBRANCH  10  24
ENDBRANCH   9  10
ENDBRANCH   8   9
ENDBRANCH   5   8
ENDBRANCH   3   5
TORSDOF 10
ENDMDL
MODEL       41
REMARK 921   NORMALIZED FREE ENERGY PREDICTED BY IDOCK:   -7.33 KCAL/MOL
REMARK 922        TOTAL FREE ENERGY PREDICTED BY IDOCK:  -13.27 KCAL/MOL
REMARK 923 INTER-LIGAND FREE ENERGY PREDICTED BY IDOCK:  -10.64 KCAL/MOL
REMARK 924 INTRA-LIGAND FREE ENERGY PREDICTED BY IDOCK:   -2.63 KCAL/MOL
REMARK 927      BINDING AFFINITY PREDICTED BY RF-SCORE:    0.00 PKD
ROOT
HETATM    1  O   UNL     1      -8.901  19.764  67.884  1.00  0.00    -0.316 OA 
HETATM    2  C   UNL     1      -9.799  18.751  67.781  1.00  0.00    -0.333 C  
HETATM    3  C   UNL     1      -9.144  17.384  67.790  1.00  0.00    -0.243 C  
HETATM    4  O   UNL     1     -11.000  18.961  67.742  1.00  0.00    -0.344 OA 
ENDROOT
BRANCH   3   5
HETATM    5  C   UNL     1      -9.982  16.286  67.136  1.00  0.00    -0.257 C  
HETATM    6  C   UNL     1      -9.372  15.581  65.932  1.00  0.00    -0.355 C  
HETATM    7  C   UNL     1     -10.493  16.560  65.731  1.00  0.00    -0.343 C  
BRANCH   5   8
HETATM    8  C   UNL     1     -10.851  15.540  68.141  1.00  0.00    -0.296 C  
BRANCH   8   9
HETATM    9  S   UNL     1     -10.329  13.896  68.669  1.00  0.00    -0.213 SA 
BRANCH   9  10
HETATM   10  C   UNL     1     -11.758  12.874  68.068  1.00  0.00    -0.356 C  
BRANCH  10  11
HETATM   11  C   UNL     1     -11.894  11.494  68.756  1.00  0.00    -0.394 C  
BRANCH  11  12
HETATM   12  C   UNL     1     -10.559  10.791  69.083  1.00  0.00    -0.254 C  
BRANCH  12  13
HETATM   13  C   UNL     1     -10.610   9.294  68.804  1.00  0.00    -0.220 A  
HETATM   14  C   UNL     1     -10.312   8.920  67.469  1.00  0.00    -0.328 A  
HETATM   15  C   UNL     1     -10.561   6.600  67.975  1.00  0.00    -0.300 A  
HETATM   16  H   UNL     1     -10.279   9.444  72.760  1.00  0.00     0.000 HD 
HETATM   17  C   UNL     1     -10.305   7.595  67.053  1.00  0.00    -0.400 A  
HETATM   18  C   UNL     1     -11.330   7.278  72.119  1.00  0.00    -0.301 C  
HETATM   19  C   UNL     1     -10.830   6.938  69.303  1.00  0.00    -0.270 A  
HETATM   20  C   UNL     1     -10.877   8.278  69.763  1.00  0.00    -0.186 A  
HETATM   21  O   UNL     1     -10.093   9.278  71.843  1.00  0.00    -0.250 OA 
HETATM   22  C   UNL     1     -12.462   9.366  71.456  1.00  0.00    -0.450 C  
HETATM   23  C   UNL     1     -11.177   8.549  71.252  1.00  0.00    -0.265 C  
ENDBRANCH  12  13
ENDBRANCH  11  12
ENDBRANCH  10  11
BRANCH  10  24
HETATM   24  C   UNL     1     -11.770  12.835  66.537  1.00  0.00    -0.463 A  
HETATM   25  C   UNL     1     -11.769  12.632  63.723  1.00  0.00    -0.566 A  
HETATM   26  C   UNL     1     -12.615  13.637  65.756  1.00  0.00    -0.511 A  
HETATM   27  C   UNL     1     -10.925  11.925  65.866  1.00  0.00    -0.354 A  
HETATM   28  C   UNL     1     -12.616  13.536  64.363  1.00  0.00    -0.233 A  
HETATM   29  C   UNL     1     -10.901  11.826  64.464  1.00  0.00    -0.377 A  
BRANCH  29  30
HETATM   30  C   UNL     1     -10.026  10.825  63.834  1.00  0.00    -0.404 C  
HETATM   31  C   UNL     1      -8.897  10.340  64.382  1.00  0.00    -0.229 C  
BRANCH  31  32
HETATM   32  C   UNL     1      -7.999   9.362  63.757  1.00  0.00    -0.142 A  
HETATM   33  N   UNL     1      -8.263   8.072  64.078  1.00  0.00    -0.099 NA 
HETATM   34  C   UNL     1      -7.452   7.107  63.605  1.00  0.00    -0.100 A  
HETATM   35  C   UNL     1      -6.329   7.396  62.802  1.00  0.00    -0.054 A  
HETATM   36  C   UNL     1      -6.073   8.733  62.488  1.00  0.00    -0.095 A  
HETATM   37  C   UNL     1      -5.493   6.361  62.347  1.00  0.00    -0.023 A  
HETATM   38  C   UNL     1      -5.765   5.041  62.691  1.00  0.00    -0.014 A  
HETATM   39  C   UNL     1      -6.912   9.728  62.977  1.00  0.00    -0.112 A  
HETATM   40  C   UNL     1      -6.877   4.757  63.476  1.00  0.00    -0.043 A  
HETATM   41  C   UNL     1      -7.709   5.783  63.924  1.00  0.00    -0.094 A  
HETATM   42 CL   UNL     1      -7.219   3.126  63.905  1.00  0.00    -0.052 Cl 
ENDBRANCH  31  32
ENDBRANCH  29  30
ENDBRANCH  10  24
ENDBRANCH   9  10
ENDBRANCH   8   9
ENDBRANCH   5   8
ENDBRANCH   3   5
TORSDOF 10
ENDMDL
MODEL       42
REMARK 921   NORMALIZED FREE ENERGY PREDICTED BY IDOCK:   -7.33 KCAL/MOL
REMARK 922        TOTAL FREE ENERGY PREDICTED BY IDOCK:  -13.26 KCAL/MOL
REMARK 923 INTER-LIGAND FREE ENERGY PREDICTED BY IDOCK:  -10.30 KCAL/MOL
REMARK 924 INTRA-LIGAND FREE ENERGY PREDICTED BY IDOCK:   -2.96 KCAL/MOL
REMARK 927      BINDING AFFINITY PREDICTED BY RF-SCORE:    0.00 PKD
ROOT
HETATM    1  O   UNL     1     -10.061   9.978  64.993  1.00  0.00    -0.323 OA 
HETATM    2  C   UNL     1      -9.607   9.621  66.222  1.00  0.00    -0.221 C  
HETATM    3  C   UNL     1      -9.306   8.140  66.329  1.00  0.00    -0.259 C  
HETATM    4  O   UNL     1      -9.424  10.447  67.101  1.00  0.00    -0.156 OA 
ENDROOT
BRANCH   3   5
HETATM    5  C   UNL     1      -9.341   7.597  67.757  1.00  0.00    -0.153 C  
HETATM    6  C   UNL     1      -8.132   7.892  68.634  1.00  0.00    -0.126 C  
HETATM    7  C   UNL     1      -8.341   6.504  68.098  1.00  0.00    -0.116 C  
BRANCH   5   8
HETATM    8  C   UNL     1     -10.753   7.558  68.330  1.00  0.00    -0.067 C  
BRANCH   8   9
HETATM    9  S   UNL     1     -11.125   6.335  69.604  1.00  0.00    -0.433 SA 
BRANCH   9  10
HETATM   10  C   UNL     1     -10.590   7.254  71.126  1.00  0.00    -0.222 C  
BRANCH  10  11
HETATM   11  C   UNL     1     -10.510   6.386  72.405  1.00  0.00    -0.222 C  
BRANCH  11  12
HETATM   12  C   UNL     1      -9.159   6.438  73.150  1.00  0.00    -0.134 C  
BRANCH  12  13
HETATM   13  C   UNL     1      -7.992   6.026  72.262  1.00  0.00    -0.102 A  
HETATM   14  C   UNL     1      -8.087   4.724  71.709  1.00  0.00    -0.108 A  
HETATM   15  C   UNL     1      -6.028   4.984  70.528  1.00  0.00    -0.018 A  
HETATM   16  H   UNL     1      -7.676   9.985  72.355  1.00  0.00     0.000 HD 
HETATM   17  C   UNL     1      -7.113   4.200  70.870  1.00  0.00    -0.033 A  
HETATM   18  C   UNL     1      -5.445   9.009  71.826  1.00  0.00    -0.057 C  
HETATM   19  C   UNL     1      -5.923   6.281  71.035  1.00  0.00    -0.031 A  
HETATM   20  C   UNL     1      -6.880   6.843  71.918  1.00  0.00    -0.062 A  
HETATM   21  O   UNL     1      -7.801   9.096  72.046  1.00  0.00    -0.325 OA 
HETATM   22  C   UNL     1      -6.526   8.367  73.946  1.00  0.00    -0.143 C  
HETATM   23  C   UNL     1      -6.677   8.288  72.420  1.00  0.00    -0.087 C  
ENDBRANCH  12  13
ENDBRANCH  11  12
ENDBRANCH  10  11
BRANCH  10  24
HETATM   24  C   UNL     1     -11.401   8.545  71.274  1.00  0.00    -0.325 A  
HETATM   25  C   UNL     1     -12.868  10.950  71.418  1.00  0.00    -0.554 A  
HETATM   26  C   UNL     1     -12.559   8.637  72.060  1.00  0.00    -0.434 A  
HETATM   27  C   UNL     1     -11.000   9.694  70.559  1.00  0.00    -0.374 A  
HETATM   28  C   UNL     1     -13.286   9.827  72.131  1.00  0.00    -0.530 A  
HETATM   29  C   UNL     1     -11.711  10.905  70.636  1.00  0.00    -0.418 A  
BRANCH  29  30
HETATM   30  C   UNL     1     -11.260  12.050  69.830  1.00  0.00    -0.105 C  
HETATM   31  C   UNL     1     -11.781  12.404  68.641  1.00  0.00    -0.372 C  
BRANCH  31  32
HETATM   32  C   UNL     1     -11.326  13.525  67.812  1.00  0.00    -0.296 A  
HETATM   33  N   UNL     1     -11.155  14.689  68.485  1.00  0.00    -0.249 NA 
HETATM   34  C   UNL     1     -10.804  15.791  67.797  1.00  0.00    -0.316 A  
HETATM   35  C   UNL     1     -10.623  15.778  66.399  1.00  0.00    -0.307 A  
HETATM   36  C   UNL     1     -10.808  14.569  65.724  1.00  0.00    -0.317 A  
HETATM   37  C   UNL     1     -10.277  16.956  65.713  1.00  0.00    -0.287 A  
HETATM   38  C   UNL     1     -10.115  18.149  66.412  1.00  0.00    -0.392 A  
HETATM   39  C   UNL     1     -11.171  13.432  66.436  1.00  0.00    -0.323 A  
HETATM   40  C   UNL     1     -10.286  18.158  67.792  1.00  0.00    -0.399 A  
HETATM   41  C   UNL     1     -10.625  16.989  68.473  1.00  0.00    -0.370 A  
HETATM   42 CL   UNL     1     -10.088  19.630  68.662  1.00  0.00    -0.540 Cl 
ENDBRANCH  31  32
ENDBRANCH  29  30
ENDBRANCH  10  24
ENDBRANCH   9  10
ENDBRANCH   8   9
ENDBRANCH   5   8
ENDBRANCH   3   5
TORSDOF 10
ENDMDL
MODEL       43
REMARK 921   NORMALIZED FREE ENERGY PREDICTED BY IDOCK:   -7.23 KCAL/MOL
REMARK 922        TOTAL FREE ENERGY PREDICTED BY IDOCK:  -13.11 KCAL/MOL
REMARK 923 INTER-LIGAND FREE ENERGY PREDICTED BY IDOCK:  -10.72 KCAL/MOL
REMARK 924 INTRA-LIGAND FREE ENERGY PREDICTED BY IDOCK:   -2.39 KCAL/MOL
REMARK 927      BINDING AFFINITY PREDICTED BY RF-SCORE:    0.00 PKD
ROOT
HETATM    1  O   UNL     1     -10.116  19.679  66.901  1.00  0.00    -0.357 OA 
HETATM    2  C   UNL     1      -9.597  18.505  67.341  1.00  0.00    -0.293 C  
HETATM    3  C   UNL     1      -9.911  17.343  66.419  1.00  0.00    -0.311 C  
HETATM    4  O   UNL     1      -8.913  18.445  68.349  1.00  0.00    -0.303 OA 
ENDROOT
BRANCH   3   5
HETATM    5  C   UNL     1      -9.861  15.975  67.099  1.00  0.00    -0.236 C  
HETATM    6  C   UNL     1      -8.702  15.725  68.055  1.00  0.00    -0.171 C  
HETATM    7  C   UNL     1      -8.713  15.059  66.708  1.00  0.00    -0.293 C  
BRANCH   5   8
HETATM    8  C   UNL     1     -11.249  15.405  67.361  1.00  0.00    -0.287 C  
BRANCH   8   9
HETATM    9  S   UNL     1     -11.990  14.347  66.101  1.00  0.00    -0.332 SA 
BRANCH   9  10
HETATM   10  C   UNL     1     -11.784  12.679  66.892  1.00  0.00    -0.383 C  
BRANCH  10  11
HETATM   11  C   UNL     1     -11.338  12.723  68.373  1.00  0.00    -0.331 C  
BRANCH  11  12
HETATM   12  C   UNL     1     -12.128  11.796  69.323  1.00  0.00    -0.292 C  
BRANCH  12  13
HETATM   13  C   UNL     1     -11.242  10.738  69.968  1.00  0.00    -0.366 A  
HETATM   14  C   UNL     1      -9.905  10.703  69.496  1.00  0.00    -0.115 A  
HETATM   15  C   UNL     1      -9.332   8.938  70.998  1.00  0.00    -0.313 A  
HETATM   16  H   UNL     1     -14.239  11.076  72.554  1.00  0.00     0.000 HD 
HETATM   17  C   UNL     1      -8.967   9.806  69.988  1.00  0.00    -0.255 A  
HETATM   18  C   UNL     1     -13.192   8.831  72.820  1.00  0.00    -0.205 C  
HETATM   19  C   UNL     1     -10.635   8.969  71.502  1.00  0.00    -0.415 A  
HETATM   20  C   UNL     1     -11.631   9.849  71.008  1.00  0.00    -0.470 A  
HETATM   21  O   UNL     1     -13.371  11.100  72.169  1.00  0.00    -0.452 OA 
HETATM   22  C   UNL     1     -14.128   9.428  70.619  1.00  0.00     0.516 C  
HETATM   23  C   UNL     1     -13.040   9.811  71.634  1.00  0.00    -0.419 C  
ENDBRANCH  12  13
ENDBRANCH  11  12
ENDBRANCH  10  11
BRANCH  10  24
HETATM   24  C   UNL     1     -10.941  11.771  65.992  1.00  0.00    -0.355 A  
HETATM   25  C   UNL     1      -9.459   9.994  64.378  1.00  0.00    -0.349 A  
HETATM   26  C   UNL     1     -10.478  12.161  64.726  1.00  0.00    -0.332 A  
HETATM   27  C   UNL     1     -10.641  10.461  66.425  1.00  0.00    -0.198 A  
HETATM   28  C   UNL     1      -9.746  11.281  63.927  1.00  0.00    -0.311 A  
HETATM   29  C   UNL     1      -9.888   9.571  65.639  1.00  0.00    -0.343 A  
BRANCH  29  30
HETATM   30  C   UNL     1      -9.650   8.207  66.135  1.00  0.00    -0.188 C  
HETATM   31  C   UNL     1     -10.436   7.563  67.016  1.00  0.00    -0.409 C  
BRANCH  31  32
HETATM   32  C   UNL     1     -10.200   6.214  67.542  1.00  0.00    -0.178 A  
HETATM   33  N   UNL     1     -10.243   6.121  68.893  1.00  0.00    -0.171 NA 
HETATM   34  C   UNL     1      -9.972   4.936  69.471  1.00  0.00    -0.225 A  
HETATM   35  C   UNL     1      -9.631   3.794  68.718  1.00  0.00    -0.172 A  
HETATM   36  C   UNL     1      -9.589   3.912  67.327  1.00  0.00    -0.222 A  
HETATM   37  C   UNL     1      -9.334   2.578  69.360  1.00  0.00    -0.171 A  
HETATM   38  C   UNL     1      -9.368   2.496  70.749  1.00  0.00    -0.213 A  
HETATM   39  C   UNL     1      -9.868   5.137  66.732  1.00  0.00    -0.205 A  
HETATM   40  C   UNL     1      -9.713   3.622  71.490  1.00  0.00    -0.167 A  
HETATM   41  C   UNL     1     -10.012   4.826  70.852  1.00  0.00    -0.283 A  
HETATM   42 CL   UNL     1      -9.757   3.526  73.208  1.00  0.00    -0.143 Cl 
ENDBRANCH  31  32
ENDBRANCH  29  30
ENDBRANCH  10  24
ENDBRANCH   9  10
ENDBRANCH   8   9
ENDBRANCH   5   8
ENDBRANCH   3   5
TORSDOF 10
ENDMDL
MODEL       44
REMARK 921   NORMALIZED FREE ENERGY PREDICTED BY IDOCK:   -7.20 KCAL/MOL
REMARK 922        TOTAL FREE ENERGY PREDICTED BY IDOCK:  -13.06 KCAL/MOL
REMARK 923 INTER-LIGAND FREE ENERGY PREDICTED BY IDOCK:  -10.49 KCAL/MOL
REMARK 924 INTRA-LIGAND FREE ENERGY PREDICTED BY IDOCK:   -2.57 KCAL/MOL
REMARK 927      BINDING AFFINITY PREDICTED BY RF-SCORE:    0.00 PKD
ROOT
HETATM    1  O   UNL     1     -14.392   7.318  71.541  1.00  0.00    -0.437 OA 
HETATM    2  C   UNL     1     -13.342   8.155  71.741  1.00  0.00    -0.345 C  
HETATM    3  C   UNL     1     -12.093   7.716  71.004  1.00  0.00    -0.282 C  
HETATM    4  O   UNL     1     -13.451   9.172  72.407  1.00  0.00    -0.442 OA 
ENDROOT
BRANCH   3   5
HETATM    5  C   UNL     1     -10.793   8.250  71.604  1.00  0.00    -0.320 C  
HETATM    6  C   UNL     1      -9.734   7.221  71.977  1.00  0.00    -0.177 C  
HETATM    7  C   UNL     1     -10.519   7.907  73.059  1.00  0.00    -0.410 C  
BRANCH   5   8
HETATM    8  C   UNL     1     -10.415   9.618  71.049  1.00  0.00    -0.257 C  
BRANCH   8   9
HETATM    9  S   UNL     1     -11.179  10.155  69.505  1.00  0.00    -0.218 SA 
BRANCH   9  10
HETATM   10  C   UNL     1     -10.023   9.391  68.269  1.00  0.00    -0.174 C  
BRANCH  10  11
HETATM   11  C   UNL     1      -8.611   9.078  68.820  1.00  0.00    -0.132 C  
BRANCH  11  12
HETATM   12  C   UNL     1      -8.130   7.627  68.602  1.00  0.00    -0.127 C  
BRANCH  12  13
HETATM   13  C   UNL     1      -7.882   7.314  67.131  1.00  0.00    -0.110 A  
HETATM   14  C   UNL     1      -6.765   7.972  66.556  1.00  0.00    -0.062 A  
HETATM   15  C   UNL     1      -7.118   6.907  64.448  1.00  0.00    -0.062 A  
HETATM   16  H   UNL     1     -10.205   4.308  68.294  1.00  0.00     0.000 HD 
HETATM   17  C   UNL     1      -6.397   7.787  65.230  1.00  0.00    -0.038 A  
HETATM   18  C   UNL     1     -10.435   4.601  65.830  1.00  0.00    -0.305 C  
HETATM   19  C   UNL     1      -8.207   6.225  64.996  1.00  0.00    -0.132 A  
HETATM   20  C   UNL     1      -8.634   6.406  66.337  1.00  0.00    -0.134 A  
HETATM   21  O   UNL     1      -9.459   4.803  67.978  1.00  0.00    -0.128 OA 
HETATM   22  C   UNL     1     -11.010   6.502  67.289  1.00  0.00    -0.475 C  
HETATM   23  C   UNL     1      -9.846   5.602  66.851  1.00  0.00    -0.159 C  
ENDBRANCH  12  13
ENDBRANCH  11  12
ENDBRANCH  10  11
BRANCH  10  24
HETATM   24  C   UNL     1     -10.041  10.195  66.965  1.00  0.00    -0.277 A  
HETATM   25  C   UNL     1     -10.004  11.769  64.624  1.00  0.00    -0.275 A  
HETATM   26  C   UNL     1      -9.990   9.599  65.696  1.00  0.00    -0.321 A  
HETATM   27  C   UNL     1     -10.072  11.605  67.027  1.00  0.00    -0.234 A  
HETATM   28  C   UNL     1      -9.970  10.379  64.538  1.00  0.00    -0.401 A  
HETATM   29  C   UNL     1     -10.072  12.401  65.869  1.00  0.00    -0.272 A  
BRANCH  29  30
HETATM   30  C   UNL     1     -10.062  13.866  66.010  1.00  0.00    -0.324 C  
HETATM   31  C   UNL     1      -9.491  14.535  67.028  1.00  0.00    -0.247 C  
BRANCH  31  32
HETATM   32  C   UNL     1      -9.494  15.992  67.198  1.00  0.00    -0.216 A  
HETATM   33  N   UNL     1      -8.458  16.629  66.602  1.00  0.00    -0.231 NA 
HETATM   34  C   UNL     1      -8.338  17.960  66.758  1.00  0.00    -0.252 A  
HETATM   35  C   UNL     1      -9.246  18.710  67.534  1.00  0.00    -0.295 A  
HETATM   36  C   UNL     1     -10.304  18.032  68.144  1.00  0.00    -0.398 A  
HETATM   37  C   UNL     1      -9.074  20.097  67.692  1.00  0.00    -0.437 A  
HETATM   38  C   UNL     1      -8.000  20.741  67.085  1.00  0.00    -0.258 A  
HETATM   39  C   UNL     1     -10.426  16.657  67.981  1.00  0.00    -0.320 A  
HETATM   40  C   UNL     1      -7.110  20.002  66.313  1.00  0.00    -0.259 A  
HETATM   41  C   UNL     1      -7.283  18.627  66.153  1.00  0.00    -0.296 A  
HETATM   42 CL   UNL     1      -5.780  20.792  65.560  1.00  0.00    -0.247 Cl 
ENDBRANCH  31  32
ENDBRANCH  29  30
ENDBRANCH  10  24
ENDBRANCH   9  10
ENDBRANCH   8   9
ENDBRANCH   5   8
ENDBRANCH   3   5
TORSDOF 10
ENDMDL
MODEL       45
REMARK 921   NORMALIZED FREE ENERGY PREDICTED BY IDOCK:   -7.19 KCAL/MOL
REMARK 922        TOTAL FREE ENERGY PREDICTED BY IDOCK:  -13.05 KCAL/MOL
REMARK 923 INTER-LIGAND FREE ENERGY PREDICTED BY IDOCK:   -9.85 KCAL/MOL
REMARK 924 INTRA-LIGAND FREE ENERGY PREDICTED BY IDOCK:   -3.20 KCAL/MOL
REMARK 927      BINDING AFFINITY PREDICTED BY RF-SCORE:    0.00 PKD
ROOT
HETATM    1  O   UNL     1     -12.399  12.040  70.097  1.00  0.00    -0.240 OA 
HETATM    2  C   UNL     1     -12.545  11.232  71.179  1.00  0.00    -0.397 C  
HETATM    3  C   UNL     1     -11.825   9.908  71.023  1.00  0.00    -0.463 C  
HETATM    4  O   UNL     1     -13.155  11.595  72.171  1.00  0.00    -0.457 OA 
ENDROOT
BRANCH   3   5
HETATM    5  C   UNL     1     -12.386   8.785  71.896  1.00  0.00    -0.429 C  
HETATM    6  C   UNL     1     -13.604   8.043  71.362  1.00  0.00    -0.279 C  
HETATM    7  C   UNL     1     -13.763   9.012  72.500  1.00  0.00    -0.499 C  
BRANCH   5   8
HETATM    8  C   UNL     1     -11.302   8.070  72.692  1.00  0.00    -0.405 C  
BRANCH   8   9
HETATM    9  S   UNL     1     -10.847   6.394  72.203  1.00  0.00    -0.249 SA 
BRANCH   9  10
HETATM   10  C   UNL     1      -9.442   6.746  71.041  1.00  0.00    -0.164 C  
BRANCH  10  11
HETATM   11  C   UNL     1      -8.620   8.009  71.394  1.00  0.00    -0.156 C  
BRANCH  11  12
HETATM   12  C   UNL     1      -7.096   7.881  71.174  1.00  0.00    -0.054 C  
BRANCH  12  13
HETATM   13  C   UNL     1      -6.717   7.951  69.700  1.00  0.00    -0.042 A  
HETATM   14  C   UNL     1      -6.433   6.701  69.092  1.00  0.00    -0.040 A  
HETATM   15  C   UNL     1      -6.042   7.728  66.972  1.00  0.00    -0.052 A  
HETATM   16  H   UNL     1      -8.526  11.435  70.312  1.00  0.00     0.000 HD 
HETATM   17  C   UNL     1      -6.082   6.590  67.753  1.00  0.00    -0.030 A  
HETATM   18  C   UNL     1      -6.995  11.651  68.358  1.00  0.00    -0.079 C  
HETATM   19  C   UNL     1      -6.345   8.969  67.538  1.00  0.00    -0.063 A  
HETATM   20  C   UNL     1      -6.679   9.130  68.906  1.00  0.00    -0.052 A  
HETATM   21  O   UNL     1      -8.327  10.565  69.986  1.00  0.00     0.066 OA 
HETATM   22  C   UNL     1      -6.029  11.001  70.531  1.00  0.00    -0.116 C  
HETATM   23  C   UNL     1      -7.003  10.543  69.436  1.00  0.00    -0.099 C  
ENDBRANCH  12  13
ENDBRANCH  11  12
ENDBRANCH  10  11
BRANCH  10  24
HETATM   24  C   UNL     1      -9.930   6.680  69.591  1.00  0.00    -0.191 A  
HETATM   25  C   UNL     1     -10.745   6.656  66.890  1.00  0.00    -0.401 A  
HETATM   26  C   UNL     1     -10.274   5.479  68.952  1.00  0.00    -0.284 A  
HETATM   27  C   UNL     1     -10.004   7.869  68.835  1.00  0.00    -0.194 A  
HETATM   28  C   UNL     1     -10.677   5.467  67.614  1.00  0.00    -0.198 A  
HETATM   29  C   UNL     1     -10.426   7.875  67.494  1.00  0.00    -0.332 A  
BRANCH  29  30
HETATM   30  C   UNL     1     -10.437   9.147  66.754  1.00  0.00    -0.266 C  
HETATM   31  C   UNL     1     -10.673  10.352  67.304  1.00  0.00    -0.331 C  
BRANCH  31  32
HETATM   32  C   UNL     1     -10.714  11.626  66.578  1.00  0.00    -0.272 A  
HETATM   33  N   UNL     1     -10.380  12.708  67.322  1.00  0.00    -0.224 NA 
HETATM   34  C   UNL     1     -10.453  13.929  66.761  1.00  0.00    -0.270 A  
HETATM   35  C   UNL     1     -10.879  14.120  65.431  1.00  0.00    -0.341 A  
HETATM   36  C   UNL     1     -11.223  12.991  64.683  1.00  0.00    -0.355 A  
HETATM   37  C   UNL     1     -10.964  15.414  64.887  1.00  0.00    -0.453 A  
HETATM   38  C   UNL     1     -10.630  16.520  65.663  1.00  0.00    -0.317 A  
HETATM   39  C   UNL     1     -11.148  11.731  65.264  1.00  0.00    -0.333 A  
HETATM   40  C   UNL     1     -10.202  16.330  66.972  1.00  0.00    -0.280 A  
HETATM   41  C   UNL     1     -10.114  15.046  67.510  1.00  0.00    -0.228 A  
HETATM   42 CL   UNL     1      -9.788  17.694  67.937  1.00  0.00    -0.288 Cl 
ENDBRANCH  31  32
ENDBRANCH  29  30
ENDBRANCH  10  24
ENDBRANCH   9  10
ENDBRANCH   8   9
ENDBRANCH   5   8
ENDBRANCH   3   5
TORSDOF 10
ENDMDL
MODEL       46
REMARK 921   NORMALIZED FREE ENERGY PREDICTED BY IDOCK:   -7.19 KCAL/MOL
REMARK 922        TOTAL FREE ENERGY PREDICTED BY IDOCK:  -13.05 KCAL/MOL
REMARK 923 INTER-LIGAND FREE ENERGY PREDICTED BY IDOCK:  -11.48 KCAL/MOL
REMARK 924 INTRA-LIGAND FREE ENERGY PREDICTED BY IDOCK:   -1.57 KCAL/MOL
REMARK 927      BINDING AFFINITY PREDICTED BY RF-SCORE:    0.00 PKD
ROOT
HETATM    1  O   UNL     1     -12.032  13.138  63.504  1.00  0.00    -0.516 OA 
HETATM    2  C   UNL     1     -11.050  12.336  63.989  1.00  0.00    -0.386 C  
HETATM    3  C   UNL     1     -11.421  11.688  65.308  1.00  0.00    -0.173 C  
HETATM    4  O   UNL     1     -10.016  12.144  63.371  1.00  0.00    -0.407 OA 
ENDROOT
BRANCH   3   5
HETATM    5  C   UNL     1     -10.221  11.258  66.152  1.00  0.00    -0.291 C  
HETATM    6  C   UNL     1      -9.472  10.013  65.698  1.00  0.00    -0.278 C  
HETATM    7  C   UNL     1     -10.354   9.948  66.912  1.00  0.00    -0.300 C  
BRANCH   5   8
HETATM    8  C   UNL     1      -9.495  12.444  66.777  1.00  0.00    -0.228 C  
BRANCH   8   9
HETATM    9  S   UNL     1      -9.357  12.509  68.575  1.00  0.00    -0.010 SA 
BRANCH   9  10
HETATM   10  C   UNL     1     -10.933  13.391  69.007  1.00  0.00    -0.224 C  
BRANCH  10  11
HETATM   11  C   UNL     1     -10.755  14.888  69.358  1.00  0.00    -0.264 C  
BRANCH  11  12
HETATM   12  C   UNL     1      -9.536  15.574  68.703  1.00  0.00    -0.203 C  
BRANCH  12  13
HETATM   13  C   UNL     1      -9.894  16.919  68.083  1.00  0.00    -0.264 A  
HETATM   14  C   UNL     1      -9.620  18.048  68.896  1.00  0.00    -0.240 A  
HETATM   15  C   UNL     1     -10.385  19.553  67.207  1.00  0.00    -0.566 A  
HETATM   16  H   UNL     1      -9.727  14.509  64.929  1.00  0.00     0.000 HD 
HETATM   17  C   UNL     1      -9.877  19.346  68.474  1.00  0.00    -0.509 A  
HETATM   18  C   UNL     1     -11.187  16.454  64.384  1.00  0.00    -0.027 C  
HETATM   19  C   UNL     1     -10.639  18.461  66.374  1.00  0.00    -0.342 A  
HETATM   20  C   UNL     1     -10.418  17.119  66.776  1.00  0.00    -0.263 A  
HETATM   21  O   UNL     1      -9.538  15.210  65.541  1.00  0.00    -0.313 OA 
HETATM   22  C   UNL     1     -11.812  15.025  66.293  1.00  0.00    -0.024 C  
HETATM   23  C   UNL     1     -10.724  15.980  65.781  1.00  0.00    -0.301 C  
ENDBRANCH  12  13
ENDBRANCH  11  12
ENDBRANCH  10  11
BRANCH  10  24
HETATM   24  C   UNL     1     -11.726  12.579  70.034  1.00  0.00    -0.297 A  
HETATM   25  C   UNL     1     -13.080  11.003  71.942  1.00  0.00    -0.525 A  
HETATM   26  C   UNL     1     -12.643  13.155  70.926  1.00  0.00    -0.377 A  
HETATM   27  C   UNL     1     -11.506  11.187  70.128  1.00  0.00    -0.361 A  
HETATM   28  C   UNL     1     -13.313  12.375  71.871  1.00  0.00    -0.450 A  
HETATM   29  C   UNL     1     -12.187  10.387  71.062  1.00  0.00    -0.498 A  
BRANCH  29  30
HETATM   30  C   UNL     1     -11.875   8.951  71.133  1.00  0.00    -0.353 C  
HETATM   31  C   UNL     1     -10.684   8.408  70.819  1.00  0.00    -0.244 C  
BRANCH  31  32
HETATM   32  C   UNL     1     -10.364   6.977  70.859  1.00  0.00    -0.198 A  
HETATM   33  N   UNL     1     -10.061   6.435  69.655  1.00  0.00    -0.170 NA 
HETATM   34  C   UNL     1      -9.818   5.113  69.581  1.00  0.00    -0.216 A  
HETATM   35  C   UNL     1      -9.884   4.273  70.711  1.00  0.00    -0.265 A  
HETATM   36  C   UNL     1     -10.202   4.851  71.941  1.00  0.00    -0.267 A  
HETATM   37  C   UNL     1      -9.645   2.892  70.588  1.00  0.00    -0.184 A  
HETATM   38  C   UNL     1      -9.346   2.343  69.345  1.00  0.00    -0.167 A  
HETATM   39  C   UNL     1     -10.453   6.216  72.016  1.00  0.00    -0.249 A  
HETATM   40  C   UNL     1      -9.273   3.175  68.232  1.00  0.00    -0.192 A  
HETATM   41  C   UNL     1      -9.506   4.545  68.355  1.00  0.00    -0.209 A  
HETATM   42 CL   UNL     1      -8.905   2.502  66.692  1.00  0.00    -0.132 Cl 
ENDBRANCH  31  32
ENDBRANCH  29  30
ENDBRANCH  10  24
ENDBRANCH   9  10
ENDBRANCH   8   9
ENDBRANCH   5   8
ENDBRANCH   3   5
TORSDOF 10
ENDMDL
MODEL       47
REMARK 921   NORMALIZED FREE ENERGY PREDICTED BY IDOCK:   -7.18 KCAL/MOL
REMARK 922        TOTAL FREE ENERGY PREDICTED BY IDOCK:  -13.03 KCAL/MOL
REMARK 923 INTER-LIGAND FREE ENERGY PREDICTED BY IDOCK:  -11.57 KCAL/MOL
REMARK 924 INTRA-LIGAND FREE ENERGY PREDICTED BY IDOCK:   -1.46 KCAL/MOL
REMARK 927      BINDING AFFINITY PREDICTED BY RF-SCORE:    0.00 PKD
ROOT
HETATM    1  O   UNL     1     -12.771  14.450  65.076  1.00  0.00    -0.587 OA 
HETATM    2  C   UNL     1     -12.504  13.127  65.213  1.00  0.00    -0.495 C  
HETATM    3  C   UNL     1     -11.490  12.842  66.303  1.00  0.00    -0.395 C  
HETATM    4  O   UNL     1     -13.082  12.284  64.545  1.00  0.00    -0.791 OA 
ENDROOT
BRANCH   3   5
HETATM    5  C   UNL     1     -10.751  11.515  66.138  1.00  0.00    -0.324 C  
HETATM    6  C   UNL     1      -9.403  11.563  65.431  1.00  0.00    -0.177 C  
HETATM    7  C   UNL     1     -10.596  10.990  64.720  1.00  0.00    -0.350 C  
BRANCH   5   8
HETATM    8  C   UNL     1     -11.013  10.555  67.292  1.00  0.00    -0.260 C  
BRANCH   8   9
HETATM    9  S   UNL     1      -9.777  10.435  68.601  1.00  0.00    -0.184 SA 
BRANCH   9  10
HETATM   10  C   UNL     1     -10.868  10.131  70.074  1.00  0.00    -0.307 C  
BRANCH  10  11
HETATM   11  C   UNL     1     -11.743   8.859  69.971  1.00  0.00     0.214 C  
BRANCH  11  12
HETATM   12  C   UNL     1     -10.989   7.576  69.557  1.00  0.00    -0.127 C  
BRANCH  12  13
HETATM   13  C   UNL     1     -10.905   6.563  70.691  1.00  0.00    -0.317 A  
HETATM   14  C   UNL     1     -11.768   6.815  71.789  1.00  0.00    -0.353 A  
HETATM   15  C   UNL     1     -11.035   4.847  72.924  1.00  0.00    -0.332 A  
HETATM   16  H   UNL     1      -9.289   4.604  67.636  1.00  0.00     0.000 HD 
HETATM   17  C   UNL     1     -11.821   5.982  72.898  1.00  0.00     0.048 A  
HETATM   18  C   UNL     1      -8.436   3.628  69.765  1.00  0.00    -0.087 C  
HETATM   19  C   UNL     1     -10.196   4.559  71.845  1.00  0.00    -0.241 A  
HETATM   20  C   UNL     1     -10.090   5.398  70.707  1.00  0.00    -0.287 A  
HETATM   21  O   UNL     1      -9.875   4.855  68.340  1.00  0.00    -0.149 OA 
HETATM   22  C   UNL     1      -8.021   6.019  69.329  1.00  0.00    -0.103 C  
HETATM   23  C   UNL     1      -9.138   4.991  69.563  1.00  0.00    -0.109 C  
ENDBRANCH  12  13
ENDBRANCH  11  12
ENDBRANCH  10  11
BRANCH  10  24
HETATM   24  C   UNL     1     -11.628  11.409  70.437  1.00  0.00    -0.267 A  
HETATM   25  C   UNL     1     -13.013  13.806  70.982  1.00  0.00    -0.324 A  
HETATM   26  C   UNL     1     -12.711  11.430  71.329  1.00  0.00    -0.498 A  
HETATM   27  C   UNL     1     -11.261  12.626  69.823  1.00  0.00     0.005 A  
HETATM   28  C   UNL     1     -13.397  12.616  71.598  1.00  0.00    -0.315 A  
HETATM   29  C   UNL     1     -11.930  13.831  70.099  1.00  0.00    -0.404 A  
BRANCH  29  30
HETATM   30  C   UNL     1     -11.521  15.054  69.390  1.00  0.00    -0.320 C  
HETATM   31  C   UNL     1     -10.307  15.254  68.845  1.00  0.00    -0.243 C  
BRANCH  31  32
HETATM   32  C   UNL     1      -9.873  16.475  68.158  1.00  0.00    -0.244 A  
HETATM   33  N   UNL     1      -8.857  17.132  68.766  1.00  0.00    -0.260 NA 
HETATM   34  C   UNL     1      -8.434  18.299  68.246  1.00  0.00    -0.295 A  
HETATM   35  C   UNL     1      -9.025  18.868  67.099  1.00  0.00    -0.299 A  
HETATM   36  C   UNL     1     -10.074  18.176  66.490  1.00  0.00    -0.389 A  
HETATM   37  C   UNL     1      -8.569  20.101  66.598  1.00  0.00    -0.352 A  
HETATM   38  C   UNL     1      -7.532  20.774  67.238  1.00  0.00    -0.381 A  
HETATM   39  C   UNL     1     -10.509  16.971  67.028  1.00  0.00    -0.279 A  
HETATM   40  C   UNL     1      -6.945  20.208  68.364  1.00  0.00    -0.270 A  
HETATM   41  C   UNL     1      -7.394  18.983  68.858  1.00  0.00    -0.360 A  
HETATM   42 CL   UNL     1      -5.663  21.035  69.159  1.00  0.00    -0.364 Cl 
ENDBRANCH  31  32
ENDBRANCH  29  30
ENDBRANCH  10  24
ENDBRANCH   9  10
ENDBRANCH   8   9
ENDBRANCH   5   8
ENDBRANCH   3   5
TORSDOF 10
ENDMDL
MODEL       48
REMARK 921   NORMALIZED FREE ENERGY PREDICTED BY IDOCK:   -7.16 KCAL/MOL
REMARK 922        TOTAL FREE ENERGY PREDICTED BY IDOCK:  -13.00 KCAL/MOL
REMARK 923 INTER-LIGAND FREE ENERGY PREDICTED BY IDOCK:  -11.33 KCAL/MOL
REMARK 924 INTRA-LIGAND FREE ENERGY PREDICTED BY IDOCK:   -1.67 KCAL/MOL
REMARK 927      BINDING AFFINITY PREDICTED BY RF-SCORE:    0.00 PKD
ROOT
HETATM    1  O   UNL     1     -12.583  13.025  63.224  1.00  0.00    -0.696 OA 
HETATM    2  C   UNL     1     -11.916  12.267  64.131  1.00  0.00    -0.432 C  
HETATM    3  C   UNL     1     -12.284  12.607  65.562  1.00  0.00    -0.501 C  
HETATM    4  O   UNL     1     -11.151  11.381  63.787  1.00  0.00    -0.392 OA 
ENDROOT
BRANCH   3   5
HETATM    5  C   UNL     1     -11.218  12.224  66.588  1.00  0.00    -0.367 C  
HETATM    6  C   UNL     1     -11.393  10.886  67.294  1.00  0.00    -0.230 C  
HETATM    7  C   UNL     1     -11.660  12.162  68.042  1.00  0.00    -0.411 C  
BRANCH   5   8
HETATM    8  C   UNL     1      -9.839  12.760  66.222  1.00  0.00    -0.267 C  
BRANCH   8   9
HETATM    9  S   UNL     1      -9.547  14.534  66.362  1.00  0.00    -0.302 SA 
BRANCH   9  10
HETATM   10  C   UNL     1      -8.449  14.583  67.859  1.00  0.00    -0.161 C  
BRANCH  10  11
HETATM   11  C   UNL     1      -7.616  15.880  68.002  1.00  0.00    -0.137 C  
BRANCH  11  12
HETATM   12  C   UNL     1      -8.215  16.942  68.950  1.00  0.00    -0.218 C  
BRANCH  12  13
HETATM   13  C   UNL     1      -8.762  18.147  68.197  1.00  0.00    -0.285 A  
HETATM   14  C   UNL     1     -10.115  18.035  67.784  1.00  0.00    -0.359 A  
HETATM   15  C   UNL     1     -10.093  20.225  66.832  1.00  0.00    -0.565 A  
HETATM   16  H   UNL     1      -5.574  19.634  70.041  1.00  0.00     0.000 HD 
HETATM   17  C   UNL     1     -10.767  19.049  67.096  1.00  0.00    -0.541 A  
HETATM   18  C   UNL     1      -6.082  21.039  68.047  1.00  0.00    -0.398 C  
HETATM   19  C   UNL     1      -8.769  20.373  67.252  1.00  0.00    -0.429 A  
HETATM   20  C   UNL     1      -8.056  19.352  67.930  1.00  0.00    -0.333 A  
HETATM   21  O   UNL     1      -6.472  19.472  69.779  1.00  0.00    -0.309 OA 
HETATM   22  C   UNL     1      -5.605  18.645  67.697  1.00  0.00    -0.165 C  
HETATM   23  C   UNL     1      -6.597  19.614  68.358  1.00  0.00    -0.272 C  
ENDBRANCH  12  13
ENDBRANCH  11  12
ENDBRANCH  10  11
BRANCH  10  24
HETATM   24  C   UNL     1      -7.643  13.285  67.962  1.00  0.00    -0.145 A  
HETATM   25  C   UNL     1      -6.271  10.828  68.169  1.00  0.00    -0.057 A  
HETATM   26  C   UNL     1      -6.482  13.041  67.213  1.00  0.00     0.013 A  
HETATM   27  C   UNL     1      -8.098  12.259  68.818  1.00  0.00     0.054 A  
HETATM   28  C   UNL     1      -5.804  11.825  67.314  1.00  0.00    -0.119 A  
HETATM   29  C   UNL     1      -7.414  11.037  68.945  1.00  0.00    -0.123 A  
BRANCH  29  30
HETATM   30  C   UNL     1      -7.971   9.996  69.824  1.00  0.00    -0.190 C  
HETATM   31  C   UNL     1      -9.283   9.748  69.984  1.00  0.00    -0.266 C  
BRANCH  31  32
HETATM   32  C   UNL     1      -9.856   8.733  70.875  1.00  0.00    -0.222 A  
HETATM   33  N   UNL     1      -9.429   7.470  70.636  1.00  0.00    -0.164 NA 
HETATM   34  C   UNL     1      -9.949   6.461  71.359  1.00  0.00    -0.184 A  
HETATM   35  C   UNL     1     -10.933   6.674  72.346  1.00  0.00    -0.277 A  
HETATM   36  C   UNL     1     -11.362   7.984  72.574  1.00  0.00    -0.469 A  
HETATM   37  C   UNL     1     -11.469   5.591  73.065  1.00  0.00    -0.288 A  
HETATM   38  C   UNL     1     -11.033   4.295  72.804  1.00  0.00    -0.138 A  
HETATM   39  C   UNL     1     -10.824   9.024  71.825  1.00  0.00    -0.437 A  
HETATM   40  C   UNL     1     -10.056   4.087  71.836  1.00  0.00    -0.144 A  
HETATM   41  C   UNL     1      -9.522   5.163  71.125  1.00  0.00    -0.205 A  
HETATM   42 CL   UNL     1      -9.513   2.488  71.507  1.00  0.00    -0.199 Cl 
ENDBRANCH  31  32
ENDBRANCH  29  30
ENDBRANCH  10  24
ENDBRANCH   9  10
ENDBRANCH   8   9
ENDBRANCH   5   8
ENDBRANCH   3   5
TORSDOF 10
ENDMDL
MODEL       49
REMARK 921   NORMALIZED FREE ENERGY PREDICTED BY IDOCK:   -7.15 KCAL/MOL
REMARK 922        TOTAL FREE ENERGY PREDICTED BY IDOCK:  -12.99 KCAL/MOL
REMARK 923 INTER-LIGAND FREE ENERGY PREDICTED BY IDOCK:  -11.90 KCAL/MOL
REMARK 924 INTRA-LIGAND FREE ENERGY PREDICTED BY IDOCK:   -1.09 KCAL/MOL
REMARK 927      BINDING AFFINITY PREDICTED BY RF-SCORE:    0.00 PKD
ROOT
HETATM    1  O   UNL     1      -9.691  16.678  69.700  1.00  0.00    -0.076 OA 
HETATM    2  C   UNL     1     -10.954  16.181  69.675  1.00  0.00    -0.346 C  
HETATM    3  C   UNL     1     -11.239  15.247  70.834  1.00  0.00    -0.367 C  
HETATM    4  O   UNL     1     -11.759  16.518  68.822  1.00  0.00    -0.186 OA 
ENDROOT
BRANCH   3   5
HETATM    5  C   UNL     1     -12.374  14.257  70.575  1.00  0.00    -0.430 C  
HETATM    6  C   UNL     1     -13.754  14.642  71.092  1.00  0.00    -0.374 C  
HETATM    7  C   UNL     1     -12.971  13.567  71.791  1.00  0.00    -0.439 C  
BRANCH   5   8
HETATM    8  C   UNL     1     -12.195  13.497  69.266  1.00  0.00    -0.211 C  
BRANCH   8   9
HETATM    9  S   UNL     1     -12.101  11.697  69.329  1.00  0.00    -0.197 SA 
BRANCH   9  10
HETATM   10  C   UNL     1     -10.874  11.372  67.973  1.00  0.00    -0.217 C  
BRANCH  10  11
HETATM   11  C   UNL     1      -9.425  11.135  68.463  1.00  0.00    -0.193 C  
BRANCH  11  12
HETATM   12  C   UNL     1      -9.259   9.994  69.491  1.00  0.00    -0.238 C  
BRANCH  12  13
HETATM   13  C   UNL     1      -9.933   8.706  69.038  1.00  0.00    -0.197 A  
HETATM   14  C   UNL     1      -9.875   8.454  67.644  1.00  0.00    -0.222 A  
HETATM   15  C   UNL     1     -11.032   6.379  67.886  1.00  0.00    -0.416 A  
HETATM   16  H   UNL     1      -9.392   8.100  72.927  1.00  0.00     0.000 HD 
HETATM   17  C   UNL     1     -10.431   7.318  67.071  1.00  0.00    -0.398 A  
HETATM   18  C   UNL     1     -11.268   6.662  72.139  1.00  0.00    -0.299 C  
HETATM   19  C   UNL     1     -11.079   6.587  69.266  1.00  0.00    -0.393 A  
HETATM   20  C   UNL     1     -10.549   7.747  69.889  1.00  0.00    -0.239 A  
HETATM   21  O   UNL     1      -9.332   8.017  71.983  1.00  0.00    -0.149 OA 
HETATM   22  C   UNL     1     -11.471   9.102  71.857  1.00  0.00    -0.423 C  
HETATM   23  C   UNL     1     -10.645   7.882  71.422  1.00  0.00    -0.211 C  
ENDBRANCH  12  13
ENDBRANCH  11  12
ENDBRANCH  10  11
BRANCH  10  24
HETATM   24  C   UNL     1     -11.017  12.424  66.871  1.00  0.00    -0.307 A  
HETATM   25  C   UNL     1     -11.155  14.400  64.861  1.00  0.00    -0.404 A  
HETATM   26  C   UNL     1     -11.781  12.222  65.711  1.00  0.00    -0.445 A  
HETATM   27  C   UNL     1     -10.322  13.647  66.993  1.00  0.00    -0.260 A  
HETATM   28  C   UNL     1     -11.848  13.200  64.716  1.00  0.00    -0.413 A  
HETATM   29  C   UNL     1     -10.396  14.647  66.008  1.00  0.00    -0.317 A  
BRANCH  29  30
HETATM   30  C   UNL     1      -9.609  15.879  66.181  1.00  0.00    -0.365 C  
HETATM   31  C   UNL     1      -8.326  15.920  66.584  1.00  0.00    -0.328 C  
BRANCH  31  32
HETATM   32  C   UNL     1      -7.536  17.139  66.787  1.00  0.00    -0.228 A  
HETATM   33  N   UNL     1      -7.242  17.409  68.082  1.00  0.00    -0.193 NA 
HETATM   34  C   UNL     1      -6.576  18.541  68.373  1.00  0.00    -0.226 A  
HETATM   35  C   UNL     1      -6.190  19.463  67.379  1.00  0.00    -0.201 A  
HETATM   36  C   UNL     1      -6.508  19.168  66.051  1.00  0.00    -0.232 A  
HETATM   37  C   UNL     1      -5.516  20.647  67.727  1.00  0.00    -0.263 A  
HETATM   38  C   UNL     1      -5.228  20.921  69.060  1.00  0.00    -0.380 A  
HETATM   39  C   UNL     1      -7.195  17.997  65.751  1.00  0.00    -0.204 A  
HETATM   40  C   UNL     1      -5.602  20.007  70.040  1.00  0.00    -0.270 A  
HETATM   41  C   UNL     1      -6.268  18.831  69.694  1.00  0.00    -0.267 A  
HETATM   42 CL   UNL     1      -5.250  20.340  71.691  1.00  0.00    -0.374 Cl 
ENDBRANCH  31  32
ENDBRANCH  29  30
ENDBRANCH  10  24
ENDBRANCH   9  10
ENDBRANCH   8   9
ENDBRANCH   5   8
ENDBRANCH   3   5
TORSDOF 10
ENDMDL
MODEL       50
REMARK 921   NORMALIZED FREE ENERGY PREDICTED BY IDOCK:   -7.13 KCAL/MOL
REMARK 922        TOTAL FREE ENERGY PREDICTED BY IDOCK:  -12.95 KCAL/MOL
REMARK 923 INTER-LIGAND FREE ENERGY PREDICTED BY IDOCK:  -10.52 KCAL/MOL
REMARK 924 INTRA-LIGAND FREE ENERGY PREDICTED BY IDOCK:   -2.43 KCAL/MOL
REMARK 927      BINDING AFFINITY PREDICTED BY RF-SCORE:    0.00 PKD
ROOT
HETATM    1  O   UNL     1      -6.118   9.104  73.064  1.00  0.00    -0.286 OA 
HETATM    2  C   UNL     1      -6.833   8.032  72.638  1.00  0.00    -0.083 C  
HETATM    3  C   UNL     1      -8.314   8.327  72.514  1.00  0.00    -0.235 C  
HETATM    4  O   UNL     1      -6.293   6.977  72.347  1.00  0.00    -0.051 OA 
ENDROOT
BRANCH   3   5
HETATM    5  C   UNL     1      -9.207   7.088  72.594  1.00  0.00    -0.154 C  
HETATM    6  C   UNL     1     -10.274   7.080  73.679  1.00  0.00    -0.396 C  
HETATM    7  C   UNL     1      -9.055   6.215  73.828  1.00  0.00    -0.131 C  
BRANCH   5   8
HETATM    8  C   UNL     1      -9.453   6.459  71.228  1.00  0.00    -0.166 C  
BRANCH   8   9
HETATM    9  S   UNL     1      -8.861   7.334  69.765  1.00  0.00    -0.141 SA 
BRANCH   9  10
HETATM   10  C   UNL     1     -10.473   7.764  68.949  1.00  0.00    -0.194 C  
BRANCH  10  11
HETATM   11  C   UNL     1     -10.397   7.892  67.409  1.00  0.00    -0.349 C  
BRANCH  11  12
HETATM   12  C   UNL     1      -9.014   8.293  66.851  1.00  0.00    -0.169 C  
BRANCH  12  13
HETATM   13  C   UNL     1      -9.124   9.166  65.607  1.00  0.00    -0.273 A  
HETATM   14  C   UNL     1     -10.150  10.144  65.647  1.00  0.00    -0.324 A  
HETATM   15  C   UNL     1      -9.553  10.979  63.491  1.00  0.00    -0.344 A  
HETATM   16  H   UNL     1      -5.455   7.670  65.316  1.00  0.00     0.000 HD 
HETATM   17  C   UNL     1     -10.376  11.026  64.599  1.00  0.00    -0.410 A  
HETATM   18  C   UNL     1      -6.248   8.314  63.043  1.00  0.00    -0.082 C  
HETATM   19  C   UNL     1      -8.516  10.044  63.437  1.00  0.00    -0.182 A  
HETATM   20  C   UNL     1      -8.270   9.106  64.471  1.00  0.00    -0.152 A  
HETATM   21  O   UNL     1      -6.177   8.280  65.409  1.00  0.00    -0.045 OA 
HETATM   22  C   UNL     1      -7.557   6.651  64.308  1.00  0.00    -0.104 C  
HETATM   23  C   UNL     1      -7.096   8.116  64.321  1.00  0.00    -0.078 C  
ENDBRANCH  12  13
ENDBRANCH  11  12
ENDBRANCH  10  11
BRANCH  10  24
HETATM   24  C   UNL     1     -11.122   8.953  69.663  1.00  0.00    -0.056 A  
HETATM   25  C   UNL     1     -12.339  11.200  70.859  1.00  0.00    -0.500 A  
HETATM   26  C   UNL     1     -11.902   8.820  70.822  1.00  0.00    -0.209 A  
HETATM   27  C   UNL     1     -10.971  10.247  69.119  1.00  0.00    -0.280 A  
HETATM   28  C   UNL     1     -12.505   9.932  71.413  1.00  0.00    -0.495 A  
HETATM   29  C   UNL     1     -11.557  11.378  69.715  1.00  0.00    -0.407 A  
BRANCH  29  30
HETATM   30  C   UNL     1     -11.394  12.690  69.069  1.00  0.00    -0.345 C  
HETATM   31  C   UNL     1     -11.064  12.874  67.778  1.00  0.00    -0.291 C  
BRANCH  31  32
HETATM   32  C   UNL     1     -10.872  14.173  67.125  1.00  0.00    -0.290 A  
HETATM   33  N   UNL     1     -10.764  15.221  67.977  1.00  0.00    -0.261 NA 
HETATM   34  C   UNL     1     -10.652  16.462  67.469  1.00  0.00    -0.309 A  
HETATM   35  C   UNL     1     -10.658  16.709  66.081  1.00  0.00    -0.218 A  
HETATM   36  C   UNL     1     -10.774  15.615  65.220  1.00  0.00    -0.444 A  
HETATM   37  C   UNL     1     -10.560  18.023  65.590  1.00  0.00    -0.104 A  
HETATM   38  C   UNL     1     -10.463  19.093  66.474  1.00  0.00    -0.534 A  
HETATM   39  C   UNL     1     -10.890  14.334  65.746  1.00  0.00    -0.303 A  
HETATM   40  C   UNL     1     -10.448  18.848  67.843  1.00  0.00    -0.388 A  
HETATM   41  C   UNL     1     -10.540  17.544  68.330  1.00  0.00    -0.354 A  
HETATM   42 CL   UNL     1     -10.328  20.167  68.941  1.00  0.00    -0.379 Cl 
ENDBRANCH  31  32
ENDBRANCH  29  30
ENDBRANCH  10  24
ENDBRANCH   9  10
ENDBRANCH   8   9
ENDBRANCH   5   8
ENDBRANCH   3   5
TORSDOF 10
ENDMDL
MODEL       51
REMARK 921   NORMALIZED FREE ENERGY PREDICTED BY IDOCK:   -7.12 KCAL/MOL
REMARK 922        TOTAL FREE ENERGY PREDICTED BY IDOCK:  -12.93 KCAL/MOL
REMARK 923 INTER-LIGAND FREE ENERGY PREDICTED BY IDOCK:  -11.12 KCAL/MOL
REMARK 924 INTRA-LIGAND FREE ENERGY PREDICTED BY IDOCK:   -1.81 KCAL/MOL
REMARK 927      BINDING AFFINITY PREDICTED BY RF-SCORE:    0.00 PKD
ROOT
HETATM    1  O   UNL     1      -6.244  14.563  69.312  1.00  0.00    -0.101 OA 
HETATM    2  C   UNL     1      -7.286  15.218  68.740  1.00  0.00    -0.131 C  
HETATM    3  C   UNL     1      -7.041  15.551  67.282  1.00  0.00    -0.225 C  
HETATM    4  O   UNL     1      -8.315  15.447  69.356  1.00  0.00    -0.238 OA 
ENDROOT
BRANCH   3   5
HETATM    5  C   UNL     1      -7.872  16.723  66.761  1.00  0.00    -0.281 C  
HETATM    6  C   UNL     1      -7.105  17.940  66.260  1.00  0.00    -0.321 C  
HETATM    7  C   UNL     1      -7.830  18.007  67.574  1.00  0.00    -0.217 C  
BRANCH   5   8
HETATM    8  C   UNL     1      -9.168  16.269  66.100  1.00  0.00    -0.341 C  
BRANCH   8   9
HETATM    9  S   UNL     1     -10.675  16.261  67.093  1.00  0.00    -0.191 SA 
BRANCH   9  10
HETATM   10  C   UNL     1     -10.949  14.434  67.282  1.00  0.00    -0.297 C  
BRANCH  10  11
HETATM   11  C   UNL     1     -11.594  13.751  66.052  1.00  0.00    -0.361 C  
BRANCH  11  12
HETATM   12  C   UNL     1     -11.754  12.219  66.162  1.00  0.00    -0.440 C  
BRANCH  12  13
HETATM   13  C   UNL     1     -10.836  11.471  65.204  1.00  0.00    -0.326 A  
HETATM   14  C   UNL     1     -11.014  11.785  63.832  1.00  0.00    -0.476 A  
HETATM   15  C   UNL     1      -9.256  10.307  63.180  1.00  0.00    -0.311 A  
HETATM   16  H   UNL     1      -8.978  11.080  68.693  1.00  0.00     0.000 HD 
HETATM   17  C   UNL     1     -10.249  11.200  62.831  1.00  0.00    -0.168 A  
HETATM   18  C   UNL     1      -8.276   9.220  67.190  1.00  0.00    -0.117 C  
HETATM   19  C   UNL     1      -9.040  10.000  64.526  1.00  0.00    -0.285 A  
HETATM   20  C   UNL     1      -9.816  10.553  65.576  1.00  0.00    -0.324 A  
HETATM   21  O   UNL     1      -9.175  11.325  67.797  1.00  0.00    -0.150 OA 
HETATM   22  C   UNL     1     -10.672   9.448  67.723  1.00  0.00    -0.290 C  
HETATM   23  C   UNL     1      -9.497  10.155  67.032  1.00  0.00    -0.167 C  
ENDBRANCH  12  13
ENDBRANCH  11  12
ENDBRANCH  10  11
BRANCH  10  24
HETATM   24  C   UNL     1     -11.640  14.141  68.617  1.00  0.00    -0.352 A  
HETATM   25  C   UNL     1     -12.832  13.498  71.092  1.00  0.00    -0.387 A  
HETATM   26  C   UNL     1     -12.096  15.148  69.482  1.00  0.00    -0.316 A  
HETATM   27  C   UNL     1     -11.798  12.801  69.031  1.00  0.00    -0.344 A  
HETATM   28  C   UNL     1     -12.685  14.829  70.707  1.00  0.00    -0.422 A  
HETATM   29  C   UNL     1     -12.406  12.465  70.253  1.00  0.00    -0.264 A  
BRANCH  29  30
HETATM   30  C   UNL     1     -12.498  11.048  70.639  1.00  0.00    -0.465 C  
HETATM   31  C   UNL     1     -11.542  10.369  71.299  1.00  0.00    -0.231 C  
BRANCH  31  32
HETATM   32  C   UNL     1     -11.605   8.951  71.668  1.00  0.00    -0.338 A  
HETATM   33  N   UNL     1     -10.460   8.455  72.195  1.00  0.00    -0.299 NA 
HETATM   34  C   UNL     1     -10.400   7.147  72.503  1.00  0.00    -0.208 A  
HETATM   35  C   UNL     1     -11.484   6.273  72.282  1.00  0.00    -0.351 A  
HETATM   36  C   UNL     1     -12.654   6.804  71.734  1.00  0.00    -0.370 A  
HETATM   37  C   UNL     1     -11.375   4.906  72.596  1.00  0.00    -0.157 A  
HETATM   38  C   UNL     1     -10.190   4.404  73.126  1.00  0.00    -0.218 A  
HETATM   39  C   UNL     1     -12.714   8.156  71.416  1.00  0.00    -0.283 A  
HETATM   40  C   UNL     1      -9.124   5.269  73.352  1.00  0.00    -0.128 A  
HETATM   41  C   UNL     1      -9.234   6.625  73.043  1.00  0.00    -0.144 A  
HETATM   42 CL   UNL     1      -7.656   4.655  74.006  1.00  0.00    -0.085 Cl 
ENDBRANCH  31  32
ENDBRANCH  29  30
ENDBRANCH  10  24
ENDBRANCH   9  10
ENDBRANCH   8   9
ENDBRANCH   5   8
ENDBRANCH   3   5
TORSDOF 10
ENDMDL
MODEL       52
REMARK 921   NORMALIZED FREE ENERGY PREDICTED BY IDOCK:   -7.08 KCAL/MOL
REMARK 922        TOTAL FREE ENERGY PREDICTED BY IDOCK:  -12.88 KCAL/MOL
REMARK 923 INTER-LIGAND FREE ENERGY PREDICTED BY IDOCK:   -9.98 KCAL/MOL
REMARK 924 INTRA-LIGAND FREE ENERGY PREDICTED BY IDOCK:   -2.90 KCAL/MOL
REMARK 927      BINDING AFFINITY PREDICTED BY RF-SCORE:    0.00 PKD
ROOT
HETATM    1  O   UNL     1     -10.299   3.900  71.975  1.00  0.00    -0.140 OA 
HETATM    2  C   UNL     1      -9.997   5.211  71.795  1.00  0.00    -0.187 C  
HETATM    3  C   UNL     1     -11.227   6.094  71.736  1.00  0.00    -0.338 C  
HETATM    4  O   UNL     1      -8.841   5.600  71.744  1.00  0.00    -0.135 OA 
ENDROOT
BRANCH   3   5
HETATM    5  C   UNL     1     -11.012   7.417  71.002  1.00  0.00    -0.268 C  
HETATM    6  C   UNL     1     -10.273   8.512  71.760  1.00  0.00    -0.352 C  
HETATM    7  C   UNL     1     -11.755   8.628  71.542  1.00  0.00    -0.369 C  
BRANCH   5   8
HETATM    8  C   UNL     1     -10.833   7.227  69.501  1.00  0.00    -0.209 C  
BRANCH   8   9
HETATM    9  S   UNL     1      -9.209   7.552  68.785  1.00  0.00    -0.144 SA 
BRANCH   9  10
HETATM   10  C   UNL     1      -9.313   9.388  68.523  1.00  0.00    -0.138 C  
BRANCH  10  11
HETATM   11  C   UNL     1      -9.774   9.808  67.106  1.00  0.00    -0.223 C  
BRANCH  11  12
HETATM   12  C   UNL     1     -11.249  10.251  67.002  1.00  0.00     0.047 C  
BRANCH  12  13
HETATM   13  C   UNL     1     -11.514  11.557  67.740  1.00  0.00    -0.357 A  
HETATM   14  C   UNL     1     -11.656  11.436  69.146  1.00  0.00    -0.381 A  
HETATM   15  C   UNL     1     -11.952  13.792  69.403  1.00  0.00    -0.397 A  
HETATM   16  H   UNL     1     -10.022  12.790  64.270  1.00  0.00     0.000 HD 
HETATM   17  C   UNL     1     -11.890  12.532  69.965  1.00  0.00    -0.363 A  
HETATM   18  C   UNL     1     -11.405  14.617  65.250  1.00  0.00    -0.354 C  
HETATM   19  C   UNL     1     -11.788  13.944  68.024  1.00  0.00    -0.411 A  
HETATM   20  C   UNL     1     -11.576  12.849  67.148  1.00  0.00    -0.421 A  
HETATM   21  O   UNL     1     -10.130  12.622  65.199  1.00  0.00    -0.281 OA 
HETATM   22  C   UNL     1     -12.490  12.452  64.788  1.00  0.00    -0.480 C  
HETATM   23  C   UNL     1     -11.401  13.120  65.639  1.00  0.00    -0.303 C  
ENDBRANCH  12  13
ENDBRANCH  11  12
ENDBRANCH  10  11
BRANCH  10  24
HETATM   24  C   UNL     1      -8.026  10.061  69.008  1.00  0.00    -0.108 A  
HETATM   25  C   UNL     1      -5.728  11.407  69.940  1.00  0.00    -0.100 A  
HETATM   26  C   UNL     1      -6.966   9.356  69.596  1.00  0.00    -0.058 A  
HETATM   27  C   UNL     1      -7.902  11.464  68.902  1.00  0.00    -0.096 A  
HETATM   28  C   UNL     1      -5.829  10.023  70.059  1.00  0.00    -0.049 A  
HETATM   29  C   UNL     1      -6.756  12.145  69.346  1.00  0.00    -0.056 A  
BRANCH  29  30
HETATM   30  C   UNL     1      -6.713  13.613  69.243  1.00  0.00    -0.094 C  
HETATM   31  C   UNL     1      -7.766  14.390  68.930  1.00  0.00    -0.128 C  
BRANCH  31  32
HETATM   32  C   UNL     1      -7.736  15.851  68.797  1.00  0.00    -0.181 A  
HETATM   33  N   UNL     1      -8.664  16.358  67.950  1.00  0.00    -0.178 NA 
HETATM   34  C   UNL     1      -8.671  17.683  67.713  1.00  0.00    -0.232 A  
HETATM   35  C   UNL     1      -7.735  18.557  68.304  1.00  0.00    -0.313 A  
HETATM   36  C   UNL     1      -6.785  18.012  69.171  1.00  0.00    -0.249 A  
HETATM   37  C   UNL     1      -7.762  19.932  68.013  1.00  0.00    -0.323 A  
HETATM   38  C   UNL     1      -8.711  20.442  67.132  1.00  0.00    -0.413 A  
HETATM   39  C   UNL     1      -6.779  16.644  69.415  1.00  0.00    -0.218 A  
HETATM   40  C   UNL     1      -9.638  19.580  66.557  1.00  0.00    -0.378 A  
HETATM   41  C   UNL     1      -9.615  18.216  66.849  1.00  0.00    -0.299 A  
HETATM   42 CL   UNL     1     -10.814  20.204  65.467  1.00  0.00    -0.299 Cl 
ENDBRANCH  31  32
ENDBRANCH  29  30
ENDBRANCH  10  24
ENDBRANCH   9  10
ENDBRANCH   8   9
ENDBRANCH   5   8
ENDBRANCH   3   5
TORSDOF 10
ENDMDL
MODEL       53
REMARK 921   NORMALIZED FREE ENERGY PREDICTED BY IDOCK:   -7.06 KCAL/MOL
REMARK 922        TOTAL FREE ENERGY PREDICTED BY IDOCK:  -12.84 KCAL/MOL
REMARK 923 INTER-LIGAND FREE ENERGY PREDICTED BY IDOCK:   -9.80 KCAL/MOL
REMARK 924 INTRA-LIGAND FREE ENERGY PREDICTED BY IDOCK:   -3.04 KCAL/MOL
REMARK 927      BINDING AFFINITY PREDICTED BY RF-SCORE:    0.00 PKD
ROOT
HETATM    1  O   UNL     1      -9.487   3.129  64.671  1.00  0.00    -0.142 OA 
HETATM    2  C   UNL     1      -9.294   3.805  65.832  1.00  0.00    -0.167 C  
HETATM    3  C   UNL     1     -10.407   4.790  66.128  1.00  0.00    -0.337 C  
HETATM    4  O   UNL     1      -8.339   3.575  66.556  1.00  0.00    -0.099 OA 
ENDROOT
BRANCH   3   5
HETATM    5  C   UNL     1      -9.999   5.932  67.060  1.00  0.00    -0.195 C  
HETATM    6  C   UNL     1      -9.820   5.586  68.532  1.00  0.00    -0.193 C  
HETATM    7  C   UNL     1     -11.024   6.370  68.093  1.00  0.00    -0.393 C  
BRANCH   5   8
HETATM    8  C   UNL     1      -9.112   6.959  66.368  1.00  0.00    -0.159 C  
BRANCH   8   9
HETATM    9  S   UNL     1      -7.855   7.802  67.349  1.00  0.00    -0.120 SA 
BRANCH   9  10
HETATM   10  C   UNL     1      -8.779   9.336  67.843  1.00  0.00    -0.124 C  
BRANCH  10  11
HETATM   11  C   UNL     1      -9.636   9.959  66.715  1.00  0.00    -0.231 C  
BRANCH  11  12
HETATM   12  C   UNL     1     -11.139  10.110  67.041  1.00  0.00    -0.061 C  
BRANCH  12  13
HETATM   13  C   UNL     1     -11.415  11.293  67.959  1.00  0.00    -0.369 A  
HETATM   14  C   UNL     1     -11.554  10.970  69.333  1.00  0.00    -0.383 A  
HETATM   15  C   UNL     1     -11.873  13.261  69.926  1.00  0.00    -0.380 A  
HETATM   16  H   UNL     1      -9.943  13.027  64.702  1.00  0.00     0.000 HD 
HETATM   17  C   UNL     1     -11.797  11.934  70.302  1.00  0.00    -0.368 A  
HETATM   18  C   UNL     1     -11.342  14.680  65.934  1.00  0.00    -0.338 C  
HETATM   19  C   UNL     1     -11.713  13.611  68.583  1.00  0.00    -0.389 A  
HETATM   20  C   UNL     1     -11.492  12.656  67.558  1.00  0.00    -0.397 A  
HETATM   21  O   UNL     1     -10.047  12.727  65.597  1.00  0.00    -0.274 OA 
HETATM   22  C   UNL     1     -12.406  12.592  65.166  1.00  0.00    -0.547 C  
HETATM   23  C   UNL     1     -11.322  13.143  66.105  1.00  0.00    -0.312 C  
ENDBRANCH  12  13
ENDBRANCH  11  12
ENDBRANCH  10  11
BRANCH  10  24
HETATM   24  C   UNL     1      -7.836  10.313  68.551  1.00  0.00    -0.097 A  
HETATM   25  C   UNL     1      -6.199  12.201  69.860  1.00  0.00    -0.120 A  
HETATM   26  C   UNL     1      -6.851   9.905  69.462  1.00  0.00    -0.065 A  
HETATM   27  C   UNL     1      -7.979  11.698  68.316  1.00  0.00    -0.143 A  
HETATM   28  C   UNL     1      -6.042  10.839  70.111  1.00  0.00    -0.118 A  
HETATM   29  C   UNL     1      -7.158  12.649  68.948  1.00  0.00    -0.069 A  
BRANCH  29  30
HETATM   30  C   UNL     1      -7.392  14.078  68.688  1.00  0.00    -0.120 C  
HETATM   31  C   UNL     1      -8.605  14.653  68.597  1.00  0.00    -0.172 C  
BRANCH  31  32
HETATM   32  C   UNL     1      -8.857  16.070  68.313  1.00  0.00    -0.182 A  
HETATM   33  N   UNL     1      -8.006  16.623  67.415  1.00  0.00    -0.158 NA 
HETATM   34  C   UNL     1      -8.117  17.936  67.140  1.00  0.00    -0.212 A  
HETATM   35  C   UNL     1      -9.078  18.756  67.766  1.00  0.00    -0.311 A  
HETATM   36  C   UNL     1      -9.941  18.166  68.692  1.00  0.00    -0.409 A  
HETATM   37  C   UNL     1      -9.147  20.129  67.468  1.00  0.00    -0.465 A  
HETATM   38  C   UNL     1      -8.261  20.690  66.554  1.00  0.00    -0.002 A  
HETATM   39  C   UNL     1      -9.826  16.810  68.975  1.00  0.00    -0.260 A  
HETATM   40  C   UNL     1      -7.319  19.878  65.931  1.00  0.00    -0.320 A  
HETATM   41  C   UNL     1      -7.254  18.516  66.223  1.00  0.00    -0.288 A  
HETATM   42 CL   UNL     1      -6.221  20.567  64.799  1.00  0.00    -0.309 Cl 
ENDBRANCH  31  32
ENDBRANCH  29  30
ENDBRANCH  10  24
ENDBRANCH   9  10
ENDBRANCH   8   9
ENDBRANCH   5   8
ENDBRANCH   3   5
TORSDOF 10
ENDMDL
MODEL       54
REMARK 921   NORMALIZED FREE ENERGY PREDICTED BY IDOCK:   -6.99 KCAL/MOL
REMARK 922        TOTAL FREE ENERGY PREDICTED BY IDOCK:  -12.73 KCAL/MOL
REMARK 923 INTER-LIGAND FREE ENERGY PREDICTED BY IDOCK:  -10.61 KCAL/MOL
REMARK 924 INTRA-LIGAND FREE ENERGY PREDICTED BY IDOCK:   -2.11 KCAL/MOL
REMARK 927      BINDING AFFINITY PREDICTED BY RF-SCORE:    0.00 PKD
ROOT
HETATM    1  O   UNL     1     -11.033  16.238  70.069  1.00  0.00    -0.343 OA 
HETATM    2  C   UNL     1     -10.487  15.774  68.916  1.00  0.00    -0.223 C  
HETATM    3  C   UNL     1     -11.264  16.201  67.686  1.00  0.00    -0.147 C  
HETATM    4  O   UNL     1      -9.451  15.130  68.911  1.00  0.00    -0.196 OA 
ENDROOT
BRANCH   3   5
HETATM    5  C   UNL     1     -11.058  15.295  66.472  1.00  0.00    -0.271 C  
HETATM    6  C   UNL     1      -9.643  15.198  65.919  1.00  0.00    -0.373 C  
HETATM    7  C   UNL     1     -10.684  15.977  65.166  1.00  0.00    -0.429 C  
BRANCH   5   8
HETATM    8  C   UNL     1     -11.998  14.095  66.475  1.00  0.00    -0.442 C  
BRANCH   8   9
HETATM    9  S   UNL     1     -11.608  12.702  65.397  1.00  0.00    -0.382 SA 
BRANCH   9  10
HETATM   10  C   UNL     1     -11.077  11.439  66.650  1.00  0.00    -0.271 C  
BRANCH  10  11
HETATM   11  C   UNL     1     -10.522  12.036  67.966  1.00  0.00    -0.224 C  
BRANCH  11  12
HETATM   12  C   UNL     1     -10.504  11.067  69.169  1.00  0.00    -0.238 C  
BRANCH  12  13
HETATM   13  C   UNL     1     -11.546  11.429  70.219  1.00  0.00    -0.334 A  
HETATM   14  C   UNL     1     -12.035  12.759  70.148  1.00  0.00    -0.371 A  
HETATM   15  C   UNL     1     -13.524  12.397  71.979  1.00  0.00    -0.460 A  
HETATM   16  H   UNL     1     -11.632   7.457  70.223  1.00  0.00     0.000 HD 
HETATM   17  C   UNL     1     -12.996  13.244  71.025  1.00  0.00    -0.233 A  
HETATM   18  C   UNL     1     -12.464   8.286  72.421  1.00  0.00    -0.355 C  
HETATM   19  C   UNL     1     -13.082  11.074  72.053  1.00  0.00    -0.449 A  
HETATM   20  C   UNL     1     -12.082  10.547  71.197  1.00  0.00    -0.473 A  
HETATM   21  O   UNL     1     -11.889   8.366  70.125  1.00  0.00     0.077 OA 
HETATM   22  C   UNL     1     -10.183   8.911  71.725  1.00  0.00    -0.414 C  
HETATM   23  C   UNL     1     -11.665   9.070  71.354  1.00  0.00    -0.322 C  
ENDBRANCH  12  13
ENDBRANCH  11  12
ENDBRANCH  10  11
BRANCH  10  24
HETATM   24  C   UNL     1     -10.179  10.389  65.990  1.00  0.00    -0.295 A  
HETATM   25  C   UNL     1      -8.608   8.360  64.817  1.00  0.00    -0.077 A  
HETATM   26  C   UNL     1      -9.503  10.609  64.781  1.00  0.00    -0.306 A  
HETATM   27  C   UNL     1     -10.047   9.120  66.594  1.00  0.00    -0.343 A  
HETATM   28  C   UNL     1      -8.726   9.604  64.200  1.00  0.00    -0.238 A  
HETATM   29  C   UNL     1      -9.253   8.106  66.030  1.00  0.00    -0.207 A  
BRANCH  29  30
HETATM   30  C   UNL     1      -9.196   6.793  66.692  1.00  0.00    -0.184 C  
HETATM   31  C   UNL     1      -9.795   6.496  67.860  1.00  0.00    -0.134 C  
BRANCH  31  32
HETATM   32  C   UNL     1      -9.727   5.201  68.547  1.00  0.00    -0.149 A  
HETATM   33  N   UNL     1     -10.106   5.234  69.847  1.00  0.00    -0.240 NA 
HETATM   34  C   UNL     1     -10.015   4.108  70.578  1.00  0.00    -0.107 A  
HETATM   35  C   UNL     1      -9.523   2.901  70.040  1.00  0.00    -0.183 A  
HETATM   36  C   UNL     1      -9.133   2.890  68.699  1.00  0.00    -0.213 A  
HETATM   37  C   UNL     1      -9.421   1.751  70.843  1.00  0.00    -0.194 A  
HETATM   38  C   UNL     1      -9.802   1.798  72.181  1.00  0.00    -0.198 A  
HETATM   39  C   UNL     1      -9.228   4.054  67.945  1.00  0.00    -0.200 A  
HETATM   40  C   UNL     1     -10.295   2.987  72.708  1.00  0.00    -0.148 A  
HETATM   41  C   UNL     1     -10.400   4.126  71.910  1.00  0.00    -0.112 A  
HETATM   42 CL   UNL     1     -10.767   3.051  74.361  1.00  0.00    -0.211 Cl 
ENDBRANCH  31  32
ENDBRANCH  29  30
ENDBRANCH  10  24
ENDBRANCH   9  10
ENDBRANCH   8   9
ENDBRANCH   5   8
ENDBRANCH   3   5
TORSDOF 10
ENDMDL
MODEL       55
REMARK 921   NORMALIZED FREE ENERGY PREDICTED BY IDOCK:   -6.97 KCAL/MOL
REMARK 922        TOTAL FREE ENERGY PREDICTED BY IDOCK:  -12.71 KCAL/MOL
REMARK 923 INTER-LIGAND FREE ENERGY PREDICTED BY IDOCK:  -10.70 KCAL/MOL
REMARK 924 INTRA-LIGAND FREE ENERGY PREDICTED BY IDOCK:   -2.01 KCAL/MOL
REMARK 927      BINDING AFFINITY PREDICTED BY RF-SCORE:    0.00 PKD
ROOT
HETATM    1  O   UNL     1      -9.947   5.613  70.218  1.00  0.00    -0.181 OA 
HETATM    2  C   UNL     1     -11.029   5.840  71.005  1.00  0.00    -0.230 C  
HETATM    3  C   UNL     1     -12.034   6.776  70.364  1.00  0.00    -0.343 C  
HETATM    4  O   UNL     1     -11.165   5.286  72.084  1.00  0.00    -0.181 OA 
ENDROOT
BRANCH   3   5
HETATM    5  C   UNL     1     -12.944   7.494  71.361  1.00  0.00    -0.379 C  
HETATM    6  C   UNL     1     -14.131   6.706  71.898  1.00  0.00    -0.100 C  
HETATM    7  C   UNL     1     -14.358   7.803  70.897  1.00  0.00     0.085 C  
BRANCH   5   8
HETATM    8  C   UNL     1     -12.183   8.484  72.234  1.00  0.00    -0.389 C  
BRANCH   8   9
HETATM    9  S   UNL     1     -11.026   9.615  71.435  1.00  0.00    -0.167 SA 
BRANCH   9  10
HETATM   10  C   UNL     1     -12.161  10.481  70.247  1.00  0.00    -0.318 C  
BRANCH  10  11
HETATM   11  C   UNL     1     -11.721  10.400  68.765  1.00  0.00    -0.108 C  
BRANCH  11  12
HETATM   12  C   UNL     1     -10.225  10.686  68.509  1.00  0.00    -0.191 C  
BRANCH  12  13
HETATM   13  C   UNL     1      -9.524   9.524  67.817  1.00  0.00    -0.151 A  
HETATM   14  C   UNL     1     -10.384   8.606  67.163  1.00  0.00    -0.369 A  
HETATM   15  C   UNL     1      -8.540   7.298  66.394  1.00  0.00    -0.141 A  
HETATM   16  H   UNL     1      -6.604  12.183  68.255  1.00  0.00     0.000 HD 
HETATM   17  C   UNL     1      -9.904   7.499  66.477  1.00  0.00    -0.226 A  
HETATM   18  C   UNL     1      -5.604   9.908  68.066  1.00  0.00    -0.039 C  
HETATM   19  C   UNL     1      -7.668   8.202  67.006  1.00  0.00    -0.096 A  
HETATM   20  C   UNL     1      -8.117   9.329  67.740  1.00  0.00    -0.104 A  
HETATM   21  O   UNL     1      -7.246  11.602  67.864  1.00  0.00    -0.075 OA 
HETATM   22  C   UNL     1      -7.189  10.337  69.905  1.00  0.00    -0.162 C  
HETATM   23  C   UNL     1      -7.075  10.273  68.375  1.00  0.00    -0.078 C  
ENDBRANCH  12  13
ENDBRANCH  11  12
ENDBRANCH  10  11
BRANCH  10  24
HETATM   24  C   UNL     1     -12.470  11.894  70.751  1.00  0.00    -0.384 A  
HETATM   25  C   UNL     1     -13.042  14.537  71.552  1.00  0.00    -0.413 A  
HETATM   26  C   UNL     1     -13.281  12.150  71.867  1.00  0.00    -0.474 A  
HETATM   27  C   UNL     1     -11.956  13.003  70.046  1.00  0.00    -0.383 A  
HETATM   28  C   UNL     1     -13.565  13.458  72.263  1.00  0.00    -0.703 A  
HETATM   29  C   UNL     1     -12.218  14.326  70.444  1.00  0.00    -0.411 A  
BRANCH  29  30
HETATM   30  C   UNL     1     -11.684  15.434  69.636  1.00  0.00    -0.355 C  
HETATM   31  C   UNL     1     -10.445  15.475  69.114  1.00  0.00    -0.232 C  
BRANCH  31  32
HETATM   32  C   UNL     1      -9.888  16.582  68.329  1.00  0.00    -0.243 A  
HETATM   33  N   UNL     1      -8.800  17.171  68.881  1.00  0.00    -0.232 NA 
HETATM   34  C   UNL     1      -8.258  18.239  68.267  1.00  0.00    -0.298 A  
HETATM   35  C   UNL     1      -8.795  18.774  67.078  1.00  0.00    -0.302 A  
HETATM   36  C   UNL     1      -9.920  18.154  66.529  1.00  0.00    -0.374 A  
HETATM   37  C   UNL     1      -8.214  19.905  66.478  1.00  0.00    -0.364 A  
HETATM   38  C   UNL     1      -7.103  20.510  67.059  1.00  0.00    -0.351 A  
HETATM   39  C   UNL     1     -10.478  17.051  67.165  1.00  0.00    -0.291 A  
HETATM   40  C   UNL     1      -6.569  19.976  68.227  1.00  0.00    -0.287 A  
HETATM   41  C   UNL     1      -7.144  18.851  68.819  1.00  0.00    -0.342 A  
HETATM   42 CL   UNL     1      -5.196  20.720  68.950  1.00  0.00    -0.321 Cl 
ENDBRANCH  31  32
ENDBRANCH  29  30
ENDBRANCH  10  24
ENDBRANCH   9  10
ENDBRANCH   8   9
ENDBRANCH   5   8
ENDBRANCH   3   5
TORSDOF 10
ENDMDL
MODEL       56
REMARK 921   NORMALIZED FREE ENERGY PREDICTED BY IDOCK:   -6.96 KCAL/MOL
REMARK 922        TOTAL FREE ENERGY PREDICTED BY IDOCK:  -12.68 KCAL/MOL
REMARK 923 INTER-LIGAND FREE ENERGY PREDICTED BY IDOCK:  -11.21 KCAL/MOL
REMARK 924 INTRA-LIGAND FREE ENERGY PREDICTED BY IDOCK:   -1.47 KCAL/MOL
REMARK 927      BINDING AFFINITY PREDICTED BY RF-SCORE:    0.00 PKD
ROOT
HETATM    1  O   UNL     1     -13.045  11.634  62.920  1.00  0.00    -0.320 OA 
HETATM    2  C   UNL     1     -12.702  12.405  63.983  1.00  0.00    -0.349 C  
HETATM    3  C   UNL     1     -11.421  13.182  63.756  1.00  0.00    -0.426 C  
HETATM    4  O   UNL     1     -13.408  12.478  64.975  1.00  0.00    -0.591 OA 
ENDROOT
BRANCH   3   5
HETATM    5  C   UNL     1     -10.706  13.598  65.041  1.00  0.00    -0.374 C  
HETATM    6  C   UNL     1     -11.372  14.682  65.877  1.00  0.00    -0.338 C  
HETATM    7  C   UNL     1     -10.138  15.007  65.082  1.00  0.00    -0.350 C  
BRANCH   5   8
HETATM    8  C   UNL     1      -9.951  12.442  65.687  1.00  0.00    -0.244 C  
BRANCH   8   9
HETATM    9  S   UNL     1     -10.623  11.723  67.200  1.00  0.00    -0.242 SA 
BRANCH   9  10
HETATM   10  C   UNL     1      -9.434  10.321  67.468  1.00  0.00    -0.152 C  
BRANCH  10  11
HETATM   11  C   UNL     1      -9.920   9.252  68.475  1.00  0.00    -0.193 C  
BRANCH  11  12
HETATM   12  C   UNL     1      -9.655   9.582  69.961  1.00  0.00    -0.272 C  
BRANCH  12  13
HETATM   13  C   UNL     1     -10.923   9.518  70.802  1.00  0.00    -0.389 A  
HETATM   14  C   UNL     1     -11.804  10.618  70.646  1.00  0.00    -0.463 A  
HETATM   15  C   UNL     1     -13.382   9.678  72.172  1.00  0.00    -0.545 A  
HETATM   16  H   UNL     1      -9.687   5.743  70.782  1.00  0.00     0.000 HD 
HETATM   17  C   UNL     1     -13.008  10.709  71.333  1.00  0.00    -0.545 A  
HETATM   18  C   UNL     1     -11.112   6.116  72.792  1.00  0.00    -0.294 C  
HETATM   19  C   UNL     1     -12.546   8.569  72.323  1.00  0.00    -0.438 A  
HETATM   20  C   UNL     1     -11.296   8.450  71.664  1.00  0.00    -0.349 A  
HETATM   21  O   UNL     1     -10.210   6.523  70.641  1.00  0.00    -0.184 OA 
HETATM   22  C   UNL     1      -9.084   7.492  72.528  1.00  0.00    -0.189 C  
HETATM   23  C   UNL     1     -10.447   7.183  71.892  1.00  0.00    -0.197 C  
ENDBRANCH  12  13
ENDBRANCH  11  12
ENDBRANCH  10  11
BRANCH  10  24
HETATM   24  C   UNL     1      -8.029  10.868  67.737  1.00  0.00    -0.111 A  
HETATM   25  C   UNL     1      -5.496  11.977  68.296  1.00  0.00    -0.048 A  
HETATM   26  C   UNL     1      -6.922  10.045  67.993  1.00  0.00    -0.080 A  
HETATM   27  C   UNL     1      -7.829  12.265  67.772  1.00  0.00    -0.151 A  
HETATM   28  C   UNL     1      -5.668  10.594  68.271  1.00  0.00    -0.043 A  
HETATM   29  C   UNL     1      -6.569  12.831  68.031  1.00  0.00    -0.101 A  
BRANCH  29  30
HETATM   30  C   UNL     1      -6.444  14.296  68.095  1.00  0.00    -0.135 C  
HETATM   31  C   UNL     1      -7.338  15.165  67.588  1.00  0.00    -0.205 C  
BRANCH  31  32
HETATM   32  C   UNL     1      -7.216  16.626  67.619  1.00  0.00    -0.138 A  
HETATM   33  N   UNL     1      -6.957  17.195  66.417  1.00  0.00    -0.257 NA 
HETATM   34  C   UNL     1      -6.763  18.525  66.357  1.00  0.00    -0.207 A  
HETATM   35  C   UNL     1      -6.805  19.343  67.504  1.00  0.00    -0.227 A  
HETATM   36  C   UNL     1      -7.069  18.736  68.734  1.00  0.00    -0.335 A  
HETATM   37  C   UNL     1      -6.575  20.727  67.403  1.00  0.00    -0.385 A  
HETATM   38  C   UNL     1      -6.298  21.300  66.165  1.00  0.00    -0.197 A  
HETATM   39  C   UNL     1      -7.269  17.362  68.795  1.00  0.00    -0.249 A  
HETATM   40  C   UNL     1      -6.266  20.493  65.033  1.00  0.00    -0.276 A  
HETATM   41  C   UNL     1      -6.498  19.121  65.133  1.00  0.00    -0.286 A  
HETATM   42 CL   UNL     1      -5.924  21.195  63.500  1.00  0.00    -0.332 Cl 
ENDBRANCH  31  32
ENDBRANCH  29  30
ENDBRANCH  10  24
ENDBRANCH   9  10
ENDBRANCH   8   9
ENDBRANCH   5   8
ENDBRANCH   3   5
TORSDOF 10
ENDMDL
MODEL       57
REMARK 921   NORMALIZED FREE ENERGY PREDICTED BY IDOCK:   -6.95 KCAL/MOL
REMARK 922        TOTAL FREE ENERGY PREDICTED BY IDOCK:  -12.67 KCAL/MOL
REMARK 923 INTER-LIGAND FREE ENERGY PREDICTED BY IDOCK:  -10.19 KCAL/MOL
REMARK 924 INTRA-LIGAND FREE ENERGY PREDICTED BY IDOCK:   -2.48 KCAL/MOL
REMARK 927      BINDING AFFINITY PREDICTED BY RF-SCORE:    0.00 PKD
ROOT
HETATM    1  O   UNL     1     -12.542  16.247  73.422  1.00  0.00    -0.483 OA 
HETATM    2  C   UNL     1     -12.649  15.832  72.134  1.00  0.00    -0.453 C  
HETATM    3  C   UNL     1     -11.348  15.282  71.585  1.00  0.00    -0.440 C  
HETATM    4  O   UNL     1     -13.712  15.866  71.536  1.00  0.00    -0.440 OA 
ENDROOT
BRANCH   3   5
HETATM    5  C   UNL     1     -11.243  15.330  70.061  1.00  0.00    -0.306 C  
HETATM    6  C   UNL     1      -9.856  15.555  69.474  1.00  0.00    -0.284 C  
HETATM    7  C   UNL     1     -10.867  16.667  69.442  1.00  0.00    -0.295 C  
BRANCH   5   8
HETATM    8  C   UNL     1     -12.260  14.423  69.379  1.00  0.00    -0.266 C  
BRANCH   8   9
HETATM    9  S   UNL     1     -11.859  13.764  67.748  1.00  0.00    -0.360 SA 
BRANCH   9  10
HETATM   10  C   UNL     1     -11.697  11.956  68.141  1.00  0.00    -0.320 C  
BRANCH  10  11
HETATM   11  C   UNL     1     -11.183  11.654  69.569  1.00  0.00    -0.282 C  
BRANCH  11  12
HETATM   12  C   UNL     1     -11.563  10.263  70.122  1.00  0.00    -0.376 C  
BRANCH  12  13
HETATM   13  C   UNL     1     -10.345   9.473  70.584  1.00  0.00    -0.369 A  
HETATM   14  C   UNL     1      -9.092  10.049  70.253  1.00  0.00     0.033 A  
HETATM   15  C   UNL     1      -7.901   8.291  71.346  1.00  0.00    -0.122 A  
HETATM   16  H   UNL     1     -13.258   8.024  72.865  1.00  0.00     0.000 HD 
HETATM   17  C   UNL     1      -7.887   9.460  70.611  1.00  0.00    -0.178 A  
HETATM   18  C   UNL     1     -11.442   6.325  72.697  1.00  0.00    -0.255 C  
HETATM   19  C   UNL     1      -9.121   7.716  71.710  1.00  0.00    -0.161 A  
HETATM   20  C   UNL     1     -10.374   8.269  71.341  1.00  0.00    -0.270 A  
HETATM   21  O   UNL     1     -12.461   8.459  72.585  1.00  0.00    -0.349 OA 
HETATM   22  C   UNL     1     -12.527   7.083  70.617  1.00  0.00    -0.173 C  
HETATM   23  C   UNL     1     -11.667   7.562  71.797  1.00  0.00    -0.284 C  
ENDBRANCH  12  13
ENDBRANCH  11  12
ENDBRANCH  10  11
BRANCH  10  24
HETATM   24  C   UNL     1     -10.939  11.240  67.019  1.00  0.00    -0.352 A  
HETATM   25  C   UNL     1      -9.596   9.807  64.994  1.00  0.00    -0.333 A  
HETATM   26  C   UNL     1     -10.724  11.808  65.754  1.00  0.00    -0.328 A  
HETATM   27  C   UNL     1     -10.461   9.930  67.239  1.00  0.00    -0.319 A  
HETATM   28  C   UNL     1     -10.061  11.098  64.752  1.00  0.00    -0.351 A  
HETATM   29  C   UNL     1      -9.775   9.211  66.245  1.00  0.00    -0.344 A  
BRANCH  29  30
HETATM   30  C   UNL     1      -9.344   7.833  66.530  1.00  0.00    -0.243 C  
HETATM   31  C   UNL     1      -9.861   7.052  67.495  1.00  0.00    -0.186 C  
BRANCH  31  32
HETATM   32  C   UNL     1      -9.426   5.687  67.810  1.00  0.00    -0.115 A  
HETATM   33  N   UNL     1      -9.670   5.299  69.086  1.00  0.00    -0.154 NA 
HETATM   34  C   UNL     1      -9.246   4.086  69.487  1.00  0.00    -0.151 A  
HETATM   35  C   UNL     1      -8.545   3.214  68.630  1.00  0.00    -0.123 A  
HETATM   36  C   UNL     1      -8.300   3.635  67.321  1.00  0.00    -0.096 A  
HETATM   37  C   UNL     1      -8.099   1.963  69.095  1.00  0.00    -0.060 A  
HETATM   38  C   UNL     1      -8.344   1.579  70.410  1.00  0.00    -0.062 A  
HETATM   39  C   UNL     1      -8.738   4.888  66.908  1.00  0.00    -0.107 A  
HETATM   40  C   UNL     1      -9.043   2.437  71.251  1.00  0.00    -0.099 A  
HETATM   41  C   UNL     1      -9.489   3.676  70.789  1.00  0.00    -0.238 A  
HETATM   42 CL   UNL     1      -9.349   1.968  72.878  1.00  0.00    -0.099 Cl 
ENDBRANCH  31  32
ENDBRANCH  29  30
ENDBRANCH  10  24
ENDBRANCH   9  10
ENDBRANCH   8   9
ENDBRANCH   5   8
ENDBRANCH   3   5
TORSDOF 10
ENDMDL
MODEL       58
REMARK 921   NORMALIZED FREE ENERGY PREDICTED BY IDOCK:   -6.95 KCAL/MOL
REMARK 922        TOTAL FREE ENERGY PREDICTED BY IDOCK:  -12.67 KCAL/MOL
REMARK 923 INTER-LIGAND FREE ENERGY PREDICTED BY IDOCK:  -10.08 KCAL/MOL
REMARK 924 INTRA-LIGAND FREE ENERGY PREDICTED BY IDOCK:   -2.59 KCAL/MOL
REMARK 927      BINDING AFFINITY PREDICTED BY RF-SCORE:    0.00 PKD
ROOT
HETATM    1  O   UNL     1      -8.811   3.750  64.612  1.00  0.00    -0.114 OA 
HETATM    2  C   UNL     1      -8.461   4.877  65.282  1.00  0.00    -0.137 C  
HETATM    3  C   UNL     1      -8.147   4.619  66.742  1.00  0.00    -0.103 C  
HETATM    4  O   UNL     1      -8.371   5.956  64.718  1.00  0.00    -0.138 OA 
ENDROOT
BRANCH   3   5
HETATM    5  C   UNL     1      -8.301   5.845  67.641  1.00  0.00    -0.104 C  
HETATM    6  C   UNL     1      -7.242   6.932  67.508  1.00  0.00    -0.090 C  
HETATM    7  C   UNL     1      -7.246   6.040  68.718  1.00  0.00    -0.083 C  
BRANCH   5   8
HETATM    8  C   UNL     1      -9.760   6.184  67.920  1.00  0.00    -0.116 C  
BRANCH   8   9
HETATM    9  S   UNL     1     -10.182   7.895  68.304  1.00  0.00    -0.201 SA 
BRANCH   9  10
HETATM   10  C   UNL     1     -10.598   7.747  70.108  1.00  0.00    -0.237 C  
BRANCH  10  11
HETATM   11  C   UNL     1     -11.263   6.406  70.505  1.00  0.00    -0.414 C  
BRANCH  11  12
HETATM   12  C   UNL     1     -10.704   5.752  71.788  1.00  0.00    -0.305 C  
BRANCH  12  13
HETATM   13  C   UNL     1      -9.536   4.819  71.499  1.00  0.00    -0.209 A  
HETATM   14  C   UNL     1      -9.770   3.858  70.481  1.00  0.00    -0.247 A  
HETATM   15  C   UNL     1      -7.558   2.983  70.683  1.00  0.00    -0.040 A  
HETATM   16  H   UNL     1      -7.797   7.851  73.386  1.00  0.00     0.000 HD 
HETATM   17  C   UNL     1      -8.804   2.941  70.090  1.00  0.00    -0.148 A  
HETATM   18  C   UNL     1      -6.383   5.817  73.651  1.00  0.00    -0.068 C  
HETATM   19  C   UNL     1      -7.290   3.936  71.668  1.00  0.00    -0.054 A  
HETATM   20  C   UNL     1      -8.256   4.872  72.117  1.00  0.00    -0.115 A  
HETATM   21  O   UNL     1      -8.040   7.225  72.715  1.00  0.00    -0.103 OA 
HETATM   22  C   UNL     1      -8.701   5.743  74.485  1.00  0.00    -0.118 C  
HETATM   23  C   UNL     1      -7.862   5.890  73.207  1.00  0.00    -0.105 C  
ENDBRANCH  12  13
ENDBRANCH  11  12
ENDBRANCH  10  11
BRANCH  10  24
HETATM   24  C   UNL     1     -11.341   8.999  70.581  1.00  0.00    -0.311 A  
HETATM   25  C   UNL     1     -12.725  11.342  71.326  1.00  0.00    -0.498 A  
HETATM   26  C   UNL     1     -12.196   9.010  71.694  1.00  0.00    -0.418 A  
HETATM   27  C   UNL     1     -11.202  10.199  69.851  1.00  0.00    -0.343 A  
HETATM   28  C   UNL     1     -12.881  10.169  72.062  1.00  0.00    -0.472 A  
HETATM   29  C   UNL     1     -11.871  11.378  70.221  1.00  0.00    -0.438 A  
BRANCH  29  30
HETATM   30  C   UNL     1     -11.712  12.580  69.387  1.00  0.00    -0.383 C  
HETATM   31  C   UNL     1     -10.915  12.665  68.306  1.00  0.00    -0.275 C  
BRANCH  31  32
HETATM   32  C   UNL     1     -10.725  13.861  67.479  1.00  0.00    -0.267 A  
HETATM   33  N   UNL     1     -10.681  15.024  68.175  1.00  0.00    -0.250 NA 
HETATM   34  C   UNL     1     -10.575  16.181  67.497  1.00  0.00    -0.314 A  
HETATM   35  C   UNL     1     -10.525  16.226  66.089  1.00  0.00    -0.330 A  
HETATM   36  C   UNL     1     -10.577  15.017  65.391  1.00  0.00    -0.398 A  
HETATM   37  C   UNL     1     -10.438  17.458  65.416  1.00  0.00    -0.012 A  
HETATM   38  C   UNL     1     -10.405  18.647  66.138  1.00  0.00    -0.481 A  
HETATM   39  C   UNL     1     -10.686  13.821  66.093  1.00  0.00    -0.283 A  
HETATM   40  C   UNL     1     -10.446  18.601  67.528  1.00  0.00    -0.428 A  
HETATM   41  C   UNL     1     -10.528  17.379  68.195  1.00  0.00    -0.389 A  
HETATM   42 CL   UNL     1     -10.406  20.068  68.427  1.00  0.00    -0.535 Cl 
ENDBRANCH  31  32
ENDBRANCH  29  30
ENDBRANCH  10  24
ENDBRANCH   9  10
ENDBRANCH   8   9
ENDBRANCH   5   8
ENDBRANCH   3   5
TORSDOF 10
ENDMDL
MODEL       59
REMARK 921   NORMALIZED FREE ENERGY PREDICTED BY IDOCK:   -6.95 KCAL/MOL
REMARK 922        TOTAL FREE ENERGY PREDICTED BY IDOCK:  -12.67 KCAL/MOL
REMARK 923 INTER-LIGAND FREE ENERGY PREDICTED BY IDOCK:  -10.90 KCAL/MOL
REMARK 924 INTRA-LIGAND FREE ENERGY PREDICTED BY IDOCK:   -1.77 KCAL/MOL
REMARK 927      BINDING AFFINITY PREDICTED BY RF-SCORE:    0.00 PKD
ROOT
HETATM    1  O   UNL     1     -11.930  14.650  65.159  1.00  0.00    -0.368 OA 
HETATM    2  C   UNL     1     -11.859  13.295  65.167  1.00  0.00    -0.348 C  
HETATM    3  C   UNL     1     -10.442  12.783  65.329  1.00  0.00    -0.312 C  
HETATM    4  O   UNL     1     -12.860  12.600  65.101  1.00  0.00    -0.721 OA 
ENDROOT
BRANCH   3   5
HETATM    5  C   UNL     1     -10.224  11.366  64.799  1.00  0.00    -0.338 C  
HETATM    6  C   UNL     1      -9.210  11.201  63.675  1.00  0.00    -0.167 C  
HETATM    7  C   UNL     1     -10.678  11.092  63.374  1.00  0.00    -0.286 C  
BRANCH   5   8
HETATM    8  C   UNL     1     -10.396  10.307  65.881  1.00  0.00    -0.171 C  
BRANCH   8   9
HETATM    9  S   UNL     1      -9.041  10.045  67.042  1.00  0.00    -0.142 SA 
BRANCH   9  10
HETATM   10  C   UNL     1      -9.964   9.336  68.490  1.00  0.00    -0.175 C  
BRANCH  10  11
HETATM   11  C   UNL     1     -10.757   8.044  68.174  1.00  0.00    -0.093 C  
BRANCH  11  12
HETATM   12  C   UNL     1      -9.991   6.992  67.343  1.00  0.00    -0.217 C  
BRANCH  12  13
HETATM   13  C   UNL     1      -9.801   5.684  68.100  1.00  0.00    -0.170 A  
HETATM   14  C   UNL     1      -9.891   5.788  69.512  1.00  0.00    -0.231 A  
HETATM   15  C   UNL     1      -9.554   3.440  69.789  1.00  0.00    -0.180 A  
HETATM   16  H   UNL     1     -10.670   4.457  64.423  1.00  0.00     0.000 HD 
HETATM   17  C   UNL     1      -9.752   4.687  70.347  1.00  0.00    -0.292 A  
HETATM   18  C   UNL     1      -9.397   2.663  65.594  1.00  0.00    -0.024 C  
HETATM   19  C   UNL     1      -9.490   3.304  68.400  1.00  0.00    -0.209 A  
HETATM   20  C   UNL     1      -9.597   4.405  67.512  1.00  0.00    -0.213 A  
HETATM   21  O   UNL     1     -10.719   4.613  65.358  1.00  0.00    -0.241 OA 
HETATM   22  C   UNL     1      -8.331   4.871  65.335  1.00  0.00    -0.125 C  
HETATM   23  C   UNL     1      -9.518   4.152  65.993  1.00  0.00    -0.180 C  
ENDBRANCH  12  13
ENDBRANCH  11  12
ENDBRANCH  10  11
BRANCH  10  24
HETATM   24  C   UNL     1     -10.772  10.434  69.187  1.00  0.00    -0.266 A  
HETATM   25  C   UNL     1     -12.266  12.522  70.356  1.00  0.00    -0.368 A  
HETATM   26  C   UNL     1     -11.716  10.171  70.191  1.00  0.00    -0.330 A  
HETATM   27  C   UNL     1     -10.600  11.775  68.784  1.00  0.00    -0.234 A  
HETATM   28  C   UNL     1     -12.456  11.204  70.769  1.00  0.00    -0.479 A  
HETATM   29  C   UNL     1     -11.325  12.828  69.370  1.00  0.00    -0.267 A  
BRANCH  29  30
HETATM   30  C   UNL     1     -11.125  14.197  68.870  1.00  0.00    -0.288 C  
HETATM   31  C   UNL     1      -9.929  14.803  68.747  1.00  0.00    -0.234 C  
BRANCH  31  32
HETATM   32  C   UNL     1      -9.714  16.175  68.275  1.00  0.00    -0.220 A  
HETATM   33  N   UNL     1      -8.640  16.329  67.464  1.00  0.00    -0.175 NA 
HETATM   34  C   UNL     1      -8.324  17.564  67.034  1.00  0.00    -0.219 A  
HETATM   35  C   UNL     1      -9.062  18.703  67.412  1.00  0.00    -0.290 A  
HETATM   36  C   UNL     1     -10.162  18.523  68.253  1.00  0.00    -0.412 A  
HETATM   37  C   UNL     1      -8.685  19.981  66.960  1.00  0.00    -0.411 A  
HETATM   38  C   UNL     1      -7.574  20.130  66.136  1.00  0.00    -0.294 A  
HETATM   39  C   UNL     1     -10.488  17.246  68.697  1.00  0.00    -0.356 A  
HETATM   40  C   UNL     1      -6.851  19.004  65.756  1.00  0.00    -0.277 A  
HETATM   41  C   UNL     1      -7.228  17.736  66.202  1.00  0.00    -0.346 A  
HETATM   42 CL   UNL     1      -5.475  19.181  64.738  1.00  0.00    -0.228 Cl 
ENDBRANCH  31  32
ENDBRANCH  29  30
ENDBRANCH  10  24
ENDBRANCH   9  10
ENDBRANCH   8   9
ENDBRANCH   5   8
ENDBRANCH   3   5
TORSDOF 10
ENDMDL
MODEL       60
REMARK 921   NORMALIZED FREE ENERGY PREDICTED BY IDOCK:   -6.93 KCAL/MOL
REMARK 922        TOTAL FREE ENERGY PREDICTED BY IDOCK:  -12.63 KCAL/MOL
REMARK 923 INTER-LIGAND FREE ENERGY PREDICTED BY IDOCK:   -9.70 KCAL/MOL
REMARK 924 INTRA-LIGAND FREE ENERGY PREDICTED BY IDOCK:   -2.93 KCAL/MOL
REMARK 927      BINDING AFFINITY PREDICTED BY RF-SCORE:    0.00 PKD
ROOT
HETATM    1  O   UNL     1     -12.737  15.917  70.211  1.00  0.00    -0.343 OA 
HETATM    2  C   UNL     1     -11.723  15.440  69.446  1.00  0.00    -0.351 C  
HETATM    3  C   UNL     1     -11.514  16.246  68.179  1.00  0.00    -0.173 C  
HETATM    4  O   UNL     1     -11.042  14.492  69.802  1.00  0.00    -0.251 OA 
ENDROOT
BRANCH   3   5
HETATM    5  C   UNL     1     -10.819  15.477  67.056  1.00  0.00    -0.314 C  
HETATM    6  C   UNL     1      -9.319  15.257  67.200  1.00  0.00    -0.227 C  
HETATM    7  C   UNL     1      -9.832  16.256  66.202  1.00  0.00    -0.358 C  
BRANCH   5   8
HETATM    8  C   UNL     1     -11.723  14.424  66.426  1.00  0.00    -0.386 C  
BRANCH   8   9
HETATM    9  S   UNL     1     -11.002  13.289  65.223  1.00  0.00    -0.300 SA 
BRANCH   9  10
HETATM   10  C   UNL     1     -11.282  11.664  66.078  1.00  0.00    -0.240 C  
BRANCH  10  11
HETATM   11  C   UNL     1     -11.339  11.753  67.622  1.00  0.00    -0.370 C  
BRANCH  11  12
HETATM   12  C   UNL     1      -9.974  11.638  68.336  1.00  0.00    -0.201 C  
BRANCH  12  13
HETATM   13  C   UNL     1     -10.000  10.626  69.474  1.00  0.00    -0.138 A  
HETATM   14  C   UNL     1     -11.284  10.361  70.014  1.00  0.00    -0.385 A  
HETATM   15  C   UNL     1     -10.399   8.759  71.548  1.00  0.00    -0.374 A  
HETATM   16  H   UNL     1      -6.506   9.902  67.727  1.00  0.00     0.000 HD 
HETATM   17  C   UNL     1     -11.481   9.456  71.048  1.00  0.00    -0.403 A  
HETATM   18  C   UNL     1      -6.403   9.126  70.093  1.00  0.00    -0.044 C  
HETATM   19  C   UNL     1      -9.127   8.980  71.016  1.00  0.00    -0.322 A  
HETATM   20  C   UNL     1      -8.876   9.916  69.980  1.00  0.00    -0.194 A  
HETATM   21  O   UNL     1      -7.393   9.799  68.050  1.00  0.00    -0.080 OA 
HETATM   22  C   UNL     1      -6.892  11.504  69.665  1.00  0.00    -0.038 C  
HETATM   23  C   UNL     1      -7.436  10.083  69.455  1.00  0.00    -0.113 C  
ENDBRANCH  12  13
ENDBRANCH  11  12
ENDBRANCH  10  11
BRANCH  10  24
HETATM   24  C   UNL     1     -10.319  10.608  65.529  1.00  0.00    -0.297 A  
HETATM   25  C   UNL     1      -8.626   8.568  64.563  1.00  0.00    -0.055 A  
HETATM   26  C   UNL     1      -9.610  10.766  64.328  1.00  0.00    -0.333 A  
HETATM   27  C   UNL     1     -10.156   9.394  66.231  1.00  0.00    -0.328 A  
HETATM   28  C   UNL     1      -8.773   9.756  63.850  1.00  0.00    -0.236 A  
HETATM   29  C   UNL     1      -9.302   8.376  65.771  1.00  0.00    -0.141 A  
BRANCH  29  30
HETATM   30  C   UNL     1      -9.214   7.120  66.533  1.00  0.00    -0.199 C  
HETATM   31  C   UNL     1     -10.003   6.797  67.573  1.00  0.00    -0.180 C  
BRANCH  31  32
HETATM   32  C   UNL     1      -9.912   5.562  68.359  1.00  0.00    -0.159 A  
HETATM   33  N   UNL     1     -10.197   5.711  69.676  1.00  0.00    -0.226 NA 
HETATM   34  C   UNL     1     -10.076   4.647  70.490  1.00  0.00    -0.192 A  
HETATM   35  C   UNL     1      -9.649   3.387  70.022  1.00  0.00    -0.202 A  
HETATM   36  C   UNL     1      -9.356   3.257  68.663  1.00  0.00    -0.234 A  
HETATM   37  C   UNL     1      -9.513   2.304  70.910  1.00  0.00    -0.212 A  
HETATM   38  C   UNL     1      -9.796   2.471  72.262  1.00  0.00    -0.220 A  
HETATM   39  C   UNL     1      -9.481   4.357  67.823  1.00  0.00    -0.207 A  
HETATM   40  C   UNL     1     -10.226   3.711  72.721  1.00  0.00    -0.167 A  
HETATM   41  C   UNL     1     -10.364   4.784  71.840  1.00  0.00    -0.242 A  
HETATM   42 CL   UNL     1     -10.577   3.923  74.392  1.00  0.00    -0.267 Cl 
ENDBRANCH  31  32
ENDBRANCH  29  30
ENDBRANCH  10  24
ENDBRANCH   9  10
ENDBRANCH   8   9
ENDBRANCH   5   8
ENDBRANCH   3   5
TORSDOF 10
ENDMDL
MODEL       61
REMARK 921   NORMALIZED FREE ENERGY PREDICTED BY IDOCK:   -6.92 KCAL/MOL
REMARK 922        TOTAL FREE ENERGY PREDICTED BY IDOCK:  -12.62 KCAL/MOL
REMARK 923 INTER-LIGAND FREE ENERGY PREDICTED BY IDOCK:  -10.71 KCAL/MOL
REMARK 924 INTRA-LIGAND FREE ENERGY PREDICTED BY IDOCK:   -1.91 KCAL/MOL
REMARK 927      BINDING AFFINITY PREDICTED BY RF-SCORE:    0.00 PKD
ROOT
HETATM    1  O   UNL     1      -8.652  19.843  66.434  1.00  0.00    -0.335 OA 
HETATM    2  C   UNL     1      -9.525  18.874  66.810  1.00  0.00    -0.326 C  
HETATM    3  C   UNL     1      -8.966  17.478  66.625  1.00  0.00    -0.283 C  
HETATM    4  O   UNL     1     -10.614  19.144  67.290  1.00  0.00    -0.428 OA 
ENDROOT
BRANCH   3   5
HETATM    5  C   UNL     1     -10.032  16.391  66.487  1.00  0.00    -0.294 C  
HETATM    6  C   UNL     1      -9.833  15.371  65.374  1.00  0.00    -0.314 C  
HETATM    7  C   UNL     1     -10.890  16.429  65.233  1.00  0.00    -0.271 C  
BRANCH   5   8
HETATM    8  C   UNL     1     -10.642  16.001  67.828  1.00  0.00    -0.309 C  
BRANCH   8   9
HETATM    9  S   UNL     1     -10.228  14.385  68.517  1.00  0.00    -0.246 SA 
BRANCH   9  10
HETATM   10  C   UNL     1     -11.787  13.446  68.143  1.00  0.00    -0.361 C  
BRANCH  10  11
HETATM   11  C   UNL     1     -12.158  12.375  69.196  1.00  0.00    -0.195 C  
BRANCH  11  12
HETATM   12  C   UNL     1     -11.261  11.118  69.198  1.00  0.00    -0.328 C  
BRANCH  12  13
HETATM   13  C   UNL     1     -11.557  10.198  70.376  1.00  0.00    -0.396 A  
HETATM   14  C   UNL     1     -12.780  10.453  71.046  1.00  0.00    -0.490 A  
HETATM   15  C   UNL     1     -12.427   8.638  72.557  1.00  0.00    -0.372 A  
HETATM   16  H   UNL     1      -8.813   8.171  68.339  1.00  0.00     0.000 HD 
HETATM   17  C   UNL     1     -13.203   9.699  72.132  1.00  0.00    -0.535 A  
HETATM   18  C   UNL     1      -8.773   7.422  70.716  1.00  0.00    -0.145 C  
HETATM   19  C   UNL     1     -11.231   8.346  71.897  1.00  0.00    -0.379 A  
HETATM   20  C   UNL     1     -10.748   9.109  70.804  1.00  0.00    -0.327 A  
HETATM   21  O   UNL     1      -9.633   8.421  68.749  1.00  0.00    -0.147 OA 
HETATM   22  C   UNL     1      -8.349   9.803  70.235  1.00  0.00    -0.172 C  
HETATM   23  C   UNL     1      -9.417   8.704  70.138  1.00  0.00    -0.164 C  
ENDBRANCH  12  13
ENDBRANCH  11  12
ENDBRANCH  10  11
BRANCH  10  24
HETATM   24  C   UNL     1     -11.765  12.946  66.696  1.00  0.00    -0.452 A  
HETATM   25  C   UNL     1     -11.685  11.906  64.074  1.00  0.00    -0.469 A  
HETATM   26  C   UNL     1     -12.688  13.363  65.726  1.00  0.00    -0.383 A  
HETATM   27  C   UNL     1     -10.800  11.989  66.314  1.00  0.00    -0.316 A  
HETATM   28  C   UNL     1     -12.650  12.847  64.429  1.00  0.00    -0.392 A  
HETATM   29  C   UNL     1     -10.737  11.476  65.006  1.00  0.00    -0.350 A  
BRANCH  29  30
HETATM   30  C   UNL     1      -9.732  10.448  64.690  1.00  0.00    -0.392 C  
HETATM   31  C   UNL     1      -9.424   9.406  65.484  1.00  0.00    -0.328 C  
BRANCH  31  32
HETATM   32  C   UNL     1      -8.408   8.388  65.197  1.00  0.00    -0.167 A  
HETATM   33  N   UNL     1      -8.749   7.132  65.572  1.00  0.00    -0.079 NA 
HETATM   34  C   UNL     1      -7.853   6.141  65.409  1.00  0.00    -0.106 A  
HETATM   35  C   UNL     1      -6.567   6.370  64.878  1.00  0.00    -0.039 A  
HETATM   36  C   UNL     1      -6.234   7.673  64.503  1.00  0.00    -0.044 A  
HETATM   37  C   UNL     1      -5.651   5.311  64.746  1.00  0.00    -0.017 A  
HETATM   38  C   UNL     1      -6.006   4.026  65.144  1.00  0.00    -0.023 A  
HETATM   39  C   UNL     1      -7.161   8.696  64.672  1.00  0.00    -0.081 A  
HETATM   40  C   UNL     1      -7.278   3.800  65.660  1.00  0.00    -0.071 A  
HETATM   41  C   UNL     1      -8.188   4.849  65.787  1.00  0.00    -0.113 A  
HETATM   42 CL   UNL     1      -7.724   2.213  66.154  1.00  0.00    -0.074 Cl 
ENDBRANCH  31  32
ENDBRANCH  29  30
ENDBRANCH  10  24
ENDBRANCH   9  10
ENDBRANCH   8   9
ENDBRANCH   5   8
ENDBRANCH   3   5
TORSDOF 10
ENDMDL
MODEL       62
REMARK 921   NORMALIZED FREE ENERGY PREDICTED BY IDOCK:   -6.91 KCAL/MOL
REMARK 922        TOTAL FREE ENERGY PREDICTED BY IDOCK:  -12.60 KCAL/MOL
REMARK 923 INTER-LIGAND FREE ENERGY PREDICTED BY IDOCK:  -10.45 KCAL/MOL
REMARK 924 INTRA-LIGAND FREE ENERGY PREDICTED BY IDOCK:   -2.15 KCAL/MOL
REMARK 927      BINDING AFFINITY PREDICTED BY RF-SCORE:    0.00 PKD
ROOT
HETATM    1  O   UNL     1      -8.209  11.001  65.796  1.00  0.00    -0.147 OA 
HETATM    2  C   UNL     1      -8.633  10.099  66.717  1.00  0.00    -0.126 C  
HETATM    3  C   UNL     1      -7.621   9.869  67.821  1.00  0.00    -0.090 C  
HETATM    4  O   UNL     1      -9.740   9.590  66.654  1.00  0.00    -0.181 OA 
ENDROOT
BRANCH   3   5
HETATM    5  C   UNL     1      -7.768   8.524  68.534  1.00  0.00    -0.103 C  
HETATM    6  C   UNL     1      -6.490   7.877  69.051  1.00  0.00    -0.037 C  
HETATM    7  C   UNL     1      -7.172   7.312  67.837  1.00  0.00    -0.091 C  
BRANCH   5   8
HETATM    8  C   UNL     1      -9.085   8.409  69.292  1.00  0.00    -0.150 C  
BRANCH   8   9
HETATM    9  S   UNL     1      -9.024   8.063  71.062  1.00  0.00    -0.149 SA 
BRANCH   9  10
HETATM   10  C   UNL     1     -10.775   7.523  71.364  1.00  0.00    -0.223 C  
BRANCH  10  11
HETATM   11  C   UNL     1     -11.288   6.434  70.391  1.00  0.00    -0.453 C  
BRANCH  11  12
HETATM   12  C   UNL     1     -10.330   5.241  70.179  1.00  0.00    -0.354 C  
BRANCH  12  13
HETATM   13  C   UNL     1     -10.035   4.991  68.706  1.00  0.00    -0.225 A  
HETATM   14  C   UNL     1     -10.737   5.827  67.801  1.00  0.00    -0.306 A  
HETATM   15  C   UNL     1      -9.670   4.823  65.916  1.00  0.00    -0.203 A  
HETATM   16  H   UNL     1      -6.937   3.296  70.528  1.00  0.00     0.000 HD 
HETATM   17  C   UNL     1     -10.573   5.735  66.425  1.00  0.00    -0.219 A  
HETATM   18  C   UNL     1      -7.233   2.243  68.289  1.00  0.00    -0.047 C  
HETATM   19  C   UNL     1      -8.944   4.005  66.785  1.00  0.00    -0.137 A  
HETATM   20  C   UNL     1      -9.103   4.047  68.194  1.00  0.00    -0.179 A  
HETATM   21  O   UNL     1      -7.462   3.876  69.988  1.00  0.00    -0.045 OA 
HETATM   22  C   UNL     1      -9.105   2.127  69.889  1.00  0.00    -0.169 C  
HETATM   23  C   UNL     1      -8.251   3.106  69.071  1.00  0.00    -0.059 C  
ENDBRANCH  12  13
ENDBRANCH  11  12
ENDBRANCH  10  11
BRANCH  10  24
HETATM   24  C   UNL     1     -11.687   8.746  71.501  1.00  0.00    -0.377 A  
HETATM   25  C   UNL     1     -13.345  11.025  71.623  1.00  0.00    -0.344 A  
HETATM   26  C   UNL     1     -12.820   8.769  72.327  1.00  0.00    -0.465 A  
HETATM   27  C   UNL     1     -11.409   9.899  70.735  1.00  0.00    -0.430 A  
HETATM   28  C   UNL     1     -13.642   9.897  72.387  1.00  0.00    -0.258 A  
HETATM   29  C   UNL     1     -12.217  11.048  70.800  1.00  0.00    -0.480 A  
BRANCH  29  30
HETATM   30  C   UNL     1     -11.892  12.197  69.940  1.00  0.00    -0.392 C  
HETATM   31  C   UNL     1     -11.469  12.108  68.666  1.00  0.00    -0.347 C  
BRANCH  31  32
HETATM   32  C   UNL     1     -11.116  13.241  67.805  1.00  0.00    -0.265 A  
HETATM   33  N   UNL     1     -11.042  14.433  68.445  1.00  0.00    -0.246 NA 
HETATM   34  C   UNL     1     -10.790  15.542  67.725  1.00  0.00    -0.309 A  
HETATM   35  C   UNL     1     -10.615  15.506  66.327  1.00  0.00    -0.310 A  
HETATM   36  C   UNL     1     -10.699  14.268  65.686  1.00  0.00    -0.321 A  
HETATM   37  C   UNL     1     -10.374  16.690  65.607  1.00  0.00    -0.310 A  
HETATM   38  C   UNL     1     -10.312  17.911  66.273  1.00  0.00    -0.364 A  
HETATM   39  C   UNL     1     -10.961  13.123  66.431  1.00  0.00    -0.305 A  
HETATM   40  C   UNL     1     -10.476  17.944  67.653  1.00  0.00    -0.397 A  
HETATM   41  C   UNL     1     -10.711  16.768  68.367  1.00  0.00    -0.362 A  
HETATM   42 CL   UNL     1     -10.401  19.450  68.482  1.00  0.00    -0.471 Cl 
ENDBRANCH  31  32
ENDBRANCH  29  30
ENDBRANCH  10  24
ENDBRANCH   9  10
ENDBRANCH   8   9
ENDBRANCH   5   8
ENDBRANCH   3   5
TORSDOF 10
ENDMDL
MODEL       63
REMARK 921   NORMALIZED FREE ENERGY PREDICTED BY IDOCK:   -6.90 KCAL/MOL
REMARK 922        TOTAL FREE ENERGY PREDICTED BY IDOCK:  -12.58 KCAL/MOL
REMARK 923 INTER-LIGAND FREE ENERGY PREDICTED BY IDOCK:   -9.67 KCAL/MOL
REMARK 924 INTRA-LIGAND FREE ENERGY PREDICTED BY IDOCK:   -2.92 KCAL/MOL
REMARK 927      BINDING AFFINITY PREDICTED BY RF-SCORE:    0.00 PKD
ROOT
HETATM    1  O   UNL     1      -8.959  11.999  66.277  1.00  0.00    -0.200 OA 
HETATM    2  C   UNL     1      -9.358  10.760  66.664  1.00  0.00    -0.166 C  
HETATM    3  C   UNL     1      -8.314  10.039  67.492  1.00  0.00    -0.118 C  
HETATM    4  O   UNL     1     -10.469  10.333  66.396  1.00  0.00    -0.224 OA 
ENDROOT
BRANCH   3   5
HETATM    5  C   UNL     1      -8.445   8.517  67.475  1.00  0.00    -0.128 C  
HETATM    6  C   UNL     1      -7.169   7.720  67.236  1.00  0.00    -0.090 C  
HETATM    7  C   UNL     1      -8.197   7.823  66.145  1.00  0.00    -0.123 C  
BRANCH   5   8
HETATM    8  C   UNL     1      -9.534   8.016  68.416  1.00  0.00    -0.145 C  
BRANCH   8   9
HETATM    9  S   UNL     1      -9.101   7.710  70.140  1.00  0.00    -0.150 SA 
BRANCH   9  10
HETATM   10  C   UNL     1     -10.532   6.652  70.670  1.00  0.00    -0.217 C  
BRANCH  10  11
HETATM   11  C   UNL     1     -10.852   5.479  69.712  1.00  0.00    -0.291 C  
BRANCH  11  12
HETATM   12  C   UNL     1      -9.687   4.494  69.470  1.00  0.00    -0.282 C  
BRANCH  12  13
HETATM   13  C   UNL     1      -9.320   4.383  67.996  1.00  0.00    -0.191 A  
HETATM   14  C   UNL     1     -10.371   4.678  67.091  1.00  0.00    -0.083 A  
HETATM   15  C   UNL     1      -8.954   4.327  65.201  1.00  0.00    -0.139 A  
HETATM   16  H   UNL     1      -5.777   4.683  69.767  1.00  0.00     0.000 HD 
HETATM   17  C   UNL     1     -10.199   4.634  65.714  1.00  0.00    -0.283 A  
HETATM   18  C   UNL     1      -5.488   3.547  67.568  1.00  0.00    -0.020 C  
HETATM   19  C   UNL     1      -7.894   4.059  66.070  1.00  0.00    -0.090 A  
HETATM   20  C   UNL     1      -8.033   4.065  67.481  1.00  0.00    -0.091 A  
HETATM   21  O   UNL     1      -6.536   4.870  69.228  1.00  0.00    -0.038 OA 
HETATM   22  C   UNL     1      -6.987   2.511  69.228  1.00  0.00    -0.036 C  
HETATM   23  C   UNL     1      -6.800   3.762  68.357  1.00  0.00    -0.047 C  
ENDBRANCH  12  13
ENDBRANCH  11  12
ENDBRANCH  10  11
BRANCH  10  24
HETATM   24  C   UNL     1     -11.731   7.533  71.031  1.00  0.00    -0.317 A  
HETATM   25  C   UNL     1     -13.905   9.240  71.601  1.00  0.00    -0.366 A  
HETATM   26  C   UNL     1     -12.962   7.015  71.463  1.00  0.00    -0.411 A  
HETATM   27  C   UNL     1     -11.623   8.934  70.892  1.00  0.00    -0.331 A  
HETATM   28  C   UNL     1     -14.038   7.860  71.744  1.00  0.00    -0.520 A  
HETATM   29  C   UNL     1     -12.692   9.797  71.189  1.00  0.00    -0.433 A  
BRANCH  29  30
HETATM   30  C   UNL     1     -12.520  11.244  70.979  1.00  0.00    -0.503 C  
HETATM   31  C   UNL     1     -11.915  11.798  69.913  1.00  0.00    -0.405 C  
BRANCH  31  32
HETATM   32  C   UNL     1     -11.713  13.235  69.700  1.00  0.00    -0.303 A  
HETATM   33  N   UNL     1     -10.798  13.539  68.748  1.00  0.00    -0.253 NA 
HETATM   34  C   UNL     1     -10.496  14.831  68.527  1.00  0.00    -0.249 A  
HETATM   35  C   UNL     1     -11.088  15.877  69.265  1.00  0.00    -0.312 A  
HETATM   36  C   UNL     1     -12.024  15.542  70.244  1.00  0.00    -0.401 A  
HETATM   37  C   UNL     1     -10.728  17.215  69.020  1.00  0.00    -0.219 A  
HETATM   38  C   UNL     1      -9.779  17.516  68.048  1.00  0.00    -0.287 A  
HETATM   39  C   UNL     1     -12.335  14.206  70.471  1.00  0.00    -0.434 A  
HETATM   40  C   UNL     1      -9.202  16.484  67.315  1.00  0.00    -0.216 A  
HETATM   41  C   UNL     1      -9.562  15.158  67.556  1.00  0.00    -0.207 A  
HETATM   42 CL   UNL     1      -8.028  16.850  66.113  1.00  0.00    -0.345 Cl 
ENDBRANCH  31  32
ENDBRANCH  29  30
ENDBRANCH  10  24
ENDBRANCH   9  10
ENDBRANCH   8   9
ENDBRANCH   5   8
ENDBRANCH   3   5
TORSDOF 10
ENDMDL
MODEL       64
REMARK 921   NORMALIZED FREE ENERGY PREDICTED BY IDOCK:   -6.88 KCAL/MOL
REMARK 922        TOTAL FREE ENERGY PREDICTED BY IDOCK:  -12.56 KCAL/MOL
REMARK 923 INTER-LIGAND FREE ENERGY PREDICTED BY IDOCK:   -9.02 KCAL/MOL
REMARK 924 INTRA-LIGAND FREE ENERGY PREDICTED BY IDOCK:   -3.53 KCAL/MOL
REMARK 927      BINDING AFFINITY PREDICTED BY RF-SCORE:    0.00 PKD
ROOT
HETATM    1  O   UNL     1     -13.404   7.098  71.142  1.00  0.00    -0.331 OA 
HETATM    2  C   UNL     1     -12.056   7.189  71.266  1.00  0.00    -0.348 C  
HETATM    3  C   UNL     1     -11.461   6.039  72.053  1.00  0.00    -0.343 C  
HETATM    4  O   UNL     1     -11.423   8.090  70.739  1.00  0.00    -0.279 OA 
ENDROOT
BRANCH   3   5
HETATM    5  C   UNL     1     -10.108   6.353  72.693  1.00  0.00    -0.193 C  
HETATM    6  C   UNL     1     -10.075   6.465  74.211  1.00  0.00    -0.365 C  
HETATM    7  C   UNL     1      -9.970   7.706  73.371  1.00  0.00    -0.373 C  
BRANCH   5   8
HETATM    8  C   UNL     1      -8.943   5.759  71.911  1.00  0.00    -0.138 C  
BRANCH   8   9
HETATM    9  S   UNL     1      -7.693   6.882  71.254  1.00  0.00    -0.092 SA 
BRANCH   9  10
HETATM   10  C   UNL     1      -7.471   6.185  69.547  1.00  0.00    -0.092 C  
BRANCH  10  11
HETATM   11  C   UNL     1      -6.157   6.609  68.848  1.00  0.00    -0.026 C  
BRANCH  11  12
HETATM   12  C   UNL     1      -5.749   8.083  69.057  1.00  0.00    -0.034 C  
BRANCH  12  13
HETATM   13  C   UNL     1      -5.985   8.931  67.814  1.00  0.00    -0.047 A  
HETATM   14  C   UNL     1      -5.793   8.257  66.581  1.00  0.00    -0.044 A  
HETATM   15  C   UNL     1      -6.399  10.198  65.330  1.00  0.00    -0.119 A  
HETATM   16  H   UNL     1      -7.867  10.980  70.650  1.00  0.00     0.000 HD 
HETATM   17  C   UNL     1      -5.978   8.883  65.356  1.00  0.00    -0.052 A  
HETATM   18  C   UNL     1      -7.259  12.533  68.799  1.00  0.00    -0.089 C  
HETATM   19  C   UNL     1      -6.623  10.878  66.529  1.00  0.00    -0.127 A  
HETATM   20  C   UNL     1      -6.418  10.285  67.801  1.00  0.00    -0.062 A  
HETATM   21  O   UNL     1      -7.694  10.467  69.869  1.00  0.00    -0.155 OA 
HETATM   22  C   UNL     1      -5.447  11.311  69.938  1.00  0.00    -0.068 C  
HETATM   23  C   UNL     1      -6.698  11.118  69.069  1.00  0.00    -0.085 C  
ENDBRANCH  12  13
ENDBRANCH  11  12
ENDBRANCH  10  11
BRANCH  10  24
HETATM   24  C   UNL     1      -8.741   6.405  68.720  1.00  0.00    -0.122 A  
HETATM   25  C   UNL     1     -11.018   6.908  67.131  1.00  0.00    -0.427 A  
HETATM   26  C   UNL     1      -9.589   5.360  68.323  1.00  0.00    -0.158 A  
HETATM   27  C   UNL     1      -9.067   7.711  68.295  1.00  0.00    -0.136 A  
HETATM   28  C   UNL     1     -10.715   5.609  67.535  1.00  0.00    -0.272 A  
HETATM   29  C   UNL     1     -10.208   7.979  67.519  1.00  0.00    -0.311 A  
BRANCH  29  30
HETATM   30  C   UNL     1     -10.462   9.359  67.075  1.00  0.00    -0.302 C  
HETATM   31  C   UNL     1     -10.098   9.860  65.881  1.00  0.00    -0.316 C  
BRANCH  31  32
HETATM   32  C   UNL     1     -10.320  11.239  65.434  1.00  0.00    -0.272 A  
HETATM   33  N   UNL     1     -10.015  12.185  66.355  1.00  0.00    -0.220 NA 
HETATM   34  C   UNL     1     -10.247  13.477  66.059  1.00  0.00    -0.305 A  
HETATM   35  C   UNL     1     -10.812  13.877  64.831  1.00  0.00    -0.413 A  
HETATM   36  C   UNL     1     -11.123  12.886  63.897  1.00  0.00    -0.454 A  
HETATM   37  C   UNL     1     -11.061  15.237  64.568  1.00  0.00    -0.260 A  
HETATM   38  C   UNL     1     -10.755  16.200  65.525  1.00  0.00    -0.355 A  
HETATM   39  C   UNL     1     -10.882  11.552  64.204  1.00  0.00    -0.435 A  
HETATM   40  C   UNL     1     -10.190  15.805  66.733  1.00  0.00    -0.282 A  
HETATM   41  C   UNL     1      -9.940  14.457  66.992  1.00  0.00    -0.257 A  
HETATM   42 CL   UNL     1      -9.810  16.991  67.921  1.00  0.00    -0.262 Cl 
ENDBRANCH  31  32
ENDBRANCH  29  30
ENDBRANCH  10  24
ENDBRANCH   9  10
ENDBRANCH   8   9
ENDBRANCH   5   8
ENDBRANCH   3   5
TORSDOF 10
ENDMDL
MODEL       65
REMARK 921   NORMALIZED FREE ENERGY PREDICTED BY IDOCK:   -6.85 KCAL/MOL
REMARK 922        TOTAL FREE ENERGY PREDICTED BY IDOCK:  -12.51 KCAL/MOL
REMARK 923 INTER-LIGAND FREE ENERGY PREDICTED BY IDOCK:  -11.12 KCAL/MOL
REMARK 924 INTRA-LIGAND FREE ENERGY PREDICTED BY IDOCK:   -1.39 KCAL/MOL
REMARK 927      BINDING AFFINITY PREDICTED BY RF-SCORE:    0.00 PKD
ROOT
HETATM    1  O   UNL     1     -10.351  10.177  64.911  1.00  0.00    -0.236 OA 
HETATM    2  C   UNL     1      -9.270  10.417  65.696  1.00  0.00    -0.182 C  
HETATM    3  C   UNL     1      -9.601  10.390  67.175  1.00  0.00    -0.192 C  
HETATM    4  O   UNL     1      -8.158  10.581  65.221  1.00  0.00    -0.158 OA 
ENDROOT
BRANCH   3   5
HETATM    5  C   UNL     1      -8.623  11.174  68.049  1.00  0.00    -0.140 C  
HETATM    6  C   UNL     1      -7.171  10.715  68.038  1.00  0.00    -0.087 C  
HETATM    7  C   UNL     1      -8.030  10.440  69.240  1.00  0.00    -0.157 C  
BRANCH   5   8
HETATM    8  C   UNL     1      -8.993  12.649  68.156  1.00  0.00    -0.199 C  
BRANCH   8   9
HETATM    9  S   UNL     1     -10.645  13.155  67.636  1.00  0.00    -0.230 SA 
BRANCH   9  10
HETATM   10  C   UNL     1     -10.888  14.663  68.692  1.00  0.00    -0.255 C  
BRANCH  10  11
HETATM   11  C   UNL     1      -9.576  15.342  69.152  1.00  0.00    -0.253 C  
BRANCH  11  12
HETATM   12  C   UNL     1      -8.704  15.921  68.016  1.00  0.00    -0.169 C  
BRANCH  12  13
HETATM   13  C   UNL     1      -7.983  17.196  68.434  1.00  0.00    -0.250 A  
HETATM   14  C   UNL     1      -6.833  17.000  69.241  1.00  0.00    -0.219 A  
HETATM   15  C   UNL     1      -6.390  19.345  69.325  1.00  0.00    -0.337 A  
HETATM   16  H   UNL     1     -10.159  18.388  65.331  1.00  0.00     0.000 HD 
HETATM   17  C   UNL     1      -6.057  18.058  69.696  1.00  0.00    -0.233 A  
HETATM   18  C   UNL     1      -9.658  20.359  66.772  1.00  0.00    -0.512 C  
HETATM   19  C   UNL     1      -7.501  19.565  68.507  1.00  0.00    -0.368 A  
HETATM   20  C   UNL     1      -8.337  18.517  68.044  1.00  0.00    -0.295 A  
HETATM   21  O   UNL     1      -9.419  18.176  65.887  1.00  0.00    -0.518 OA 
HETATM   22  C   UNL     1     -10.883  18.466  67.769  1.00  0.00    -0.268 C  
HETATM   23  C   UNL     1      -9.539  18.862  67.141  1.00  0.00    -0.306 C  
ENDBRANCH  12  13
ENDBRANCH  11  12
ENDBRANCH  10  11
BRANCH  10  24
HETATM   24  C   UNL     1     -11.886  14.363  69.814  1.00  0.00    -0.375 A  
HETATM   25  C   UNL     1     -13.639  13.722  71.930  1.00  0.00    -0.514 A  
HETATM   26  C   UNL     1     -12.699  15.345  70.400  1.00  0.00    -0.407 A  
HETATM   27  C   UNL     1     -11.976  13.049  70.322  1.00  0.00    -0.360 A  
HETATM   28  C   UNL     1     -13.566  15.028  71.448  1.00  0.00    -0.538 A  
HETATM   29  C   UNL     1     -12.858  12.712  71.363  1.00  0.00    -0.358 A  
BRANCH  29  30
HETATM   30  C   UNL     1     -12.867  11.330  71.871  1.00  0.00    -0.386 C  
HETATM   31  C   UNL     1     -12.256  10.290  71.276  1.00  0.00    -0.496 C  
BRANCH  31  32
HETATM   32  C   UNL     1     -12.277   8.903  71.753  1.00  0.00    -0.359 A  
HETATM   33  N   UNL     1     -11.063   8.409  72.099  1.00  0.00    -0.321 NA 
HETATM   34  C   UNL     1     -10.972   7.124  72.486  1.00  0.00    -0.273 A  
HETATM   35  C   UNL     1     -12.094   6.271  72.530  1.00  0.00    -0.094 A  
HETATM   36  C   UNL     1     -13.335   6.799  72.166  1.00  0.00     0.029 A  
HETATM   37  C   UNL     1     -11.954   4.927  72.919  1.00  0.00    -0.002 A  
HETATM   38  C   UNL     1     -10.701   4.426  73.260  1.00  0.00    -0.307 A  
HETATM   39  C   UNL     1     -13.427   8.127  71.765  1.00  0.00    -0.381 A  
HETATM   40  C   UNL     1      -9.597   5.270  73.225  1.00  0.00    -0.141 A  
HETATM   41  C   UNL     1      -9.737   6.604  72.843  1.00  0.00    -0.168 A  
HETATM   42 CL   UNL     1      -8.045   4.656  73.645  1.00  0.00    -0.105 Cl 
ENDBRANCH  31  32
ENDBRANCH  29  30
ENDBRANCH  10  24
ENDBRANCH   9  10
ENDBRANCH   8   9
ENDBRANCH   5   8
ENDBRANCH   3   5
TORSDOF 10
ENDMDL
MODEL       66
REMARK 921   NORMALIZED FREE ENERGY PREDICTED BY IDOCK:   -6.84 KCAL/MOL
REMARK 922        TOTAL FREE ENERGY PREDICTED BY IDOCK:  -12.49 KCAL/MOL
REMARK 923 INTER-LIGAND FREE ENERGY PREDICTED BY IDOCK:  -10.99 KCAL/MOL
REMARK 924 INTRA-LIGAND FREE ENERGY PREDICTED BY IDOCK:   -1.51 KCAL/MOL
REMARK 927      BINDING AFFINITY PREDICTED BY RF-SCORE:    0.00 PKD
ROOT
HETATM    1  O   UNL     1     -10.792   8.638  66.993  1.00  0.00    -0.197 OA 
HETATM    2  C   UNL     1      -9.655   9.159  66.467  1.00  0.00    -0.227 C  
HETATM    3  C   UNL     1      -8.959  10.120  67.410  1.00  0.00    -0.142 C  
HETATM    4  O   UNL     1      -9.245   8.823  65.368  1.00  0.00    -0.183 OA 
ENDROOT
BRANCH   3   5
HETATM    5  C   UNL     1      -8.045  11.127  66.713  1.00  0.00    -0.155 C  
HETATM    6  C   UNL     1      -7.360  10.664  65.434  1.00  0.00    -0.020 C  
HETATM    7  C   UNL     1      -6.559  10.806  66.698  1.00  0.00    -0.112 C  
BRANCH   5   8
HETATM    8  C   UNL     1      -8.522  12.564  66.888  1.00  0.00    -0.130 C  
BRANCH   8   9
HETATM    9  S   UNL     1     -10.198  12.977  66.364  1.00  0.00    -0.285 SA 
BRANCH   9  10
HETATM   10  C   UNL     1     -10.429  14.611  67.215  1.00  0.00    -0.266 C  
BRANCH  10  11
HETATM   11  C   UNL     1      -9.126  15.425  67.404  1.00  0.00    -0.206 C  
BRANCH  11  12
HETATM   12  C   UNL     1      -8.750  16.343  66.220  1.00  0.00    -0.369 C  
BRANCH  12  13
HETATM   13  C   UNL     1      -8.997  17.814  66.528  1.00  0.00    -0.280 A  
HETATM   14  C   UNL     1     -10.344  18.238  66.402  1.00  0.00    -0.418 A  
HETATM   15  C   UNL     1      -9.797  20.460  67.084  1.00  0.00    -0.601 A  
HETATM   16  H   UNL     1      -5.487  17.126  68.258  1.00  0.00     0.000 HD 
HETATM   17  C   UNL     1     -10.739  19.544  66.658  1.00  0.00    -0.552 A  
HETATM   18  C   UNL     1      -5.679  19.560  67.760  1.00  0.00    -0.206 C  
HETATM   19  C   UNL     1      -8.467  20.063  67.244  1.00  0.00    -0.390 A  
HETATM   20  C   UNL     1      -8.017  18.748  66.966  1.00  0.00    -0.254 A  
HETATM   21  O   UNL     1      -6.404  17.336  68.127  1.00  0.00    -0.149 OA 
HETATM   22  C   UNL     1      -5.830  17.970  65.883  1.00  0.00    -0.248 C  
HETATM   23  C   UNL     1      -6.528  18.406  67.180  1.00  0.00    -0.179 C  
ENDBRANCH  12  13
ENDBRANCH  11  12
ENDBRANCH  10  11
BRANCH  10  24
HETATM   24  C   UNL     1     -11.265  14.430  68.485  1.00  0.00    -0.286 A  
HETATM   25  C   UNL     1     -12.720  14.000  70.864  1.00  0.00    -0.420 A  
HETATM   26  C   UNL     1     -11.896  15.494  69.147  1.00  0.00    -0.373 A  
HETATM   27  C   UNL     1     -11.382  13.142  69.053  1.00  0.00    -0.332 A  
HETATM   28  C   UNL     1     -12.615  15.281  70.325  1.00  0.00    -0.388 A  
HETATM   29  C   UNL     1     -12.119  12.911  70.227  1.00  0.00    -0.377 A  
BRANCH  29  30
HETATM   30  C   UNL     1     -12.163  11.550  70.786  1.00  0.00    -0.463 C  
HETATM   31  C   UNL     1     -11.309  10.561  70.464  1.00  0.00    -0.400 C  
BRANCH  31  32
HETATM   32  C   UNL     1     -11.354   9.193  70.991  1.00  0.00    -0.309 A  
HETATM   33  N   UNL     1     -10.192   8.506  70.872  1.00  0.00    -0.193 NA 
HETATM   34  C   UNL     1     -10.155   7.220  71.267  1.00  0.00    -0.189 A  
HETATM   35  C   UNL     1     -11.288   6.560  71.784  1.00  0.00    -0.325 A  
HETATM   36  C   UNL     1     -12.477   7.285  71.894  1.00  0.00    -0.337 A  
HETATM   37  C   UNL     1     -11.215   5.208  72.165  1.00  0.00    -0.068 A  
HETATM   38  C   UNL     1     -10.020   4.508  72.028  1.00  0.00    -0.255 A  
HETATM   39  C   UNL     1     -12.514   8.613  71.486  1.00  0.00    -0.364 A  
HETATM   40  C   UNL     1      -8.901   5.163  71.525  1.00  0.00    -0.133 A  
HETATM   41  C   UNL     1      -8.973   6.505  71.151  1.00  0.00    -0.145 A  
HETATM   42 CL   UNL     1      -7.421   4.302  71.353  1.00  0.00    -0.058 Cl 
ENDBRANCH  31  32
ENDBRANCH  29  30
ENDBRANCH  10  24
ENDBRANCH   9  10
ENDBRANCH   8   9
ENDBRANCH   5   8
ENDBRANCH   3   5
TORSDOF 10
ENDMDL
MODEL       67
REMARK 921   NORMALIZED FREE ENERGY PREDICTED BY IDOCK:   -6.83 KCAL/MOL
REMARK 922        TOTAL FREE ENERGY PREDICTED BY IDOCK:  -12.48 KCAL/MOL
REMARK 923 INTER-LIGAND FREE ENERGY PREDICTED BY IDOCK:  -11.96 KCAL/MOL
REMARK 924 INTRA-LIGAND FREE ENERGY PREDICTED BY IDOCK:   -0.52 KCAL/MOL
REMARK 927      BINDING AFFINITY PREDICTED BY RF-SCORE:    0.00 PKD
ROOT
HETATM    1  O   UNL     1     -10.352  20.100  66.370  1.00  0.00    -0.440 OA 
HETATM    2  C   UNL     1     -10.087  18.770  66.437  1.00  0.00    -0.404 C  
HETATM    3  C   UNL     1     -10.825  18.081  67.568  1.00  0.00    -0.252 C  
HETATM    4  O   UNL     1      -9.367  18.218  65.621  1.00  0.00    -0.323 OA 
ENDROOT
BRANCH   3   5
HETATM    5  C   UNL     1     -10.172  16.782  68.040  1.00  0.00    -0.300 C  
HETATM    6  C   UNL     1      -9.892  16.657  69.531  1.00  0.00    -0.038 C  
HETATM    7  C   UNL     1      -8.754  16.885  68.577  1.00  0.00    -0.251 C  
BRANCH   5   8
HETATM    8  C   UNL     1     -10.596  15.581  67.203  1.00  0.00    -0.300 C  
BRANCH   8   9
HETATM    9  S   UNL     1     -11.956  14.559  67.804  1.00  0.00    -0.241 SA 
BRANCH   9  10
HETATM   10  C   UNL     1     -11.013  13.185  68.625  1.00  0.00    -0.265 C  
BRANCH  10  11
HETATM   11  C   UNL     1     -10.478  12.105  67.655  1.00  0.00    -0.225 C  
BRANCH  11  12
HETATM   12  C   UNL     1      -9.445  12.605  66.622  1.00  0.00    -0.244 C  
BRANCH  12  13
HETATM   13  C   UNL     1      -9.412  11.738  65.370  1.00  0.00    -0.157 A  
HETATM   14  C   UNL     1      -8.276  10.897  65.250  1.00  0.00     0.022 A  
HETATM   15  C   UNL     1      -9.077   9.968  63.201  1.00  0.00    -0.296 A  
HETATM   16  H   UNL     1     -13.243  12.755  65.640  1.00  0.00     0.000 HD 
HETATM   17  C   UNL     1      -8.099  10.038  64.174  1.00  0.00    -0.153 A  
HETATM   18  C   UNL     1     -12.722  12.190  63.270  1.00  0.00    -0.417 C  
HETATM   19  C   UNL     1     -10.220  10.764  63.309  1.00  0.00    -0.243 A  
HETATM   20  C   UNL     1     -10.426  11.676  64.375  1.00  0.00    -0.374 A  
HETATM   21  O   UNL     1     -12.443  12.243  65.620  1.00  0.00    -0.591 OA 
HETATM   22  C   UNL     1     -11.460  14.019  64.337  1.00  0.00    -0.357 C  
HETATM   23  C   UNL     1     -11.725  12.508  64.408  1.00  0.00    -0.368 C  
ENDBRANCH  12  13
ENDBRANCH  11  12
ENDBRANCH  10  11
BRANCH  10  24
HETATM   24  C   UNL     1     -11.805  12.644  69.819  1.00  0.00    -0.379 A  
HETATM   25  C   UNL     1     -13.163  11.566  72.044  1.00  0.00    -0.443 A  
HETATM   26  C   UNL     1     -12.644  13.444  70.609  1.00  0.00    -0.325 A  
HETATM   27  C   UNL     1     -11.665  11.286  70.178  1.00  0.00    -0.429 A  
HETATM   28  C   UNL     1     -13.315  12.910  71.711  1.00  0.00    -0.451 A  
HETATM   29  C   UNL     1     -12.350  10.731  71.273  1.00  0.00    -0.470 A  
BRANCH  29  30
HETATM   30  C   UNL     1     -12.123   9.318  71.616  1.00  0.00    -0.451 C  
HETATM   31  C   UNL     1     -10.914   8.734  71.699  1.00  0.00    -0.391 C  
BRANCH  31  32
HETATM   32  C   UNL     1     -10.670   7.322  72.013  1.00  0.00    -0.211 A  
HETATM   33  N   UNL     1     -10.363   6.552  70.940  1.00  0.00    -0.204 NA 
HETATM   34  C   UNL     1     -10.187   5.230  71.119  1.00  0.00    -0.224 A  
HETATM   35  C   UNL     1     -10.328   4.618  72.382  1.00  0.00    -0.262 A  
HETATM   36  C   UNL     1     -10.650   5.428  73.472  1.00  0.00    -0.310 A  
HETATM   37  C   UNL     1     -10.159   3.229  72.524  1.00  0.00    -0.229 A  
HETATM   38  C   UNL     1      -9.855   2.445  71.414  1.00  0.00    -0.170 A  
HETATM   39  C   UNL     1     -10.831   6.794  73.286  1.00  0.00    -0.302 A  
HETATM   40  C   UNL     1      -9.708   3.052  70.171  1.00  0.00     0.024 A  
HETATM   41  C   UNL     1      -9.872   4.430  70.031  1.00  0.00    -0.294 A  
HETATM   42 CL   UNL     1      -9.333   2.089  68.796  1.00  0.00    -0.219 Cl 
ENDBRANCH  31  32
ENDBRANCH  29  30
ENDBRANCH  10  24
ENDBRANCH   9  10
ENDBRANCH   8   9
ENDBRANCH   5   8
ENDBRANCH   3   5
TORSDOF 10
ENDMDL
MODEL       68
REMARK 921   NORMALIZED FREE ENERGY PREDICTED BY IDOCK:   -6.80 KCAL/MOL
REMARK 922        TOTAL FREE ENERGY PREDICTED BY IDOCK:  -12.42 KCAL/MOL
REMARK 923 INTER-LIGAND FREE ENERGY PREDICTED BY IDOCK:  -10.25 KCAL/MOL
REMARK 924 INTRA-LIGAND FREE ENERGY PREDICTED BY IDOCK:   -2.18 KCAL/MOL
REMARK 927      BINDING AFFINITY PREDICTED BY RF-SCORE:    0.00 PKD
ROOT
HETATM    1  O   UNL     1      -9.268   3.205  65.481  1.00  0.00    -0.148 OA 
HETATM    2  C   UNL     1      -9.010   4.309  66.227  1.00  0.00    -0.120 C  
HETATM    3  C   UNL     1      -8.583   3.974  67.642  1.00  0.00    -0.110 C  
HETATM    4  O   UNL     1      -9.076   5.432  65.754  1.00  0.00    -0.156 OA 
ENDROOT
BRANCH   3   5
HETATM    5  C   UNL     1      -8.821   5.098  68.649  1.00  0.00    -0.106 C  
HETATM    6  C   UNL     1      -7.689   6.099  68.842  1.00  0.00    -0.093 C  
HETATM    7  C   UNL     1      -7.970   5.079  69.909  1.00  0.00    -0.074 C  
BRANCH   5   8
HETATM    8  C   UNL     1     -10.282   5.524  68.711  1.00  0.00    -0.199 C  
BRANCH   8   9
HETATM    9  S   UNL     1     -10.655   7.286  68.824  1.00  0.00    -0.145 SA 
BRANCH   9  10
HETATM   10  C   UNL     1     -10.796   7.488  70.665  1.00  0.00    -0.240 C  
BRANCH  10  11
HETATM   11  C   UNL     1     -11.235   6.209  71.418  1.00  0.00    -0.346 C  
BRANCH  11  12
HETATM   12  C   UNL     1     -10.876   6.178  72.920  1.00  0.00    -0.290 C  
BRANCH  12  13
HETATM   13  C   UNL     1      -9.378   6.027  73.153  1.00  0.00    -0.139 A  
HETATM   14  C   UNL     1      -8.638   7.236  73.113  1.00  0.00    -0.163 A  
HETATM   15  C   UNL     1      -6.596   6.100  73.604  1.00  0.00    -0.074 A  
HETATM   16  H   UNL     1     -10.846   2.640  74.623  1.00  0.00     0.000 HD 
HETATM   17  C   UNL     1      -7.265   7.274  73.317  1.00  0.00    -0.079 A  
HETATM   18  C   UNL     1      -8.463   2.281  73.988  1.00  0.00    -0.063 C  
HETATM   19  C   UNL     1      -7.304   4.898  73.677  1.00  0.00    -0.090 A  
HETATM   20  C   UNL     1      -8.701   4.812  73.447  1.00  0.00    -0.100 A  
HETATM   21  O   UNL     1     -10.420   3.487  74.556  1.00  0.00    -0.189 OA 
HETATM   22  C   UNL     1     -10.042   2.996  72.235  1.00  0.00    -0.219 C  
HETATM   23  C   UNL     1      -9.393   3.438  73.556  1.00  0.00    -0.099 C  
ENDBRANCH  12  13
ENDBRANCH  11  12
ENDBRANCH  10  11
BRANCH  10  24
HETATM   24  C   UNL     1     -11.610   8.742  70.995  1.00  0.00    -0.337 A  
HETATM   25  C   UNL     1     -13.105  11.086  71.475  1.00  0.00    -0.500 A  
HETATM   26  C   UNL     1     -12.627   8.764  71.962  1.00  0.00    -0.447 A  
HETATM   27  C   UNL     1     -11.365   9.931  70.274  1.00  0.00    -0.357 A  
HETATM   28  C   UNL     1     -13.367   9.924  72.198  1.00  0.00    -0.498 A  
HETATM   29  C   UNL     1     -12.090  11.111  70.515  1.00  0.00    -0.474 A  
BRANCH  29  30
HETATM   30  C   UNL     1     -11.810  12.300  69.695  1.00  0.00    -0.393 C  
HETATM   31  C   UNL     1     -11.377  12.270  68.421  1.00  0.00    -0.340 C  
BRANCH  31  32
HETATM   32  C   UNL     1     -11.069  13.444  67.598  1.00  0.00    -0.265 A  
HETATM   33  N   UNL     1     -10.923  14.597  68.296  1.00  0.00    -0.245 NA 
HETATM   34  C   UNL     1     -10.704  15.740  67.620  1.00  0.00    -0.310 A  
HETATM   35  C   UNL     1     -10.637  15.780  66.213  1.00  0.00    -0.313 A  
HETATM   36  C   UNL     1     -10.793  14.581  65.514  1.00  0.00    -0.342 A  
HETATM   37  C   UNL     1     -10.428  16.999  65.543  1.00  0.00    -0.181 A  
HETATM   38  C   UNL     1     -10.292  18.179  66.267  1.00  0.00    -0.407 A  
HETATM   39  C   UNL     1     -11.020  13.401  66.212  1.00  0.00    -0.296 A  
HETATM   40  C   UNL     1     -10.351  18.137  67.656  1.00  0.00    -0.397 A  
HETATM   41  C   UNL     1     -10.553  16.928  68.321  1.00  0.00    -0.363 A  
HETATM   42 CL   UNL     1     -10.184  19.594  68.557  1.00  0.00    -0.541 Cl 
ENDBRANCH  31  32
ENDBRANCH  29  30
ENDBRANCH  10  24
ENDBRANCH   9  10
ENDBRANCH   8   9
ENDBRANCH   5   8
ENDBRANCH   3   5
TORSDOF 10
ENDMDL
MODEL       69
REMARK 921   NORMALIZED FREE ENERGY PREDICTED BY IDOCK:   -6.77 KCAL/MOL
REMARK 922        TOTAL FREE ENERGY PREDICTED BY IDOCK:  -12.39 KCAL/MOL
REMARK 923 INTER-LIGAND FREE ENERGY PREDICTED BY IDOCK:   -9.72 KCAL/MOL
REMARK 924 INTRA-LIGAND FREE ENERGY PREDICTED BY IDOCK:   -2.67 KCAL/MOL
REMARK 927      BINDING AFFINITY PREDICTED BY RF-SCORE:    0.00 PKD
ROOT
HETATM    1  O   UNL     1      -6.505   9.559  71.777  1.00  0.00    -0.296 OA 
HETATM    2  C   UNL     1      -6.976   8.340  72.142  1.00  0.00    -0.088 C  
HETATM    3  C   UNL     1      -8.429   8.134  71.763  1.00  0.00    -0.186 C  
HETATM    4  O   UNL     1      -6.256   7.507  72.669  1.00  0.00    -0.053 OA 
ENDROOT
BRANCH   3   5
HETATM    5  C   UNL     1      -9.150   7.080  72.602  1.00  0.00    -0.153 C  
HETATM    6  C   UNL     1     -10.081   7.590  73.694  1.00  0.00    -0.343 C  
HETATM    7  C   UNL     1      -8.757   6.985  74.068  1.00  0.00    -0.200 C  
BRANCH   5   8
HETATM    8  C   UNL     1      -9.469   5.821  71.806  1.00  0.00    -0.148 C  
BRANCH   8   9
HETATM    9  S   UNL     1      -9.136   5.824  70.032  1.00  0.00    -0.143 SA 
BRANCH   9  10
HETATM   10  C   UNL     1     -10.849   6.087  69.364  1.00  0.00    -0.363 C  
BRANCH  10  11
HETATM   11  C   UNL     1     -10.908   6.365  67.843  1.00  0.00    -0.404 C  
BRANCH  11  12
HETATM   12  C   UNL     1      -9.546   6.658  67.177  1.00  0.00    -0.168 C  
BRANCH  12  13
HETATM   13  C   UNL     1      -9.444   8.094  66.679  1.00  0.00    -0.274 A  
HETATM   14  C   UNL     1     -10.420   8.982  67.198  1.00  0.00    -0.333 A  
HETATM   15  C   UNL     1      -9.494  10.831  66.004  1.00  0.00    -0.230 A  
HETATM   16  H   UNL     1      -5.841   6.623  65.879  1.00  0.00     0.000 HD 
HETATM   17  C   UNL     1     -10.459  10.327  66.854  1.00  0.00    -0.291 A  
HETATM   18  C   UNL     1      -6.284   8.548  64.360  1.00  0.00    -0.066 C  
HETATM   19  C   UNL     1      -8.504   9.985  65.499  1.00  0.00    -0.155 A  
HETATM   20  C   UNL     1      -8.445   8.601  65.803  1.00  0.00    -0.165 A  
HETATM   21  O   UNL     1      -6.541   7.146  66.250  1.00  0.00    -0.049 OA 
HETATM   22  C   UNL     1      -7.828   6.628  64.290  1.00  0.00    -0.115 C  
HETATM   23  C   UNL     1      -7.308   7.750  65.200  1.00  0.00    -0.071 C  
ENDBRANCH  12  13
ENDBRANCH  11  12
ENDBRANCH  10  11
BRANCH  10  24
HETATM   24  C   UNL     1     -11.604   7.096  70.234  1.00  0.00    -0.260 A  
HETATM   25  C   UNL     1     -12.984   9.045  71.736  1.00  0.00    -0.436 A  
HETATM   26  C   UNL     1     -12.638   6.733  71.109  1.00  0.00    -0.305 A  
HETATM   27  C   UNL     1     -11.282   8.467  70.132  1.00  0.00    -0.139 A  
HETATM   28  C   UNL     1     -13.322   7.698  71.852  1.00  0.00    -0.293 A  
HETATM   29  C   UNL     1     -11.949   9.447  70.888  1.00  0.00    -0.351 A  
BRANCH  29  30
HETATM   30  C   UNL     1     -11.590  10.861  70.698  1.00  0.00    -0.341 C  
HETATM   31  C   UNL     1     -12.286  11.736  69.948  1.00  0.00    -0.293 C  
BRANCH  31  32
HETATM   32  C   UNL     1     -11.929  13.141  69.727  1.00  0.00    -0.314 A  
HETATM   33  N   UNL     1     -10.790  13.327  69.016  1.00  0.00    -0.215 NA 
HETATM   34  C   UNL     1     -10.346  14.581  68.819  1.00  0.00    -0.243 A  
HETATM   35  C   UNL     1     -11.016  15.707  69.341  1.00  0.00    -0.283 A  
HETATM   36  C   UNL     1     -12.185  15.492  70.075  1.00  0.00    -0.380 A  
HETATM   37  C   UNL     1     -10.507  17.001  69.132  1.00  0.00    -0.323 A  
HETATM   38  C   UNL     1      -9.331  17.180  68.410  1.00  0.00    -0.273 A  
HETATM   39  C   UNL     1     -12.643  14.196  70.277  1.00  0.00    -0.367 A  
HETATM   40  C   UNL     1      -8.675  16.070  67.889  1.00  0.00    -0.165 A  
HETATM   41  C   UNL     1      -9.182  14.787  68.093  1.00  0.00    -0.195 A  
HETATM   42 CL   UNL     1      -7.220  16.286  66.996  1.00  0.00    -0.245 Cl 
ENDBRANCH  31  32
ENDBRANCH  29  30
ENDBRANCH  10  24
ENDBRANCH   9  10
ENDBRANCH   8   9
ENDBRANCH   5   8
ENDBRANCH   3   5
TORSDOF 10
ENDMDL
MODEL       70
REMARK 921   NORMALIZED FREE ENERGY PREDICTED BY IDOCK:   -6.72 KCAL/MOL
REMARK 922        TOTAL FREE ENERGY PREDICTED BY IDOCK:  -12.31 KCAL/MOL
REMARK 923 INTER-LIGAND FREE ENERGY PREDICTED BY IDOCK:  -10.75 KCAL/MOL
REMARK 924 INTRA-LIGAND FREE ENERGY PREDICTED BY IDOCK:   -1.56 KCAL/MOL
REMARK 927      BINDING AFFINITY PREDICTED BY RF-SCORE:    0.00 PKD
ROOT
HETATM    1  O   UNL     1     -10.495   5.114  74.479  1.00  0.00    -0.275 OA 
HETATM    2  C   UNL     1     -10.867   5.354  73.196  1.00  0.00    -0.285 C  
HETATM    3  C   UNL     1      -9.694   5.695  72.299  1.00  0.00    -0.177 C  
HETATM    4  O   UNL     1     -12.027   5.243  72.833  1.00  0.00    -0.227 OA 
ENDROOT
BRANCH   3   5
HETATM    5  C   UNL     1     -10.072   6.494  71.052  1.00  0.00    -0.208 C  
HETATM    6  C   UNL     1     -11.134   5.890  70.145  1.00  0.00    -0.395 C  
HETATM    7  C   UNL     1      -9.696   5.887  69.710  1.00  0.00    -0.202 C  
BRANCH   5   8
HETATM    8  C   UNL     1      -9.973   7.999  71.274  1.00  0.00    -0.174 C  
BRANCH   8   9
HETATM    9  S   UNL     1      -9.346   9.021  69.926  1.00  0.00    -0.184 SA 
BRANCH   9  10
HETATM   10  C   UNL     1     -10.936   9.509  69.099  1.00  0.00    -0.125 C  
BRANCH  10  11
HETATM   11  C   UNL     1     -10.851   9.612  67.557  1.00  0.00    -0.265 C  
BRANCH  11  12
HETATM   12  C   UNL     1      -9.720  10.517  67.022  1.00  0.00    -0.212 C  
BRANCH  12  13
HETATM   13  C   UNL     1      -9.668  10.538  65.500  1.00  0.00    -0.298 A  
HETATM   14  C   UNL     1      -8.912   9.494  64.909  1.00  0.00    -0.264 A  
HETATM   15  C   UNL     1      -9.422  10.259  62.705  1.00  0.00    -0.323 A  
HETATM   16  H   UNL     1     -12.820  12.817  66.308  1.00  0.00     0.000 HD 
HETATM   17  C   UNL     1      -8.774   9.364  63.533  1.00  0.00    -0.221 A  
HETATM   18  C   UNL     1     -11.930  13.435  64.064  1.00  0.00    -0.520 C  
HETATM   19  C   UNL     1     -10.196  11.281  63.259  1.00  0.00    -0.417 A  
HETATM   20  C   UNL     1     -10.339  11.467  64.658  1.00  0.00    -0.349 A  
HETATM   21  O   UNL     1     -12.278  12.105  65.991  1.00  0.00    -0.609 OA 
HETATM   22  C   UNL     1     -10.431  13.641  66.011  1.00  0.00    -0.300 C  
HETATM   23  C   UNL     1     -11.221  12.624  65.173  1.00  0.00    -0.301 C  
ENDBRANCH  12  13
ENDBRANCH  11  12
ENDBRANCH  10  11
BRANCH  10  24
HETATM   24  C   UNL     1     -11.536  10.733  69.795  1.00  0.00    -0.393 A  
HETATM   25  C   UNL     1     -12.633  13.056  70.962  1.00  0.00    -0.386 A  
HETATM   26  C   UNL     1     -12.534  10.645  70.778  1.00  0.00    -0.480 A  
HETATM   27  C   UNL     1     -11.105  12.022  69.412  1.00  0.00    -0.198 A  
HETATM   28  C   UNL     1     -13.077  11.795  71.355  1.00  0.00    -0.322 A  
HETATM   29  C   UNL     1     -11.630  13.187  69.998  1.00  0.00    -0.202 A  
BRANCH  29  30
HETATM   30  C   UNL     1     -11.165  14.498  69.519  1.00  0.00    -0.300 C  
HETATM   31  C   UNL     1      -9.877  14.824  69.303  1.00  0.00    -0.123 C  
BRANCH  31  32
HETATM   32  C   UNL     1      -9.394  16.133  68.851  1.00  0.00    -0.235 A  
HETATM   33  N   UNL     1     -10.212  16.762  67.972  1.00  0.00    -0.286 NA 
HETATM   34  C   UNL     1      -9.822  17.939  67.451  1.00  0.00    -0.305 A  
HETATM   35  C   UNL     1      -8.584  18.531  67.775  1.00  0.00    -0.286 A  
HETATM   36  C   UNL     1      -7.754  17.864  68.679  1.00  0.00    -0.293 A  
HETATM   37  C   UNL     1      -8.202  19.752  67.191  1.00  0.00    -0.335 A  
HETATM   38  C   UNL     1      -9.044  20.384  66.281  1.00  0.00    -0.181 A  
HETATM   39  C   UNL     1      -8.159  16.648  69.217  1.00  0.00    -0.044 A  
HETATM   40  C   UNL     1     -10.268  19.804  65.968  1.00  0.00    -0.501 A  
HETATM   41  C   UNL     1     -10.649  18.595  66.551  1.00  0.00    -0.409 A  
HETATM   42 CL   UNL     1     -11.314  20.580  64.844  1.00  0.00     0.865 Cl 
ENDBRANCH  31  32
ENDBRANCH  29  30
ENDBRANCH  10  24
ENDBRANCH   9  10
ENDBRANCH   8   9
ENDBRANCH   5   8
ENDBRANCH   3   5
TORSDOF 10
ENDMDL
MODEL       71
REMARK 921   NORMALIZED FREE ENERGY PREDICTED BY IDOCK:   -6.70 KCAL/MOL
REMARK 922        TOTAL FREE ENERGY PREDICTED BY IDOCK:  -12.27 KCAL/MOL
REMARK 923 INTER-LIGAND FREE ENERGY PREDICTED BY IDOCK:  -10.34 KCAL/MOL
REMARK 924 INTRA-LIGAND FREE ENERGY PREDICTED BY IDOCK:   -1.93 KCAL/MOL
REMARK 927      BINDING AFFINITY PREDICTED BY RF-SCORE:    0.00 PKD
ROOT
HETATM    1  O   UNL     1     -11.549   1.778  73.219  1.00  0.00    -0.171 OA 
HETATM    2  C   UNL     1     -10.638   2.784  73.263  1.00  0.00    -0.165 C  
HETATM    3  C   UNL     1     -11.261   4.127  73.585  1.00  0.00    -0.312 C  
HETATM    4  O   UNL     1      -9.446   2.576  73.105  1.00  0.00    -0.086 OA 
ENDROOT
BRANCH   3   5
HETATM    5  C   UNL     1     -10.442   5.326  73.110  1.00  0.00    -0.251 C  
HETATM    6  C   UNL     1      -9.267   5.745  73.983  1.00  0.00    -0.127 C  
HETATM    7  C   UNL     1     -10.513   6.584  73.962  1.00  0.00    -0.306 C  
BRANCH   5   8
HETATM    8  C   UNL     1     -10.383   5.426  71.590  1.00  0.00    -0.218 C  
BRANCH   8   9
HETATM    9  S   UNL     1     -11.645   6.402  70.748  1.00  0.00    -0.284 SA 
BRANCH   9  10
HETATM   10  C   UNL     1     -10.675   7.932  70.338  1.00  0.00    -0.233 C  
BRANCH  10  11
HETATM   11  C   UNL     1      -9.205   7.908  70.821  1.00  0.00    -0.159 C  
BRANCH  11  12
HETATM   12  C   UNL     1      -8.188   8.562  69.860  1.00  0.00    -0.121 C  
BRANCH  12  13
HETATM   13  C   UNL     1      -8.377   8.103  68.420  1.00  0.00    -0.126 A  
HETATM   14  C   UNL     1      -9.262   8.897  67.647  1.00  0.00    -0.151 A  
HETATM   15  C   UNL     1      -8.898   7.560  65.703  1.00  0.00    -0.072 A  
HETATM   16  H   UNL     1      -4.996   6.308  69.482  1.00  0.00     0.000 HD 
HETATM   17  C   UNL     1      -9.535   8.622  66.313  1.00  0.00    -0.307 A  
HETATM   18  C   UNL     1      -6.037   5.031  67.612  1.00  0.00    -0.027 C  
HETATM   19  C   UNL     1      -7.999   6.777  66.432  1.00  0.00    -0.106 A  
HETATM   20  C   UNL     1      -7.715   7.006  67.803  1.00  0.00    -0.112 A  
HETATM   21  O   UNL     1      -5.619   6.872  69.040  1.00  0.00    -0.017 OA 
HETATM   22  C   UNL     1      -7.331   5.318  69.690  1.00  0.00    -0.064 C  
HETATM   23  C   UNL     1      -6.703   6.090  68.520  1.00  0.00    -0.061 C  
ENDBRANCH  12  13
ENDBRANCH  11  12
ENDBRANCH  10  11
BRANCH  10  24
HETATM   24  C   UNL     1     -11.466   9.180  70.741  1.00  0.00    -0.337 A  
HETATM   25  C   UNL     1     -12.925  11.514  71.357  1.00  0.00    -0.450 A  
HETATM   26  C   UNL     1     -12.416   9.185  71.773  1.00  0.00    -0.447 A  
HETATM   27  C   UNL     1     -11.269  10.380  70.025  1.00  0.00    -0.385 A  
HETATM   28  C   UNL     1     -13.139  10.340  72.077  1.00  0.00    -0.529 A  
HETATM   29  C   UNL     1     -11.976  11.555  70.332  1.00  0.00    -0.459 A  
BRANCH  29  30
HETATM   30  C   UNL     1     -11.752  12.758  69.515  1.00  0.00    -0.383 C  
HETATM   31  C   UNL     1     -11.139  12.768  68.317  1.00  0.00    -0.288 C  
BRANCH  31  32
HETATM   32  C   UNL     1     -10.883  13.960  67.501  1.00  0.00    -0.266 A  
HETATM   33  N   UNL     1     -10.804  15.116  68.204  1.00  0.00    -0.258 NA 
HETATM   34  C   UNL     1     -10.638  16.272  67.535  1.00  0.00    -0.310 A  
HETATM   35  C   UNL     1     -10.559  16.321  66.128  1.00  0.00    -0.272 A  
HETATM   36  C   UNL     1     -10.648  15.118  65.423  1.00  0.00    -0.410 A  
HETATM   37  C   UNL     1     -10.408  17.552  65.464  1.00  0.00    -0.032 A  
HETATM   38  C   UNL     1     -10.340  18.734  66.194  1.00  0.00    -0.494 A  
HETATM   39  C   UNL     1     -10.820  13.925  66.116  1.00  0.00    -0.290 A  
HETATM   40  C   UNL     1     -10.409  18.684  67.582  1.00  0.00    -0.412 A  
HETATM   41  C   UNL     1     -10.555  17.462  68.241  1.00  0.00    -0.366 A  
HETATM   42 CL   UNL     1     -10.325  20.143  68.490  1.00  0.00    -0.470 Cl 
ENDBRANCH  31  32
ENDBRANCH  29  30
ENDBRANCH  10  24
ENDBRANCH   9  10
ENDBRANCH   8   9
ENDBRANCH   5   8
ENDBRANCH   3   5
TORSDOF 10
ENDMDL
MODEL       72
REMARK 921   NORMALIZED FREE ENERGY PREDICTED BY IDOCK:   -6.68 KCAL/MOL
REMARK 922        TOTAL FREE ENERGY PREDICTED BY IDOCK:  -12.24 KCAL/MOL
REMARK 923 INTER-LIGAND FREE ENERGY PREDICTED BY IDOCK:   -9.94 KCAL/MOL
REMARK 924 INTRA-LIGAND FREE ENERGY PREDICTED BY IDOCK:   -2.30 KCAL/MOL
REMARK 927      BINDING AFFINITY PREDICTED BY RF-SCORE:    0.00 PKD
ROOT
HETATM    1  O   UNL     1      -6.226   9.640  71.825  1.00  0.00    -0.289 OA 
HETATM    2  C   UNL     1      -6.637   8.363  72.032  1.00  0.00    -0.074 C  
HETATM    3  C   UNL     1      -8.145   8.241  72.133  1.00  0.00    -0.195 C  
HETATM    4  O   UNL     1      -5.847   7.434  72.073  1.00  0.00    -0.037 OA 
ENDROOT
BRANCH   3   5
HETATM    5  C   UNL     1      -8.622   7.005  72.895  1.00  0.00    -0.132 C  
HETATM    6  C   UNL     1      -9.424   7.250  74.166  1.00  0.00    -0.245 C  
HETATM    7  C   UNL     1      -8.005   6.765  74.264  1.00  0.00    -0.128 C  
BRANCH   5   8
HETATM    8  C   UNL     1      -8.930   5.834  71.971  1.00  0.00    -0.138 C  
BRANCH   8   9
HETATM    9  S   UNL     1      -8.838   6.104  70.189  1.00  0.00    -0.145 SA 
BRANCH   9  10
HETATM   10  C   UNL     1     -10.631   6.386  69.794  1.00  0.00    -0.254 C  
BRANCH  10  11
HETATM   11  C   UNL     1     -11.026   6.049  68.336  1.00  0.00    -0.340 C  
BRANCH  11  12
HETATM   12  C   UNL     1      -9.917   5.381  67.494  1.00  0.00    -0.198 C  
BRANCH  12  13
HETATM   13  C   UNL     1      -9.360   6.315  66.427  1.00  0.00    -0.176 A  
HETATM   14  C   UNL     1      -9.578   7.696  66.663  1.00  0.00    -0.271 A  
HETATM   15  C   UNL     1      -8.405   8.306  64.675  1.00  0.00    -0.115 A  
HETATM   16  H   UNL     1      -7.350   2.948  65.790  1.00  0.00     0.000 HD 
HETATM   17  C   UNL     1      -9.125   8.679  65.793  1.00  0.00    -0.242 A  
HETATM   18  C   UNL     1      -7.379   4.282  63.686  1.00  0.00    -0.054 C  
HETATM   19  C   UNL     1      -8.151   6.955  64.432  1.00  0.00    -0.052 A  
HETATM   20  C   UNL     1      -8.621   5.918  65.279  1.00  0.00    -0.119 A  
HETATM   21  O   UNL     1      -7.558   3.849  66.007  1.00  0.00    -0.086 OA 
HETATM   22  C   UNL     1      -9.536   3.605  64.668  1.00  0.00    -0.172 C  
HETATM   23  C   UNL     1      -8.283   4.454  64.928  1.00  0.00    -0.104 C  
ENDBRANCH  12  13
ENDBRANCH  11  12
ENDBRANCH  10  11
BRANCH  10  24
HETATM   24  C   UNL     1     -11.063   7.774  70.274  1.00  0.00    -0.242 A  
HETATM   25  C   UNL     1     -11.872  10.368  71.032  1.00  0.00    -0.458 A  
HETATM   26  C   UNL     1     -11.839   7.981  71.425  1.00  0.00    -0.326 A  
HETATM   27  C   UNL     1     -10.706   8.907  69.512  1.00  0.00    -0.206 A  
HETATM   28  C   UNL     1     -12.240   9.265  71.799  1.00  0.00    -0.457 A  
HETATM   29  C   UNL     1     -11.087  10.208  69.888  1.00  0.00    -0.346 A  
BRANCH  29  30
HETATM   30  C   UNL     1     -10.715  11.338  69.022  1.00  0.00    -0.257 C  
HETATM   31  C   UNL     1     -11.436  12.466  68.881  1.00  0.00    -0.355 C  
BRANCH  31  32
HETATM   32  C   UNL     1     -11.094  13.590  68.003  1.00  0.00    -0.258 A  
HETATM   33  N   UNL     1     -10.948  14.777  68.641  1.00  0.00    -0.245 NA 
HETATM   34  C   UNL     1     -10.700  15.879  67.910  1.00  0.00    -0.312 A  
HETATM   35  C   UNL     1     -10.603  15.843  66.504  1.00  0.00    -0.297 A  
HETATM   36  C   UNL     1     -10.761  14.610  65.867  1.00  0.00    -0.312 A  
HETATM   37  C   UNL     1     -10.364  17.022  65.775  1.00  0.00    -0.275 A  
HETATM   38  C   UNL     1     -10.227  18.237  66.438  1.00  0.00    -0.417 A  
HETATM   39  C   UNL     1     -11.018  13.472  66.623  1.00  0.00    -0.293 A  
HETATM   40  C   UNL     1     -10.315  18.271  67.825  1.00  0.00    -0.401 A  
HETATM   41  C   UNL     1     -10.547  17.101  68.549  1.00  0.00    -0.361 A  
HETATM   42 CL   UNL     1     -10.147  19.771  68.651  1.00  0.00    -0.552 Cl 
ENDBRANCH  31  32
ENDBRANCH  29  30
ENDBRANCH  10  24
ENDBRANCH   9  10
ENDBRANCH   8   9
ENDBRANCH   5   8
ENDBRANCH   3   5
TORSDOF 10
ENDMDL
MODEL       73
REMARK 921   NORMALIZED FREE ENERGY PREDICTED BY IDOCK:   -6.67 KCAL/MOL
REMARK 922        TOTAL FREE ENERGY PREDICTED BY IDOCK:  -12.23 KCAL/MOL
REMARK 923 INTER-LIGAND FREE ENERGY PREDICTED BY IDOCK:   -9.09 KCAL/MOL
REMARK 924 INTRA-LIGAND FREE ENERGY PREDICTED BY IDOCK:   -3.14 KCAL/MOL
REMARK 927      BINDING AFFINITY PREDICTED BY RF-SCORE:    0.00 PKD
ROOT
HETATM    1  O   UNL     1     -10.523  19.502  66.852  1.00  0.00    -0.415 OA 
HETATM    2  C   UNL     1     -10.200  18.184  66.835  1.00  0.00    -0.372 C  
HETATM    3  C   UNL     1     -10.941  17.385  67.888  1.00  0.00    -0.156 C  
HETATM    4  O   UNL     1      -9.429  17.724  66.008  1.00  0.00    -0.502 OA 
ENDROOT
BRANCH   3   5
HETATM    5  C   UNL     1     -10.245  16.084  68.290  1.00  0.00    -0.237 C  
HETATM    6  C   UNL     1     -10.061  15.836  69.781  1.00  0.00    -0.277 C  
HETATM    7  C   UNL     1      -8.876  16.213  68.938  1.00  0.00    -0.248 C  
BRANCH   5   8
HETATM    8  C   UNL     1     -10.537  14.945  67.321  1.00  0.00    -0.272 C  
BRANCH   8   9
HETATM    9  S   UNL     1     -11.963  13.889  67.648  1.00  0.00    -0.321 SA 
BRANCH   9  10
HETATM   10  C   UNL     1     -11.117  12.345  68.239  1.00  0.00    -0.243 C  
BRANCH  10  11
HETATM   11  C   UNL     1     -10.965  11.245  67.161  1.00  0.00    -0.348 C  
BRANCH  11  12
HETATM   12  C   UNL     1      -9.553  10.630  67.046  1.00  0.00    -0.196 C  
BRANCH  12  13
HETATM   13  C   UNL     1      -9.538   9.147  67.394  1.00  0.00    -0.193 A  
HETATM   14  C   UNL     1     -10.598   8.387  66.836  1.00  0.00    -0.285 A  
HETATM   15  C   UNL     1      -9.767   6.366  67.797  1.00  0.00    -0.127 A  
HETATM   16  H   UNL     1      -5.807  10.272  68.165  1.00  0.00     0.000 HD 
HETATM   17  C   UNL     1     -10.724   7.021  67.048  1.00  0.00    -0.423 A  
HETATM   18  C   UNL     1      -6.332   8.238  69.506  1.00  0.00    -0.033 C  
HETATM   19  C   UNL     1      -8.696   7.084  68.336  1.00  0.00    -0.125 A  
HETATM   20  C   UNL     1      -8.546   8.484  68.168  1.00  0.00    -0.138 A  
HETATM   21  O   UNL     1      -6.559   9.839  67.777  1.00  0.00    -0.067 OA 
HETATM   22  C   UNL     1      -7.724  10.245  69.838  1.00  0.00    -0.139 C  
HETATM   23  C   UNL     1      -7.326   9.187  68.798  1.00  0.00    -0.075 C  
ENDBRANCH  12  13
ENDBRANCH  11  12
ENDBRANCH  10  11
BRANCH  10  24
HETATM   24  C   UNL     1     -11.740  11.875  69.556  1.00  0.00    -0.410 A  
HETATM   25  C   UNL     1     -12.770  10.959  72.018  1.00  0.00    -0.211 A  
HETATM   26  C   UNL     1     -12.721  12.605  70.244  1.00  0.00     0.101 A  
HETATM   27  C   UNL     1     -11.287  10.672  70.140  1.00  0.00    -0.402 A  
HETATM   28  C   UNL     1     -13.230  12.152  71.463  1.00  0.00    -0.270 A  
HETATM   29  C   UNL     1     -11.805  10.195  71.357  1.00  0.00    -0.414 A  
BRANCH  29  30
HETATM   30  C   UNL     1     -11.255   8.955  71.928  1.00  0.00    -0.447 C  
HETATM   31  C   UNL     1     -10.215   8.271  71.419  1.00  0.00    -0.263 C  
BRANCH  31  32
HETATM   32  C   UNL     1      -9.671   7.020  71.960  1.00  0.00    -0.155 A  
HETATM   33  N   UNL     1     -10.594   6.054  72.179  1.00  0.00    -0.206 NA 
HETATM   34  C   UNL     1     -10.200   4.894  72.736  1.00  0.00    -0.180 A  
HETATM   35  C   UNL     1      -8.862   4.658  73.114  1.00  0.00    -0.111 A  
HETATM   36  C   UNL     1      -7.927   5.670  72.883  1.00  0.00    -0.101 A  
HETATM   37  C   UNL     1      -8.494   3.441  73.714  1.00  0.00    -0.078 A  
HETATM   38  C   UNL     1      -9.453   2.459  73.946  1.00  0.00    -0.102 A  
HETATM   39  C   UNL     1      -8.336   6.867  72.307  1.00  0.00    -0.106 A  
HETATM   40  C   UNL     1     -10.770   2.689  73.566  1.00  0.00    -0.181 A  
HETATM   41  C   UNL     1     -11.134   3.895  72.966  1.00  0.00    -0.148 A  
HETATM   42 CL   UNL     1     -11.960   1.479  73.850  1.00  0.00    -0.212 Cl 
ENDBRANCH  31  32
ENDBRANCH  29  30
ENDBRANCH  10  24
ENDBRANCH   9  10
ENDBRANCH   8   9
ENDBRANCH   5   8
ENDBRANCH   3   5
TORSDOF 10
ENDMDL
MODEL       74
REMARK 921   NORMALIZED FREE ENERGY PREDICTED BY IDOCK:   -6.67 KCAL/MOL
REMARK 922        TOTAL FREE ENERGY PREDICTED BY IDOCK:  -12.23 KCAL/MOL
REMARK 923 INTER-LIGAND FREE ENERGY PREDICTED BY IDOCK:   -8.73 KCAL/MOL
REMARK 924 INTRA-LIGAND FREE ENERGY PREDICTED BY IDOCK:   -3.49 KCAL/MOL
REMARK 927      BINDING AFFINITY PREDICTED BY RF-SCORE:    0.00 PKD
ROOT
HETATM    1  O   UNL     1      -9.806   4.119  66.403  1.00  0.00    -0.210 OA 
HETATM    2  C   UNL     1      -8.618   4.263  65.762  1.00  0.00    -0.114 C  
HETATM    3  C   UNL     1      -7.779   5.391  66.328  1.00  0.00    -0.099 C  
HETATM    4  O   UNL     1      -8.278   3.508  64.866  1.00  0.00    -0.090 OA 
ENDROOT
BRANCH   3   5
HETATM    5  C   UNL     1      -6.748   5.954  65.351  1.00  0.00    -0.047 C  
HETATM    6  C   UNL     1      -5.522   5.094  65.073  1.00  0.00    -0.013 C  
HETATM    7  C   UNL     1      -5.390   6.324  65.926  1.00  0.00    -0.013 C  
BRANCH   5   8
HETATM    8  C   UNL     1      -7.385   6.811  64.263  1.00  0.00    -0.088 C  
BRANCH   8   9
HETATM    9  S   UNL     1      -7.190   8.602  64.362  1.00  0.00    -0.100 SA 
BRANCH   9  10
HETATM   10  C   UNL     1      -8.059   8.951  65.966  1.00  0.00    -0.111 C  
BRANCH  10  11
HETATM   11  C   UNL     1      -9.561   9.295  65.820  1.00  0.00    -0.341 C  
BRANCH  11  12
HETATM   12  C   UNL     1     -10.452   8.858  67.003  1.00  0.00    -0.326 C  
BRANCH  12  13
HETATM   13  C   UNL     1     -10.828  10.026  67.906  1.00  0.00    -0.323 A  
HETATM   14  C   UNL     1     -11.335  11.167  67.233  1.00  0.00    -0.302 A  
HETATM   15  C   UNL     1     -11.670  12.333  69.290  1.00  0.00    -0.388 A  
HETATM   16  H   UNL     1     -10.746   6.955  70.424  1.00  0.00     0.000 HD 
HETATM   17  C   UNL     1     -11.733  12.312  67.911  1.00  0.00    -0.410 A  
HETATM   18  C   UNL     1     -10.374   9.060  71.705  1.00  0.00    -0.420 C  
HETATM   19  C   UNL     1     -11.200  11.213  69.980  1.00  0.00    -0.261 A  
HETATM   20  C   UNL     1     -10.756  10.036  69.326  1.00  0.00    -0.249 A  
HETATM   21  O   UNL     1     -11.052   7.685  69.900  1.00  0.00    -0.237 OA 
HETATM   22  C   UNL     1      -8.791   8.496  69.901  1.00  0.00    -0.137 C  
HETATM   23  C   UNL     1     -10.260   8.849  70.177  1.00  0.00    -0.196 C  
ENDBRANCH  12  13
ENDBRANCH  11  12
ENDBRANCH  10  11
BRANCH  10  24
HETATM   24  C   UNL     1      -7.248   9.949  66.797  1.00  0.00    -0.091 A  
HETATM   25  C   UNL     1      -5.868  11.847  68.364  1.00  0.00    -0.049 A  
HETATM   26  C   UNL     1      -6.079   9.600  67.490  1.00  0.00    -0.052 A  
HETATM   27  C   UNL     1      -7.707  11.279  66.915  1.00  0.00    -0.152 A  
HETATM   28  C   UNL     1      -5.397  10.539  68.266  1.00  0.00    -0.033 A  
HETATM   29  C   UNL     1      -7.020  12.240  67.677  1.00  0.00    -0.128 A  
BRANCH  29  30
HETATM   30  C   UNL     1      -7.580  13.596  67.790  1.00  0.00    -0.167 C  
HETATM   31  C   UNL     1      -8.552  14.092  67.003  1.00  0.00    -0.204 C  
BRANCH  31  32
HETATM   32  C   UNL     1      -9.103  15.449  67.084  1.00  0.00    -0.220 A  
HETATM   33  N   UNL     1      -8.199  16.437  66.874  1.00  0.00    -0.194 NA 
HETATM   34  C   UNL     1      -8.598  17.717  66.993  1.00  0.00    -0.237 A  
HETATM   35  C   UNL     1      -9.918  18.063  67.345  1.00  0.00    -0.328 A  
HETATM   36  C   UNL     1     -10.832  17.029  67.561  1.00  0.00    -0.203 A  
HETATM   37  C   UNL     1     -10.290  19.412  67.482  1.00  0.00    -0.556 A  
HETATM   38  C   UNL     1      -9.352  20.419  67.276  1.00  0.00    -0.547 A  
HETATM   39  C   UNL     1     -10.420  15.708  67.438  1.00  0.00    -0.291 A  
HETATM   40  C   UNL     1      -8.051  20.077  66.921  1.00  0.00    -0.321 A  
HETATM   41  C   UNL     1      -7.684  18.738  66.781  1.00  0.00    -0.252 A  
HETATM   42 CL   UNL     1      -6.886  21.317  66.665  1.00  0.00    -0.233 Cl 
ENDBRANCH  31  32
ENDBRANCH  29  30
ENDBRANCH  10  24
ENDBRANCH   9  10
ENDBRANCH   8   9
ENDBRANCH   5   8
ENDBRANCH   3   5
TORSDOF 10
ENDMDL
MODEL       75
REMARK 921   NORMALIZED FREE ENERGY PREDICTED BY IDOCK:   -6.65 KCAL/MOL
REMARK 922        TOTAL FREE ENERGY PREDICTED BY IDOCK:  -12.19 KCAL/MOL
REMARK 923 INTER-LIGAND FREE ENERGY PREDICTED BY IDOCK:   -9.55 KCAL/MOL
REMARK 924 INTRA-LIGAND FREE ENERGY PREDICTED BY IDOCK:   -2.64 KCAL/MOL
REMARK 927      BINDING AFFINITY PREDICTED BY RF-SCORE:    0.00 PKD
ROOT
HETATM    1  O   UNL     1     -10.734   4.256  74.184  1.00  0.00    -0.246 OA 
HETATM    2  C   UNL     1     -10.291   5.175  73.289  1.00  0.00    -0.204 C  
HETATM    3  C   UNL     1     -11.280   6.301  73.067  1.00  0.00    -0.187 C  
HETATM    4  O   UNL     1      -9.185   5.092  72.780  1.00  0.00    -0.135 OA 
ENDROOT
BRANCH   3   5
HETATM    5  C   UNL     1     -11.118   7.021  71.729  1.00  0.00    -0.270 C  
HETATM    6  C   UNL     1     -12.331   7.042  70.808  1.00  0.00    -0.307 C  
HETATM    7  C   UNL     1     -11.162   6.158  70.478  1.00  0.00    -0.403 C  
BRANCH   5   8
HETATM    8  C   UNL     1     -10.162   8.205  71.817  1.00  0.00    -0.212 C  
BRANCH   8   9
HETATM    9  S   UNL     1      -8.671   8.176  70.801  1.00  0.00    -0.145 SA 
BRANCH   9  10
HETATM   10  C   UNL     1      -9.082   9.490  69.554  1.00  0.00    -0.185 C  
BRANCH  10  11
HETATM   11  C   UNL     1     -10.081   9.044  68.459  1.00  0.00    -0.211 C  
BRANCH  11  12
HETATM   12  C   UNL     1     -10.721  10.192  67.648  1.00  0.00    -0.339 C  
BRANCH  12  13
HETATM   13  C   UNL     1     -10.117  10.322  66.256  1.00  0.00    -0.300 A  
HETATM   14  C   UNL     1      -9.371   9.199  65.815  1.00  0.00    -0.309 A  
HETATM   15  C   UNL     1      -8.921  10.220  63.705  1.00  0.00    -0.259 A  
HETATM   16  H   UNL     1     -12.952  13.106  66.254  1.00  0.00     0.000 HD 
HETATM   17  C   UNL     1      -8.766   9.153  64.567  1.00  0.00    -0.192 A  
HETATM   18  C   UNL     1     -11.224  13.711  64.564  1.00  0.00    -0.395 C  
HETATM   19  C   UNL     1      -9.674  11.328  64.101  1.00  0.00    -0.298 A  
HETATM   20  C   UNL     1     -10.284  11.428  65.377  1.00  0.00    -0.320 A  
HETATM   21  O   UNL     1     -12.450  12.328  66.043  1.00  0.00    -0.503 OA 
HETATM   22  C   UNL     1     -10.521  13.464  66.914  1.00  0.00    -0.273 C  
HETATM   23  C   UNL     1     -11.101  12.692  65.719  1.00  0.00    -0.297 C  
ENDBRANCH  12  13
ENDBRANCH  11  12
ENDBRANCH  10  11
BRANCH  10  24
HETATM   24  C   UNL     1      -7.798  10.138  69.030  1.00  0.00    -0.107 A  
HETATM   25  C   UNL     1      -5.459  11.439  68.137  1.00  0.00    -0.042 A  
HETATM   26  C   UNL     1      -6.623   9.415  68.775  1.00  0.00    -0.052 A  
HETATM   27  C   UNL     1      -7.766  11.534  68.826  1.00  0.00    -0.124 A  
HETATM   28  C   UNL     1      -5.465  10.059  68.334  1.00  0.00    -0.039 A  
HETATM   29  C   UNL     1      -6.613  12.193  68.364  1.00  0.00    -0.059 A  
BRANCH  29  30
HETATM   30  C   UNL     1      -6.639  13.657  68.216  1.00  0.00    -0.108 C  
HETATM   31  C   UNL     1      -7.366  14.493  68.980  1.00  0.00    -0.132 C  
BRANCH  31  32
HETATM   32  C   UNL     1      -7.424  15.951  68.829  1.00  0.00    -0.170 A  
HETATM   33  N   UNL     1      -8.334  16.387  67.925  1.00  0.00    -0.169 NA 
HETATM   34  C   UNL     1      -8.414  17.706  67.669  1.00  0.00    -0.224 A  
HETATM   35  C   UNL     1      -7.572  18.645  68.299  1.00  0.00    -0.307 A  
HETATM   36  C   UNL     1      -6.638  18.174  69.224  1.00  0.00    -0.238 A  
HETATM   37  C   UNL     1      -7.672  20.014  67.988  1.00  0.00    -0.301 A  
HETATM   38  C   UNL     1      -8.602  20.450  67.049  1.00  0.00    -0.370 A  
HETATM   39  C   UNL     1      -6.556  16.811  69.487  1.00  0.00    -0.207 A  
HETATM   40  C   UNL     1      -9.437  19.523  66.435  1.00  0.00    -0.386 A  
HETATM   41  C   UNL     1      -9.341  18.167  66.747  1.00  0.00    -0.286 A  
HETATM   42 CL   UNL     1     -10.589  20.057  65.274  1.00  0.00    -0.233 Cl 
ENDBRANCH  31  32
ENDBRANCH  29  30
ENDBRANCH  10  24
ENDBRANCH   9  10
ENDBRANCH   8   9
ENDBRANCH   5   8
ENDBRANCH   3   5
TORSDOF 10
ENDMDL
MODEL       76
REMARK 921   NORMALIZED FREE ENERGY PREDICTED BY IDOCK:   -6.65 KCAL/MOL
REMARK 922        TOTAL FREE ENERGY PREDICTED BY IDOCK:  -12.19 KCAL/MOL
REMARK 923 INTER-LIGAND FREE ENERGY PREDICTED BY IDOCK:  -11.29 KCAL/MOL
REMARK 924 INTRA-LIGAND FREE ENERGY PREDICTED BY IDOCK:   -0.90 KCAL/MOL
REMARK 927      BINDING AFFINITY PREDICTED BY RF-SCORE:    0.00 PKD
ROOT
HETATM    1  O   UNL     1     -13.000  10.604  71.028  1.00  0.00    -0.366 OA 
HETATM    2  C   UNL     1     -12.163  11.506  70.456  1.00  0.00    -0.377 C  
HETATM    3  C   UNL     1     -12.523  12.938  70.794  1.00  0.00    -0.370 C  
HETATM    4  O   UNL     1     -11.202  11.155  69.790  1.00  0.00    -0.259 OA 
ENDROOT
BRANCH   3   5
HETATM    5  C   UNL     1     -12.013  13.966  69.785  1.00  0.00    -0.398 C  
HETATM    6  C   UNL     1     -10.851  14.846  70.227  1.00  0.00    -0.137 C  
HETATM    7  C   UNL     1     -12.232  15.430  70.130  1.00  0.00    -0.407 C  
BRANCH   5   8
HETATM    8  C   UNL     1     -12.147  13.484  68.345  1.00  0.00    -0.258 C  
BRANCH   8   9
HETATM    9  S   UNL     1     -11.761  14.642  67.017  1.00  0.00    -0.321 SA 
BRANCH   9  10
HETATM   10  C   UNL     1     -10.035  14.108  66.588  1.00  0.00    -0.277 C  
BRANCH  10  11
HETATM   11  C   UNL     1      -9.103  15.257  66.131  1.00  0.00    -0.314 C  
BRANCH  11  12
HETATM   12  C   UNL     1      -8.355  15.985  67.269  1.00  0.00    -0.205 C  
BRANCH  12  13
HETATM   13  C   UNL     1      -7.755  17.308  66.812  1.00  0.00    -0.279 A  
HETATM   14  C   UNL     1      -6.337  17.349  66.786  1.00  0.00    -0.237 A  
HETATM   15  C   UNL     1      -6.334  19.588  65.957  1.00  0.00    -0.209 A  
HETATM   16  H   UNL     1     -11.482  17.512  65.452  1.00  0.00     0.000 HD 
HETATM   17  C   UNL     1      -5.634  18.476  66.383  1.00  0.00    -0.179 A  
HETATM   18  C   UNL     1     -10.589  19.824  65.713  1.00  0.00    -0.522 C  
HETATM   19  C   UNL     1      -7.730  19.567  65.946  1.00  0.00    -0.288 A  
HETATM   20  C   UNL     1      -8.487  18.447  66.376  1.00  0.00    -0.264 A  
HETATM   21  O   UNL     1     -10.534  17.468  65.486  1.00  0.00    -0.628 OA 
HETATM   22  C   UNL     1     -10.675  18.375  67.705  1.00  0.00    -0.371 C  
HETATM   23  C   UNL     1     -10.027  18.518  66.321  1.00  0.00    -0.365 C  
ENDBRANCH  12  13
ENDBRANCH  11  12
ENDBRANCH  10  11
BRANCH  10  24
HETATM   24  C   UNL     1     -10.076  12.900  65.648  1.00  0.00    -0.282 A  
HETATM   25  C   UNL     1     -10.210  10.604  64.014  1.00  0.00    -0.334 A  
HETATM   26  C   UNL     1     -10.305  13.009  64.268  1.00  0.00    -0.385 A  
HETATM   27  C   UNL     1      -9.918  11.604  66.187  1.00  0.00    -0.252 A  
HETATM   28  C   UNL     1     -10.372  11.872  63.460  1.00  0.00    -0.495 A  
HETATM   29  C   UNL     1      -9.965  10.453  65.381  1.00  0.00    -0.362 A  
BRANCH  29  30
HETATM   30  C   UNL     1      -9.835   9.132  66.017  1.00  0.00    -0.342 C  
HETATM   31  C   UNL     1      -9.890   8.910  67.343  1.00  0.00    -0.247 C  
BRANCH  31  32
HETATM   32  C   UNL     1      -9.736   7.605  67.995  1.00  0.00    -0.152 A  
HETATM   33  N   UNL     1      -8.706   6.860  67.527  1.00  0.00    -0.120 NA 
HETATM   34  C   UNL     1      -8.526   5.620  68.018  1.00  0.00    -0.102 A  
HETATM   35  C   UNL     1      -9.383   5.066  68.991  1.00  0.00    -0.176 A  
HETATM   36  C   UNL     1     -10.442   5.849  69.456  1.00  0.00    -0.346 A  
HETATM   37  C   UNL     1      -9.175   3.757  69.463  1.00  0.00    -0.226 A  
HETATM   38  C   UNL     1      -8.121   2.996  68.967  1.00  0.00    -0.069 A  
HETATM   39  C   UNL     1     -10.626   7.130  68.948  1.00  0.00    -0.218 A  
HETATM   40  C   UNL     1      -7.271   3.547  68.014  1.00  0.00    -0.051 A  
HETATM   41  C   UNL     1      -7.475   4.846  67.549  1.00  0.00    -0.079 A  
HETATM   42 CL   UNL     1      -5.967   2.610  67.397  1.00  0.00    -0.023 Cl 
ENDBRANCH  31  32
ENDBRANCH  29  30
ENDBRANCH  10  24
ENDBRANCH   9  10
ENDBRANCH   8   9
ENDBRANCH   5   8
ENDBRANCH   3   5
TORSDOF 10
ENDMDL
MODEL       77
REMARK 921   NORMALIZED FREE ENERGY PREDICTED BY IDOCK:   -6.63 KCAL/MOL
REMARK 922        TOTAL FREE ENERGY PREDICTED BY IDOCK:  -12.17 KCAL/MOL
REMARK 923 INTER-LIGAND FREE ENERGY PREDICTED BY IDOCK:  -10.69 KCAL/MOL
REMARK 924 INTRA-LIGAND FREE ENERGY PREDICTED BY IDOCK:   -1.48 KCAL/MOL
REMARK 927      BINDING AFFINITY PREDICTED BY RF-SCORE:    0.00 PKD
ROOT
HETATM    1  O   UNL     1      -9.900  10.252  63.754  1.00  0.00    -0.299 OA 
HETATM    2  C   UNL     1      -9.442  10.107  65.024  1.00  0.00    -0.271 C  
HETATM    3  C   UNL     1      -9.268   8.655  65.422  1.00  0.00    -0.103 C  
HETATM    4  O   UNL     1      -9.162  11.070  65.718  1.00  0.00    -0.192 OA 
ENDROOT
BRANCH   3   5
HETATM    5  C   UNL     1      -9.308   8.411  66.930  1.00  0.00    -0.221 C  
HETATM    6  C   UNL     1      -8.183   9.022  67.755  1.00  0.00    -0.109 C  
HETATM    7  C   UNL     1      -8.207   7.540  67.512  1.00  0.00    -0.113 C  
BRANCH   5   8
HETATM    8  C   UNL     1     -10.731   8.318  67.467  1.00  0.00    -0.147 C  
BRANCH   8   9
HETATM    9  S   UNL     1     -11.144   6.942  68.559  1.00  0.00    -0.007 SA 
BRANCH   9  10
HETATM   10  C   UNL     1     -10.574   7.620  70.192  1.00  0.00    -0.236 C  
BRANCH  10  11
HETATM   11  C   UNL     1     -10.380   6.553  71.296  1.00  0.00    -0.234 C  
BRANCH  11  12
HETATM   12  C   UNL     1      -9.038   5.790  71.243  1.00  0.00    -0.151 C  
BRANCH  12  13
HETATM   13  C   UNL     1      -9.221   4.322  70.879  1.00  0.00    -0.203 A  
HETATM   14  C   UNL     1      -9.020   4.012  69.510  1.00  0.00    -0.163 A  
HETATM   15  C   UNL     1      -9.426   1.690  69.890  1.00  0.00    -0.134 A  
HETATM   16  H   UNL     1      -8.684   4.196  74.813  1.00  0.00     0.000 HD 
HETATM   17  C   UNL     1      -9.138   2.720  69.016  1.00  0.00    -0.202 A  
HETATM   18  C   UNL     1      -9.934   2.161  74.103  1.00  0.00    -0.147 C  
HETATM   19  C   UNL     1      -9.602   1.962  71.249  1.00  0.00    -0.213 A  
HETATM   20  C   UNL     1      -9.519   3.271  71.789  1.00  0.00    -0.215 A  
HETATM   21  O   UNL     1      -8.558   4.075  73.880  1.00  0.00    -0.093 OA 
HETATM   22  C   UNL     1     -10.928   4.366  73.627  1.00  0.00    -0.374 C  
HETATM   23  C   UNL     1      -9.724   3.469  73.305  1.00  0.00    -0.111 C  
ENDBRANCH  12  13
ENDBRANCH  11  12
ENDBRANCH  10  11
BRANCH  10  24
HETATM   24  C   UNL     1     -11.440   8.816  70.596  1.00  0.00    -0.263 A  
HETATM   25  C   UNL     1     -13.025  11.065  71.217  1.00  0.00    -0.472 A  
HETATM   26  C   UNL     1     -12.500   8.721  71.511  1.00  0.00    -0.374 A  
HETATM   27  C   UNL     1     -11.199  10.072  70.000  1.00  0.00    -0.345 A  
HETATM   28  C   UNL     1     -13.285   9.834  71.817  1.00  0.00    -0.532 A  
HETATM   29  C   UNL     1     -11.969  11.206  70.313  1.00  0.00    -0.460 A  
BRANCH  29  30
HETATM   30  C   UNL     1     -11.689  12.473  69.620  1.00  0.00    -0.372 C  
HETATM   31  C   UNL     1     -11.274  12.575  68.344  1.00  0.00    -0.313 C  
BRANCH  31  32
HETATM   32  C   UNL     1     -10.965  13.827  67.646  1.00  0.00    -0.264 A  
HETATM   33  N   UNL     1     -10.824  14.903  68.458  1.00  0.00    -0.240 NA 
HETATM   34  C   UNL     1     -10.605  16.109  67.904  1.00  0.00    -0.309 A  
HETATM   35  C   UNL     1     -10.533  16.293  66.508  1.00  0.00    -0.290 A  
HETATM   36  C   UNL     1     -10.686  15.172  65.689  1.00  0.00    -0.374 A  
HETATM   37  C   UNL     1     -10.325  17.574  65.966  1.00  0.00    -0.309 A  
HETATM   38  C   UNL     1     -10.193  18.675  66.807  1.00  0.00    -0.431 A  
HETATM   39  C   UNL     1     -10.912  13.926  66.263  1.00  0.00    -0.298 A  
HETATM   40  C   UNL     1     -10.256  18.491  68.185  1.00  0.00    -0.378 A  
HETATM   41  C   UNL     1     -10.458  17.220  68.722  1.00  0.00    -0.340 A  
HETATM   42 CL   UNL     1     -10.094  19.848  69.230  1.00  0.00    -0.390 Cl 
ENDBRANCH  31  32
ENDBRANCH  29  30
ENDBRANCH  10  24
ENDBRANCH   9  10
ENDBRANCH   8   9
ENDBRANCH   5   8
ENDBRANCH   3   5
TORSDOF 10
ENDMDL
MODEL       78
REMARK 921   NORMALIZED FREE ENERGY PREDICTED BY IDOCK:   -6.62 KCAL/MOL
REMARK 922        TOTAL FREE ENERGY PREDICTED BY IDOCK:  -12.14 KCAL/MOL
REMARK 923 INTER-LIGAND FREE ENERGY PREDICTED BY IDOCK:   -9.84 KCAL/MOL
REMARK 924 INTRA-LIGAND FREE ENERGY PREDICTED BY IDOCK:   -2.31 KCAL/MOL
REMARK 927      BINDING AFFINITY PREDICTED BY RF-SCORE:    0.00 PKD
ROOT
HETATM    1  O   UNL     1     -10.770  11.615  66.451  1.00  0.00    -0.251 OA 
HETATM    2  C   UNL     1      -9.996  10.596  66.904  1.00  0.00    -0.202 C  
HETATM    3  C   UNL     1      -9.767   9.524  65.859  1.00  0.00    -0.352 C  
HETATM    4  O   UNL     1      -9.511  10.609  68.024  1.00  0.00    -0.153 OA 
ENDROOT
BRANCH   3   5
HETATM    5  C   UNL     1      -9.411   8.154  66.436  1.00  0.00    -0.285 C  
HETATM    6  C   UNL     1      -7.938   7.886  66.713  1.00  0.00    -0.107 C  
HETATM    7  C   UNL     1      -8.607   7.223  65.543  1.00  0.00    -0.090 C  
BRANCH   5   8
HETATM    8  C   UNL     1     -10.506   7.601  67.340  1.00  0.00    -0.297 C  
BRANCH   8   9
HETATM    9  S   UNL     1     -10.753   5.815  67.389  1.00  0.00    -0.191 SA 
BRANCH   9  10
HETATM   10  C   UNL     1      -9.559   5.342  68.731  1.00  0.00    -0.137 C  
BRANCH  10  11
HETATM   11  C   UNL     1      -9.026   3.892  68.633  1.00  0.00    -0.170 C  
BRANCH  11  12
HETATM   12  C   UNL     1      -9.128   3.250  67.232  1.00  0.00    -0.201 C  
BRANCH  12  13
HETATM   13  C   UNL     1      -8.030   3.732  66.293  1.00  0.00    -0.089 A  
HETATM   14  C   UNL     1      -6.879   4.258  66.934  1.00  0.00    -0.052 A  
HETATM   15  C   UNL     1      -5.795   4.654  64.844  1.00  0.00    -0.014 A  
HETATM   16  H   UNL     1     -10.200   1.353  63.966  1.00  0.00     0.000 HD 
HETATM   17  C   UNL     1      -5.784   4.730  66.222  1.00  0.00    -0.018 A  
HETATM   18  C   UNL     1      -8.975   2.986  62.536  1.00  0.00    -0.084 C  
HETATM   19  C   UNL     1      -6.903   4.114  64.187  1.00  0.00    -0.045 A  
HETATM   20  C   UNL     1      -8.054   3.649  64.874  1.00  0.00    -0.090 A  
HETATM   21  O   UNL     1      -9.478   1.713  64.468  1.00  0.00    -0.134 OA 
HETATM   22  C   UNL     1     -10.526   3.862  64.240  1.00  0.00    -0.247 C  
HETATM   23  C   UNL     1      -9.226   3.064  64.059  1.00  0.00    -0.112 C  
ENDBRANCH  12  13
ENDBRANCH  11  12
ENDBRANCH  10  11
BRANCH  10  24
HETATM   24  C   UNL     1     -10.126   5.728  70.100  1.00  0.00    -0.274 A  
HETATM   25  C   UNL     1     -11.247   6.531  72.561  1.00  0.00    -0.298 A  
HETATM   26  C   UNL     1     -10.355   4.799  71.126  1.00  0.00    -0.188 A  
HETATM   27  C   UNL     1     -10.479   7.074  70.343  1.00  0.00    -0.225 A  
HETATM   28  C   UNL     1     -10.911   5.197  72.343  1.00  0.00    -0.265 A  
HETATM   29  C   UNL     1     -11.021   7.491  71.571  1.00  0.00    -0.256 A  
BRANCH  29  30
HETATM   30  C   UNL     1     -11.405   8.902  71.739  1.00  0.00    -0.431 C  
HETATM   31  C   UNL     1     -12.146   9.605  70.863  1.00  0.00    -0.383 C  
BRANCH  31  32
HETATM   32  C   UNL     1     -12.515  11.017  71.002  1.00  0.00    -0.409 A  
HETATM   33  N   UNL     1     -11.893  11.849  70.132  1.00  0.00    -0.330 NA 
HETATM   34  C   UNL     1     -12.118  13.173  70.226  1.00  0.00    -0.328 A  
HETATM   35  C   UNL     1     -12.967  13.722  71.209  1.00  0.00    -0.409 A  
HETATM   36  C   UNL     1     -13.594  12.848  72.098  1.00  0.00    -0.589 A  
HETATM   37  C   UNL     1     -13.159  15.114  71.289  1.00  0.00    -0.512 A  
HETATM   38  C   UNL     1     -12.506  15.961  70.398  1.00  0.00    -0.194 A  
HETATM   39  C   UNL     1     -13.361  11.481  72.000  1.00  0.00    -0.397 A  
HETATM   40  C   UNL     1     -11.676  15.416  69.424  1.00  0.00    -0.351 A  
HETATM   41  C   UNL     1     -11.489  14.036  69.342  1.00  0.00    -0.343 A  
HETATM   42 CL   UNL     1     -10.866  16.458  68.320  1.00  0.00    -0.334 Cl 
ENDBRANCH  31  32
ENDBRANCH  29  30
ENDBRANCH  10  24
ENDBRANCH   9  10
ENDBRANCH   8   9
ENDBRANCH   5   8
ENDBRANCH   3   5
TORSDOF 10
ENDMDL
MODEL       79
REMARK 921   NORMALIZED FREE ENERGY PREDICTED BY IDOCK:   -6.60 KCAL/MOL
REMARK 922        TOTAL FREE ENERGY PREDICTED BY IDOCK:  -12.12 KCAL/MOL
REMARK 923 INTER-LIGAND FREE ENERGY PREDICTED BY IDOCK:   -8.64 KCAL/MOL
REMARK 924 INTRA-LIGAND FREE ENERGY PREDICTED BY IDOCK:   -3.48 KCAL/MOL
REMARK 927      BINDING AFFINITY PREDICTED BY RF-SCORE:    0.00 PKD
ROOT
HETATM    1  O   UNL     1     -12.684   9.526  72.040  1.00  0.00    -0.380 OA 
HETATM    2  C   UNL     1     -11.654   8.643  71.990  1.00  0.00    -0.370 C  
HETATM    3  C   UNL     1     -11.057   8.517  70.603  1.00  0.00    -0.280 C  
HETATM    4  O   UNL     1     -11.250   8.073  72.990  1.00  0.00    -0.388 OA 
ENDROOT
BRANCH   3   5
HETATM    5  C   UNL     1     -10.322   7.199  70.356  1.00  0.00    -0.216 C  
HETATM    6  C   UNL     1     -10.854   6.315  69.237  1.00  0.00    -0.406 C  
HETATM    7  C   UNL     1     -11.085   5.922  70.668  1.00  0.00    -0.335 C  
BRANCH   5   8
HETATM    8  C   UNL     1      -8.831   7.300  70.654  1.00  0.00    -0.148 C  
BRANCH   8   9
HETATM    9  S   UNL     1      -8.017   8.892  70.411  1.00  0.00    -0.134 SA 
BRANCH   9  10
HETATM   10  C   UNL     1      -7.677   8.826  68.586  1.00  0.00    -0.098 C  
BRANCH  10  11
HETATM   11  C   UNL     1      -6.218   9.159  68.193  1.00  0.00    -0.054 C  
BRANCH  11  12
HETATM   12  C   UNL     1      -5.652   8.338  67.014  1.00  0.00    -0.037 C  
BRANCH  12  13
HETATM   13  C   UNL     1      -6.451   8.541  65.733  1.00  0.00    -0.053 A  
HETATM   14  C   UNL     1      -6.433   9.861  65.215  1.00  0.00    -0.101 A  
HETATM   15  C   UNL     1      -7.780   9.235  63.346  1.00  0.00    -0.121 A  
HETATM   16  H   UNL     1      -5.927   4.604  65.833  1.00  0.00     0.000 HD 
HETATM   17  C   UNL     1      -7.102  10.210  64.049  1.00  0.00    -0.103 A  
HETATM   18  C   UNL     1      -7.940   5.117  64.457  1.00  0.00    -0.106 C  
HETATM   19  C   UNL     1      -7.792   7.921  63.817  1.00  0.00    -0.141 A  
HETATM   20  C   UNL     1      -7.147   7.527  65.018  1.00  0.00    -0.060 A  
HETATM   21  O   UNL     1      -5.886   5.515  65.565  1.00  0.00    -0.020 OA 
HETATM   22  C   UNL     1      -7.913   5.862  66.807  1.00  0.00    -0.102 C  
HETATM   23  C   UNL     1      -7.212   6.049  65.453  1.00  0.00    -0.074 C  
ENDBRANCH  12  13
ENDBRANCH  11  12
ENDBRANCH  10  11
BRANCH  10  24
HETATM   24  C   UNL     1      -8.746   9.615  67.824  1.00  0.00    -0.122 A  
HETATM   25  C   UNL     1     -10.622  11.159  66.391  1.00  0.00    -0.315 A  
HETATM   26  C   UNL     1      -9.763   9.003  67.076  1.00  0.00    -0.247 A  
HETATM   27  C   UNL     1      -8.695  11.025  67.830  1.00  0.00    -0.133 A  
HETATM   28  C   UNL     1     -10.691   9.767  66.366  1.00  0.00    -0.013 A  
HETATM   29  C   UNL     1      -9.634  11.808  67.136  1.00  0.00    -0.189 A  
BRANCH  29  30
HETATM   30  C   UNL     1      -9.494  13.272  67.152  1.00  0.00    -0.240 C  
HETATM   31  C   UNL     1     -10.155  14.115  66.338  1.00  0.00    -0.299 C  
BRANCH  31  32
HETATM   32  C   UNL     1     -10.008  15.575  66.322  1.00  0.00    -0.293 A  
HETATM   33  N   UNL     1      -9.159  16.064  67.257  1.00  0.00    -0.202 NA 
HETATM   34  C   UNL     1      -9.009  17.397  67.364  1.00  0.00    -0.231 A  
HETATM   35  C   UNL     1      -9.719  18.301  66.547  1.00  0.00    -0.343 A  
HETATM   36  C   UNL     1     -10.593  17.775  65.593  1.00  0.00    -0.123 A  
HETATM   37  C   UNL     1      -9.552  19.688  66.704  1.00  0.00    -0.479 A  
HETATM   38  C   UNL     1      -8.686  20.181  67.675  1.00  0.00    -0.380 A  
HETATM   39  C   UNL     1     -10.746  16.398  65.484  1.00  0.00    -0.300 A  
HETATM   40  C   UNL     1      -7.980  19.289  68.475  1.00  0.00    -0.361 A  
HETATM   41  C   UNL     1      -8.143  17.913  68.316  1.00  0.00    -0.294 A  
HETATM   42 CL   UNL     1      -6.908  19.893  69.678  1.00  0.00    -0.350 Cl 
ENDBRANCH  31  32
ENDBRANCH  29  30
ENDBRANCH  10  24
ENDBRANCH   9  10
ENDBRANCH   8   9
ENDBRANCH   5   8
ENDBRANCH   3   5
TORSDOF 10
ENDMDL
MODEL       80
REMARK 921   NORMALIZED FREE ENERGY PREDICTED BY IDOCK:   -6.60 KCAL/MOL
REMARK 922        TOTAL FREE ENERGY PREDICTED BY IDOCK:  -12.11 KCAL/MOL
REMARK 923 INTER-LIGAND FREE ENERGY PREDICTED BY IDOCK:   -8.87 KCAL/MOL
REMARK 924 INTRA-LIGAND FREE ENERGY PREDICTED BY IDOCK:   -3.25 KCAL/MOL
REMARK 927      BINDING AFFINITY PREDICTED BY RF-SCORE:    0.00 PKD
ROOT
HETATM    1  O   UNL     1     -10.871   5.468  66.498  1.00  0.00    -0.288 OA 
HETATM    2  C   UNL     1      -9.612   5.420  65.994  1.00  0.00    -0.131 C  
HETATM    3  C   UNL     1      -8.729   6.536  66.516  1.00  0.00    -0.135 C  
HETATM    4  O   UNL     1      -9.256   4.526  65.243  1.00  0.00    -0.144 OA 
ENDROOT
BRANCH   3   5
HETATM    5  C   UNL     1      -7.545   6.872  65.609  1.00  0.00    -0.089 C  
HETATM    6  C   UNL     1      -6.446   5.823  65.497  1.00  0.00    -0.043 C  
HETATM    7  C   UNL     1      -6.200   7.077  66.288  1.00  0.00    -0.039 C  
BRANCH   5   8
HETATM    8  C   UNL     1      -7.949   7.735  64.420  1.00  0.00    -0.126 C  
BRANCH   8   9
HETATM    9  S   UNL     1      -7.435   9.464  64.406  1.00  0.00    -0.115 SA 
BRANCH   9  10
HETATM   10  C   UNL     1      -8.795  10.233  65.410  1.00  0.00    -0.172 C  
BRANCH  10  11
HETATM   11  C   UNL     1      -9.638  11.285  64.649  1.00  0.00    -0.265 C  
BRANCH  11  12
HETATM   12  C   UNL     1     -11.121  11.367  65.071  1.00  0.00    -0.215 C  
BRANCH  12  13
HETATM   13  C   UNL     1     -11.299  12.037  66.428  1.00  0.00    -0.411 A  
HETATM   14  C   UNL     1     -11.447  11.148  67.523  1.00  0.00    -0.296 A  
HETATM   15  C   UNL     1     -11.589  12.955  69.078  1.00  0.00    -0.372 A  
HETATM   16  H   UNL     1      -9.737  14.938  64.209  1.00  0.00     0.000 HD 
HETATM   17  C   UNL     1     -11.608  11.597  68.827  1.00  0.00    -0.374 A  
HETATM   18  C   UNL     1     -10.997  15.958  66.101  1.00  0.00    -0.126 C  
HETATM   19  C   UNL     1     -11.417  13.853  68.021  1.00  0.00    -0.339 A  
HETATM   20  C   UNL     1     -11.279  13.438  66.672  1.00  0.00    -0.330 A  
HETATM   21  O   UNL     1      -9.854  14.280  64.883  1.00  0.00    -0.213 OA 
HETATM   22  C   UNL     1     -12.221  14.496  64.538  1.00  0.00    -0.483 C  
HETATM   23  C   UNL     1     -11.089  14.506  65.576  1.00  0.00    -0.339 C  
ENDBRANCH  12  13
ENDBRANCH  11  12
ENDBRANCH  10  11
BRANCH  10  24
HETATM   24  C   UNL     1      -8.251  10.700  66.763  1.00  0.00    -0.130 A  
HETATM   25  C   UNL     1      -7.317  11.673  69.241  1.00  0.00     0.025 A  
HETATM   26  C   UNL     1      -8.017   9.830  67.838  1.00  0.00    -0.104 A  
HETATM   27  C   UNL     1      -8.004  12.075  66.967  1.00  0.00    -0.150 A  
HETATM   28  C   UNL     1      -7.557  10.312  69.065  1.00  0.00    -0.102 A  
HETATM   29  C   UNL     1      -7.522  12.571  68.191  1.00  0.00    -0.117 A  
BRANCH  29  30
HETATM   30  C   UNL     1      -7.329  14.022  68.346  1.00  0.00    -0.113 C  
HETATM   31  C   UNL     1      -7.649  14.942  67.418  1.00  0.00    -0.232 C  
BRANCH  31  32
HETATM   32  C   UNL     1      -7.440  16.389  67.546  1.00  0.00    -0.141 A  
HETATM   33  N   UNL     1      -7.117  17.014  66.388  1.00  0.00    -0.260 NA 
HETATM   34  C   UNL     1      -6.841  18.331  66.417  1.00  0.00    -0.226 A  
HETATM   35  C   UNL     1      -6.861  19.076  67.614  1.00  0.00    -0.228 A  
HETATM   36  C   UNL     1      -7.192  18.411  68.796  1.00  0.00    -0.300 A  
HETATM   37  C   UNL     1      -6.544  20.447  67.606  1.00  0.00    -0.312 A  
HETATM   38  C   UNL     1      -6.202  21.078  66.414  1.00  0.00    -0.330 A  
HETATM   39  C   UNL     1      -7.477  17.051  68.765  1.00  0.00    -0.242 A  
HETATM   40  C   UNL     1      -6.190  20.343  65.233  1.00  0.00    -0.257 A  
HETATM   41  C   UNL     1      -6.509  18.985  65.240  1.00  0.00    -0.301 A  
HETATM   42 CL   UNL     1      -5.768  21.117  63.755  1.00  0.00    -0.301 Cl 
ENDBRANCH  31  32
ENDBRANCH  29  30
ENDBRANCH  10  24
ENDBRANCH   9  10
ENDBRANCH   8   9
ENDBRANCH   5   8
ENDBRANCH   3   5
TORSDOF 10
ENDMDL
MODEL       81
REMARK 921   NORMALIZED FREE ENERGY PREDICTED BY IDOCK:   -6.59 KCAL/MOL
REMARK 922        TOTAL FREE ENERGY PREDICTED BY IDOCK:  -12.10 KCAL/MOL
REMARK 923 INTER-LIGAND FREE ENERGY PREDICTED BY IDOCK:   -8.93 KCAL/MOL
REMARK 924 INTRA-LIGAND FREE ENERGY PREDICTED BY IDOCK:   -3.17 KCAL/MOL
REMARK 927      BINDING AFFINITY PREDICTED BY RF-SCORE:    0.00 PKD
ROOT
HETATM    1  O   UNL     1      -9.105   5.744  68.862  1.00  0.00    -0.115 OA 
HETATM    2  C   UNL     1      -9.898   5.672  69.961  1.00  0.00    -0.186 C  
HETATM    3  C   UNL     1     -11.081   6.616  69.894  1.00  0.00    -0.403 C  
HETATM    4  O   UNL     1      -9.675   4.878  70.861  1.00  0.00    -0.169 OA 
ENDROOT
BRANCH   3   5
HETATM    5  C   UNL     1     -11.661   6.990  71.258  1.00  0.00    -0.342 C  
HETATM    6  C   UNL     1     -12.388   5.891  72.020  1.00  0.00     0.139 C  
HETATM    7  C   UNL     1     -13.176   6.997  71.379  1.00  0.00    -0.352 C  
BRANCH   5   8
HETATM    8  C   UNL     1     -10.824   8.040  71.978  1.00  0.00    -0.272 C  
BRANCH   8   9
HETATM    9  S   UNL     1     -10.250   9.469  71.036  1.00  0.00    -0.185 SA 
BRANCH   9  10
HETATM   10  C   UNL     1     -11.843  10.028  70.262  1.00  0.00    -0.216 C  
BRANCH  10  11
HETATM   11  C   UNL     1     -11.868   9.948  68.717  1.00  0.00     0.495 C  
BRANCH  11  12
HETATM   12  C   UNL     1     -10.485  10.021  68.034  1.00  0.00    -0.260 C  
BRANCH  12  13
HETATM   13  C   UNL     1     -10.224  11.383  67.403  1.00  0.00    -0.221 A  
HETATM   14  C   UNL     1     -11.382  12.076  66.968  1.00  0.00    -0.396 A  
HETATM   15  C   UNL     1     -10.090  13.950  66.246  1.00  0.00    -0.306 A  
HETATM   16  H   UNL     1      -6.873  10.689  69.422  1.00  0.00     0.000 HD 
HETATM   17  C   UNL     1     -11.318  13.333  66.381  1.00  0.00    -0.341 A  
HETATM   18  C   UNL     1      -6.388  12.293  67.577  1.00  0.00    -0.139 C  
HETATM   19  C   UNL     1      -8.935  13.302  66.691  1.00  0.00    -0.137 A  
HETATM   20  C   UNL     1      -8.953  12.007  67.269  1.00  0.00    -0.180 A  
HETATM   21  O   UNL     1      -7.692  11.077  69.135  1.00  0.00    -0.131 OA 
HETATM   22  C   UNL     1      -7.293  10.077  66.988  1.00  0.00    -0.091 C  
HETATM   23  C   UNL     1      -7.624  11.377  67.735  1.00  0.00    -0.105 C  
ENDBRANCH  12  13
ENDBRANCH  11  12
ENDBRANCH  10  11
BRANCH  10  24
HETATM   24  C   UNL     1     -12.264  11.381  70.844  1.00  0.00    -0.447 A  
HETATM   25  C   UNL     1     -13.024  13.927  71.794  1.00  0.00    -0.442 A  
HETATM   26  C   UNL     1     -13.227  11.516  71.854  1.00  0.00    -0.479 A  
HETATM   27  C   UNL     1     -11.693  12.562  70.321  1.00  0.00    -0.200 A  
HETATM   28  C   UNL     1     -13.604  12.776  72.324  1.00  0.00    -0.563 A  
HETATM   29  C   UNL     1     -12.048  13.835  70.797  1.00  0.00    -0.395 A  
BRANCH  29  30
HETATM   30  C   UNL     1     -11.444  15.024  70.175  1.00  0.00    -0.314 C  
HETATM   31  C   UNL     1     -10.218  15.062  69.623  1.00  0.00    -0.171 C  
BRANCH  31  32
HETATM   32  C   UNL     1      -9.590  16.244  69.023  1.00  0.00    -0.257 A  
HETATM   33  N   UNL     1     -10.373  16.909  68.140  1.00  0.00    -0.318 NA 
HETATM   34  C   UNL     1      -9.861  17.969  67.488  1.00  0.00    -0.309 A  
HETATM   35  C   UNL     1      -8.532  18.399  67.682  1.00  0.00    -0.264 A  
HETATM   36  C   UNL     1      -7.741  17.696  68.592  1.00  0.00    -0.281 A  
HETATM   37  C   UNL     1      -8.026  19.498  66.964  1.00  0.00    -0.294 A  
HETATM   38  C   UNL     1      -8.835  20.168  66.051  1.00  0.00    -0.194 A  
HETATM   39  C   UNL     1      -8.272  16.602  69.265  1.00  0.00    -0.027 A  
HETATM   40  C   UNL     1     -10.148  19.748  65.867  1.00  0.00    -0.419 A  
HETATM   41  C   UNL     1     -10.651  18.661  66.582  1.00  0.00    -0.410 A  
HETATM   42 CL   UNL     1     -11.153  20.572  64.739  1.00  0.00     0.772 Cl 
ENDBRANCH  31  32
ENDBRANCH  29  30
ENDBRANCH  10  24
ENDBRANCH   9  10
ENDBRANCH   8   9
ENDBRANCH   5   8
ENDBRANCH   3   5
TORSDOF 10
ENDMDL
MODEL       82
REMARK 921   NORMALIZED FREE ENERGY PREDICTED BY IDOCK:   -6.58 KCAL/MOL
REMARK 922        TOTAL FREE ENERGY PREDICTED BY IDOCK:  -12.08 KCAL/MOL
REMARK 923 INTER-LIGAND FREE ENERGY PREDICTED BY IDOCK:  -10.82 KCAL/MOL
REMARK 924 INTRA-LIGAND FREE ENERGY PREDICTED BY IDOCK:   -1.26 KCAL/MOL
REMARK 927      BINDING AFFINITY PREDICTED BY RF-SCORE:    0.00 PKD
ROOT
HETATM    1  O   UNL     1     -12.847  13.260  64.106  1.00  0.00    -0.640 OA 
HETATM    2  C   UNL     1     -11.566  12.811  64.087  1.00  0.00    -0.396 C  
HETATM    3  C   UNL     1     -11.400  11.481  64.794  1.00  0.00    -0.206 C  
HETATM    4  O   UNL     1     -10.683  13.419  63.505  1.00  0.00     0.093 OA 
ENDROOT
BRANCH   3   5
HETATM    5  C   UNL     1      -9.979  11.209  65.288  1.00  0.00    -0.311 C  
HETATM    6  C   UNL     1      -9.012  10.586  64.291  1.00  0.00    -0.237 C  
HETATM    7  C   UNL     1      -9.565   9.752  65.412  1.00  0.00    -0.359 C  
BRANCH   5   8
HETATM    8  C   UNL     1      -9.515  12.234  66.317  1.00  0.00    -0.231 C  
BRANCH   8   9
HETATM    9  S   UNL     1      -9.648  11.810  68.065  1.00  0.00    -0.192 SA 
BRANCH   9  10
HETATM   10  C   UNL     1     -10.902  13.060  68.625  1.00  0.00    -0.259 C  
BRANCH  10  11
HETATM   11  C   UNL     1     -10.335  14.483  68.845  1.00  0.00    -0.237 C  
BRANCH  11  12
HETATM   12  C   UNL     1      -9.344  14.968  67.763  1.00  0.00    -0.186 C  
BRANCH  12  13
HETATM   13  C   UNL     1      -8.028  15.449  68.359  1.00  0.00    -0.131 A  
HETATM   14  C   UNL     1      -7.204  14.431  68.903  1.00  0.00    -0.125 A  
HETATM   15  C   UNL     1      -5.502  16.001  69.484  1.00  0.00    -0.122 A  
HETATM   16  H   UNL     1      -9.101  18.478  66.023  1.00  0.00     0.000 HD 
HETATM   17  C   UNL     1      -5.968  14.701  69.474  1.00  0.00    -0.106 A  
HETATM   18  C   UNL     1      -7.578  19.330  67.802  1.00  0.00    -0.292 C  
HETATM   19  C   UNL     1      -6.280  17.021  68.930  1.00  0.00    -0.176 A  
HETATM   20  C   UNL     1      -7.560  16.792  68.364  1.00  0.00    -0.205 A  
HETATM   21  O   UNL     1      -8.621  17.744  66.387  1.00  0.00    -0.289 OA 
HETATM   22  C   UNL     1      -9.676  18.231  68.488  1.00  0.00    -0.379 C  
HETATM   23  C   UNL     1      -8.340  17.985  67.772  1.00  0.00    -0.249 C  
ENDBRANCH  12  13
ENDBRANCH  11  12
ENDBRANCH  10  11
BRANCH  10  24
HETATM   24  C   UNL     1     -11.713  12.502  69.798  1.00  0.00    -0.355 A  
HETATM   25  C   UNL     1     -13.106  11.394  71.987  1.00  0.00    -0.423 A  
HETATM   26  C   UNL     1     -12.569  13.290  70.582  1.00  0.00    -0.305 A  
HETATM   27  C   UNL     1     -11.574  11.141  70.145  1.00  0.00    -0.410 A  
HETATM   28  C   UNL     1     -13.258  12.741  71.666  1.00  0.00    -0.410 A  
HETATM   29  C   UNL     1     -12.276  10.571  71.222  1.00  0.00    -0.472 A  
BRANCH  29  30
HETATM   30  C   UNL     1     -12.048   9.155  71.552  1.00  0.00    -0.422 C  
HETATM   31  C   UNL     1     -10.847   8.548  71.542  1.00  0.00    -0.332 C  
BRANCH  31  32
HETATM   32  C   UNL     1     -10.606   7.133  71.842  1.00  0.00    -0.213 A  
HETATM   33  N   UNL     1     -10.176   6.399  70.788  1.00  0.00    -0.187 NA 
HETATM   34  C   UNL     1      -9.991   5.076  70.950  1.00  0.00    -0.216 A  
HETATM   35  C   UNL     1     -10.244   4.427  72.176  1.00  0.00    -0.247 A  
HETATM   36  C   UNL     1     -10.692   5.201  73.248  1.00  0.00    -0.318 A  
HETATM   37  C   UNL     1     -10.060   3.038  72.299  1.00  0.00    -0.219 A  
HETATM   38  C   UNL     1      -9.629   2.291  71.206  1.00  0.00    -0.221 A  
HETATM   39  C   UNL     1     -10.883   6.568  73.079  1.00  0.00    -0.291 A  
HETATM   40  C   UNL     1      -9.371   2.935  70.001  1.00  0.00    -0.142 A  
HETATM   41  C   UNL     1      -9.550   4.313  69.880  1.00  0.00    -0.279 A  
HETATM   42 CL   UNL     1      -8.838   2.017  68.646  1.00  0.00    -0.125 Cl 
ENDBRANCH  31  32
ENDBRANCH  29  30
ENDBRANCH  10  24
ENDBRANCH   9  10
ENDBRANCH   8   9
ENDBRANCH   5   8
ENDBRANCH   3   5
TORSDOF 10
ENDMDL
MODEL       83
REMARK 921   NORMALIZED FREE ENERGY PREDICTED BY IDOCK:   -6.51 KCAL/MOL
REMARK 922        TOTAL FREE ENERGY PREDICTED BY IDOCK:  -11.97 KCAL/MOL
REMARK 923 INTER-LIGAND FREE ENERGY PREDICTED BY IDOCK:  -10.15 KCAL/MOL
REMARK 924 INTRA-LIGAND FREE ENERGY PREDICTED BY IDOCK:   -1.83 KCAL/MOL
REMARK 927      BINDING AFFINITY PREDICTED BY RF-SCORE:    0.00 PKD
ROOT
HETATM    1  O   UNL     1     -13.009  11.961  63.396  1.00  0.00    -0.730 OA 
HETATM    2  C   UNL     1     -12.500  12.520  64.524  1.00  0.00    -0.459 C  
HETATM    3  C   UNL     1     -11.062  12.117  64.781  1.00  0.00    -0.364 C  
HETATM    4  O   UNL     1     -13.149  13.302  65.200  1.00  0.00    -0.705 OA 
ENDROOT
BRANCH   3   5
HETATM    5  C   UNL     1     -10.633  12.233  66.244  1.00  0.00    -0.282 C  
HETATM    6  C   UNL     1     -10.659  13.626  66.859  1.00  0.00    -0.271 C  
HETATM    7  C   UNL     1      -9.342  12.987  66.520  1.00  0.00    -0.220 C  
BRANCH   5   8
HETATM    8  C   UNL     1     -10.993  10.995  67.056  1.00  0.00    -0.272 C  
BRANCH   8   9
HETATM    9  S   UNL     1     -10.951  11.113  68.856  1.00  0.00    -0.245 SA 
BRANCH   9  10
HETATM   10  C   UNL     1      -9.781   9.728  69.261  1.00  0.00    -0.196 C  
BRANCH  10  11
HETATM   11  C   UNL     1     -10.269   8.787  70.389  1.00  0.00    -0.228 C  
BRANCH  11  12
HETATM   12  C   UNL     1     -11.097   7.572  69.916  1.00  0.00    -0.185 C  
BRANCH  12  13
HETATM   13  C   UNL     1     -10.813   6.322  70.739  1.00  0.00    -0.339 A  
HETATM   14  C   UNL     1     -11.385   6.314  72.037  1.00  0.00    -0.348 A  
HETATM   15  C   UNL     1     -10.524   4.133  72.492  1.00  0.00    -0.205 A  
HETATM   16  H   UNL     1     -10.056   5.126  67.027  1.00  0.00     0.000 HD 
HETATM   17  C   UNL     1     -11.230   5.245  72.909  1.00  0.00    -0.375 A  
HETATM   18  C   UNL     1      -8.795   3.679  68.615  1.00  0.00    -0.159 C  
HETATM   19  C   UNL     1      -9.974   4.103  71.208  1.00  0.00    -0.216 A  
HETATM   20  C   UNL     1     -10.084   5.184  70.297  1.00  0.00    -0.338 A  
HETATM   21  O   UNL     1     -10.450   5.207  67.888  1.00  0.00    -0.129 OA 
HETATM   22  C   UNL     1      -8.355   6.105  68.646  1.00  0.00    -0.114 C  
HETATM   23  C   UNL     1      -9.445   5.053  68.899  1.00  0.00    -0.140 C  
ENDBRANCH  12  13
ENDBRANCH  11  12
ENDBRANCH  10  11
BRANCH  10  24
HETATM   24  C   UNL     1      -8.363  10.275  69.447  1.00  0.00    -0.169 A  
HETATM   25  C   UNL     1      -5.803  11.401  69.821  1.00  0.00    -0.099 A  
HETATM   26  C   UNL     1      -7.307   9.509  69.962  1.00  0.00    -0.115 A  
HETATM   27  C   UNL     1      -8.099  11.625  69.126  1.00  0.00     0.186 A  
HETATM   28  C   UNL     1      -6.040  10.067  70.148  1.00  0.00    -0.070 A  
HETATM   29  C   UNL     1      -6.824  12.193  69.291  1.00  0.00    -0.052 A  
BRANCH  29  30
HETATM   30  C   UNL     1      -6.633  13.618  68.977  1.00  0.00    -0.109 C  
HETATM   31  C   UNL     1      -7.308  14.629  69.554  1.00  0.00    -0.107 C  
BRANCH  31  32
HETATM   32  C   UNL     1      -7.149  16.051  69.235  1.00  0.00    -0.220 A  
HETATM   33  N   UNL     1      -8.119  16.561  68.438  1.00  0.00    -0.187 NA 
HETATM   34  C   UNL     1      -8.023  17.842  68.036  1.00  0.00    -0.244 A  
HETATM   35  C   UNL     1      -6.939  18.665  68.405  1.00  0.00    -0.278 A  
HETATM   36  C   UNL     1      -5.948  18.119  69.223  1.00  0.00    -0.235 A  
HETATM   37  C   UNL     1      -6.864  19.993  67.946  1.00  0.00    -0.306 A  
HETATM   38  C   UNL     1      -7.859  20.503  67.118  1.00  0.00    -0.363 A  
HETATM   39  C   UNL     1      -6.049  16.795  69.636  1.00  0.00    -0.223 A  
HETATM   40  C   UNL     1      -8.932  19.692  66.763  1.00  0.00    -0.354 A  
HETATM   41  C   UNL     1      -9.009  18.377  67.221  1.00  0.00    -0.265 A  
HETATM   42 CL   UNL     1     -10.166  20.318  65.739  1.00  0.00    -0.413 Cl 
ENDBRANCH  31  32
ENDBRANCH  29  30
ENDBRANCH  10  24
ENDBRANCH   9  10
ENDBRANCH   8   9
ENDBRANCH   5   8
ENDBRANCH   3   5
TORSDOF 10
ENDMDL
MODEL       84
REMARK 921   NORMALIZED FREE ENERGY PREDICTED BY IDOCK:   -6.50 KCAL/MOL
REMARK 922        TOTAL FREE ENERGY PREDICTED BY IDOCK:  -11.95 KCAL/MOL
REMARK 923 INTER-LIGAND FREE ENERGY PREDICTED BY IDOCK:  -11.01 KCAL/MOL
REMARK 924 INTRA-LIGAND FREE ENERGY PREDICTED BY IDOCK:   -0.94 KCAL/MOL
REMARK 927      BINDING AFFINITY PREDICTED BY RF-SCORE:    0.00 PKD
ROOT
HETATM    1  O   UNL     1      -9.975   4.667  73.630  1.00  0.00    -0.144 OA 
HETATM    2  C   UNL     1     -10.695   5.321  72.683  1.00  0.00    -0.239 C  
HETATM    3  C   UNL     1      -9.897   5.598  71.425  1.00  0.00    -0.221 C  
HETATM    4  O   UNL     1     -11.874   5.592  72.849  1.00  0.00    -0.247 OA 
ENDROOT
BRANCH   3   5
HETATM    5  C   UNL     1     -10.425   6.767  70.594  1.00  0.00    -0.243 C  
HETATM    6  C   UNL     1     -11.399   6.428  69.474  1.00  0.00    -0.460 C  
HETATM    7  C   UNL     1      -9.989   6.824  69.139  1.00  0.00    -0.166 C  
BRANCH   5   8
HETATM    8  C   UNL     1     -10.561   8.047  71.410  1.00  0.00    -0.216 C  
BRANCH   8   9
HETATM    9  S   UNL     1      -9.919   9.580  70.708  1.00  0.00    -0.206 SA 
BRANCH   9  10
HETATM   10  C   UNL     1     -11.410  10.178  69.775  1.00  0.00    -0.256 C  
BRANCH  10  11
HETATM   11  C   UNL     1     -11.213  10.267  68.242  1.00  0.00    -0.295 C  
BRANCH  11  12
HETATM   12  C   UNL     1     -10.644  11.609  67.731  1.00  0.00    -0.227 C  
BRANCH  12  13
HETATM   13  C   UNL     1      -9.149  11.532  67.447  1.00  0.00    -0.166 A  
HETATM   14  C   UNL     1      -8.322  12.194  68.391  1.00  0.00    -0.143 A  
HETATM   15  C   UNL     1      -6.337  11.528  67.243  1.00  0.00    -0.107 A  
HETATM   16  H   UNL     1     -10.616   8.549  65.271  1.00  0.00     0.000 HD 
HETATM   17  C   UNL     1      -6.938  12.209  68.283  1.00  0.00    -0.080 A  
HETATM   18  C   UNL     1      -8.440   9.269  64.294  1.00  0.00    -0.202 C  
HETATM   19  C   UNL     1      -7.126  10.844  66.315  1.00  0.00    -0.119 A  
HETATM   20  C   UNL     1      -8.543  10.827  66.371  1.00  0.00    -0.159 A  
HETATM   21  O   UNL     1     -10.135   9.035  65.930  1.00  0.00    -0.240 OA 
HETATM   22  C   UNL     1     -10.250  10.934  64.464  1.00  0.00    -0.422 C  
HETATM   23  C   UNL     1      -9.325  10.038  65.301  1.00  0.00    -0.237 C  
ENDBRANCH  12  13
ENDBRANCH  11  12
ENDBRANCH  10  11
BRANCH  10  24
HETATM   24  C   UNL     1     -11.965  11.447  70.428  1.00  0.00    -0.465 A  
HETATM   25  C   UNL     1     -12.986  13.843  71.512  1.00  0.00    -0.436 A  
HETATM   26  C   UNL     1     -12.887  11.425  71.485  1.00  0.00    -0.508 A  
HETATM   27  C   UNL     1     -11.570  12.707  69.929  1.00  0.00    -0.248 A  
HETATM   28  C   UNL     1     -13.394  12.611  72.020  1.00  0.00    -0.555 A  
HETATM   29  C   UNL     1     -12.057  13.909  70.471  1.00  0.00    -0.426 A  
BRANCH  29  30
HETATM   30  C   UNL     1     -11.634  15.185  69.872  1.00  0.00    -0.329 C  
HETATM   31  C   UNL     1     -10.438  15.404  69.297  1.00  0.00    -0.251 C  
BRANCH  31  32
HETATM   32  C   UNL     1      -9.991  16.676  68.719  1.00  0.00    -0.265 A  
HETATM   33  N   UNL     1      -9.013  16.558  67.789  1.00  0.00    -0.201 NA 
HETATM   34  C   UNL     1      -8.492  17.675  67.250  1.00  0.00    -0.216 A  
HETATM   35  C   UNL     1      -8.919  18.963  67.632  1.00  0.00    -0.313 A  
HETATM   36  C   UNL     1      -9.925  19.062  68.596  1.00  0.00    -0.482 A  
HETATM   37  C   UNL     1      -8.333  20.108  67.061  1.00  0.00    -0.382 A  
HETATM   38  C   UNL     1      -7.321  19.976  66.116  1.00  0.00    -0.319 A  
HETATM   39  C   UNL     1     -10.462  17.907  69.152  1.00  0.00    -0.002 A  
HETATM   40  C   UNL     1      -6.907  18.705  65.733  1.00  0.00    -0.272 A  
HETATM   41  C   UNL     1      -7.490  17.570  66.296  1.00  0.00    -0.355 A  
HETATM   42 CL   UNL     1      -5.655  18.536  64.565  1.00  0.00    -0.191 Cl 
ENDBRANCH  31  32
ENDBRANCH  29  30
ENDBRANCH  10  24
ENDBRANCH   9  10
ENDBRANCH   8   9
ENDBRANCH   5   8
ENDBRANCH   3   5
TORSDOF 10
ENDMDL
MODEL       85
REMARK 921   NORMALIZED FREE ENERGY PREDICTED BY IDOCK:   -6.49 KCAL/MOL
REMARK 922        TOTAL FREE ENERGY PREDICTED BY IDOCK:  -11.94 KCAL/MOL
REMARK 923 INTER-LIGAND FREE ENERGY PREDICTED BY IDOCK:   -9.68 KCAL/MOL
REMARK 924 INTRA-LIGAND FREE ENERGY PREDICTED BY IDOCK:   -2.26 KCAL/MOL
REMARK 927      BINDING AFFINITY PREDICTED BY RF-SCORE:    0.00 PKD
ROOT
HETATM    1  O   UNL     1     -10.249   6.578  74.534  1.00  0.00    -0.358 OA 
HETATM    2  C   UNL     1     -10.050   7.318  73.414  1.00  0.00    -0.320 C  
HETATM    3  C   UNL     1     -11.327   7.945  72.890  1.00  0.00    -0.399 C  
HETATM    4  O   UNL     1      -8.936   7.479  72.942  1.00  0.00    -0.137 OA 
ENDROOT
BRANCH   3   5
HETATM    5  C   UNL     1     -11.288   8.292  71.402  1.00  0.00    -0.309 C  
HETATM    6  C   UNL     1     -10.514   9.543  71.008  1.00  0.00    -0.377 C  
HETATM    7  C   UNL     1     -12.016   9.556  70.975  1.00  0.00    -0.407 C  
BRANCH   5   8
HETATM    8  C   UNL     1     -11.307   7.053  70.514  1.00  0.00    -0.312 C  
BRANCH   8   9
HETATM    9  S   UNL     1      -9.930   6.795  69.377  1.00  0.00    -0.160 SA 
BRANCH   9  10
HETATM   10  C   UNL     1     -10.779   7.062  67.747  1.00  0.00    -0.231 C  
BRANCH  10  11
HETATM   11  C   UNL     1     -11.006   5.772  66.924  1.00  0.00    -0.242 C  
BRANCH  11  12
HETATM   12  C   UNL     1      -9.960   4.658  67.148  1.00  0.00    -0.215 C  
BRANCH  12  13
HETATM   13  C   UNL     1      -9.185   4.328  65.879  1.00  0.00    -0.145 A  
HETATM   14  C   UNL     1      -9.985   4.006  64.753  1.00  0.00    -0.210 A  
HETATM   15  C   UNL     1      -8.063   3.727  63.363  1.00  0.00    -0.088 A  
HETATM   16  H   UNL     1      -6.502   6.273  68.070  1.00  0.00     0.000 HD 
HETATM   17  C   UNL     1      -9.435   3.692  63.517  1.00  0.00    -0.127 A  
HETATM   18  C   UNL     1      -5.310   4.814  66.439  1.00  0.00    -0.009 C  
HETATM   19  C   UNL     1      -7.252   4.069  64.448  1.00  0.00    -0.062 A  
HETATM   20  C   UNL     1      -7.771   4.368  65.734  1.00  0.00    -0.090 A  
HETATM   21  O   UNL     1      -7.104   6.045  67.372  1.00  0.00    -0.070 OA 
HETATM   22  C   UNL     1      -6.851   3.753  68.044  1.00  0.00    -0.047 C  
HETATM   23  C   UNL     1      -6.793   4.739  66.868  1.00  0.00    -0.056 C  
ENDBRANCH  12  13
ENDBRANCH  11  12
ENDBRANCH  10  11
BRANCH  10  24
HETATM   24  C   UNL     1     -10.103   8.204  66.983  1.00  0.00    -0.350 A  
HETATM   25  C   UNL     1      -8.844  10.372  65.689  1.00  0.00    -0.190 A  
HETATM   26  C   UNL     1      -9.251   7.995  65.888  1.00  0.00    -0.128 A  
HETATM   27  C   UNL     1     -10.304   9.533  67.412  1.00  0.00    -0.319 A  
HETATM   28  C   UNL     1      -8.627   9.068  65.249  1.00  0.00    -0.199 A  
HETATM   29  C   UNL     1      -9.697  10.625  66.766  1.00  0.00    -0.222 A  
BRANCH  29  30
HETATM   30  C   UNL     1      -9.918  11.980  67.296  1.00  0.00    -0.205 C  
HETATM   31  C   UNL     1     -10.184  13.064  66.544  1.00  0.00    -0.270 C  
BRANCH  31  32
HETATM   32  C   UNL     1     -10.380  14.425  67.052  1.00  0.00    -0.263 A  
HETATM   33  N   UNL     1      -9.583  15.360  66.480  1.00  0.00    -0.256 NA 
HETATM   34  C   UNL     1      -9.644  16.627  66.928  1.00  0.00    -0.249 A  
HETATM   35  C   UNL     1     -10.497  17.011  67.983  1.00  0.00    -0.353 A  
HETATM   36  C   UNL     1     -11.307  16.031  68.562  1.00  0.00    -0.382 A  
HETATM   37  C   UNL     1     -10.516  18.342  68.437  1.00  0.00    -0.292 A  
HETATM   38  C   UNL     1      -9.685  19.292  67.851  1.00  0.00    -0.422 A  
HETATM   39  C   UNL     1     -11.243  14.722  68.098  1.00  0.00    -0.307 A  
HETATM   40  C   UNL     1      -8.850  18.913  66.805  1.00  0.00    -0.309 A  
HETATM   41  C   UNL     1      -8.835  17.594  66.351  1.00  0.00    -0.263 A  
HETATM   42 CL   UNL     1      -7.819  20.083  66.076  1.00  0.00    -0.328 Cl 
ENDBRANCH  31  32
ENDBRANCH  29  30
ENDBRANCH  10  24
ENDBRANCH   9  10
ENDBRANCH   8   9
ENDBRANCH   5   8
ENDBRANCH   3   5
TORSDOF 10
ENDMDL
MODEL       86
REMARK 921   NORMALIZED FREE ENERGY PREDICTED BY IDOCK:   -6.48 KCAL/MOL
REMARK 922        TOTAL FREE ENERGY PREDICTED BY IDOCK:  -11.92 KCAL/MOL
REMARK 923 INTER-LIGAND FREE ENERGY PREDICTED BY IDOCK:  -10.60 KCAL/MOL
REMARK 924 INTRA-LIGAND FREE ENERGY PREDICTED BY IDOCK:   -1.32 KCAL/MOL
REMARK 927      BINDING AFFINITY PREDICTED BY RF-SCORE:    0.00 PKD
ROOT
HETATM    1  O   UNL     1      -6.520  16.145  68.029  1.00  0.00    -0.117 OA 
HETATM    2  C   UNL     1      -7.869  16.067  68.149  1.00  0.00    -0.141 C  
HETATM    3  C   UNL     1      -8.586  16.218  66.822  1.00  0.00    -0.273 C  
HETATM    4  O   UNL     1      -8.406  15.844  69.222  1.00  0.00    -0.237 OA 
ENDROOT
BRANCH   3   5
HETATM    5  C   UNL     1     -10.034  16.693  66.944  1.00  0.00    -0.272 C  
HETATM    6  C   UNL     1     -10.383  18.013  66.270  1.00  0.00    -0.384 C  
HETATM    7  C   UNL     1     -10.275  17.948  67.767  1.00  0.00    -0.372 C  
BRANCH   5   8
HETATM    8  C   UNL     1     -11.023  15.535  66.993  1.00  0.00    -0.283 C  
BRANCH   8   9
HETATM    9  S   UNL     1     -11.761  15.108  68.583  1.00  0.00    -0.317 SA 
BRANCH   9  10
HETATM   10  C   UNL     1     -11.388  13.290  68.656  1.00  0.00    -0.288 C  
BRANCH  10  11
HETATM   11  C   UNL     1     -11.616  12.535  67.324  1.00  0.00    -0.434 C  
BRANCH  11  12
HETATM   12  C   UNL     1     -11.106  11.078  67.301  1.00  0.00    -0.359 C  
BRANCH  12  13
HETATM   13  C   UNL     1      -9.597  10.991  67.486  1.00  0.00    -0.178 A  
HETATM   14  C   UNL     1      -8.921  12.238  67.516  1.00  0.00    -0.180 A  
HETATM   15  C   UNL     1      -6.810  11.180  67.872  1.00  0.00    -0.068 A  
HETATM   16  H   UNL     1     -10.846   7.435  68.742  1.00  0.00     0.000 HD 
HETATM   17  C   UNL     1      -7.547  12.333  67.688  1.00  0.00    -0.144 A  
HETATM   18  C   UNL     1      -8.467   7.248  68.024  1.00  0.00    -0.123 C  
HETATM   19  C   UNL     1      -7.453   9.940  67.875  1.00  0.00    -0.089 A  
HETATM   20  C   UNL     1      -8.850   9.795  67.674  1.00  0.00    -0.127 A  
HETATM   21  O   UNL     1     -10.466   8.305  68.726  1.00  0.00    -0.214 OA 
HETATM   22  C   UNL     1     -10.130   8.002  66.367  1.00  0.00    -0.174 C  
HETATM   23  C   UNL     1      -9.467   8.382  67.700  1.00  0.00    -0.149 C  
ENDBRANCH  12  13
ENDBRANCH  11  12
ENDBRANCH  10  11
BRANCH  10  24
HETATM   24  C   UNL     1     -12.067  12.663  69.876  1.00  0.00    -0.322 A  
HETATM   25  C   UNL     1     -13.210  11.429  72.141  1.00  0.00    -0.293 A  
HETATM   26  C   UNL     1     -12.873  13.391  70.765  1.00  0.00    -0.221 A  
HETATM   27  C   UNL     1     -11.849  11.297  70.158  1.00  0.00    -0.449 A  
HETATM   28  C   UNL     1     -13.437  12.780  71.886  1.00  0.00    -0.452 A  
HETATM   29  C   UNL     1     -12.427  10.664  71.272  1.00  0.00    -0.515 A  
BRANCH  29  30
HETATM   30  C   UNL     1     -12.121   9.248  71.527  1.00  0.00    -0.435 C  
HETATM   31  C   UNL     1     -10.990   8.798  72.101  1.00  0.00    -0.404 C  
BRANCH  31  32
HETATM   32  C   UNL     1     -10.658   7.389  72.338  1.00  0.00    -0.244 A  
HETATM   33  N   UNL     1     -10.393   6.677  71.216  1.00  0.00    -0.204 NA 
HETATM   34  C   UNL     1     -10.143   5.360  71.328  1.00  0.00    -0.209 A  
HETATM   35  C   UNL     1     -10.162   4.694  72.571  1.00  0.00    -0.243 A  
HETATM   36  C   UNL     1     -10.441   5.446  73.714  1.00  0.00    -0.305 A  
HETATM   37  C   UNL     1      -9.917   3.311  72.644  1.00  0.00    -0.221 A  
HETATM   38  C   UNL     1      -9.658   2.586  71.484  1.00  0.00    -0.220 A  
HETATM   39  C   UNL     1     -10.700   6.807  73.597  1.00  0.00    -0.280 A  
HETATM   40  C   UNL     1      -9.631   3.245  70.260  1.00  0.00    -0.127 A  
HETATM   41  C   UNL     1      -9.870   4.618  70.189  1.00  0.00    -0.306 A  
HETATM   42 CL   UNL     1      -9.311   2.354  68.823  1.00  0.00    -0.230 Cl 
ENDBRANCH  31  32
ENDBRANCH  29  30
ENDBRANCH  10  24
ENDBRANCH   9  10
ENDBRANCH   8   9
ENDBRANCH   5   8
ENDBRANCH   3   5
TORSDOF 10
ENDMDL
MODEL       87
REMARK 921   NORMALIZED FREE ENERGY PREDICTED BY IDOCK:   -6.45 KCAL/MOL
REMARK 922        TOTAL FREE ENERGY PREDICTED BY IDOCK:  -11.87 KCAL/MOL
REMARK 923 INTER-LIGAND FREE ENERGY PREDICTED BY IDOCK:  -10.65 KCAL/MOL
REMARK 924 INTRA-LIGAND FREE ENERGY PREDICTED BY IDOCK:   -1.23 KCAL/MOL
REMARK 927      BINDING AFFINITY PREDICTED BY RF-SCORE:    0.00 PKD
ROOT
HETATM    1  O   UNL     1      -9.997   9.323  66.538  1.00  0.00    -0.234 OA 
HETATM    2  C   UNL     1      -9.029  10.274  66.562  1.00  0.00    -0.144 C  
HETATM    3  C   UNL     1      -8.694  10.736  67.966  1.00  0.00    -0.132 C  
HETATM    4  O   UNL     1      -8.475  10.651  65.542  1.00  0.00    -0.173 OA 
ENDROOT
BRANCH   3   5
HETATM    5  C   UNL     1      -8.069  12.129  68.034  1.00  0.00    -0.155 C  
HETATM    6  C   UNL     1      -6.877  12.392  67.124  1.00  0.00    -0.077 C  
HETATM    7  C   UNL     1      -6.661  12.220  68.601  1.00  0.00    -0.078 C  
BRANCH   5   8
HETATM    8  C   UNL     1      -9.095  13.213  68.339  1.00  0.00    -0.134 C  
BRANCH   8   9
HETATM    9  S   UNL     1     -10.256  13.680  67.039  1.00  0.00    -0.252 SA 
BRANCH   9  10
HETATM   10  C   UNL     1     -11.585  14.498  68.047  1.00  0.00    -0.336 C  
BRANCH  10  11
HETATM   11  C   UNL     1     -11.275  15.960  68.449  1.00  0.00    -0.368 C  
BRANCH  11  12
HETATM   12  C   UNL     1      -9.774  16.309  68.549  1.00  0.00    -0.224 C  
BRANCH  12  13
HETATM   13  C   UNL     1      -9.461  17.687  67.982  1.00  0.00    -0.282 A  
HETATM   14  C   UNL     1     -10.594  18.497  67.710  1.00  0.00    -0.422 A  
HETATM   15  C   UNL     1      -9.224  20.313  66.982  1.00  0.00    -0.503 A  
HETATM   16  H   UNL     1      -6.005  16.597  69.608  1.00  0.00     0.000 HD 
HETATM   17  C   UNL     1     -10.481  19.784  67.200  1.00  0.00    -0.592 A  
HETATM   18  C   UNL     1      -5.564  18.286  67.829  1.00  0.00    -0.155 C  
HETATM   19  C   UNL     1      -8.091  19.548  67.268  1.00  0.00    -0.307 A  
HETATM   20  C   UNL     1      -8.161  18.220  67.761  1.00  0.00    -0.253 A  
HETATM   21  O   UNL     1      -6.811  17.065  69.430  1.00  0.00    -0.235 OA 
HETATM   22  C   UNL     1      -6.702  16.193  67.195  1.00  0.00    -0.227 C  
HETATM   23  C   UNL     1      -6.852  17.459  68.051  1.00  0.00    -0.181 C  
ENDBRANCH  12  13
ENDBRANCH  11  12
ENDBRANCH  10  11
BRANCH  10  24
HETATM   24  C   UNL     1     -12.005  13.587  69.203  1.00  0.00    -0.378 A  
HETATM   25  C   UNL     1     -12.672  11.832  71.309  1.00  0.00    -0.420 A  
HETATM   26  C   UNL     1     -12.595  14.066  70.383  1.00  0.00    -0.374 A  
HETATM   27  C   UNL     1     -11.756  12.200  69.111  1.00  0.00    -0.384 A  
HETATM   28  C   UNL     1     -12.924  13.198  71.425  1.00  0.00    -0.386 A  
HETATM   29  C   UNL     1     -12.100  11.312  70.145  1.00  0.00    -0.448 A  
BRANCH  29  30
HETATM   30  C   UNL     1     -11.772   9.885  69.999  1.00  0.00    -0.186 C  
HETATM   31  C   UNL     1     -10.736   9.271  70.598  1.00  0.00    -0.331 C  
BRANCH  31  32
HETATM   32  C   UNL     1     -10.379   7.856  70.442  1.00  0.00    -0.212 A  
HETATM   33  N   UNL     1     -10.769   7.062  71.468  1.00  0.00    -0.221 NA 
HETATM   34  C   UNL     1     -10.429   5.760  71.446  1.00  0.00    -0.238 A  
HETATM   35  C   UNL     1      -9.666   5.200  70.400  1.00  0.00    -0.270 A  
HETATM   36  C   UNL     1      -9.271   6.038  69.355  1.00  0.00    -0.140 A  
HETATM   37  C   UNL     1      -9.311   3.839  70.425  1.00  0.00    -0.235 A  
HETATM   38  C   UNL     1      -9.707   3.034  71.489  1.00  0.00    -0.223 A  
HETATM   39  C   UNL     1      -9.623   7.383  69.379  1.00  0.00    -0.155 A  
HETATM   40  C   UNL     1     -10.466   3.586  72.515  1.00  0.00    -0.068 A  
HETATM   41  C   UNL     1     -10.821   4.934  72.488  1.00  0.00    -0.234 A  
HETATM   42 CL   UNL     1     -10.957   2.595  73.834  1.00  0.00    -0.279 Cl 
ENDBRANCH  31  32
ENDBRANCH  29  30
ENDBRANCH  10  24
ENDBRANCH   9  10
ENDBRANCH   8   9
ENDBRANCH   5   8
ENDBRANCH   3   5
TORSDOF 10
ENDMDL
MODEL       88
REMARK 921   NORMALIZED FREE ENERGY PREDICTED BY IDOCK:   -6.44 KCAL/MOL
REMARK 922        TOTAL FREE ENERGY PREDICTED BY IDOCK:  -11.85 KCAL/MOL
REMARK 923 INTER-LIGAND FREE ENERGY PREDICTED BY IDOCK:  -10.62 KCAL/MOL
REMARK 924 INTRA-LIGAND FREE ENERGY PREDICTED BY IDOCK:   -1.23 KCAL/MOL
REMARK 927      BINDING AFFINITY PREDICTED BY RF-SCORE:    0.00 PKD
ROOT
HETATM    1  O   UNL     1     -10.579  11.520  64.764  1.00  0.00    -0.277 OA 
HETATM    2  C   UNL     1      -9.612  10.837  65.428  1.00  0.00    -0.223 C  
HETATM    3  C   UNL     1      -9.878   9.346  65.480  1.00  0.00    -0.231 C  
HETATM    4  O   UNL     1      -8.624  11.397  65.874  1.00  0.00    -0.149 OA 
ENDROOT
BRANCH   3   5
HETATM    5  C   UNL     1      -9.181   8.627  66.634  1.00  0.00    -0.227 C  
HETATM    6  C   UNL     1      -7.684   8.386  66.491  1.00  0.00    -0.089 C  
HETATM    7  C   UNL     1      -8.639   7.236  66.347  1.00  0.00    -0.141 C  
BRANCH   5   8
HETATM    8  C   UNL     1      -9.812   8.945  67.984  1.00  0.00    -0.168 C  
BRANCH   8   9
HETATM    9  S   UNL     1     -10.457   7.579  68.970  1.00  0.00    -0.185 SA 
BRANCH   9  10
HETATM   10  C   UNL     1     -10.242   8.262  70.683  1.00  0.00    -0.193 C  
BRANCH  10  11
HETATM   11  C   UNL     1     -10.197   7.192  71.800  1.00  0.00    -0.212 C  
BRANCH  11  12
HETATM   12  C   UNL     1     -10.978   5.894  71.495  1.00  0.00    -0.323 C  
BRANCH  12  13
HETATM   13  C   UNL     1     -10.408   4.690  72.234  1.00  0.00    -0.251 A  
HETATM   14  C   UNL     1     -10.966   4.451  73.516  1.00  0.00    -0.379 A  
HETATM   15  C   UNL     1      -9.615   2.508  73.834  1.00  0.00    -0.117 A  
HETATM   16  H   UNL     1      -9.376   3.982  68.464  1.00  0.00     0.000 HD 
HETATM   17  C   UNL     1     -10.565   3.388  74.314  1.00  0.00    -0.253 A  
HETATM   18  C   UNL     1      -7.813   2.761  69.972  1.00  0.00    -0.049 C  
HETATM   19  C   UNL     1      -9.069   2.703  72.563  1.00  0.00    -0.119 A  
HETATM   20  C   UNL     1      -9.429   3.792  71.728  1.00  0.00    -0.214 A  
HETATM   21  O   UNL     1      -9.781   3.904  69.319  1.00  0.00    -0.185 OA 
HETATM   22  C   UNL     1      -7.962   5.213  70.183  1.00  0.00    -0.079 C  
HETATM   23  C   UNL     1      -8.772   3.918  70.338  1.00  0.00    -0.079 C  
ENDBRANCH  12  13
ENDBRANCH  11  12
ENDBRANCH  10  11
BRANCH  10  24
HETATM   24  C   UNL     1     -11.235   9.403  70.923  1.00  0.00    -0.393 A  
HETATM   25  C   UNL     1     -13.049  11.540  71.239  1.00  0.00    -0.281 A  
HETATM   26  C   UNL     1     -12.352   9.283  71.764  1.00  0.00    -0.454 A  
HETATM   27  C   UNL     1     -11.055  10.626  70.243  1.00  0.00    -0.310 A  
HETATM   28  C   UNL     1     -13.250  10.341  71.919  1.00  0.00    -0.550 A  
HETATM   29  C   UNL     1     -11.941  11.706  70.404  1.00  0.00    -0.448 A  
BRANCH  29  30
HETATM   30  C   UNL     1     -11.714  12.937  69.630  1.00  0.00    -0.367 C  
HETATM   31  C   UNL     1     -11.039  12.999  68.468  1.00  0.00    -0.298 C  
BRANCH  31  32
HETATM   32  C   UNL     1     -10.781  14.220  67.697  1.00  0.00    -0.258 A  
HETATM   33  N   UNL     1     -10.698  15.348  68.442  1.00  0.00    -0.248 NA 
HETATM   34  C   UNL     1     -10.530  16.528  67.817  1.00  0.00    -0.308 A  
HETATM   35  C   UNL     1     -10.453  16.629  66.412  1.00  0.00    -0.266 A  
HETATM   36  C   UNL     1     -10.546  15.454  65.663  1.00  0.00    -0.379 A  
HETATM   37  C   UNL     1     -10.300  17.884  65.795  1.00  0.00    -0.182 A  
HETATM   38  C   UNL     1     -10.228  19.038  66.568  1.00  0.00    -0.487 A  
HETATM   39  C   UNL     1     -10.720  14.237  66.311  1.00  0.00    -0.297 A  
HETATM   40  C   UNL     1     -10.295  18.936  67.954  1.00  0.00    -0.404 A  
HETATM   41  C   UNL     1     -10.443  17.691  68.566  1.00  0.00    -0.337 A  
HETATM   42 CL   UNL     1     -10.206  20.360  68.915  1.00  0.00    -0.210 Cl 
ENDBRANCH  31  32
ENDBRANCH  29  30
ENDBRANCH  10  24
ENDBRANCH   9  10
ENDBRANCH   8   9
ENDBRANCH   5   8
ENDBRANCH   3   5
TORSDOF 10
ENDMDL
MODEL       89
REMARK 921   NORMALIZED FREE ENERGY PREDICTED BY IDOCK:   -6.37 KCAL/MOL
REMARK 922        TOTAL FREE ENERGY PREDICTED BY IDOCK:  -11.75 KCAL/MOL
REMARK 923 INTER-LIGAND FREE ENERGY PREDICTED BY IDOCK:  -10.53 KCAL/MOL
REMARK 924 INTRA-LIGAND FREE ENERGY PREDICTED BY IDOCK:   -1.23 KCAL/MOL
REMARK 927      BINDING AFFINITY PREDICTED BY RF-SCORE:    0.00 PKD
ROOT
HETATM    1  O   UNL     1     -10.398  16.839  69.553  1.00  0.00    -0.280 OA 
HETATM    2  C   UNL     1     -11.470  16.005  69.570  1.00  0.00    -0.326 C  
HETATM    3  C   UNL     1     -11.677  15.344  70.918  1.00  0.00    -0.395 C  
HETATM    4  O   UNL     1     -12.194  15.873  68.597  1.00  0.00    -0.139 OA 
ENDROOT
BRANCH   3   5
HETATM    5  C   UNL     1     -12.462  14.034  70.857  1.00  0.00    -0.439 C  
HETATM    6  C   UNL     1     -13.909  14.078  71.330  1.00  0.00    -0.263 C  
HETATM    7  C   UNL     1     -12.866  13.416  72.186  1.00  0.00    -0.314 C  
BRANCH   5   8
HETATM    8  C   UNL     1     -12.030  13.150  69.693  1.00  0.00    -0.306 C  
BRANCH   8   9
HETATM    9  S   UNL     1     -12.017  11.362  69.937  1.00  0.00    -0.365 SA 
BRANCH   9  10
HETATM   10  C   UNL     1     -10.623  10.874  68.812  1.00  0.00    -0.201 C  
BRANCH  10  11
HETATM   11  C   UNL     1      -9.246  10.759  69.509  1.00  0.00     0.103 C  
BRANCH  11  12
HETATM   12  C   UNL     1      -8.594   9.360  69.445  1.00  0.00    -0.148 C  
BRANCH  12  13
HETATM   13  C   UNL     1      -9.528   8.314  68.852  1.00  0.00    -0.151 A  
HETATM   14  C   UNL     1      -9.545   8.256  67.435  1.00  0.00    -0.205 A  
HETATM   15  C   UNL     1     -11.104   6.448  67.444  1.00  0.00    -0.412 A  
HETATM   16  H   UNL     1      -9.064   7.063  72.594  1.00  0.00     0.000 HD 
HETATM   17  C   UNL     1     -10.334   7.351  66.738  1.00  0.00    -0.321 A  
HETATM   18  C   UNL     1     -11.210   6.164  71.702  1.00  0.00    -0.342 C  
HETATM   19  C   UNL     1     -11.085   6.463  68.841  1.00  0.00    -0.420 A  
HETATM   20  C   UNL     1     -10.317   7.389  69.591  1.00  0.00    -0.226 A  
HETATM   21  O   UNL     1      -9.038   7.105  71.646  1.00  0.00    -0.137 OA 
HETATM   22  C   UNL     1     -10.906   8.610  71.765  1.00  0.00    -0.395 C  
HETATM   23  C   UNL     1     -10.359   7.322  71.131  1.00  0.00    -0.198 C  
ENDBRANCH  12  13
ENDBRANCH  11  12
ENDBRANCH  10  11
BRANCH  10  24
HETATM   24  C   UNL     1     -10.636  11.743  67.551  1.00  0.00    -0.247 A  
HETATM   25  C   UNL     1     -10.540  13.391  65.263  1.00  0.00    -0.333 A  
HETATM   26  C   UNL     1     -11.195  11.322  66.335  1.00  0.00    -0.190 A  
HETATM   27  C   UNL     1     -10.024  13.015  67.586  1.00  0.00    -0.215 A  
HETATM   28  C   UNL     1     -11.147  12.138  65.203  1.00  0.00    -0.369 A  
HETATM   29  C   UNL     1      -9.986  13.854  66.459  1.00  0.00    -0.288 A  
BRANCH  29  30
HETATM   30  C   UNL     1      -9.293  15.149  66.557  1.00  0.00    -0.308 C  
HETATM   31  C   UNL     1      -8.235  15.395  67.351  1.00  0.00    -0.205 C  
BRANCH  31  32
HETATM   32  C   UNL     1      -7.550  16.686  67.480  1.00  0.00    -0.155 A  
HETATM   33  N   UNL     1      -7.428  17.377  66.321  1.00  0.00    -0.299 NA 
HETATM   34  C   UNL     1      -6.756  18.542  66.328  1.00  0.00    -0.224 A  
HETATM   35  C   UNL     1      -6.161  19.059  67.497  1.00  0.00    -0.189 A  
HETATM   36  C   UNL     1      -6.294  18.329  68.680  1.00  0.00    -0.209 A  
HETATM   37  C   UNL     1      -5.446  20.270  67.459  1.00  0.00    -0.196 A  
HETATM   38  C   UNL     1      -5.317  20.966  66.261  1.00  0.00    -0.235 A  
HETATM   39  C   UNL     1      -6.989  17.125  68.671  1.00  0.00    -0.209 A  
HETATM   40  C   UNL     1      -5.911  20.460  65.110  1.00  0.00    -0.231 A  
HETATM   41  C   UNL     1      -6.624  19.261  65.149  1.00  0.00    -0.249 A  
HETATM   42 CL   UNL     1      -5.755  21.316  63.626  1.00  0.00    -0.293 Cl 
ENDBRANCH  31  32
ENDBRANCH  29  30
ENDBRANCH  10  24
ENDBRANCH   9  10
ENDBRANCH   8   9
ENDBRANCH   5   8
ENDBRANCH   3   5
TORSDOF 10
ENDMDL
MODEL       90
REMARK 921   NORMALIZED FREE ENERGY PREDICTED BY IDOCK:   -6.36 KCAL/MOL
REMARK 922        TOTAL FREE ENERGY PREDICTED BY IDOCK:  -11.73 KCAL/MOL
REMARK 923 INTER-LIGAND FREE ENERGY PREDICTED BY IDOCK:  -10.51 KCAL/MOL
REMARK 924 INTRA-LIGAND FREE ENERGY PREDICTED BY IDOCK:   -1.22 KCAL/MOL
REMARK 927      BINDING AFFINITY PREDICTED BY RF-SCORE:    0.00 PKD
ROOT
HETATM    1  O   UNL     1      -9.618  20.454  66.332  1.00  0.00    -0.347 OA 
HETATM    2  C   UNL     1     -10.263  19.262  66.257  1.00  0.00    -0.464 C  
HETATM    3  C   UNL     1     -10.021  18.387  67.471  1.00  0.00    -0.349 C  
HETATM    4  O   UNL     1     -10.992  18.985  65.319  1.00  0.00    -0.511 OA 
ENDROOT
BRANCH   3   5
HETATM    5  C   UNL     1     -10.228  16.894  67.217  1.00  0.00    -0.297 C  
HETATM    6  C   UNL     1      -9.082  16.146  66.548  1.00  0.00    -0.311 C  
HETATM    7  C   UNL     1     -10.327  16.455  65.765  1.00  0.00    -0.388 C  
BRANCH   5   8
HETATM    8  C   UNL     1     -11.095  16.237  68.283  1.00  0.00    -0.346 C  
BRANCH   8   9
HETATM    9  S   UNL     1     -10.476  14.745  69.088  1.00  0.00    -0.223 SA 
BRANCH   9  10
HETATM   10  C   UNL     1     -11.852  13.557  68.710  1.00  0.00    -0.355 C  
BRANCH  10  11
HETATM   11  C   UNL     1     -12.065  12.460  69.781  1.00  0.00    -0.292 C  
BRANCH  11  12
HETATM   12  C   UNL     1     -12.026  11.010  69.252  1.00  0.00    -0.410 C  
BRANCH  12  13
HETATM   13  C   UNL     1     -11.198  10.092  70.141  1.00  0.00    -0.367 A  
HETATM   14  C   UNL     1      -9.822  10.008  69.806  1.00  0.00    -0.270 A  
HETATM   15  C   UNL     1      -9.383   8.527  71.626  1.00  0.00    -0.311 A  
HETATM   16  H   UNL     1     -14.427  10.786  72.350  1.00  0.00     0.000 HD 
HETATM   17  C   UNL     1      -8.929   9.224  70.524  1.00  0.00    -0.296 A  
HETATM   18  C   UNL     1     -13.396   8.638  73.079  1.00  0.00     0.244 C  
HETATM   19  C   UNL     1     -10.727   8.612  71.996  1.00  0.00    -0.427 A  
HETATM   20  C   UNL     1     -11.678   9.377  71.274  1.00  0.00    -0.432 A  
HETATM   21  O   UNL     1     -13.527  10.765  72.047  1.00  0.00    -0.373 OA 
HETATM   22  C   UNL     1     -14.125   8.845  70.733  1.00  0.00     0.327 C  
HETATM   23  C   UNL     1     -13.139   9.413  71.766  1.00  0.00    -0.409 C  
ENDBRANCH  12  13
ENDBRANCH  11  12
ENDBRANCH  10  11
BRANCH  10  24
HETATM   24  C   UNL     1     -11.720  13.039  67.275  1.00  0.00    -0.429 A  
HETATM   25  C   UNL     1     -11.451  11.963  64.681  1.00  0.00    -0.345 A  
HETATM   26  C   UNL     1     -12.506  13.511  66.213  1.00  0.00    -0.384 A  
HETATM   27  C   UNL     1     -10.794  12.009  66.998  1.00  0.00    -0.297 A  
HETATM   28  C   UNL     1     -12.374  12.977  64.930  1.00  0.00    -0.512 A  
HETATM   29  C   UNL     1     -10.637  11.477  65.707  1.00  0.00    -0.315 A  
BRANCH  29  30
HETATM   30  C   UNL     1      -9.684  10.375  65.501  1.00  0.00    -0.307 C  
HETATM   31  C   UNL     1      -9.654   9.240  66.224  1.00  0.00    -0.313 C  
BRANCH  31  32
HETATM   32  C   UNL     1      -8.695   8.144  66.049  1.00  0.00    -0.156 A  
HETATM   33  N   UNL     1      -9.232   6.905  66.159  1.00  0.00    -0.124 NA 
HETATM   34  C   UNL     1      -8.418   5.836  66.079  1.00  0.00    -0.135 A  
HETATM   35  C   UNL     1      -7.025   5.964  65.902  1.00  0.00    -0.062 A  
HETATM   36  C   UNL     1      -6.492   7.250  65.796  1.00  0.00    -0.045 A  
HETATM   37  C   UNL     1      -6.205   4.822  65.846  1.00  0.00    -0.031 A  
HETATM   38  C   UNL     1      -6.765   3.554  65.972  1.00  0.00    -0.041 A  
HETATM   39  C   UNL     1      -7.334   8.353  65.878  1.00  0.00    -0.073 A  
HETATM   40  C   UNL     1      -8.140   3.429  66.138  1.00  0.00    -0.092 A  
HETATM   41  C   UNL     1      -8.953   4.561  66.189  1.00  0.00    -0.120 A  
HETATM   42 CL   UNL     1      -8.837   1.864  66.294  1.00  0.00    -0.120 Cl 
ENDBRANCH  31  32
ENDBRANCH  29  30
ENDBRANCH  10  24
ENDBRANCH   9  10
ENDBRANCH   8   9
ENDBRANCH   5   8
ENDBRANCH   3   5
TORSDOF 10
ENDMDL
MODEL       91
REMARK 921   NORMALIZED FREE ENERGY PREDICTED BY IDOCK:   -6.33 KCAL/MOL
REMARK 922        TOTAL FREE ENERGY PREDICTED BY IDOCK:  -11.69 KCAL/MOL
REMARK 923 INTER-LIGAND FREE ENERGY PREDICTED BY IDOCK:   -9.30 KCAL/MOL
REMARK 924 INTRA-LIGAND FREE ENERGY PREDICTED BY IDOCK:   -2.39 KCAL/MOL
REMARK 927      BINDING AFFINITY PREDICTED BY RF-SCORE:    0.00 PKD
ROOT
HETATM    1  O   UNL     1     -10.385  16.816  69.484  1.00  0.00    -0.280 OA 
HETATM    2  C   UNL     1     -11.435  15.956  69.473  1.00  0.00    -0.342 C  
HETATM    3  C   UNL     1     -11.661  15.289  70.814  1.00  0.00    -0.371 C  
HETATM    4  O   UNL     1     -12.129  15.805  68.480  1.00  0.00    -0.233 OA 
ENDROOT
BRANCH   3   5
HETATM    5  C   UNL     1     -12.410  13.959  70.733  1.00  0.00    -0.449 C  
HETATM    6  C   UNL     1     -13.890  13.981  71.092  1.00  0.00    -0.081 C  
HETATM    7  C   UNL     1     -12.903  13.370  72.045  1.00  0.00    -0.328 C  
BRANCH   5   8
HETATM    8  C   UNL     1     -11.869  13.052  69.634  1.00  0.00    -0.319 C  
BRANCH   8   9
HETATM    9  S   UNL     1     -11.883  11.270  69.914  1.00  0.00    -0.388 SA 
BRANCH   9  10
HETATM   10  C   UNL     1     -10.468  10.744  68.831  1.00  0.00    -0.205 C  
BRANCH  10  11
HETATM   11  C   UNL     1      -9.095  10.708  69.543  1.00  0.00     0.016 C  
BRANCH  11  12
HETATM   12  C   UNL     1      -8.172   9.541  69.130  1.00  0.00    -0.111 C  
BRANCH  12  13
HETATM   13  C   UNL     1      -8.037   9.418  67.618  1.00  0.00    -0.106 A  
HETATM   14  C   UNL     1      -7.257  10.429  66.999  1.00  0.00    -0.093 A  
HETATM   15  C   UNL     1      -7.543   9.447  64.842  1.00  0.00    -0.110 A  
HETATM   16  H   UNL     1      -9.162   5.766  68.703  1.00  0.00     0.000 HD 
HETATM   17  C   UNL     1      -7.027  10.456  65.630  1.00  0.00    -0.132 A  
HETATM   18  C   UNL     1      -9.790   6.131  66.319  1.00  0.00    -0.081 C  
HETATM   19  C   UNL     1      -8.291   8.423  65.428  1.00  0.00    -0.166 A  
HETATM   20  C   UNL     1      -8.574   8.373  66.817  1.00  0.00    -0.123 A  
HETATM   21  O   UNL     1      -8.650   6.490  68.362  1.00  0.00    -0.119 OA 
HETATM   22  C   UNL     1     -10.720   7.656  68.017  1.00  0.00    -0.152 C  
HETATM   23  C   UNL     1      -9.405   7.197  67.370  1.00  0.00    -0.127 C  
ENDBRANCH  12  13
ENDBRANCH  11  12
ENDBRANCH  10  11
BRANCH  10  24
HETATM   24  C   UNL     1     -10.493  11.528  67.516  1.00  0.00    -0.229 A  
HETATM   25  C   UNL     1     -10.421  13.026  65.127  1.00  0.00    -0.335 A  
HETATM   26  C   UNL     1     -11.015  11.008  66.322  1.00  0.00    -0.184 A  
HETATM   27  C   UNL     1      -9.930  12.822  67.477  1.00  0.00    -0.210 A  
HETATM   28  C   UNL     1     -10.978  11.749  65.140  1.00  0.00    -0.351 A  
HETATM   29  C   UNL     1      -9.904  13.587  66.298  1.00  0.00    -0.306 A  
BRANCH  29  30
HETATM   30  C   UNL     1      -9.262  14.911  66.320  1.00  0.00    -0.301 C  
HETATM   31  C   UNL     1      -8.223  15.247  67.107  1.00  0.00    -0.250 C  
BRANCH  31  32
HETATM   32  C   UNL     1      -7.589  16.568  67.161  1.00  0.00    -0.179 A  
HETATM   33  N   UNL     1      -7.182  16.946  68.397  1.00  0.00    -0.186 NA 
HETATM   34  C   UNL     1      -6.648  18.171  68.558  1.00  0.00    -0.218 A  
HETATM   35  C   UNL     1      -6.514  19.079  67.488  1.00  0.00    -0.202 A  
HETATM   36  C   UNL     1      -6.944  18.671  66.223  1.00  0.00    -0.267 A  
HETATM   37  C   UNL     1      -5.971  20.359  67.702  1.00  0.00    -0.261 A  
HETATM   38  C   UNL     1      -5.567  20.742  68.977  1.00  0.00    -0.405 A  
HETATM   39  C   UNL     1      -7.495  17.405  66.059  1.00  0.00    -0.255 A  
HETATM   40  C   UNL     1      -5.693  19.842  70.030  1.00  0.00    -0.279 A  
HETATM   41  C   UNL     1      -6.227  18.571  69.817  1.00  0.00    -0.205 A  
HETATM   42 CL   UNL     1      -5.195  20.310  71.610  1.00  0.00    -0.374 Cl 
ENDBRANCH  31  32
ENDBRANCH  29  30
ENDBRANCH  10  24
ENDBRANCH   9  10
ENDBRANCH   8   9
ENDBRANCH   5   8
ENDBRANCH   3   5
TORSDOF 10
ENDMDL
MODEL       92
REMARK 921   NORMALIZED FREE ENERGY PREDICTED BY IDOCK:   -6.32 KCAL/MOL
REMARK 922        TOTAL FREE ENERGY PREDICTED BY IDOCK:  -11.67 KCAL/MOL
REMARK 923 INTER-LIGAND FREE ENERGY PREDICTED BY IDOCK:   -9.97 KCAL/MOL
REMARK 924 INTRA-LIGAND FREE ENERGY PREDICTED BY IDOCK:   -1.71 KCAL/MOL
REMARK 927      BINDING AFFINITY PREDICTED BY RF-SCORE:    0.00 PKD
ROOT
HETATM    1  O   UNL     1     -14.217  14.475  71.726  1.00  0.00    -0.439 OA 
HETATM    2  C   UNL     1     -13.014  14.103  71.219  1.00  0.00    -0.356 C  
HETATM    3  C   UNL     1     -13.126  13.464  69.850  1.00  0.00     0.836 C  
HETATM    4  O   UNL     1     -11.972  14.327  71.814  1.00  0.00    -0.247 OA 
ENDROOT
BRANCH   3   5
HETATM    5  C   UNL     1     -11.955  12.551  69.489  1.00  0.00    -0.329 C  
HETATM    6  C   UNL     1     -12.283  11.090  69.210  1.00  0.00    -0.280 C  
HETATM    7  C   UNL     1     -11.597  11.467  70.493  1.00  0.00    -0.168 C  
BRANCH   5   8
HETATM    8  C   UNL     1     -10.861  13.284  68.721  1.00  0.00    -0.243 C  
BRANCH   8   9
HETATM    9  S   UNL     1     -11.336  14.676  67.677  1.00  0.00    -0.348 SA 
BRANCH   9  10
HETATM   10  C   UNL     1     -10.029  14.577  66.361  1.00  0.00    -0.292 C  
BRANCH  10  11
HETATM   11  C   UNL     1      -9.760  15.911  65.623  1.00  0.00    -0.306 C  
BRANCH  11  12
HETATM   12  C   UNL     1      -8.504  16.678  66.091  1.00  0.00    -0.308 C  
BRANCH  12  13
HETATM   13  C   UNL     1      -8.850  17.870  66.975  1.00  0.00    -0.256 A  
HETATM   14  C   UNL     1     -10.030  18.567  66.610  1.00  0.00    -0.394 A  
HETATM   15  C   UNL     1      -9.799  20.084  68.439  1.00  0.00    -0.436 A  
HETATM   16  H   UNL     1      -6.345  15.784  69.246  1.00  0.00     0.000 HD 
HETATM   17  C   UNL     1     -10.490  19.669  67.318  1.00  0.00    -0.596 A  
HETATM   18  C   UNL     1      -6.311  18.165  69.981  1.00  0.00     0.046 C  
HETATM   19  C   UNL     1      -8.649  19.399  68.839  1.00  0.00    -0.326 A  
HETATM   20  C   UNL     1      -8.129  18.287  68.127  1.00  0.00    -0.297 A  
HETATM   21  O   UNL     1      -7.129  16.212  68.923  1.00  0.00    -0.143 OA 
HETATM   22  C   UNL     1      -5.693  17.655  67.650  1.00  0.00    -0.142 C  
HETATM   23  C   UNL     1      -6.855  17.593  68.652  1.00  0.00    -0.229 C  
ENDBRANCH  12  13
ENDBRANCH  11  12
ENDBRANCH  10  11
BRANCH  10  24
HETATM   24  C   UNL     1     -10.291  13.377  65.448  1.00  0.00    -0.321 A  
HETATM   25  C   UNL     1     -10.808  11.095  63.872  1.00  0.00    -0.346 A  
HETATM   26  C   UNL     1     -10.839  13.497  64.162  1.00  0.00    -0.250 A  
HETATM   27  C   UNL     1     -10.011  12.077  65.922  1.00  0.00    -0.260 A  
HETATM   28  C   UNL     1     -11.096  12.367  63.382  1.00  0.00    -0.465 A  
HETATM   29  C   UNL     1     -10.247  10.933  65.141  1.00  0.00    -0.360 A  
BRANCH  29  30
HETATM   30  C   UNL     1      -9.972   9.607  65.717  1.00  0.00    -0.342 C  
HETATM   31  C   UNL     1     -10.384   9.197  66.931  1.00  0.00    -0.321 C  
BRANCH  31  32
HETATM   32  C   UNL     1     -10.096   7.890  67.531  1.00  0.00    -0.213 A  
HETATM   33  N   UNL     1      -9.877   6.896  66.636  1.00  0.00    -0.175 NA 
HETATM   34  C   UNL     1      -9.670   5.647  67.091  1.00  0.00    -0.139 A  
HETATM   35  C   UNL     1      -9.690   5.335  68.466  1.00  0.00    -0.194 A  
HETATM   36  C   UNL     1      -9.923   6.373  69.371  1.00  0.00    -0.184 A  
HETATM   37  C   UNL     1      -9.492   4.012  68.901  1.00  0.00    -0.237 A  
HETATM   38  C   UNL     1      -9.280   2.997  67.974  1.00  0.00    -0.248 A  
HETATM   39  C   UNL     1     -10.136   7.663  68.899  1.00  0.00    -0.202 A  
HETATM   40  C   UNL     1      -9.252   3.307  66.618  1.00  0.00    -0.160 A  
HETATM   41  C   UNL     1      -9.444   4.620  66.187  1.00  0.00    -0.169 A  
HETATM   42 CL   UNL     1      -8.990   2.056  65.467  1.00  0.00    -0.124 Cl 
ENDBRANCH  31  32
ENDBRANCH  29  30
ENDBRANCH  10  24
ENDBRANCH   9  10
ENDBRANCH   8   9
ENDBRANCH   5   8
ENDBRANCH   3   5
TORSDOF 10
ENDMDL
MODEL       93
REMARK 921   NORMALIZED FREE ENERGY PREDICTED BY IDOCK:   -6.31 KCAL/MOL
REMARK 922        TOTAL FREE ENERGY PREDICTED BY IDOCK:  -11.65 KCAL/MOL
REMARK 923 INTER-LIGAND FREE ENERGY PREDICTED BY IDOCK:  -10.62 KCAL/MOL
REMARK 924 INTRA-LIGAND FREE ENERGY PREDICTED BY IDOCK:   -1.04 KCAL/MOL
REMARK 927      BINDING AFFINITY PREDICTED BY RF-SCORE:    0.00 PKD
ROOT
HETATM    1  O   UNL     1      -6.469  16.224  68.050  1.00  0.00    -0.119 OA 
HETATM    2  C   UNL     1      -7.812  16.049  68.137  1.00  0.00    -0.141 C  
HETATM    3  C   UNL     1      -8.490  16.030  66.782  1.00  0.00    -0.295 C  
HETATM    4  O   UNL     1      -8.367  15.876  69.210  1.00  0.00    -0.237 OA 
ENDROOT
BRANCH   3   5
HETATM    5  C   UNL     1      -9.973  16.396  66.820  1.00  0.00    -0.277 C  
HETATM    6  C   UNL     1     -10.370  17.723  66.187  1.00  0.00    -0.340 C  
HETATM    7  C   UNL     1     -10.362  17.586  67.683  1.00  0.00    -0.360 C  
BRANCH   5   8
HETATM    8  C   UNL     1     -10.878  15.172  66.741  1.00  0.00    -0.322 C  
BRANCH   8   9
HETATM    9  S   UNL     1     -11.879  14.754  68.183  1.00  0.00    -0.237 SA 
BRANCH   9  10
HETATM   10  C   UNL     1     -11.341  13.001  68.475  1.00  0.00    -0.288 C  
BRANCH  10  11
HETATM   11  C   UNL     1     -11.474  12.076  67.241  1.00  0.00    -0.403 C  
BRANCH  11  12
HETATM   12  C   UNL     1     -10.898  10.654  67.423  1.00  0.00    -0.353 C  
BRANCH  12  13
HETATM   13  C   UNL     1      -9.703  10.394  66.515  1.00  0.00    -0.241 A  
HETATM   14  C   UNL     1     -10.023   9.909  65.222  1.00  0.00    -0.320 A  
HETATM   15  C   UNL     1      -7.725   9.869  64.576  1.00  0.00    -0.142 A  
HETATM   16  H   UNL     1      -8.199  12.811  69.286  1.00  0.00     0.000 HD 
HETATM   17  C   UNL     1      -9.051   9.632  64.270  1.00  0.00    -0.267 A  
HETATM   18  C   UNL     1      -6.345  11.485  68.278  1.00  0.00    -0.046 C  
HETATM   19  C   UNL     1      -7.382  10.374  65.832  1.00  0.00    -0.135 A  
HETATM   20  C   UNL     1      -8.341  10.642  66.843  1.00  0.00    -0.125 A  
HETATM   21  O   UNL     1      -8.493  12.466  68.452  1.00  0.00    -0.169 OA 
HETATM   22  C   UNL     1      -8.189  10.269  69.372  1.00  0.00    -0.171 C  
HETATM   23  C   UNL     1      -7.863  11.203  68.198  1.00  0.00    -0.118 C  
ENDBRANCH  12  13
ENDBRANCH  11  12
ENDBRANCH  10  11
BRANCH  10  24
HETATM   24  C   UNL     1     -11.981  12.461  69.757  1.00  0.00    -0.359 A  
HETATM   25  C   UNL     1     -13.059  11.383  72.131  1.00  0.00    -0.276 A  
HETATM   26  C   UNL     1     -12.688  13.269  70.660  1.00  0.00    -0.227 A  
HETATM   27  C   UNL     1     -11.829  11.095  70.080  1.00  0.00    -0.441 A  
HETATM   28  C   UNL     1     -13.220  12.736  71.836  1.00  0.00    -0.511 A  
HETATM   29  C   UNL     1     -12.376  10.541  71.250  1.00  0.00    -0.502 A  
BRANCH  29  30
HETATM   30  C   UNL     1     -12.140   9.118  71.544  1.00  0.00    -0.422 C  
HETATM   31  C   UNL     1     -11.008   8.622  72.075  1.00  0.00    -0.432 C  
BRANCH  31  32
HETATM   32  C   UNL     1     -10.746   7.205  72.350  1.00  0.00    -0.241 A  
HETATM   33  N   UNL     1     -10.430   6.470  71.257  1.00  0.00    -0.212 NA 
HETATM   34  C   UNL     1     -10.238   5.145  71.399  1.00  0.00    -0.213 A  
HETATM   35  C   UNL     1     -10.369   4.497  72.644  1.00  0.00    -0.252 A  
HETATM   36  C   UNL     1     -10.699   5.273  73.757  1.00  0.00    -0.343 A  
HETATM   37  C   UNL     1     -10.181   3.107  72.748  1.00  0.00    -0.238 A  
HETATM   38  C   UNL     1      -9.869   2.358  71.617  1.00  0.00    -0.216 A  
HETATM   39  C   UNL     1     -10.898   6.641  73.608  1.00  0.00    -0.165 A  
HETATM   40  C   UNL     1      -9.732   3.000  70.391  1.00  0.00    -0.009 A  
HETATM   41  C   UNL     1      -9.914   4.380  70.289  1.00  0.00    -0.248 A  
HETATM   42 CL   UNL     1      -9.347   2.080  68.989  1.00  0.00    -0.204 Cl 
ENDBRANCH  31  32
ENDBRANCH  29  30
ENDBRANCH  10  24
ENDBRANCH   9  10
ENDBRANCH   8   9
ENDBRANCH   5   8
ENDBRANCH   3   5
TORSDOF 10
ENDMDL
MODEL       94
REMARK 921   NORMALIZED FREE ENERGY PREDICTED BY IDOCK:   -6.29 KCAL/MOL
REMARK 922        TOTAL FREE ENERGY PREDICTED BY IDOCK:  -11.63 KCAL/MOL
REMARK 923 INTER-LIGAND FREE ENERGY PREDICTED BY IDOCK:   -8.76 KCAL/MOL
REMARK 924 INTRA-LIGAND FREE ENERGY PREDICTED BY IDOCK:   -2.86 KCAL/MOL
REMARK 927      BINDING AFFINITY PREDICTED BY RF-SCORE:    0.00 PKD
ROOT
HETATM    1  O   UNL     1     -12.955   9.102  72.465  1.00  0.00    -0.407 OA 
HETATM    2  C   UNL     1     -11.782   8.474  72.193  1.00  0.00    -0.378 C  
HETATM    3  C   UNL     1     -11.424   8.514  70.720  1.00  0.00    -0.281 C  
HETATM    4  O   UNL     1     -11.094   7.990  73.076  1.00  0.00    -0.382 OA 
ENDROOT
BRANCH   3   5
HETATM    5  C   UNL     1     -10.475   7.400  70.278  1.00  0.00    -0.229 C  
HETATM    6  C   UNL     1     -10.874   6.609  69.040  1.00  0.00    -0.324 C  
HETATM    7  C   UNL     1     -10.990   5.975  70.397  1.00  0.00    -0.399 C  
BRANCH   5   8
HETATM    8  C   UNL     1      -9.018   7.723  70.584  1.00  0.00    -0.145 C  
BRANCH   8   9
HETATM    9  S   UNL     1      -8.445   9.415  70.330  1.00  0.00    -0.222 SA 
BRANCH   9  10
HETATM   10  C   UNL     1      -8.407   9.487  68.474  1.00  0.00    -0.118 C  
BRANCH  10  11
HETATM   11  C   UNL     1      -6.991   9.634  67.867  1.00  0.00    -0.079 C  
BRANCH  11  12
HETATM   12  C   UNL     1      -6.570   8.504  66.903  1.00  0.00    -0.058 C  
BRANCH  12  13
HETATM   13  C   UNL     1      -6.680   7.127  67.545  1.00  0.00    -0.064 A  
HETATM   14  C   UNL     1      -5.906   6.947  68.720  1.00  0.00    -0.018 A  
HETATM   15  C   UNL     1      -6.705   4.715  69.006  1.00  0.00    -0.046 A  
HETATM   16  H   UNL     1      -9.910   7.284  65.237  1.00  0.00     0.000 HD 
HETATM   17  C   UNL     1      -5.902   5.754  69.431  1.00  0.00    -0.016 A  
HETATM   18  C   UNL     1      -9.314   4.897  65.631  1.00  0.00    -0.167 C  
HETATM   19  C   UNL     1      -7.500   4.874  67.867  1.00  0.00    -0.078 A  
HETATM   20  C   UNL     1      -7.511   6.064  67.096  1.00  0.00    -0.084 A  
HETATM   21  O   UNL     1      -9.346   7.236  66.000  1.00  0.00    -0.100 OA 
HETATM   22  C   UNL     1      -7.642   6.355  64.554  1.00  0.00    -0.100 C  
HETATM   23  C   UNL     1      -8.427   6.144  65.857  1.00  0.00    -0.145 C  
ENDBRANCH  12  13
ENDBRANCH  11  12
ENDBRANCH  10  11
BRANCH  10  24
HETATM   24  C   UNL     1      -9.435  10.503  67.966  1.00  0.00    -0.157 A  
HETATM   25  C   UNL     1     -11.230  12.434  66.963  1.00  0.00    -0.358 A  
HETATM   26  C   UNL     1     -10.763  10.165  67.666  1.00  0.00    -0.339 A  
HETATM   27  C   UNL     1      -9.032  11.838  67.747  1.00  0.00    -0.173 A  
HETATM   28  C   UNL     1     -11.651  11.121  67.168  1.00  0.00    -0.034 A  
HETATM   29  C   UNL     1      -9.920  12.814  67.265  1.00  0.00    -0.219 A  
BRANCH  29  30
HETATM   30  C   UNL     1      -9.420  14.176  67.019  1.00  0.00    -0.256 C  
HETATM   31  C   UNL     1      -9.918  15.291  67.585  1.00  0.00    -0.222 C  
BRANCH  31  32
HETATM   32  C   UNL     1      -9.448  16.657  67.332  1.00  0.00    -0.232 A  
HETATM   33  N   UNL     1      -8.439  17.064  68.140  1.00  0.00    -0.220 NA 
HETATM   34  C   UNL     1      -7.986  18.326  68.027  1.00  0.00    -0.264 A  
HETATM   35  C   UNL     1      -8.537  19.242  67.108  1.00  0.00    -0.311 A  
HETATM   36  C   UNL     1      -9.579  18.804  66.288  1.00  0.00    -0.316 A  
HETATM   37  C   UNL     1      -8.051  20.560  67.036  1.00  0.00    -0.324 A  
HETATM   38  C   UNL     1      -7.022  20.972  67.878  1.00  0.00    -0.197 A  
HETATM   39  C   UNL     1     -10.046  17.500  66.406  1.00  0.00    -0.346 A  
HETATM   40  C   UNL     1      -6.474  20.064  68.778  1.00  0.00    -0.314 A  
HETATM   41  C   UNL     1      -6.953  18.756  68.847  1.00  0.00    -0.335 A  
HETATM   42 CL   UNL     1      -5.202  20.567  69.822  1.00  0.00    -0.306 Cl 
ENDBRANCH  31  32
ENDBRANCH  29  30
ENDBRANCH  10  24
ENDBRANCH   9  10
ENDBRANCH   8   9
ENDBRANCH   5   8
ENDBRANCH   3   5
TORSDOF 10
ENDMDL
MODEL       95
REMARK 921   NORMALIZED FREE ENERGY PREDICTED BY IDOCK:   -6.27 KCAL/MOL
REMARK 922        TOTAL FREE ENERGY PREDICTED BY IDOCK:  -11.59 KCAL/MOL
REMARK 923 INTER-LIGAND FREE ENERGY PREDICTED BY IDOCK:   -9.19 KCAL/MOL
REMARK 924 INTRA-LIGAND FREE ENERGY PREDICTED BY IDOCK:   -2.40 KCAL/MOL
REMARK 927      BINDING AFFINITY PREDICTED BY RF-SCORE:    0.00 PKD
ROOT
HETATM    1  O   UNL     1     -13.731  10.032  71.380  1.00  0.00    -0.242 OA 
HETATM    2  C   UNL     1     -12.747   9.160  71.716  1.00  0.00    -0.373 C  
HETATM    3  C   UNL     1     -11.751   8.939  70.595  1.00  0.00    -0.212 C  
HETATM    4  O   UNL     1     -12.679   8.669  72.831  1.00  0.00    -0.289 OA 
ENDROOT
BRANCH   3   5
HETATM    5  C   UNL     1     -10.992   7.616  70.685  1.00  0.00    -0.259 C  
HETATM    6  C   UNL     1     -11.312   6.567  69.627  1.00  0.00    -0.443 C  
HETATM    7  C   UNL     1     -11.809   6.381  71.033  1.00  0.00    -0.321 C  
BRANCH   5   8
HETATM    8  C   UNL     1      -9.582   7.789  71.236  1.00  0.00    -0.157 C  
BRANCH   8   9
HETATM    9  S   UNL     1      -8.504   9.008  70.457  1.00  0.00    -0.219 SA 
BRANCH   9  10
HETATM   10  C   UNL     1      -8.312   8.263  68.766  1.00  0.00    -0.124 C  
BRANCH  10  11
HETATM   11  C   UNL     1      -6.889   7.742  68.454  1.00  0.00    -0.067 C  
BRANCH  11  12
HETATM   12  C   UNL     1      -6.834   6.448  67.613  1.00  0.00    -0.076 C  
BRANCH  12  13
HETATM   13  C   UNL     1      -7.701   5.341  68.200  1.00  0.00    -0.084 A  
HETATM   14  C   UNL     1      -7.726   5.283  69.617  1.00  0.00    -0.073 A  
HETATM   15  C   UNL     1      -9.254   3.448  69.598  1.00  0.00    -0.225 A  
HETATM   16  H   UNL     1      -9.086   5.675  64.491  1.00  0.00     0.000 HD 
HETATM   17  C   UNL     1      -8.476   4.341  70.308  1.00  0.00    -0.093 A  
HETATM   18  C   UNL     1      -9.602   3.391  65.344  1.00  0.00    -0.101 C  
HETATM   19  C   UNL     1      -9.270   3.500  68.202  1.00  0.00    -0.228 A  
HETATM   20  C   UNL     1      -8.498   4.427  67.457  1.00  0.00    -0.103 A  
HETATM   21  O   UNL     1      -9.030   5.687  65.439  1.00  0.00    -0.148 OA 
HETATM   22  C   UNL     1      -7.241   4.096  65.249  1.00  0.00    -0.071 C  
HETATM   23  C   UNL     1      -8.589   4.409  65.917  1.00  0.00    -0.114 C  
ENDBRANCH  12  13
ENDBRANCH  11  12
ENDBRANCH  10  11
BRANCH  10  24
HETATM   24  C   UNL     1      -8.902   9.200  67.708  1.00  0.00    -0.125 A  
HETATM   25  C   UNL     1      -9.898  11.016  65.793  1.00  0.00    -0.282 A  
HETATM   26  C   UNL     1      -9.413   8.748  66.482  1.00  0.00    -0.281 A  
HETATM   27  C   UNL     1      -8.903  10.591  67.946  1.00  0.00    -0.133 A  
HETATM   28  C   UNL     1      -9.905   9.647  65.534  1.00  0.00    -0.352 A  
HETATM   29  C   UNL     1      -9.413  11.506  67.008  1.00  0.00    -0.193 A  
BRANCH  29  30
HETATM   30  C   UNL     1      -9.342  12.946  67.305  1.00  0.00    -0.212 C  
HETATM   31  C   UNL     1     -10.383  13.796  67.235  1.00  0.00    -0.253 C  
BRANCH  31  32
HETATM   32  C   UNL     1     -10.325  15.237  67.501  1.00  0.00    -0.244 A  
HETATM   33  N   UNL     1      -9.421  15.912  66.750  1.00  0.00    -0.224 NA 
HETATM   34  C   UNL     1      -9.249  17.228  66.970  1.00  0.00    -0.243 A  
HETATM   35  C   UNL     1      -9.965  17.924  67.965  1.00  0.00    -0.333 A  
HETATM   36  C   UNL     1     -10.888  17.209  68.731  1.00  0.00    -0.211 A  
HETATM   37  C   UNL     1      -9.740  19.296  68.179  1.00  0.00    -0.441 A  
HETATM   38  C   UNL     1      -8.801  19.977  67.410  1.00  0.00    -0.428 A  
HETATM   39  C   UNL     1     -11.065  15.849  68.503  1.00  0.00    -0.340 A  
HETATM   40  C   UNL     1      -8.102  19.292  66.423  1.00  0.00    -0.316 A  
HETATM   41  C   UNL     1      -8.328  17.932  66.208  1.00  0.00    -0.230 A  
HETATM   42 CL   UNL     1      -6.939  20.129  65.470  1.00  0.00    -0.328 Cl 
ENDBRANCH  31  32
ENDBRANCH  29  30
ENDBRANCH  10  24
ENDBRANCH   9  10
ENDBRANCH   8   9
ENDBRANCH   5   8
ENDBRANCH   3   5
TORSDOF 10
ENDMDL
MODEL       96
REMARK 921   NORMALIZED FREE ENERGY PREDICTED BY IDOCK:   -6.23 KCAL/MOL
REMARK 922        TOTAL FREE ENERGY PREDICTED BY IDOCK:  -11.52 KCAL/MOL
REMARK 923 INTER-LIGAND FREE ENERGY PREDICTED BY IDOCK:   -8.99 KCAL/MOL
REMARK 924 INTRA-LIGAND FREE ENERGY PREDICTED BY IDOCK:   -2.53 KCAL/MOL
REMARK 927      BINDING AFFINITY PREDICTED BY RF-SCORE:    0.00 PKD
ROOT
HETATM    1  O   UNL     1     -14.316   8.959  72.778  1.00  0.00    -0.600 OA 
HETATM    2  C   UNL     1     -13.176   8.684  72.095  1.00  0.00    -0.383 C  
HETATM    3  C   UNL     1     -13.109   7.246  71.619  1.00  0.00    -0.417 C  
HETATM    4  O   UNL     1     -12.343   9.546  71.864  1.00  0.00    -0.373 OA 
ENDROOT
BRANCH   3   5
HETATM    5  C   UNL     1     -11.690   6.738  71.364  1.00  0.00    -0.371 C  
HETATM    6  C   UNL     1     -11.219   5.563  72.210  1.00  0.00    -0.281 C  
HETATM    7  C   UNL     1     -10.680   6.939  72.482  1.00  0.00    -0.263 C  
BRANCH   5   8
HETATM    8  C   UNL     1     -11.270   6.892  69.907  1.00  0.00    -0.285 C  
BRANCH   8   9
HETATM    9  S   UNL     1     -10.223   8.293  69.463  1.00  0.00    -0.213 SA 
BRANCH   9  10
HETATM   10  C   UNL     1      -9.314   7.591  68.004  1.00  0.00    -0.139 C  
BRANCH  10  11
HETATM   11  C   UNL     1      -7.954   6.938  68.350  1.00  0.00    -0.122 C  
BRANCH  11  12
HETATM   12  C   UNL     1      -8.037   5.481  68.857  1.00  0.00    -0.095 C  
BRANCH  12  13
HETATM   13  C   UNL     1      -7.790   5.376  70.356  1.00  0.00    -0.088 A  
HETATM   14  C   UNL     1      -7.284   6.552  70.967  1.00  0.00    -0.078 A  
HETATM   15  C   UNL     1      -7.283   5.530  73.125  1.00  0.00    -0.090 A  
HETATM   16  H   UNL     1     -10.268   2.351  69.654  1.00  0.00     0.000 HD 
HETATM   17  C   UNL     1      -7.016   6.625  72.327  1.00  0.00    -0.068 A  
HETATM   18  C   UNL     1      -8.968   1.867  71.724  1.00  0.00    -0.121 C  
HETATM   19  C   UNL     1      -7.808   4.368  72.555  1.00  0.00    -0.085 A  
HETATM   20  C   UNL     1      -8.069   4.241  71.167  1.00  0.00    -0.077 A  
HETATM   21  O   UNL     1      -9.908   3.166  69.982  1.00  0.00    -0.061 OA 
HETATM   22  C   UNL     1      -7.727   2.225  69.624  1.00  0.00    -0.046 C  
HETATM   23  C   UNL     1      -8.655   2.917  70.633  1.00  0.00    -0.060 C  
ENDBRANCH  12  13
ENDBRANCH  11  12
ENDBRANCH  10  11
BRANCH  10  24
HETATM   24  C   UNL     1      -9.265   8.619  66.870  1.00  0.00    -0.198 A  
HETATM   25  C   UNL     1      -9.116  10.598  64.865  1.00  0.00    -0.231 A  
HETATM   26  C   UNL     1      -9.055   8.271  65.528  1.00  0.00    -0.065 A  
HETATM   27  C   UNL     1      -9.396   9.990  67.180  1.00  0.00    -0.173 A  
HETATM   28  C   UNL     1      -8.980   9.250  64.535  1.00  0.00    -0.183 A  
HETATM   29  C   UNL     1      -9.342  10.985  66.188  1.00  0.00    -0.214 A  
BRANCH  29  30
HETATM   30  C   UNL     1      -9.443  12.398  66.589  1.00  0.00    -0.232 C  
HETATM   31  C   UNL     1     -10.534  12.963  67.138  1.00  0.00    -0.241 C  
BRANCH  31  32
HETATM   32  C   UNL     1     -10.661  14.374  67.519  1.00  0.00    -0.265 A  
HETATM   33  N   UNL     1      -9.900  15.225  66.788  1.00  0.00    -0.230 NA 
HETATM   34  C   UNL     1      -9.899  16.532  67.107  1.00  0.00    -0.255 A  
HETATM   35  C   UNL     1     -10.651  17.042  68.185  1.00  0.00    -0.369 A  
HETATM   36  C   UNL     1     -11.424  16.148  68.928  1.00  0.00    -0.331 A  
HETATM   37  C   UNL     1     -10.606  18.412  68.501  1.00  0.00    -0.080 A  
HETATM   38  C   UNL     1      -9.812  19.276  67.752  1.00  0.00    -0.431 A  
HETATM   39  C   UNL     1     -11.424  14.798  68.597  1.00  0.00    -0.325 A  
HETATM   40  C   UNL     1      -9.078  18.772  66.683  1.00  0.00    -0.322 A  
HETATM   41  C   UNL     1      -9.126  17.414  66.368  1.00  0.00    -0.274 A  
HETATM   42 CL   UNL     1      -8.094  19.835  65.754  1.00  0.00    -0.251 Cl 
ENDBRANCH  31  32
ENDBRANCH  29  30
ENDBRANCH  10  24
ENDBRANCH   9  10
ENDBRANCH   8   9
ENDBRANCH   5   8
ENDBRANCH   3   5
TORSDOF 10
ENDMDL
MODEL       97
REMARK 921   NORMALIZED FREE ENERGY PREDICTED BY IDOCK:   -6.22 KCAL/MOL
REMARK 922        TOTAL FREE ENERGY PREDICTED BY IDOCK:  -11.51 KCAL/MOL
REMARK 923 INTER-LIGAND FREE ENERGY PREDICTED BY IDOCK:  -10.69 KCAL/MOL
REMARK 924 INTRA-LIGAND FREE ENERGY PREDICTED BY IDOCK:   -0.82 KCAL/MOL
REMARK 927      BINDING AFFINITY PREDICTED BY RF-SCORE:    0.00 PKD
ROOT
HETATM    1  O   UNL     1     -12.803   9.469  70.552  1.00  0.00    -0.009 OA 
HETATM    2  C   UNL     1     -12.614  10.773  70.228  1.00  0.00    -0.276 C  
HETATM    3  C   UNL     1     -12.430  11.659  71.443  1.00  0.00    -0.314 C  
HETATM    4  O   UNL     1     -12.553  11.142  69.066  1.00  0.00    -0.370 OA 
ENDROOT
BRANCH   3   5
HETATM    5  C   UNL     1     -12.771  13.130  71.202  1.00  0.00    -0.386 C  
HETATM    6  C   UNL     1     -12.778  14.042  72.421  1.00  0.00    -0.336 C  
HETATM    7  C   UNL     1     -14.079  13.634  71.790  1.00  0.00    -0.213 C  
BRANCH   5   8
HETATM    8  C   UNL     1     -12.296  13.621  69.840  1.00  0.00    -0.249 C  
BRANCH   8   9
HETATM    9  S   UNL     1     -11.200  15.053  69.783  1.00  0.00    -0.292 SA 
BRANCH   9  10
HETATM   10  C   UNL     1      -9.996  14.509  68.477  1.00  0.00    -0.238 C  
BRANCH  10  11
HETATM   11  C   UNL     1      -8.982  15.596  68.048  1.00  0.00    -0.178 C  
BRANCH  11  12
HETATM   12  C   UNL     1      -8.927  16.839  68.963  1.00  0.00    -0.188 C  
BRANCH  12  13
HETATM   13  C   UNL     1      -9.067  18.139  68.181  1.00  0.00    -0.298 A  
HETATM   14  C   UNL     1     -10.395  18.488  67.826  1.00  0.00    -0.435 A  
HETATM   15  C   UNL     1      -9.674  20.511  66.783  1.00  0.00    -0.466 A  
HETATM   16  H   UNL     1      -5.472  18.487  69.835  1.00  0.00     0.000 HD 
HETATM   17  C   UNL     1     -10.696  19.647  67.123  1.00  0.00    -0.587 A  
HETATM   18  C   UNL     1      -5.570  19.928  67.805  1.00  0.00    -0.209 C  
HETATM   19  C   UNL     1      -8.359  20.207  67.143  1.00  0.00    -0.391 A  
HETATM   20  C   UNL     1      -8.006  19.021  67.836  1.00  0.00    -0.307 A  
HETATM   21  O   UNL     1      -6.384  18.637  69.615  1.00  0.00    -0.269 OA 
HETATM   22  C   UNL     1      -5.959  17.509  67.537  1.00  0.00    -0.158 C  
HETATM   23  C   UNL     1      -6.525  18.777  68.195  1.00  0.00    -0.216 C  
ENDBRANCH  12  13
ENDBRANCH  11  12
ENDBRANCH  10  11
BRANCH  10  24
HETATM   24  C   UNL     1     -10.742  13.833  67.323  1.00  0.00    -0.286 A  
HETATM   25  C   UNL     1     -12.099  12.471  65.259  1.00  0.00    -0.500 A  
HETATM   26  C   UNL     1     -11.828  14.425  66.661  1.00  0.00    -0.417 A  
HETATM   27  C   UNL     1     -10.357  12.536  66.922  1.00  0.00    -0.242 A  
HETATM   28  C   UNL     1     -12.500  13.750  65.640  1.00  0.00    -0.541 A  
HETATM   29  C   UNL     1     -11.012  11.853  65.882  1.00  0.00    -0.354 A  
BRANCH  29  30
HETATM   30  C   UNL     1     -10.584  10.485  65.546  1.00  0.00    -0.138 C  
HETATM   31  C   UNL     1      -9.485   9.883  66.036  1.00  0.00    -0.258 C  
BRANCH  31  32
HETATM   32  C   UNL     1      -9.030   8.532  65.692  1.00  0.00    -0.160 A  
HETATM   33  N   UNL     1      -9.464   7.561  66.531  1.00  0.00    -0.187 NA 
HETATM   34  C   UNL     1      -9.045   6.298  66.335  1.00  0.00    -0.153 A  
HETATM   35  C   UNL     1      -8.156   5.954  65.295  1.00  0.00    -0.133 A  
HETATM   36  C   UNL     1      -7.717   6.971  64.444  1.00  0.00    -0.113 A  
HETATM   37  C   UNL     1      -7.723   4.626  65.137  1.00  0.00    -0.085 A  
HETATM   38  C   UNL     1      -8.165   3.638  66.011  1.00  0.00    -0.101 A  
HETATM   39  C   UNL     1      -8.152   8.276  64.648  1.00  0.00    -0.150 A  
HETATM   40  C   UNL     1      -9.048   3.977  67.031  1.00  0.00    -0.149 A  
HETATM   41  C   UNL     1      -9.481   5.294  67.186  1.00  0.00    -0.132 A  
HETATM   42 CL   UNL     1      -9.599   2.760  68.116  1.00  0.00    -0.210 Cl 
ENDBRANCH  31  32
ENDBRANCH  29  30
ENDBRANCH  10  24
ENDBRANCH   9  10
ENDBRANCH   8   9
ENDBRANCH   5   8
ENDBRANCH   3   5
TORSDOF 10
ENDMDL
MODEL       98
REMARK 921   NORMALIZED FREE ENERGY PREDICTED BY IDOCK:   -6.17 KCAL/MOL
REMARK 922        TOTAL FREE ENERGY PREDICTED BY IDOCK:  -11.44 KCAL/MOL
REMARK 923 INTER-LIGAND FREE ENERGY PREDICTED BY IDOCK:   -8.90 KCAL/MOL
REMARK 924 INTRA-LIGAND FREE ENERGY PREDICTED BY IDOCK:   -2.54 KCAL/MOL
REMARK 927      BINDING AFFINITY PREDICTED BY RF-SCORE:    0.00 PKD
ROOT
HETATM    1  O   UNL     1      -9.614   2.878  67.958  1.00  0.00    -0.195 OA 
HETATM    2  C   UNL     1      -8.673   3.742  67.501  1.00  0.00    -0.109 C  
HETATM    3  C   UNL     1      -9.246   4.798  66.577  1.00  0.00    -0.133 C  
HETATM    4  O   UNL     1      -7.509   3.673  67.862  1.00  0.00    -0.061 OA 
ENDROOT
BRANCH   3   5
HETATM    5  C   UNL     1      -8.224   5.415  65.622  1.00  0.00    -0.124 C  
HETATM    6  C   UNL     1      -8.430   5.158  64.136  1.00  0.00    -0.127 C  
HETATM    7  C   UNL     1      -7.325   4.450  64.866  1.00  0.00    -0.072 C  
BRANCH   5   8
HETATM    8  C   UNL     1      -7.675   6.741  66.135  1.00  0.00    -0.091 C  
BRANCH   8   9
HETATM    9  S   UNL     1      -8.589   8.249  65.752  1.00  0.00    -0.162 SA 
BRANCH   9  10
HETATM   10  C   UNL     1      -9.344   8.621  67.407  1.00  0.00    -0.144 C  
BRANCH  10  11
HETATM   11  C   UNL     1     -10.713   9.340  67.341  1.00  0.00    -0.263 C  
BRANCH  11  12
HETATM   12  C   UNL     1     -10.760  10.576  66.417  1.00  0.00    -0.166 C  
BRANCH  12  13
HETATM   13  C   UNL     1     -11.205  11.832  67.155  1.00  0.00    -0.375 A  
HETATM   14  C   UNL     1     -11.291  11.704  68.565  1.00  0.00    -0.332 A  
HETATM   15  C   UNL     1     -11.942  13.987  68.817  1.00  0.00    -0.382 A  
HETATM   16  H   UNL     1     -10.012  13.249  63.640  1.00  0.00     0.000 HD 
HETATM   17  C   UNL     1     -11.671  12.758  69.385  1.00  0.00    -0.380 A  
HETATM   18  C   UNL     1     -11.636  14.848  64.647  1.00  0.00    -0.395 C  
HETATM   19  C   UNL     1     -11.839  14.150  67.434  1.00  0.00    -0.447 A  
HETATM   20  C   UNL     1     -11.482  13.093  66.558  1.00  0.00    -0.378 A  
HETATM   21  O   UNL     1     -10.069  13.076  64.573  1.00  0.00    -0.317 OA 
HETATM   22  C   UNL     1     -12.383  12.537  64.225  1.00  0.00    -0.541 C  
HETATM   23  C   UNL     1     -11.390  13.375  65.044  1.00  0.00    -0.312 C  
ENDBRANCH  12  13
ENDBRANCH  11  12
ENDBRANCH  10  11
BRANCH  10  24
HETATM   24  C   UNL     1      -8.310   9.288  68.319  1.00  0.00    -0.120 A  
HETATM   25  C   UNL     1      -6.478  10.626  69.996  1.00  0.00    -0.138 A  
HETATM   26  C   UNL     1      -7.623   8.600  69.331  1.00  0.00    -0.092 A  
HETATM   27  C   UNL     1      -8.053  10.668  68.173  1.00  0.00    -0.114 A  
HETATM   28  C   UNL     1      -6.717   9.263  70.162  1.00  0.00    -0.059 A  
HETATM   29  C   UNL     1      -7.129  11.344  68.990  1.00  0.00    -0.117 A  
BRANCH  29  30
HETATM   30  C   UNL     1      -6.944  12.793  68.809  1.00  0.00    -0.096 C  
HETATM   31  C   UNL     1      -7.689  13.566  67.998  1.00  0.00    -0.143 C  
BRANCH  31  32
HETATM   32  C   UNL     1      -7.502  15.006  67.787  1.00  0.00    -0.159 A  
HETATM   33  N   UNL     1      -8.575  15.640  67.256  1.00  0.00    -0.180 NA 
HETATM   34  C   UNL     1      -8.475  16.950  66.965  1.00  0.00    -0.203 A  
HETATM   35  C   UNL     1      -7.287  17.679  67.178  1.00  0.00    -0.213 A  
HETATM   36  C   UNL     1      -6.191  17.004  67.721  1.00  0.00    -0.154 A  
HETATM   37  C   UNL     1      -7.215  19.042  66.839  1.00  0.00    -0.221 A  
HETATM   38  C   UNL     1      -8.319  19.682  66.283  1.00  0.00    -0.372 A  
HETATM   39  C   UNL     1      -6.296  15.651  68.022  1.00  0.00    -0.147 A  
HETATM   40  C   UNL     1      -9.493  18.964  66.081  1.00  0.00    -0.215 A  
HETATM   41  C   UNL     1      -9.565  17.613  66.422  1.00  0.00    -0.285 A  
HETATM   42 CL   UNL     1     -10.861  19.750  65.395  1.00  0.00    -0.360 Cl 
ENDBRANCH  31  32
ENDBRANCH  29  30
ENDBRANCH  10  24
ENDBRANCH   9  10
ENDBRANCH   8   9
ENDBRANCH   5   8
ENDBRANCH   3   5
TORSDOF 10
ENDMDL
MODEL       99
REMARK 921   NORMALIZED FREE ENERGY PREDICTED BY IDOCK:   -6.14 KCAL/MOL
REMARK 922        TOTAL FREE ENERGY PREDICTED BY IDOCK:  -11.39 KCAL/MOL
REMARK 923 INTER-LIGAND FREE ENERGY PREDICTED BY IDOCK:  -10.31 KCAL/MOL
REMARK 924 INTRA-LIGAND FREE ENERGY PREDICTED BY IDOCK:   -1.07 KCAL/MOL
REMARK 927      BINDING AFFINITY PREDICTED BY RF-SCORE:    0.00 PKD
ROOT
HETATM    1  O   UNL     1      -5.171  14.436  70.376  1.00  0.00    -0.095 OA 
HETATM    2  C   UNL     1      -6.391  14.841  69.940  1.00  0.00    -0.158 C  
HETATM    3  C   UNL     1      -6.434  15.062  68.441  1.00  0.00    -0.104 C  
HETATM    4  O   UNL     1      -7.339  14.952  70.700  1.00  0.00     0.409 OA 
ENDROOT
BRANCH   3   5
HETATM    5  C   UNL     1      -7.537  16.016  67.982  1.00  0.00    -0.137 C  
HETATM    6  C   UNL     1      -7.102  17.230  67.172  1.00  0.00    -0.204 C  
HETATM    7  C   UNL     1      -7.540  17.405  68.599  1.00  0.00    -0.265 C  
BRANCH   5   8
HETATM    8  C   UNL     1      -8.848  15.294  67.696  1.00  0.00    -0.175 C  
BRANCH   8   9
HETATM    9  S   UNL     1     -10.048  15.141  69.034  1.00  0.00    -0.252 SA 
BRANCH   9  10
HETATM   10  C   UNL     1     -10.863  13.535  68.580  1.00  0.00    -0.259 C  
BRANCH  10  11
HETATM   11  C   UNL     1     -11.597  13.552  67.218  1.00  0.00    -0.398 C  
BRANCH  11  12
HETATM   12  C   UNL     1     -12.174  12.192  66.768  1.00  0.00     0.318 C  
BRANCH  12  13
HETATM   13  C   UNL     1     -11.091  11.139  66.576  1.00  0.00    -0.233 A  
HETATM   14  C   UNL     1     -10.846  10.315  67.704  1.00  0.00    -0.363 A  
HETATM   15  C   UNL     1      -9.190   9.057  66.531  1.00  0.00    -0.226 A  
HETATM   16  H   UNL     1     -12.054  12.104  62.844  1.00  0.00     0.000 HD 
HETATM   17  C   UNL     1      -9.898   9.300  67.691  1.00  0.00    -0.221 A  
HETATM   18  C   UNL     1      -9.739  11.182  62.869  1.00  0.00    -0.349 C  
HETATM   19  C   UNL     1      -9.430   9.835  65.396  1.00  0.00    -0.333 A  
HETATM   20  C   UNL     1     -10.368  10.899  65.375  1.00  0.00    -0.326 A  
HETATM   21  O   UNL     1     -11.933  11.612  63.648  1.00  0.00    -0.416 OA 
HETATM   22  C   UNL     1     -10.212  13.184  64.228  1.00  0.00    -0.283 C  
HETATM   23  C   UNL     1     -10.565  11.698  64.070  1.00  0.00    -0.373 C  
ENDBRANCH  12  13
ENDBRANCH  11  12
ENDBRANCH  10  11
BRANCH  10  24
HETATM   24  C   UNL     1     -11.697  13.018  69.755  1.00  0.00    -0.346 A  
HETATM   25  C   UNL     1     -13.133  11.985  71.953  1.00  0.00    -0.475 A  
HETATM   26  C   UNL     1     -12.568  13.832  70.495  1.00  0.00    -0.361 A  
HETATM   27  C   UNL     1     -11.565  11.669  70.151  1.00  0.00    -0.303 A  
HETATM   28  C   UNL     1     -13.278  13.321  71.584  1.00  0.00    -0.446 A  
HETATM   29  C   UNL     1     -12.288  11.137  71.233  1.00  0.00    -0.402 A  
BRANCH  29  30
HETATM   30  C   UNL     1     -12.067   9.733  71.617  1.00  0.00    -0.475 C  
HETATM   31  C   UNL     1     -10.871   9.117  71.617  1.00  0.00    -0.442 C  
BRANCH  31  32
HETATM   32  C   UNL     1     -10.637   7.713  71.971  1.00  0.00    -0.220 A  
HETATM   33  N   UNL     1     -10.244   6.930  70.937  1.00  0.00    -0.198 NA 
HETATM   34  C   UNL     1     -10.069   5.613  71.150  1.00  0.00    -0.204 A  
HETATM   35  C   UNL     1     -10.296   5.019  72.408  1.00  0.00    -0.261 A  
HETATM   36  C   UNL     1     -10.706   5.842  73.459  1.00  0.00    -0.284 A  
HETATM   37  C   UNL     1     -10.124   3.634  72.584  1.00  0.00    -0.231 A  
HETATM   38  C   UNL     1      -9.731   2.837  71.513  1.00  0.00    -0.225 A  
HETATM   39  C   UNL     1     -10.886   7.203  73.237  1.00  0.00    -0.378 A  
HETATM   40  C   UNL     1      -9.498   3.426  70.275  1.00  0.00    -0.177 A  
HETATM   41  C   UNL     1      -9.665   4.800  70.101  1.00  0.00    -0.288 A  
HETATM   42 CL   UNL     1      -9.013   2.446  68.947  1.00  0.00    -0.152 Cl 
ENDBRANCH  31  32
ENDBRANCH  29  30
ENDBRANCH  10  24
ENDBRANCH   9  10
ENDBRANCH   8   9
ENDBRANCH   5   8
ENDBRANCH   3   5
TORSDOF 10
ENDMDL
MODEL      100
REMARK 921   NORMALIZED FREE ENERGY PREDICTED BY IDOCK:   -6.13 KCAL/MOL
REMARK 922        TOTAL FREE ENERGY PREDICTED BY IDOCK:  -11.37 KCAL/MOL
REMARK 923 INTER-LIGAND FREE ENERGY PREDICTED BY IDOCK:   -8.65 KCAL/MOL
REMARK 924 INTRA-LIGAND FREE ENERGY PREDICTED BY IDOCK:   -2.73 KCAL/MOL
REMARK 927      BINDING AFFINITY PREDICTED BY RF-SCORE:    0.00 PKD
ROOT
HETATM    1  O   UNL     1     -11.044  16.285  70.610  1.00  0.00    -0.341 OA 
HETATM    2  C   UNL     1     -10.933  16.019  69.284  1.00  0.00    -0.306 C  
HETATM    3  C   UNL     1     -10.132  14.764  69.002  1.00  0.00    -0.232 C  
HETATM    4  O   UNL     1     -11.481  16.714  68.443  1.00  0.00    -0.258 OA 
ENDROOT
BRANCH   3   5
HETATM    5  C   UNL     1      -9.510  14.721  67.606  1.00  0.00    -0.204 C  
HETATM    6  C   UNL     1      -8.006  14.493  67.531  1.00  0.00    -0.208 C  
HETATM    7  C   UNL     1      -8.567  15.856  67.241  1.00  0.00    -0.205 C  
BRANCH   5   8
HETATM    8  C   UNL     1     -10.458  14.140  66.564  1.00  0.00    -0.280 C  
BRANCH   8   9
HETATM    9  S   UNL     1     -11.738  12.996  67.118  1.00  0.00    -0.379 SA 
BRANCH   9  10
HETATM   10  C   UNL     1     -10.696  11.569  67.691  1.00  0.00    -0.211 C  
BRANCH  10  11
HETATM   11  C   UNL     1     -10.364  10.534  66.589  1.00  0.00    -0.295 C  
BRANCH  11  12
HETATM   12  C   UNL     1      -8.861  10.225  66.413  1.00  0.00    -0.158 C  
BRANCH  12  13
HETATM   13  C   UNL     1      -8.269   9.522  67.627  1.00  0.00    -0.121 A  
HETATM   14  C   UNL     1      -7.730  10.382  68.618  1.00  0.00    -0.101 A  
HETATM   15  C   UNL     1      -7.152   8.539  70.022  1.00  0.00    -0.046 A  
HETATM   16  H   UNL     1     -10.597   6.724  66.033  1.00  0.00     0.000 HD 
HETATM   17  C   UNL     1      -7.163   9.900  69.790  1.00  0.00    -0.118 A  
HETATM   18  C   UNL     1      -8.822   5.622  67.391  1.00  0.00    -0.105 C  
HETATM   19  C   UNL     1      -7.702   7.670  69.077  1.00  0.00    -0.117 A  
HETATM   20  C   UNL     1      -8.264   8.118  67.854  1.00  0.00    -0.129 A  
HETATM   21  O   UNL     1     -10.236   7.364  66.635  1.00  0.00    -0.240 OA 
HETATM   22  C   UNL     1      -8.129   7.070  65.520  1.00  0.00    -0.132 C  
HETATM   23  C   UNL     1      -8.851   7.079  66.876  1.00  0.00    -0.124 C  
ENDBRANCH  12  13
ENDBRANCH  11  12
ENDBRANCH  10  11
BRANCH  10  24
HETATM   24  C   UNL     1     -11.279  10.976  68.977  1.00  0.00    -0.320 A  
HETATM   25  C   UNL     1     -12.238   9.817  71.364  1.00  0.00    -0.486 A  
HETATM   26  C   UNL     1     -12.129  11.689  69.835  1.00  0.00    -0.373 A  
HETATM   27  C   UNL     1     -10.921   9.663  69.352  1.00  0.00    -0.215 A  
HETATM   28  C   UNL     1     -12.603  11.116  71.017  1.00  0.00    -0.503 A  
HETATM   29  C   UNL     1     -11.405   9.066  70.530  1.00  0.00    -0.282 A  
BRANCH  29  30
HETATM   30  C   UNL     1     -10.955   7.710  70.880  1.00  0.00    -0.261 C  
HETATM   31  C   UNL     1     -11.063   7.157  72.102  1.00  0.00    -0.282 C  
BRANCH  31  32
HETATM   32  C   UNL     1     -10.596   5.818  72.475  1.00  0.00    -0.221 A  
HETATM   33  N   UNL     1      -9.533   5.373  71.761  1.00  0.00    -0.146 NA 
HETATM   34  C   UNL     1      -9.075   4.128  71.986  1.00  0.00    -0.121 A  
HETATM   35  C   UNL     1      -9.674   3.266  72.927  1.00  0.00    -0.179 A  
HETATM   36  C   UNL     1     -10.771   3.742  73.649  1.00  0.00    -0.308 A  
HETATM   37  C   UNL     1      -9.179   1.963  73.118  1.00  0.00    -0.084 A  
HETATM   38  C   UNL     1      -8.095   1.512  72.371  1.00  0.00    -0.045 A  
HETATM   39  C   UNL     1     -11.243   5.029  73.415  1.00  0.00    -0.391 A  
HETATM   40  C   UNL     1      -7.500   2.367  71.449  1.00  0.00    -0.040 A  
HETATM   41  C   UNL     1      -7.988   3.660  71.263  1.00  0.00    -0.060 A  
HETATM   42 CL   UNL     1      -6.159   1.815  70.523  1.00  0.00    -0.018 Cl 
ENDBRANCH  31  32
ENDBRANCH  29  30
ENDBRANCH  10  24
ENDBRANCH   9  10
ENDBRANCH   8   9
ENDBRANCH   5   8
ENDBRANCH   3   5
TORSDOF 10
ENDMDL
MODEL      101
REMARK 921   NORMALIZED FREE ENERGY PREDICTED BY IDOCK:   -6.13 KCAL/MOL
REMARK 922        TOTAL FREE ENERGY PREDICTED BY IDOCK:  -11.37 KCAL/MOL
REMARK 923 INTER-LIGAND FREE ENERGY PREDICTED BY IDOCK:   -9.60 KCAL/MOL
REMARK 924 INTRA-LIGAND FREE ENERGY PREDICTED BY IDOCK:   -1.78 KCAL/MOL
REMARK 927      BINDING AFFINITY PREDICTED BY RF-SCORE:    0.00 PKD
ROOT
HETATM    1  O   UNL     1      -6.712   6.922  67.786  1.00  0.00    -0.062 OA 
HETATM    2  C   UNL     1      -7.640   6.362  68.604  1.00  0.00    -0.093 C  
HETATM    3  C   UNL     1      -9.025   6.942  68.404  1.00  0.00    -0.121 C  
HETATM    4  O   UNL     1      -7.355   5.453  69.367  1.00  0.00    -0.063 OA 
ENDROOT
BRANCH   3   5
HETATM    5  C   UNL     1      -9.949   6.786  69.612  1.00  0.00    -0.184 C  
HETATM    6  C   UNL     1     -10.707   5.471  69.731  1.00  0.00    -0.355 C  
HETATM    7  C   UNL     1     -11.441   6.718  69.328  1.00  0.00    -0.162 C  
BRANCH   5   8
HETATM    8  C   UNL     1      -9.429   7.522  70.841  1.00  0.00    -0.165 C  
BRANCH   8   9
HETATM    9  S   UNL     1      -8.670   9.142  70.609  1.00  0.00    -0.236 SA 
BRANCH   9  10
HETATM   10  C   UNL     1      -9.688   9.797  69.200  1.00  0.00    -0.184 C  
BRANCH  10  11
HETATM   11  C   UNL     1      -8.863  10.249  67.971  1.00  0.00    -0.122 C  
BRANCH  11  12
HETATM   12  C   UNL     1      -9.319   9.653  66.621  1.00  0.00    -0.200 C  
BRANCH  12  13
HETATM   13  C   UNL     1      -9.979  10.692  65.723  1.00  0.00    -0.315 A  
HETATM   14  C   UNL     1     -11.091  11.362  66.295  1.00  0.00    -0.281 A  
HETATM   15  C   UNL     1     -11.385  12.712  64.347  1.00  0.00    -0.393 A  
HETATM   16  H   UNL     1      -6.402  10.230  64.057  1.00  0.00     0.000 HD 
HETATM   17  C   UNL     1     -11.797  12.344  65.613  1.00  0.00    -0.468 A  
HETATM   18  C   UNL     1      -7.992  11.078  62.336  1.00  0.00    -0.165 C  
HETATM   19  C   UNL     1     -10.275  12.089  63.771  1.00  0.00    -0.447 A  
HETATM   20  C   UNL     1      -9.545  11.061  64.420  1.00  0.00    -0.301 A  
HETATM   21  O   UNL     1      -7.150  10.613  64.499  1.00  0.00     0.031 OA 
HETATM   22  C   UNL     1      -8.504   8.935  63.442  1.00  0.00    -0.150 C  
HETATM   23  C   UNL     1      -8.330  10.439  63.702  1.00  0.00    -0.153 C  
ENDBRANCH  12  13
ENDBRANCH  11  12
ENDBRANCH  10  11
BRANCH  10  24
HETATM   24  C   UNL     1     -10.696  10.828  69.714  1.00  0.00    -0.241 A  
HETATM   25  C   UNL     1     -12.541  12.793  70.547  1.00  0.00    -0.191 A  
HETATM   26  C   UNL     1     -11.802  10.489  70.509  1.00  0.00    -0.442 A  
HETATM   27  C   UNL     1     -10.543  12.182  69.347  1.00  0.00     0.144 A  
HETATM   28  C   UNL     1     -12.715  11.462  70.920  1.00  0.00    -0.397 A  
HETATM   29  C   UNL     1     -11.445  13.175  69.770  1.00  0.00    -0.216 A  
BRANCH  29  30
HETATM   30  C   UNL     1     -11.247  14.560  69.313  1.00  0.00    -0.309 C  
HETATM   31  C   UNL     1     -10.217  14.978  68.555  1.00  0.00    -0.227 C  
BRANCH  31  32
HETATM   32  C   UNL     1      -9.990  16.358  68.112  1.00  0.00    -0.242 A  
HETATM   33  N   UNL     1      -8.869  16.932  68.612  1.00  0.00    -0.257 NA 
HETATM   34  C   UNL     1      -8.611  18.219  68.315  1.00  0.00    -0.285 A  
HETATM   35  C   UNL     1      -9.477  18.993  67.516  1.00  0.00    -0.351 A  
HETATM   36  C   UNL     1     -10.630  18.384  67.015  1.00  0.00    -0.400 A  
HETATM   37  C   UNL     1      -9.184  20.342  67.247  1.00  0.00    -0.525 A  
HETATM   38  C   UNL     1      -8.036  20.926  67.774  1.00  0.00    -0.009 A  
HETATM   39  C   UNL     1     -10.894  17.054  67.323  1.00  0.00    -0.123 A  
HETATM   40  C   UNL     1      -7.179  20.158  68.556  1.00  0.00    -0.201 A  
HETATM   41  C   UNL     1      -7.467  18.819  68.819  1.00  0.00    -0.337 A  
HETATM   42 CL   UNL     1      -5.758  20.874  69.211  1.00  0.00    -0.401 Cl 
ENDBRANCH  31  32
ENDBRANCH  29  30
ENDBRANCH  10  24
ENDBRANCH   9  10
ENDBRANCH   8   9
ENDBRANCH   5   8
ENDBRANCH   3   5
TORSDOF 10
ENDMDL
MODEL      102
REMARK 921   NORMALIZED FREE ENERGY PREDICTED BY IDOCK:   -6.07 KCAL/MOL
REMARK 922        TOTAL FREE ENERGY PREDICTED BY IDOCK:  -11.27 KCAL/MOL
REMARK 923 INTER-LIGAND FREE ENERGY PREDICTED BY IDOCK:   -9.37 KCAL/MOL
REMARK 924 INTRA-LIGAND FREE ENERGY PREDICTED BY IDOCK:   -1.90 KCAL/MOL
REMARK 927      BINDING AFFINITY PREDICTED BY RF-SCORE:    0.00 PKD
ROOT
HETATM    1  O   UNL     1     -14.397   8.642  72.768  1.00  0.00    -0.520 OA 
HETATM    2  C   UNL     1     -13.352   9.028  71.993  1.00  0.00    -0.438 C  
HETATM    3  C   UNL     1     -12.721   7.873  71.241  1.00  0.00    -0.251 C  
HETATM    4  O   UNL     1     -13.021  10.199  71.900  1.00  0.00    -0.416 OA 
ENDROOT
BRANCH   3   5
HETATM    5  C   UNL     1     -11.270   8.116  70.826  1.00  0.00    -0.275 C  
HETATM    6  C   UNL     1     -10.249   7.072  71.258  1.00  0.00    -0.203 C  
HETATM    7  C   UNL     1     -10.280   8.409  71.942  1.00  0.00    -0.340 C  
BRANCH   5   8
HETATM    8  C   UNL     1     -11.160   8.834  69.487  1.00  0.00     0.020 C  
BRANCH   8   9
HETATM    9  S   UNL     1     -10.813  10.605  69.493  1.00  0.00    -0.261 SA 
BRANCH   9  10
HETATM   10  C   UNL     1      -9.655  10.731  68.047  1.00  0.00    -0.163 C  
BRANCH  10  11
HETATM   11  C   UNL     1      -8.158  10.575  68.408  1.00  0.00    -0.119 C  
BRANCH  11  12
HETATM   12  C   UNL     1      -7.299   9.857  67.345  1.00  0.00    -0.090 C  
BRANCH  12  13
HETATM   13  C   UNL     1      -7.779   8.437  67.076  1.00  0.00    -0.093 A  
HETATM   14  C   UNL     1      -8.039   7.660  68.234  1.00  0.00    -0.124 A  
HETATM   15  C   UNL     1      -8.737   5.789  66.924  1.00  0.00    -0.110 A  
HETATM   16  H   UNL     1      -8.486  10.276  63.626  1.00  0.00     0.000 HD 
HETATM   17  C   UNL     1      -8.493   6.350  68.162  1.00  0.00    -0.115 A  
HETATM   18  C   UNL     1      -8.255   7.831  63.206  1.00  0.00     0.007 C  
HETATM   19  C   UNL     1      -8.516   6.541  65.767  1.00  0.00    -0.149 A  
HETATM   20  C   UNL     1      -8.025   7.871  65.794  1.00  0.00    -0.109 A  
HETATM   21  O   UNL     1      -8.612   9.815  64.447  1.00  0.00    -0.159 OA 
HETATM   22  C   UNL     1      -6.355   9.023  64.230  1.00  0.00    -0.075 C  
HETATM   23  C   UNL     1      -7.820   8.620  64.462  1.00  0.00    -0.132 C  
ENDBRANCH  12  13
ENDBRANCH  11  12
ENDBRANCH  10  11
BRANCH  10  24
HETATM   24  C   UNL     1      -9.990  11.969  67.211  1.00  0.00    -0.205 A  
HETATM   25  C   UNL     1     -10.484  14.293  65.689  1.00  0.00    -0.336 A  
HETATM   26  C   UNL     1     -10.858  11.939  66.109  1.00  0.00    -0.334 A  
HETATM   27  C   UNL     1      -9.375  13.200  67.527  1.00  0.00    -0.207 A  
HETATM   28  C   UNL     1     -11.101  13.089  65.355  1.00  0.00    -0.300 A  
HETATM   29  C   UNL     1      -9.625  14.369  66.789  1.00  0.00    -0.279 A  
BRANCH  29  30
HETATM   30  C   UNL     1      -8.915  15.607  67.149  1.00  0.00    -0.232 C  
HETATM   31  C   UNL     1      -8.195  16.355  66.294  1.00  0.00    -0.343 C  
BRANCH  31  32
HETATM   32  C   UNL     1      -7.459  17.576  66.641  1.00  0.00    -0.245 A  
HETATM   33  N   UNL     1      -7.205  17.722  67.964  1.00  0.00    -0.213 NA 
HETATM   34  C   UNL     1      -6.593  18.843  68.387  1.00  0.00    -0.240 A  
HETATM   35  C   UNL     1      -6.222  19.876  67.502  1.00  0.00    -0.216 A  
HETATM   36  C   UNL     1      -6.497  19.707  66.143  1.00  0.00    -0.209 A  
HETATM   37  C   UNL     1      -5.604  21.043  67.987  1.00  0.00    -0.373 A  
HETATM   38  C   UNL     1      -5.358  21.189  69.349  1.00  0.00    -0.306 A  
HETATM   39  C   UNL     1      -7.130  18.548  65.708  1.00  0.00    -0.255 A  
HETATM   40  C   UNL     1      -5.717  20.165  70.219  1.00  0.00    -0.323 A  
HETATM   41  C   UNL     1      -6.326  19.006  69.738  1.00  0.00    -0.238 A  
HETATM   42 CL   UNL     1      -5.415  20.340  71.904  1.00  0.00    -0.396 Cl 
ENDBRANCH  31  32
ENDBRANCH  29  30
ENDBRANCH  10  24
ENDBRANCH   9  10
ENDBRANCH   8   9
ENDBRANCH   5   8
ENDBRANCH   3   5
TORSDOF 10
ENDMDL
MODEL      103
REMARK 921   NORMALIZED FREE ENERGY PREDICTED BY IDOCK:   -6.07 KCAL/MOL
REMARK 922        TOTAL FREE ENERGY PREDICTED BY IDOCK:  -11.27 KCAL/MOL
REMARK 923 INTER-LIGAND FREE ENERGY PREDICTED BY IDOCK:   -8.71 KCAL/MOL
REMARK 924 INTRA-LIGAND FREE ENERGY PREDICTED BY IDOCK:   -2.56 KCAL/MOL
REMARK 927      BINDING AFFINITY PREDICTED BY RF-SCORE:    0.00 PKD
ROOT
HETATM    1  O   UNL     1     -10.628  16.390  70.122  1.00  0.00    -0.251 OA 
HETATM    2  C   UNL     1     -10.199  15.872  68.942  1.00  0.00    -0.226 C  
HETATM    3  C   UNL     1     -10.895  16.486  67.744  1.00  0.00    -0.304 C  
HETATM    4  O   UNL     1      -9.308  15.039  68.894  1.00  0.00    -0.195 OA 
ENDROOT
BRANCH   3   5
HETATM    5  C   UNL     1     -10.888  15.603  66.497  1.00  0.00    -0.260 C  
HETATM    6  C   UNL     1      -9.561  15.464  65.762  1.00  0.00    -0.368 C  
HETATM    7  C   UNL     1     -10.657  16.302  65.166  1.00  0.00    -0.327 C  
BRANCH   5   8
HETATM    8  C   UNL     1     -11.869  14.442  66.599  1.00  0.00    -0.398 C  
BRANCH   8   9
HETATM    9  S   UNL     1     -11.791  13.144  65.348  1.00  0.00    -0.398 SA 
BRANCH   9  10
HETATM   10  C   UNL     1     -11.278  11.695  66.391  1.00  0.00    -0.287 C  
BRANCH  10  11
HETATM   11  C   UNL     1     -10.871  12.060  67.839  1.00  0.00    -0.254 C  
BRANCH  11  12
HETATM   12  C   UNL     1     -10.951  10.898  68.854  1.00  0.00    -0.278 C  
BRANCH  12  13
HETATM   13  C   UNL     1      -9.574  10.385  69.253  1.00  0.00    -0.226 A  
HETATM   14  C   UNL     1      -8.485  10.992  68.577  1.00  0.00    -0.153 A  
HETATM   15  C   UNL     1      -6.894   9.702  69.803  1.00  0.00    -0.070 A  
HETATM   16  H   UNL     1     -11.859   9.241  72.295  1.00  0.00     0.000 HD 
HETATM   17  C   UNL     1      -7.165  10.645  68.833  1.00  0.00    -0.090 A  
HETATM   18  C   UNL     1      -9.856   7.761  72.188  1.00  0.00    -0.242 C  
HETATM   19  C   UNL     1      -7.945   9.107  70.505  1.00  0.00    -0.170 A  
HETATM   20  C   UNL     1      -9.308   9.411  70.255  1.00  0.00    -0.294 A  
HETATM   21  O   UNL     1     -11.188   9.677  71.783  1.00  0.00    -0.323 OA 
HETATM   22  C   UNL     1     -11.344   7.856  70.224  1.00  0.00    -0.158 C  
HETATM   23  C   UNL     1     -10.397   8.703  71.087  1.00  0.00    -0.230 C  
ENDBRANCH  12  13
ENDBRANCH  11  12
ENDBRANCH  10  11
BRANCH  10  24
HETATM   24  C   UNL     1     -10.262  10.836  65.634  1.00  0.00    -0.320 A  
HETATM   25  C   UNL     1      -8.467   9.146  64.262  1.00  0.00    -0.200 A  
HETATM   26  C   UNL     1      -9.563  11.290  64.505  1.00  0.00    -0.260 A  
HETATM   27  C   UNL     1     -10.037   9.507  66.054  1.00  0.00    -0.319 A  
HETATM   28  C   UNL     1      -8.675  10.453  63.826  1.00  0.00    -0.198 A  
HETATM   29  C   UNL     1      -9.131   8.660  65.391  1.00  0.00    -0.150 A  
BRANCH  29  30
HETATM   30  C   UNL     1      -8.979   7.273  65.859  1.00  0.00    -0.103 C  
HETATM   31  C   UNL     1      -9.710   6.708  66.837  1.00  0.00    -0.209 C  
BRANCH  31  32
HETATM   32  C   UNL     1      -9.554   5.337  67.334  1.00  0.00    -0.134 A  
HETATM   33  N   UNL     1      -9.866   5.173  68.642  1.00  0.00    -0.151 NA 
HETATM   34  C   UNL     1      -9.691   3.964  69.205  1.00  0.00    -0.073 A  
HETATM   35  C   UNL     1      -9.179   2.866  68.482  1.00  0.00    -0.239 A  
HETATM   36  C   UNL     1      -8.859   3.058  67.136  1.00  0.00    -0.161 A  
HETATM   37  C   UNL     1      -8.990   1.623  69.113  1.00  0.00    -0.141 A  
HETATM   38  C   UNL     1      -9.302   1.468  70.460  1.00  0.00    -0.168 A  
HETATM   39  C   UNL     1      -9.041   4.308  66.557  1.00  0.00    -0.130 A  
HETATM   40  C   UNL     1      -9.815   2.549  71.169  1.00  0.00    -0.024 A  
HETATM   41  C   UNL     1     -10.007   3.781  70.542  1.00  0.00    -0.016 A  
HETATM   42 CL   UNL     1     -10.203   2.364  72.835  1.00  0.00    -0.209 Cl 
ENDBRANCH  31  32
ENDBRANCH  29  30
ENDBRANCH  10  24
ENDBRANCH   9  10
ENDBRANCH   8   9
ENDBRANCH   5   8
ENDBRANCH   3   5
TORSDOF 10
ENDMDL
MODEL      104
REMARK 921   NORMALIZED FREE ENERGY PREDICTED BY IDOCK:   -6.06 KCAL/MOL
REMARK 922        TOTAL FREE ENERGY PREDICTED BY IDOCK:  -11.27 KCAL/MOL
REMARK 923 INTER-LIGAND FREE ENERGY PREDICTED BY IDOCK:  -10.43 KCAL/MOL
REMARK 924 INTRA-LIGAND FREE ENERGY PREDICTED BY IDOCK:   -0.83 KCAL/MOL
REMARK 927      BINDING AFFINITY PREDICTED BY RF-SCORE:    0.00 PKD
ROOT
HETATM    1  O   UNL     1     -13.416  10.968  71.648  1.00  0.00    -0.278 OA 
HETATM    2  C   UNL     1     -12.634  11.827  70.946  1.00  0.00    -0.289 C  
HETATM    3  C   UNL     1     -12.685  13.242  71.488  1.00  0.00    -0.376 C  
HETATM    4  O   UNL     1     -11.939  11.449  70.017  1.00  0.00    -0.310 OA 
ENDROOT
BRANCH   3   5
HETATM    5  C   UNL     1     -12.312  14.316  70.467  1.00  0.00    -0.430 C  
HETATM    6  C   UNL     1     -11.408  15.441  70.953  1.00  0.00    -0.395 C  
HETATM    7  C   UNL     1     -12.866  15.711  70.708  1.00  0.00    -0.457 C  
BRANCH   5   8
HETATM    8  C   UNL     1     -12.205  13.762  69.052  1.00  0.00    -0.224 C  
BRANCH   8   9
HETATM    9  S   UNL     1     -11.531  14.830  67.764  1.00  0.00    -0.353 SA 
BRANCH   9  10
HETATM   10  C   UNL     1     -10.018  13.869  67.279  1.00  0.00    -0.242 C  
BRANCH  10  11
HETATM   11  C   UNL     1      -8.698  14.676  67.344  1.00  0.00    -0.209 C  
BRANCH  11  12
HETATM   12  C   UNL     1      -8.787  16.018  68.101  1.00  0.00    -0.178 C  
BRANCH  12  13
HETATM   13  C   UNL     1      -7.867  17.078  67.509  1.00  0.00    -0.186 A  
HETATM   14  C   UNL     1      -6.551  16.638  67.217  1.00  0.00    -0.213 A  
HETATM   15  C   UNL     1      -5.938  18.777  66.351  1.00  0.00    -0.185 A  
HETATM   16  H   UNL     1     -11.485  18.590  66.867  1.00  0.00     0.000 HD 
HETATM   17  C   UNL     1      -5.593  17.476  66.664  1.00  0.00    -0.217 A  
HETATM   18  C   UNL     1      -9.826  20.450  66.904  1.00  0.00    -0.572 C  
HETATM   19  C   UNL     1      -7.235  19.230  66.602  1.00  0.00    -0.228 A  
HETATM   20  C   UNL     1      -8.235  18.415  67.193  1.00  0.00    -0.248 A  
HETATM   21  O   UNL     1     -10.619  18.226  66.724  1.00  0.00    -0.370 OA 
HETATM   22  C   UNL     1     -10.033  19.032  68.910  1.00  0.00    -0.460 C  
HETATM   23  C   UNL     1      -9.641  19.006  67.425  1.00  0.00    -0.306 C  
ENDBRANCH  12  13
ENDBRANCH  11  12
ENDBRANCH  10  11
BRANCH  10  24
HETATM   24  C   UNL     1     -10.261  13.136  65.957  1.00  0.00    -0.287 A  
HETATM   25  C   UNL     1     -10.708  11.670  63.588  1.00  0.00    -0.500 A  
HETATM   26  C   UNL     1     -11.068  13.651  64.932  1.00  0.00    -0.356 A  
HETATM   27  C   UNL     1      -9.685  11.862  65.761  1.00  0.00    -0.258 A  
HETATM   28  C   UNL     1     -11.290  12.925  63.760  1.00  0.00    -0.490 A  
HETATM   29  C   UNL     1      -9.884  11.129  64.579  1.00  0.00    -0.330 A  
BRANCH  29  30
HETATM   30  C   UNL     1      -9.288   9.788  64.461  1.00  0.00    -0.298 C  
HETATM   31  C   UNL     1      -9.117   8.932  65.485  1.00  0.00    -0.248 C  
BRANCH  31  32
HETATM   32  C   UNL     1      -8.501   7.604  65.391  1.00  0.00    -0.098 A  
HETATM   33  N   UNL     1      -8.798   6.773  66.418  1.00  0.00    -0.140 NA 
HETATM   34  C   UNL     1      -8.226   5.555  66.453  1.00  0.00    -0.106 A  
HETATM   35  C   UNL     1      -7.317   5.123  65.466  1.00  0.00    -0.073 A  
HETATM   36  C   UNL     1      -7.022   5.998  64.418  1.00  0.00    -0.051 A  
HETATM   37  C   UNL     1      -6.723   3.851  65.550  1.00  0.00    -0.049 A  
HETATM   38  C   UNL     1      -7.025   3.009  66.615  1.00  0.00    -0.053 A  
HETATM   39  C   UNL     1      -7.613   7.255  64.383  1.00  0.00    -0.111 A  
HETATM   40  C   UNL     1      -7.928   3.432  67.584  1.00  0.00    -0.080 A  
HETATM   41  C   UNL     1      -8.521   4.693  67.498  1.00  0.00    -0.104 A  
HETATM   42 CL   UNL     1      -8.306   2.395  68.905  1.00  0.00    -0.075 Cl 
ENDBRANCH  31  32
ENDBRANCH  29  30
ENDBRANCH  10  24
ENDBRANCH   9  10
ENDBRANCH   8   9
ENDBRANCH   5   8
ENDBRANCH   3   5
TORSDOF 10
ENDMDL
MODEL      105
REMARK 921   NORMALIZED FREE ENERGY PREDICTED BY IDOCK:   -6.01 KCAL/MOL
REMARK 922        TOTAL FREE ENERGY PREDICTED BY IDOCK:  -11.17 KCAL/MOL
REMARK 923 INTER-LIGAND FREE ENERGY PREDICTED BY IDOCK:   -8.22 KCAL/MOL
REMARK 924 INTRA-LIGAND FREE ENERGY PREDICTED BY IDOCK:   -2.95 KCAL/MOL
REMARK 927      BINDING AFFINITY PREDICTED BY RF-SCORE:    0.00 PKD
ROOT
HETATM    1  O   UNL     1      -9.420   2.306  68.121  1.00  0.00    -0.208 OA 
HETATM    2  C   UNL     1      -8.787   2.657  66.973  1.00  0.00    -0.137 C  
HETATM    3  C   UNL     1      -7.752   3.745  67.183  1.00  0.00    -0.080 C  
HETATM    4  O   UNL     1      -9.018   2.094  65.915  1.00  0.00    -0.127 OA 
ENDROOT
BRANCH   3   5
HETATM    5  C   UNL     1      -7.428   4.550  65.926  1.00  0.00    -0.082 C  
HETATM    6  C   UNL     1      -6.386   3.964  64.983  1.00  0.00    -0.028 C  
HETATM    7  C   UNL     1      -6.033   5.148  65.837  1.00  0.00    -0.022 C  
BRANCH   5   8
HETATM    8  C   UNL     1      -8.633   5.322  65.402  1.00  0.00    -0.149 C  
BRANCH   8   9
HETATM    9  S   UNL     1      -8.796   7.061  65.852  1.00  0.00    -0.052 SA 
BRANCH   9  10
HETATM   10  C   UNL     1      -9.142   6.912  67.671  1.00  0.00    -0.118 C  
BRANCH  10  11
HETATM   11  C   UNL     1     -10.619   6.608  68.019  1.00  0.00    -0.300 C  
BRANCH  11  12
HETATM   12  C   UNL     1     -10.831   5.758  69.291  1.00  0.00    -0.374 C  
BRANCH  12  13
HETATM   13  C   UNL     1     -10.745   6.591  70.564  1.00  0.00    -0.305 A  
HETATM   14  C   UNL     1     -11.478   7.805  70.540  1.00  0.00    -0.219 A  
HETATM   15  C   UNL     1     -10.840   8.331  72.780  1.00  0.00    -0.308 A  
HETATM   16  H   UNL     1      -9.603   2.988  71.787  1.00  0.00     0.000 HD 
HETATM   17  C   UNL     1     -11.513   8.672  71.624  1.00  0.00    -0.375 A  
HETATM   18  C   UNL     1      -8.662   4.701  73.332  1.00  0.00    -0.100 C  
HETATM   19  C   UNL     1     -10.132   7.128  72.842  1.00  0.00    -0.247 A  
HETATM   20  C   UNL     1     -10.047   6.228  71.749  1.00  0.00    -0.211 A  
HETATM   21  O   UNL     1     -10.097   3.792  71.683  1.00  0.00    -0.165 OA 
HETATM   22  C   UNL     1      -8.059   4.827  70.945  1.00  0.00    -0.083 C  
HETATM   23  C   UNL     1      -9.245   4.921  71.917  1.00  0.00    -0.140 C  
ENDBRANCH  12  13
ENDBRANCH  11  12
ENDBRANCH  10  11
BRANCH  10  24
HETATM   24  C   UNL     1      -8.535   8.101  68.421  1.00  0.00    -0.126 A  
HETATM   25  C   UNL     1      -7.529  10.357  69.784  1.00  0.00    -0.155 A  
HETATM   26  C   UNL     1      -7.674   7.956  69.520  1.00  0.00    -0.104 A  
HETATM   27  C   UNL     1      -8.878   9.412  68.026  1.00  0.00    -0.124 A  
HETATM   28  C   UNL     1      -7.177   9.072  70.195  1.00  0.00    -0.062 A  
HETATM   29  C   UNL     1      -8.370  10.545  68.685  1.00  0.00    -0.132 A  
BRANCH  29  30
HETATM   30  C   UNL     1      -8.806  11.880  68.246  1.00  0.00    -0.174 C  
HETATM   31  C   UNL     1      -9.016  12.236  66.965  1.00  0.00    -0.204 C  
BRANCH  31  32
HETATM   32  C   UNL     1      -9.424  13.569  66.508  1.00  0.00    -0.256 A  
HETATM   33  N   UNL     1      -9.117  14.575  67.362  1.00  0.00    -0.188 NA 
HETATM   34  C   UNL     1      -9.511  15.826  67.059  1.00  0.00    -0.223 A  
HETATM   35  C   UNL     1     -10.245  16.121  65.893  1.00  0.00    -0.381 A  
HETATM   36  C   UNL     1     -10.555  15.068  65.028  1.00  0.00    -0.437 A  
HETATM   37  C   UNL     1     -10.658  17.438  65.623  1.00  0.00    -0.158 A  
HETATM   38  C   UNL     1     -10.348  18.463  66.512  1.00  0.00    -0.426 A  
HETATM   39  C   UNL     1     -10.148  13.777  65.342  1.00  0.00    -0.307 A  
HETATM   40  C   UNL     1      -9.616  18.172  67.658  1.00  0.00    -0.278 A  
HETATM   41  C   UNL     1      -9.203  16.866  67.923  1.00  0.00    -0.234 A  
HETATM   42 CL   UNL     1      -9.229  19.434  68.762  1.00  0.00    -0.426 Cl 
ENDBRANCH  31  32
ENDBRANCH  29  30
ENDBRANCH  10  24
ENDBRANCH   9  10
ENDBRANCH   8   9
ENDBRANCH   5   8
ENDBRANCH   3   5
TORSDOF 10
ENDMDL
MODEL      106
REMARK 921   NORMALIZED FREE ENERGY PREDICTED BY IDOCK:   -6.00 KCAL/MOL
REMARK 922        TOTAL FREE ENERGY PREDICTED BY IDOCK:  -11.16 KCAL/MOL
REMARK 923 INTER-LIGAND FREE ENERGY PREDICTED BY IDOCK:   -9.68 KCAL/MOL
REMARK 924 INTRA-LIGAND FREE ENERGY PREDICTED BY IDOCK:   -1.48 KCAL/MOL
REMARK 927      BINDING AFFINITY PREDICTED BY RF-SCORE:    0.00 PKD
ROOT
HETATM    1  O   UNL     1     -10.365  19.030  68.310  1.00  0.00    -0.373 OA 
HETATM    2  C   UNL     1     -10.133  17.723  68.597  1.00  0.00    -0.384 C  
HETATM    3  C   UNL     1     -11.398  16.888  68.590  1.00  0.00     0.046 C  
HETATM    4  O   UNL     1      -9.005  17.298  68.782  1.00  0.00    -0.273 OA 
ENDROOT
BRANCH   3   5
HETATM    5  C   UNL     1     -11.306  15.608  69.421  1.00  0.00    -0.332 C  
HETATM    6  C   UNL     1     -12.415  15.366  70.435  1.00  0.00    -0.447 C  
HETATM    7  C   UNL     1     -11.050  15.776  70.910  1.00  0.00    -0.354 C  
BRANCH   5   8
HETATM    8  C   UNL     1     -10.664  14.460  68.651  1.00  0.00    -0.253 C  
BRANCH   8   9
HETATM    9  S   UNL     1     -11.724  13.118  68.078  1.00  0.00    -0.355 SA 
BRANCH   9  10
HETATM   10  C   UNL     1     -10.714  11.644  68.588  1.00  0.00    -0.212 C  
BRANCH  10  11
HETATM   11  C   UNL     1     -10.307  10.712  67.422  1.00  0.00    -0.262 C  
BRANCH  11  12
HETATM   12  C   UNL     1      -8.916  10.994  66.812  1.00  0.00    -0.163 C  
BRANCH  12  13
HETATM   13  C   UNL     1      -8.924  10.909  65.291  1.00  0.00    -0.202 A  
HETATM   14  C   UNL     1      -9.995  11.587  64.656  1.00  0.00    -0.305 A  
HETATM   15  C   UNL     1      -9.194  10.994  62.486  1.00  0.00    -0.337 A  
HETATM   16  H   UNL     1      -5.176   9.964  66.209  1.00  0.00     0.000 HD 
HETATM   17  C   UNL     1     -10.141  11.616  63.275  1.00  0.00    -0.454 A  
HETATM   18  C   UNL     1      -5.731   8.995  63.982  1.00  0.00    -0.070 C  
HETATM   19  C   UNL     1      -8.113  10.342  63.084  1.00  0.00    -0.158 A  
HETATM   20  C   UNL     1      -7.942  10.264  64.490  1.00  0.00    -0.133 A  
HETATM   21  O   UNL     1      -5.934  10.419  65.862  1.00  0.00    -0.082 OA 
HETATM   22  C   UNL     1      -7.093   8.316  65.921  1.00  0.00    -0.071 C  
HETATM   23  C   UNL     1      -6.711   9.525  65.054  1.00  0.00    -0.089 C  
ENDBRANCH  12  13
ENDBRANCH  11  12
ENDBRANCH  10  11
BRANCH  10  24
HETATM   24  C   UNL     1     -11.375  10.940  69.776  1.00  0.00    -0.374 A  
HETATM   25  C   UNL     1     -12.473   9.599  72.002  1.00  0.00    -0.412 A  
HETATM   26  C   UNL     1     -12.478  11.467  70.464  1.00  0.00    -0.367 A  
HETATM   27  C   UNL     1     -10.837   9.719  70.238  1.00  0.00    -0.356 A  
HETATM   28  C   UNL     1     -13.021  10.804  71.566  1.00  0.00    -0.562 A  
HETATM   29  C   UNL     1     -11.385   9.032  71.335  1.00  0.00    -0.394 A  
BRANCH  29  30
HETATM   30  C   UNL     1     -10.744   7.787  71.789  1.00  0.00    -0.265 C  
HETATM   31  C   UNL     1     -11.398   6.736  72.318  1.00  0.00    -0.310 C  
BRANCH  31  32
HETATM   32  C   UNL     1     -10.774   5.500  72.799  1.00  0.00    -0.247 A  
HETATM   33  N   UNL     1      -9.564   5.230  72.251  1.00  0.00    -0.151 NA 
HETATM   34  C   UNL     1      -8.943   4.083  72.582  1.00  0.00    -0.109 A  
HETATM   35  C   UNL     1      -9.516   3.146  73.466  1.00  0.00    -0.124 A  
HETATM   36  C   UNL     1     -10.766   3.441  74.015  1.00  0.00    -0.283 A  
HETATM   37  C   UNL     1      -8.846   1.947  73.768  1.00  0.00    -0.058 A  
HETATM   38  C   UNL     1      -7.609   1.674  73.191  1.00  0.00    -0.033 A  
HETATM   39  C   UNL     1     -11.406   4.627  73.673  1.00  0.00    -0.269 A  
HETATM   40  C   UNL     1      -7.041   2.603  72.326  1.00  0.00    -0.034 A  
HETATM   41  C   UNL     1      -7.704   3.794  72.029  1.00  0.00    -0.063 A  
HETATM   42 CL   UNL     1      -5.512   2.271  71.609  1.00  0.00    -0.007 Cl 
ENDBRANCH  31  32
ENDBRANCH  29  30
ENDBRANCH  10  24
ENDBRANCH   9  10
ENDBRANCH   8   9
ENDBRANCH   5   8
ENDBRANCH   3   5
TORSDOF 10
ENDMDL
MODEL      107
REMARK 921   NORMALIZED FREE ENERGY PREDICTED BY IDOCK:   -5.92 KCAL/MOL
REMARK 922        TOTAL FREE ENERGY PREDICTED BY IDOCK:  -11.03 KCAL/MOL
REMARK 923 INTER-LIGAND FREE ENERGY PREDICTED BY IDOCK:   -9.69 KCAL/MOL
REMARK 924 INTRA-LIGAND FREE ENERGY PREDICTED BY IDOCK:   -1.33 KCAL/MOL
REMARK 927      BINDING AFFINITY PREDICTED BY RF-SCORE:    0.00 PKD
ROOT
HETATM    1  O   UNL     1     -11.584  10.378  67.756  1.00  0.00    -0.405 OA 
HETATM    2  C   UNL     1     -11.611  11.437  68.605  1.00  0.00    -0.320 C  
HETATM    3  C   UNL     1     -12.043  12.722  67.926  1.00  0.00    -0.187 C  
HETATM    4  O   UNL     1     -11.360  11.313  69.792  1.00  0.00    -0.269 OA 
ENDROOT
BRANCH   3   5
HETATM    5  C   UNL     1     -11.570  13.992  68.634  1.00  0.00    -0.360 C  
HETATM    6  C   UNL     1     -11.326  13.892  70.133  1.00  0.00    -0.063 C  
HETATM    7  C   UNL     1     -12.536  14.623  69.624  1.00  0.00    -0.197 C  
BRANCH   5   8
HETATM    8  C   UNL     1     -10.700  14.866  67.739  1.00  0.00    -0.271 C  
BRANCH   8   9
HETATM    9  S   UNL     1      -9.522  14.057  66.638  1.00  0.00    -0.279 SA 
BRANCH   9  10
HETATM   10  C   UNL     1      -8.046  13.923  67.757  1.00  0.00    -0.172 C  
BRANCH  10  11
HETATM   11  C   UNL     1      -6.980  15.025  67.547  1.00  0.00    -0.214 C  
BRANCH  11  12
HETATM   12  C   UNL     1      -7.532  16.388  67.075  1.00  0.00    -0.250 C  
BRANCH  12  13
HETATM   13  C   UNL     1      -7.189  17.516  68.040  1.00  0.00    -0.206 A  
HETATM   14  C   UNL     1      -6.083  17.264  68.892  1.00  0.00    -0.182 A  
HETATM   15  C   UNL     1      -6.261  19.422  69.899  1.00  0.00    -0.303 A  
HETATM   16  H   UNL     1      -9.389  19.348  65.286  1.00  0.00     0.000 HD 
HETATM   17  C   UNL     1      -5.635  18.194  69.821  1.00  0.00    -0.228 A  
HETATM   18  C   UNL     1      -9.505  20.648  67.409  1.00  0.00    -0.516 C  
HETATM   19  C   UNL     1      -7.335  19.708  69.053  1.00  0.00    -0.363 A  
HETATM   20  C   UNL     1      -7.843  18.777  68.111  1.00  0.00    -0.314 A  
HETATM   21  O   UNL     1      -8.658  19.094  65.836  1.00  0.00    -0.453 OA 
HETATM   22  C   UNL     1     -10.268  18.304  67.433  1.00  0.00    -0.385 C  
HETATM   23  C   UNL     1      -9.031  19.189  67.217  1.00  0.00    -0.295 C  
ENDBRANCH  12  13
ENDBRANCH  11  12
ENDBRANCH  10  11
BRANCH  10  24
HETATM   24  C   UNL     1      -7.503  12.491  67.742  1.00  0.00    -0.130 A  
HETATM   25  C   UNL     1      -6.628   9.809  67.723  1.00  0.00    -0.068 A  
HETATM   26  C   UNL     1      -6.389  12.100  66.983  1.00  0.00    -0.096 A  
HETATM   27  C   UNL     1      -8.167  11.496  68.491  1.00  0.00    -0.148 A  
HETATM   28  C   UNL     1      -5.957  10.773  66.973  1.00  0.00    -0.063 A  
HETATM   29  C   UNL     1      -7.731  10.159  68.505  1.00  0.00    -0.090 A  
BRANCH  29  30
HETATM   30  C   UNL     1      -8.499   9.167  69.275  1.00  0.00    -0.132 C  
HETATM   31  C   UNL     1      -8.594   9.144  70.617  1.00  0.00    -0.266 C  
BRANCH  31  32
HETATM   32  C   UNL     1      -9.332   8.147  71.401  1.00  0.00    -0.155 A  
HETATM   33  N   UNL     1      -8.793   6.904  71.381  1.00  0.00    -0.134 NA 
HETATM   34  C   UNL     1      -9.435   5.908  72.018  1.00  0.00    -0.150 A  
HETATM   35  C   UNL     1     -10.658   6.111  72.689  1.00  0.00    -0.246 A  
HETATM   36  C   UNL     1     -11.199   7.399  72.693  1.00  0.00    -0.379 A  
HETATM   37  C   UNL     1     -11.311   5.039  73.324  1.00  0.00    -0.393 A  
HETATM   38  C   UNL     1     -10.755   3.764  73.288  1.00  0.00    -0.287 A  
HETATM   39  C   UNL     1     -10.534   8.427  72.036  1.00  0.00    -0.384 A  
HETATM   40  C   UNL     1      -9.544   3.566  72.632  1.00  0.00    -0.134 A  
HETATM   41  C   UNL     1      -8.895   4.631  72.007  1.00  0.00    -0.136 A  
HETATM   42 CL   UNL     1      -8.852   1.992  72.584  1.00  0.00    -0.069 Cl 
ENDBRANCH  31  32
ENDBRANCH  29  30
ENDBRANCH  10  24
ENDBRANCH   9  10
ENDBRANCH   8   9
ENDBRANCH   5   8
ENDBRANCH   3   5
TORSDOF 10
ENDMDL
MODEL      108
REMARK 921   NORMALIZED FREE ENERGY PREDICTED BY IDOCK:   -5.91 KCAL/MOL
REMARK 922        TOTAL FREE ENERGY PREDICTED BY IDOCK:  -11.02 KCAL/MOL
REMARK 923 INTER-LIGAND FREE ENERGY PREDICTED BY IDOCK:   -9.98 KCAL/MOL
REMARK 924 INTRA-LIGAND FREE ENERGY PREDICTED BY IDOCK:   -1.05 KCAL/MOL
REMARK 927      BINDING AFFINITY PREDICTED BY RF-SCORE:    0.00 PKD
ROOT
HETATM    1  O   UNL     1     -11.358  16.566  70.103  1.00  0.00    -0.267 OA 
HETATM    2  C   UNL     1     -12.197  15.654  70.658  1.00  0.00    -0.405 C  
HETATM    3  C   UNL     1     -11.542  14.302  70.859  1.00  0.00    -0.146 C  
HETATM    4  O   UNL     1     -13.333  15.949  70.993  1.00  0.00    -0.514 OA 
ENDROOT
BRANCH   3   5
HETATM    5  C   UNL     1     -12.527  13.136  70.936  1.00  0.00    -0.407 C  
HETATM    6  C   UNL     1     -13.984  13.484  71.210  1.00  0.00     0.337 C  
HETATM    7  C   UNL     1     -13.153  12.858  72.293  1.00  0.00    -0.421 C  
BRANCH   5   8
HETATM    8  C   UNL     1     -12.141  11.987  70.013  1.00  0.00    -0.280 C  
BRANCH   8   9
HETATM    9  S   UNL     1     -12.506  10.302  70.548  1.00  0.00    -0.235 SA 
BRANCH   9  10
HETATM   10  C   UNL     1     -10.971   9.424  69.980  1.00  0.00    -0.239 C  
BRANCH  10  11
HETATM   11  C   UNL     1      -9.759   9.573  70.930  1.00  0.00    -0.242 C  
BRANCH  11  12
HETATM   12  C   UNL     1      -9.092   8.246  71.354  1.00  0.00    -0.217 C  
BRANCH  12  13
HETATM   13  C   UNL     1      -8.346   7.581  70.205  1.00  0.00    -0.134 A  
HETATM   14  C   UNL     1      -7.307   8.358  69.631  1.00  0.00    -0.072 A  
HETATM   15  C   UNL     1      -6.737   6.617  68.100  1.00  0.00    -0.068 A  
HETATM   16  H   UNL     1     -10.087   4.508  72.024  1.00  0.00     0.000 HD 
HETATM   17  C   UNL     1      -6.525   7.893  68.582  1.00  0.00    -0.049 A  
HETATM   18  C   UNL     1      -9.632   3.891  69.653  1.00  0.00    -0.259 C  
HETATM   19  C   UNL     1      -7.734   5.819  68.665  1.00  0.00    -0.090 A  
HETATM   20  C   UNL     1      -8.575   6.265  69.717  1.00  0.00    -0.137 A  
HETATM   21  O   UNL     1      -9.427   5.099  71.679  1.00  0.00    -0.144 OA 
HETATM   22  C   UNL     1     -11.073   5.843  70.096  1.00  0.00    -0.395 C  
HETATM   23  C   UNL     1      -9.645   5.306  70.277  1.00  0.00    -0.179 C  
ENDBRANCH  12  13
ENDBRANCH  11  12
ENDBRANCH  10  11
BRANCH  10  24
HETATM   24  C   UNL     1     -10.685   9.760  68.513  1.00  0.00    -0.252 A  
HETATM   25  C   UNL     1     -10.092  10.486  65.852  1.00  0.00    -0.323 A  
HETATM   26  C   UNL     1     -10.442   8.783  67.536  1.00  0.00    -0.340 A  
HETATM   27  C   UNL     1     -10.621  11.114  68.118  1.00  0.00    -0.227 A  
HETATM   28  C   UNL     1     -10.147   9.143  66.219  1.00  0.00    -0.319 A  
HETATM   29  C   UNL     1     -10.344  11.489  66.792  1.00  0.00    -0.262 A  
BRANCH  29  30
HETATM   30  C   UNL     1     -10.250  12.920  66.460  1.00  0.00    -0.264 C  
HETATM   31  C   UNL     1      -9.883  13.885  67.324  1.00  0.00    -0.244 C  
BRANCH  31  32
HETATM   32  C   UNL     1      -9.809  15.318  67.018  1.00  0.00    -0.229 A  
HETATM   33  N   UNL     1      -8.898  16.003  67.751  1.00  0.00    -0.175 NA 
HETATM   34  C   UNL     1      -8.804  17.335  67.588  1.00  0.00    -0.220 A  
HETATM   35  C   UNL     1      -9.631  18.043  66.693  1.00  0.00    -0.315 A  
HETATM   36  C   UNL     1     -10.566  17.318  65.950  1.00  0.00    -0.206 A  
HETATM   37  C   UNL     1      -9.518  19.439  66.568  1.00  0.00    -0.427 A  
HETATM   38  C   UNL     1      -8.587  20.135  67.334  1.00  0.00    -0.413 A  
HETATM   39  C   UNL     1     -10.663  15.942  66.120  1.00  0.00    -0.273 A  
HETATM   40  C   UNL     1      -7.766  19.435  68.210  1.00  0.00    -0.321 A  
HETATM   41  C   UNL     1      -7.876  18.049  68.331  1.00  0.00    -0.300 A  
HETATM   42 CL   UNL     1      -6.614  20.290  69.161  1.00  0.00    -0.305 Cl 
ENDBRANCH  31  32
ENDBRANCH  29  30
ENDBRANCH  10  24
ENDBRANCH   9  10
ENDBRANCH   8   9
ENDBRANCH   5   8
ENDBRANCH   3   5
TORSDOF 10
ENDMDL
MODEL      109
REMARK 921   NORMALIZED FREE ENERGY PREDICTED BY IDOCK:   -5.87 KCAL/MOL
REMARK 922        TOTAL FREE ENERGY PREDICTED BY IDOCK:  -10.96 KCAL/MOL
REMARK 923 INTER-LIGAND FREE ENERGY PREDICTED BY IDOCK:   -8.27 KCAL/MOL
REMARK 924 INTRA-LIGAND FREE ENERGY PREDICTED BY IDOCK:   -2.69 KCAL/MOL
REMARK 927      BINDING AFFINITY PREDICTED BY RF-SCORE:    0.00 PKD
ROOT
HETATM    1  O   UNL     1     -10.676  19.494  67.554  1.00  0.00    -0.465 OA 
HETATM    2  C   UNL     1     -10.234  18.215  67.669  1.00  0.00    -0.374 C  
HETATM    3  C   UNL     1     -11.363  17.214  67.801  1.00  0.00     0.270 C  
HETATM    4  O   UNL     1      -9.046  17.941  67.612  1.00  0.00    -0.247 OA 
ENDROOT
BRANCH   3   5
HETATM    5  C   UNL     1     -10.960  15.902  68.474  1.00  0.00    -0.324 C  
HETATM    6  C   UNL     1     -11.614  15.587  69.813  1.00  0.00    -0.345 C  
HETATM    7  C   UNL     1     -10.174  16.012  69.771  1.00  0.00    -0.240 C  
BRANCH   5   8
HETATM    8  C   UNL     1     -10.637  14.806  67.466  1.00  0.00    -0.259 C  
BRANCH   8   9
HETATM    9  S   UNL     1     -11.927  13.612  67.060  1.00  0.00    -0.391 SA 
BRANCH   9  10
HETATM   10  C   UNL     1     -11.081  12.025  67.522  1.00  0.00    -0.275 C  
BRANCH  10  11
HETATM   11  C   UNL     1     -11.122  10.934  66.424  1.00  0.00    -0.077 C  
BRANCH  11  12
HETATM   12  C   UNL     1      -9.767  10.258  66.121  1.00  0.00    -0.266 C  
BRANCH  12  13
HETATM   13  C   UNL     1      -9.562   8.984  66.930  1.00  0.00    -0.242 A  
HETATM   14  C   UNL     1     -10.596   8.021  66.807  1.00  0.00    -0.225 A  
HETATM   15  C   UNL     1      -9.460   6.495  68.250  1.00  0.00    -0.118 A  
HETATM   16  H   UNL     1      -5.901  10.517  66.756  1.00  0.00     0.000 HD 
HETATM   17  C   UNL     1     -10.557   6.801  67.470  1.00  0.00    -0.348 A  
HETATM   18  C   UNL     1      -6.061   9.029  68.749  1.00  0.00    -0.045 C  
HETATM   19  C   UNL     1      -8.414   7.413  68.367  1.00  0.00    -0.125 A  
HETATM   20  C   UNL     1      -8.427   8.681  67.731  1.00  0.00    -0.125 A  
HETATM   21  O   UNL     1      -6.644   9.936  66.641  1.00  0.00    -0.069 OA 
HETATM   22  C   UNL     1      -7.604  10.946  68.597  1.00  0.00    -0.114 C  
HETATM   23  C   UNL     1      -7.220   9.624  67.917  1.00  0.00    -0.081 C  
ENDBRANCH  12  13
ENDBRANCH  11  12
ENDBRANCH  10  11
BRANCH  10  24
HETATM   24  C   UNL     1     -11.546  11.564  68.906  1.00  0.00    -0.384 A  
HETATM   25  C   UNL     1     -12.289  10.651  71.470  1.00  0.00    -0.414 A  
HETATM   26  C   UNL     1     -12.318  12.365  69.762  1.00  0.00    -0.077 A  
HETATM   27  C   UNL     1     -11.156  10.291  69.374  1.00  0.00    -0.299 A  
HETATM   28  C   UNL     1     -12.684  11.913  71.031  1.00  0.00    -0.354 A  
HETATM   29  C   UNL     1     -11.533   9.816  70.642  1.00  0.00    -0.397 A  
BRANCH  29  30
HETATM   30  C   UNL     1     -11.053   8.496  71.082  1.00  0.00    -0.312 C  
HETATM   31  C   UNL     1     -11.705   7.689  71.939  1.00  0.00    -0.328 C  
BRANCH  31  32
HETATM   32  C   UNL     1     -11.228   6.383  72.408  1.00  0.00    -0.277 A  
HETATM   33  N   UNL     1      -9.885   6.219  72.346  1.00  0.00    -0.164 NA 
HETATM   34  C   UNL     1      -9.360   5.030  72.693  1.00  0.00    -0.133 A  
HETATM   35  C   UNL     1     -10.162   3.945  73.102  1.00  0.00    -0.224 A  
HETATM   36  C   UNL     1     -11.545   4.134  73.154  1.00  0.00    -0.081 A  
HETATM   37  C   UNL     1      -9.576   2.710  73.435  1.00  0.00    -0.129 A  
HETATM   38  C   UNL     1      -8.196   2.549  73.358  1.00  0.00    -0.063 A  
HETATM   39  C   UNL     1     -12.086   5.363  72.795  1.00  0.00     0.007 A  
HETATM   40  C   UNL     1      -7.406   3.622  72.962  1.00  0.00    -0.056 A  
HETATM   41  C   UNL     1      -7.986   4.848  72.636  1.00  0.00    -0.094 A  
HETATM   42 CL   UNL     1      -5.699   3.428  72.864  1.00  0.00    -0.003 Cl 
ENDBRANCH  31  32
ENDBRANCH  29  30
ENDBRANCH  10  24
ENDBRANCH   9  10
ENDBRANCH   8   9
ENDBRANCH   5   8
ENDBRANCH   3   5
TORSDOF 10
ENDMDL
MODEL      110
REMARK 921   NORMALIZED FREE ENERGY PREDICTED BY IDOCK:   -5.85 KCAL/MOL
REMARK 922        TOTAL FREE ENERGY PREDICTED BY IDOCK:  -10.92 KCAL/MOL
REMARK 923 INTER-LIGAND FREE ENERGY PREDICTED BY IDOCK:   -8.67 KCAL/MOL
REMARK 924 INTRA-LIGAND FREE ENERGY PREDICTED BY IDOCK:   -2.25 KCAL/MOL
REMARK 927      BINDING AFFINITY PREDICTED BY RF-SCORE:    0.00 PKD
ROOT
HETATM    1  O   UNL     1     -10.898  19.161  66.559  1.00  0.00    -0.382 OA 
HETATM    2  C   UNL     1      -9.765  18.448  66.784  1.00  0.00    -0.326 C  
HETATM    3  C   UNL     1      -9.284  18.549  68.218  1.00  0.00    -0.342 C  
HETATM    4  O   UNL     1      -9.251  17.769  65.910  1.00  0.00    -0.519 OA 
ENDROOT
BRANCH   3   5
HETATM    5  C   UNL     1      -7.793  18.266  68.398  1.00  0.00    -0.318 C  
HETATM    6  C   UNL     1      -6.991  19.288  69.192  1.00  0.00    -0.375 C  
HETATM    7  C   UNL     1      -6.828  19.211  67.701  1.00  0.00    -0.234 C  
BRANCH   5   8
HETATM    8  C   UNL     1      -7.490  16.775  68.481  1.00  0.00    -0.213 C  
BRANCH   8   9
HETATM    9  S   UNL     1      -8.712  15.696  69.253  1.00  0.00    -0.260 SA 
BRANCH   9  10
HETATM   10  C   UNL     1      -8.278  14.070  68.466  1.00  0.00    -0.136 C  
BRANCH  10  11
HETATM   11  C   UNL     1      -7.325  14.180  67.251  1.00  0.00    -0.035 C  
BRANCH  11  12
HETATM   12  C   UNL     1      -6.039  13.331  67.348  1.00  0.00     0.014 C  
BRANCH  12  13
HETATM   13  C   UNL     1      -6.177  12.184  68.341  1.00  0.00    -0.052 A  
HETATM   14  C   UNL     1      -5.798  12.492  69.673  1.00  0.00    -0.115 A  
HETATM   15  C   UNL     1      -6.369  10.301  70.430  1.00  0.00    -0.127 A  
HETATM   16  H   UNL     1      -8.508  11.036  65.336  1.00  0.00     0.000 HD 
HETATM   17  C   UNL     1      -5.874  11.561  70.700  1.00  0.00    -0.087 A  
HETATM   18  C   UNL     1      -7.781   9.021  66.610  1.00  0.00    -0.096 C  
HETATM   19  C   UNL     1      -6.777   9.979  69.134  1.00  0.00    -0.055 A  
HETATM   20  C   UNL     1      -6.688  10.889  68.050  1.00  0.00    -0.063 A  
HETATM   21  O   UNL     1      -8.212  11.312  66.195  1.00  0.00    -0.160 OA 
HETATM   22  C   UNL     1      -6.045  10.457  65.608  1.00  0.00    -0.123 C  
HETATM   23  C   UNL     1      -7.170  10.441  66.655  1.00  0.00    -0.113 C  
ENDBRANCH  12  13
ENDBRANCH  11  12
ENDBRANCH  10  11
BRANCH  10  24
HETATM   24  C   UNL     1      -9.548  13.251  68.217  1.00  0.00    -0.221 A  
HETATM   25  C   UNL     1     -11.889  11.712  67.887  1.00  0.00    -0.273 A  
HETATM   26  C   UNL     1     -10.531  13.623  67.287  1.00  0.00    -0.260 A  
HETATM   27  C   UNL     1      -9.774  12.084  68.978  1.00  0.00     0.197 A  
HETATM   28  C   UNL     1     -11.690  12.862  67.125  1.00  0.00    -0.437 A  
HETATM   29  C   UNL     1     -10.927  11.298  68.812  1.00  0.00    -0.270 A  
BRANCH  29  30
HETATM   30  C   UNL     1     -11.117  10.119  69.671  1.00  0.00    -0.308 C  
HETATM   31  C   UNL     1     -10.153   9.550  70.417  1.00  0.00    -0.329 C  
BRANCH  31  32
HETATM   32  C   UNL     1     -10.318   8.360  71.258  1.00  0.00    -0.214 A  
HETATM   33  N   UNL     1      -9.894   7.206  70.689  1.00  0.00    -0.182 NA 
HETATM   34  C   UNL     1     -10.065   6.051  71.358  1.00  0.00    -0.193 A  
HETATM   35  C   UNL     1     -10.685   6.000  72.624  1.00  0.00    -0.266 A  
HETATM   36  C   UNL     1     -11.119   7.201  73.190  1.00  0.00    -0.302 A  
HETATM   37  C   UNL     1     -10.866   4.770  73.281  1.00  0.00    -0.351 A  
HETATM   38  C   UNL     1     -10.437   3.589  72.683  1.00  0.00    -0.184 A  
HETATM   39  C   UNL     1     -10.942   8.393  72.498  1.00  0.00    -0.388 A  
HETATM   40  C   UNL     1      -9.818   3.641  71.439  1.00  0.00    -0.149 A  
HETATM   41  C   UNL     1      -9.635   4.862  70.789  1.00  0.00    -0.251 A  
HETATM   42 CL   UNL     1      -9.286   2.184  70.694  1.00  0.00    -0.173 Cl 
ENDBRANCH  31  32
ENDBRANCH  29  30
ENDBRANCH  10  24
ENDBRANCH   9  10
ENDBRANCH   8   9
ENDBRANCH   5   8
ENDBRANCH   3   5
TORSDOF 10
ENDMDL
MODEL      111
REMARK 921   NORMALIZED FREE ENERGY PREDICTED BY IDOCK:   -5.78 KCAL/MOL
REMARK 922        TOTAL FREE ENERGY PREDICTED BY IDOCK:  -10.82 KCAL/MOL
REMARK 923 INTER-LIGAND FREE ENERGY PREDICTED BY IDOCK:   -9.34 KCAL/MOL
REMARK 924 INTRA-LIGAND FREE ENERGY PREDICTED BY IDOCK:   -1.47 KCAL/MOL
REMARK 927      BINDING AFFINITY PREDICTED BY RF-SCORE:    0.00 PKD
ROOT
HETATM    1  O   UNL     1     -13.157  13.635  64.805  1.00  0.00    -0.658 OA 
HETATM    2  C   UNL     1     -11.865  13.331  64.521  1.00  0.00    -0.387 C  
HETATM    3  C   UNL     1     -11.694  11.916  64.008  1.00  0.00    -0.469 C  
HETATM    4  O   UNL     1     -10.974  14.158  64.631  1.00  0.00    -0.391 OA 
ENDROOT
BRANCH   3   5
HETATM    5  C   UNL     1     -10.290  11.345  64.205  1.00  0.00    -0.383 C  
HETATM    6  C   UNL     1      -9.254  11.689  63.144  1.00  0.00    -0.105 C  
HETATM    7  C   UNL     1      -9.829  10.302  63.200  1.00  0.00    -0.099 C  
BRANCH   5   8
HETATM    8  C   UNL     1      -9.914  11.219  65.677  1.00  0.00    -0.247 C  
BRANCH   8   9
HETATM    9  S   UNL     1     -10.290   9.672  66.525  1.00  0.00    -0.151 SA 
BRANCH   9  10
HETATM   10  C   UNL     1      -8.667   8.786  66.355  1.00  0.00    -0.139 C  
BRANCH  10  11
HETATM   11  C   UNL     1      -8.777   7.242  66.352  1.00  0.00    -0.152 C  
BRANCH  11  12
HETATM   12  C   UNL     1     -10.030   6.673  67.053  1.00  0.00    -0.223 C  
BRANCH  12  13
HETATM   13  C   UNL     1      -9.769   5.313  67.688  1.00  0.00    -0.168 A  
HETATM   14  C   UNL     1      -9.419   4.281  66.780  1.00  0.00    -0.202 A  
HETATM   15  C   UNL     1      -9.166   2.697  68.547  1.00  0.00    -0.243 A  
HETATM   16  H   UNL     1      -9.416   7.806  70.761  1.00  0.00     0.000 HD 
HETATM   17  C   UNL     1      -9.139   2.987  67.198  1.00  0.00    -0.200 A  
HETATM   18  C   UNL     1      -9.997   5.541  71.621  1.00  0.00    -0.233 C  
HETATM   19  C   UNL     1      -9.480   3.700  69.467  1.00  0.00    -0.246 A  
HETATM   20  C   UNL     1      -9.801   5.026  69.081  1.00  0.00    -0.262 A  
HETATM   21  O   UNL     1      -9.214   7.167  70.088  1.00  0.00    -0.155 OA 
HETATM   22  C   UNL     1     -11.554   6.625  70.046  1.00  0.00    -0.423 C  
HETATM   23  C   UNL     1     -10.129   6.066  70.172  1.00  0.00    -0.194 C  
ENDBRANCH  12  13
ENDBRANCH  11  12
ENDBRANCH  10  11
BRANCH  10  24
HETATM   24  C   UNL     1      -7.649   9.357  67.345  1.00  0.00    -0.095 A  
HETATM   25  C   UNL     1      -5.865  10.498  69.209  1.00  0.00    -0.037 A  
HETATM   26  C   UNL     1      -6.715   8.564  68.029  1.00  0.00    -0.065 A  
HETATM   27  C   UNL     1      -7.663  10.741  67.625  1.00  0.00    -0.104 A  
HETATM   28  C   UNL     1      -5.833   9.129  68.953  1.00  0.00    -0.040 A  
HETATM   29  C   UNL     1      -6.768  11.326  68.538  1.00  0.00    -0.063 A  
BRANCH  29  30
HETATM   30  C   UNL     1      -6.870  12.768  68.812  1.00  0.00    -0.096 C  
HETATM   31  C   UNL     1      -7.214  13.699  67.904  1.00  0.00    -0.150 C  
BRANCH  31  32
HETATM   32  C   UNL     1      -7.294  15.142  68.153  1.00  0.00    -0.112 A  
HETATM   33  N   UNL     1      -8.231  15.789  67.418  1.00  0.00    -0.161 NA 
HETATM   34  C   UNL     1      -8.334  17.126  67.529  1.00  0.00    -0.190 A  
HETATM   35  C   UNL     1      -7.490  17.877  68.373  1.00  0.00    -0.272 A  
HETATM   36  C   UNL     1      -6.528  17.191  69.118  1.00  0.00    -0.223 A  
HETATM   37  C   UNL     1      -7.614  19.276  68.444  1.00  0.00    -0.351 A  
HETATM   38  C   UNL     1      -8.572  19.932  67.676  1.00  0.00    -0.385 A  
HETATM   39  C   UNL     1      -6.423  15.810  69.002  1.00  0.00    -0.130 A  
HETATM   40  C   UNL     1      -9.409  19.189  66.851  1.00  0.00    -0.319 A  
HETATM   41  C   UNL     1      -9.288  17.801  66.783  1.00  0.00    -0.286 A  
HETATM   42 CL   UNL     1     -10.594  19.995  65.898  1.00  0.00    -0.535 Cl 
ENDBRANCH  31  32
ENDBRANCH  29  30
ENDBRANCH  10  24
ENDBRANCH   9  10
ENDBRANCH   8   9
ENDBRANCH   5   8
ENDBRANCH   3   5
TORSDOF 10
ENDMDL
MODEL      112
REMARK 921   NORMALIZED FREE ENERGY PREDICTED BY IDOCK:   -5.77 KCAL/MOL
REMARK 922        TOTAL FREE ENERGY PREDICTED BY IDOCK:  -10.80 KCAL/MOL
REMARK 923 INTER-LIGAND FREE ENERGY PREDICTED BY IDOCK:   -9.40 KCAL/MOL
REMARK 924 INTRA-LIGAND FREE ENERGY PREDICTED BY IDOCK:   -1.39 KCAL/MOL
REMARK 927      BINDING AFFINITY PREDICTED BY RF-SCORE:    0.00 PKD
ROOT
HETATM    1  O   UNL     1      -9.701  18.911  68.342  1.00  0.00    -0.335 OA 
HETATM    2  C   UNL     1      -9.545  17.572  68.189  1.00  0.00    -0.294 C  
HETATM    3  C   UNL     1     -10.846  16.809  68.332  1.00  0.00    -0.355 C  
HETATM    4  O   UNL     1      -8.462  17.080  67.914  1.00  0.00    -0.202 OA 
ENDROOT
BRANCH   3   5
HETATM    5  C   UNL     1     -10.671  15.343  68.726  1.00  0.00    -0.241 C  
HETATM    6  C   UNL     1     -11.295  14.906  70.045  1.00  0.00    -0.310 C  
HETATM    7  C   UNL     1      -9.804  15.059  69.942  1.00  0.00     0.019 C  
BRANCH   5   8
HETATM    8  C   UNL     1     -10.632  14.416  67.516  1.00  0.00    -0.265 C  
BRANCH   8   9
HETATM    9  S   UNL     1     -11.834  13.075  67.428  1.00  0.00    -0.326 SA 
BRANCH   9  10
HETATM   10  C   UNL     1     -10.810  11.656  68.050  1.00  0.00    -0.215 C  
BRANCH  10  11
HETATM   11  C   UNL     1     -10.488  10.581  66.984  1.00  0.00    -0.304 C  
BRANCH  11  12
HETATM   12  C   UNL     1      -9.287   9.668  67.315  1.00  0.00    -0.163 C  
BRANCH  12  13
HETATM   13  C   UNL     1      -9.612   8.193  67.120  1.00  0.00    -0.227 A  
HETATM   14  C   UNL     1     -10.644   7.688  67.951  1.00  0.00    -0.233 A  
HETATM   15  C   UNL     1     -10.493   5.519  66.966  1.00  0.00    -0.336 A  
HETATM   16  H   UNL     1      -7.691   9.125  63.769  1.00  0.00     0.000 HD 
HETATM   17  C   UNL     1     -11.068   6.368  67.891  1.00  0.00    -0.370 A  
HETATM   18  C   UNL     1      -7.487   6.673  64.163  1.00  0.00    -0.097 C  
HETATM   19  C   UNL     1      -9.493   5.996  66.114  1.00  0.00    -0.116 A  
HETATM   20  C   UNL     1      -9.011   7.329  66.163  1.00  0.00    -0.179 A  
HETATM   21  O   UNL     1      -8.371   8.859  64.377  1.00  0.00    -0.161 OA 
HETATM   22  C   UNL     1      -6.621   8.207  65.887  1.00  0.00    -0.046 C  
HETATM   23  C   UNL     1      -7.907   7.762  65.176  1.00  0.00    -0.123 C  
ENDBRANCH  12  13
ENDBRANCH  11  12
ENDBRANCH  10  11
BRANCH  10  24
HETATM   24  C   UNL     1     -11.400  11.113  69.355  1.00  0.00    -0.352 A  
HETATM   25  C   UNL     1     -12.368  10.065  71.789  1.00  0.00    -0.434 A  
HETATM   26  C   UNL     1     -12.395  11.782  70.084  1.00  0.00    -0.272 A  
HETATM   27  C   UNL     1     -10.902   9.903  69.883  1.00  0.00    -0.316 A  
HETATM   28  C   UNL     1     -12.873  11.264  71.289  1.00  0.00    -0.491 A  
HETATM   29  C   UNL     1     -11.388   9.360  71.086  1.00  0.00    -0.422 A  
BRANCH  29  30
HETATM   30  C   UNL     1     -10.792   8.116  71.599  1.00  0.00    -0.306 C  
HETATM   31  C   UNL     1     -11.464   6.967  71.796  1.00  0.00    -0.301 C  
BRANCH  31  32
HETATM   32  C   UNL     1     -10.892   5.727  72.331  1.00  0.00    -0.247 A  
HETATM   33  N   UNL     1      -9.733   5.342  71.743  1.00  0.00    -0.159 NA 
HETATM   34  C   UNL     1      -9.168   4.182  72.122  1.00  0.00    -0.123 A  
HETATM   35  C   UNL     1      -9.748   3.346  73.098  1.00  0.00    -0.163 A  
HETATM   36  C   UNL     1     -10.945   3.759  73.688  1.00  0.00    -0.334 A  
HETATM   37  C   UNL     1      -9.138   2.129  73.450  1.00  0.00    -0.077 A  
HETATM   38  C   UNL     1      -7.954   1.737  72.832  1.00  0.00    -0.052 A  
HETATM   39  C   UNL     1     -11.528   4.959  73.296  1.00  0.00    -0.359 A  
HETATM   40  C   UNL     1      -7.378   2.566  71.875  1.00  0.00    -0.040 A  
HETATM   41  C   UNL     1      -7.982   3.775  71.529  1.00  0.00    -0.065 A  
HETATM   42 CL   UNL     1      -5.915   2.086  71.107  1.00  0.00    -0.016 Cl 
ENDBRANCH  31  32
ENDBRANCH  29  30
ENDBRANCH  10  24
ENDBRANCH   9  10
ENDBRANCH   8   9
ENDBRANCH   5   8
ENDBRANCH   3   5
TORSDOF 10
ENDMDL
MODEL      113
REMARK 921   NORMALIZED FREE ENERGY PREDICTED BY IDOCK:   -5.74 KCAL/MOL
REMARK 922        TOTAL FREE ENERGY PREDICTED BY IDOCK:  -10.76 KCAL/MOL
REMARK 923 INTER-LIGAND FREE ENERGY PREDICTED BY IDOCK:   -8.40 KCAL/MOL
REMARK 924 INTRA-LIGAND FREE ENERGY PREDICTED BY IDOCK:   -2.36 KCAL/MOL
REMARK 927      BINDING AFFINITY PREDICTED BY RF-SCORE:    0.00 PKD
ROOT
HETATM    1  O   UNL     1      -7.879   9.088  65.954  1.00  0.00    -0.099 OA 
HETATM    2  C   UNL     1      -8.151   8.310  67.033  1.00  0.00    -0.104 C  
HETATM    3  C   UNL     1      -7.165   8.513  68.166  1.00  0.00    -0.087 C  
HETATM    4  O   UNL     1      -9.127   7.578  67.065  1.00  0.00    -0.127 OA 
ENDROOT
BRANCH   3   5
HETATM    5  C   UNL     1      -7.067   7.330  69.128  1.00  0.00    -0.080 C  
HETATM    6  C   UNL     1      -5.705   6.660  69.257  1.00  0.00    -0.017 C  
HETATM    7  C   UNL     1      -6.808   5.965  68.510  1.00  0.00    -0.070 C  
BRANCH   5   8
HETATM    8  C   UNL     1      -8.003   7.472  70.322  1.00  0.00    -0.103 C  
BRANCH   8   9
HETATM    9  S   UNL     1      -7.394   8.331  71.788  1.00  0.00    -0.100 SA 
BRANCH   9  10
HETATM   10  C   UNL     1      -8.738   7.925  73.004  1.00  0.00    -0.202 C  
BRANCH  10  11
HETATM   11  C   UNL     1      -8.654   6.500  73.601  1.00  0.00    -0.133 C  
BRANCH  11  12
HETATM   12  C   UNL     1      -9.025   5.359  72.628  1.00  0.00    -0.133 C  
BRANCH  12  13
HETATM   13  C   UNL     1      -7.798   4.618  72.112  1.00  0.00    -0.096 A  
HETATM   14  C   UNL     1      -6.573   4.979  72.730  1.00  0.00    -0.060 A  
HETATM   15  C   UNL     1      -5.353   3.393  71.427  1.00  0.00    -0.004 A  
HETATM   16  H   UNL     1     -10.795   2.295  70.927  1.00  0.00     0.000 HD 
HETATM   17  C   UNL     1      -5.365   4.390  72.383  1.00  0.00    -0.004 A  
HETATM   18  C   UNL     1      -8.827   1.891  69.452  1.00  0.00    -0.132 C  
HETATM   19  C   UNL     1      -6.548   2.998  70.822  1.00  0.00    -0.032 A  
HETATM   20  C   UNL     1      -7.799   3.593  71.126  1.00  0.00    -0.059 A  
HETATM   21  O   UNL     1     -10.015   2.609  71.370  1.00  0.00    -0.141 OA 
HETATM   22  C   UNL     1      -9.748   4.175  69.568  1.00  0.00    -0.254 C  
HETATM   23  C   UNL     1      -9.065   3.084  70.407  1.00  0.00    -0.122 C  
ENDBRANCH  12  13
ENDBRANCH  11  12
ENDBRANCH  10  11
BRANCH  10  24
HETATM   24  C   UNL     1     -10.104   8.301  72.423  1.00  0.00    -0.383 A  
HETATM   25  C   UNL     1     -12.562   9.015  71.235  1.00  0.00    -0.336 A  
HETATM   26  C   UNL     1     -11.299   7.673  72.804  1.00  0.00    -0.419 A  
HETATM   27  C   UNL     1     -10.177   9.298  71.425  1.00  0.00    -0.371 A  
HETATM   28  C   UNL     1     -12.515   8.026  72.215  1.00  0.00    -0.302 A  
HETATM   29  C   UNL     1     -11.396   9.676  70.838  1.00  0.00    -0.431 A  
BRANCH  29  30
HETATM   30  C   UNL     1     -11.391  10.692  69.773  1.00  0.00    -0.371 C  
HETATM   31  C   UNL     1     -10.848  10.522  68.554  1.00  0.00    -0.275 C  
BRANCH  31  32
HETATM   32  C   UNL     1     -10.810  11.532  67.491  1.00  0.00    -0.237 A  
HETATM   33  N   UNL     1     -10.646  12.804  67.929  1.00  0.00    -0.216 NA 
HETATM   34  C   UNL     1     -10.665  13.807  67.032  1.00  0.00    -0.283 A  
HETATM   35  C   UNL     1     -10.866  13.579  65.655  1.00  0.00    -0.292 A  
HETATM   36  C   UNL     1     -11.038  12.261  65.225  1.00  0.00    -0.359 A  
HETATM   37  C   UNL     1     -10.902  14.656  64.751  1.00  0.00    -0.402 A  
HETATM   38  C   UNL     1     -10.744  15.960  65.212  1.00  0.00    -0.442 A  
HETATM   39  C   UNL     1     -11.018  11.227  66.153  1.00  0.00    -0.252 A  
HETATM   40  C   UNL     1     -10.538  16.182  66.570  1.00  0.00    -0.268 A  
HETATM   41  C   UNL     1     -10.498  15.113  67.465  1.00  0.00    -0.258 A  
HETATM   42 CL   UNL     1     -10.342  17.792  67.146  1.00  0.00    -0.347 Cl 
ENDBRANCH  31  32
ENDBRANCH  29  30
ENDBRANCH  10  24
ENDBRANCH   9  10
ENDBRANCH   8   9
ENDBRANCH   5   8
ENDBRANCH   3   5
TORSDOF 10
ENDMDL
MODEL      114
REMARK 921   NORMALIZED FREE ENERGY PREDICTED BY IDOCK:   -5.74 KCAL/MOL
REMARK 922        TOTAL FREE ENERGY PREDICTED BY IDOCK:  -10.76 KCAL/MOL
REMARK 923 INTER-LIGAND FREE ENERGY PREDICTED BY IDOCK:   -7.68 KCAL/MOL
REMARK 924 INTRA-LIGAND FREE ENERGY PREDICTED BY IDOCK:   -3.08 KCAL/MOL
REMARK 927      BINDING AFFINITY PREDICTED BY RF-SCORE:    0.00 PKD
ROOT
HETATM    1  O   UNL     1      -9.540   2.067  69.335  1.00  0.00    -0.083 OA 
HETATM    2  C   UNL     1      -9.000   2.201  68.097  1.00  0.00    -0.146 C  
HETATM    3  C   UNL     1      -7.485   2.220  68.117  1.00  0.00    -0.054 C  
HETATM    4  O   UNL     1      -9.697   2.246  67.096  1.00  0.00     0.116 OA 
ENDROOT
BRANCH   3   5
HETATM    5  C   UNL     1      -6.853   2.907  66.907  1.00  0.00    -0.048 C  
HETATM    6  C   UNL     1      -6.792   2.104  65.614  1.00  0.00    -0.036 C  
HETATM    7  C   UNL     1      -5.536   2.335  66.406  1.00  0.00    -0.020 C  
BRANCH   5   8
HETATM    8  C   UNL     1      -7.093   4.412  66.901  1.00  0.00    -0.068 C  
BRANCH   8   9
HETATM    9  S   UNL     1      -6.135   5.434  68.038  1.00  0.00    -0.027 SA 
BRANCH   9  10
HETATM   10  C   UNL     1      -7.475   6.017  69.184  1.00  0.00    -0.086 C  
BRANCH  10  11
HETATM   11  C   UNL     1      -8.912   5.703  68.703  1.00  0.00    -0.113 C  
BRANCH  11  12
HETATM   12  C   UNL     1      -9.944   5.470  69.828  1.00  0.00    -0.279 C  
BRANCH  12  13
HETATM   13  C   UNL     1     -10.355   6.767  70.513  1.00  0.00    -0.226 A  
HETATM   14  C   UNL     1     -10.858   7.772  69.648  1.00  0.00    -0.185 A  
HETATM   15  C   UNL     1     -11.255   9.261  71.472  1.00  0.00    -0.457 A  
HETATM   16  H   UNL     1     -10.301   4.162  73.512  1.00  0.00     0.000 HD 
HETATM   17  C   UNL     1     -11.285   9.008  70.115  1.00  0.00    -0.191 A  
HETATM   18  C   UNL     1      -9.983   6.457  74.429  1.00  0.00    -0.362 C  
HETATM   19  C   UNL     1     -10.791   8.279  72.350  1.00  0.00    -0.421 A  
HETATM   20  C   UNL     1     -10.318   7.016  71.913  1.00  0.00    -0.213 A  
HETATM   21  O   UNL     1     -10.602   4.790  72.866  1.00  0.00    -0.196 OA 
HETATM   22  C   UNL     1      -8.351   5.624  72.781  1.00  0.00    -0.120 C  
HETATM   23  C   UNL     1      -9.830   5.995  72.962  1.00  0.00    -0.168 C  
ENDBRANCH  12  13
ENDBRANCH  11  12
ENDBRANCH  10  11
BRANCH  10  24
HETATM   24  C   UNL     1      -7.231   7.476  69.579  1.00  0.00    -0.082 A  
HETATM   25  C   UNL     1      -6.907  10.193  70.268  1.00  0.00    -0.150 A  
HETATM   26  C   UNL     1      -6.449   7.853  70.681  1.00  0.00    -0.037 A  
HETATM   27  C   UNL     1      -7.849   8.503  68.832  1.00  0.00    -0.109 A  
HETATM   28  C   UNL     1      -6.289   9.197  71.022  1.00  0.00    -0.071 A  
HETATM   29  C   UNL     1      -7.682   9.861  69.153  1.00  0.00    -0.098 A  
BRANCH  29  30
HETATM   30  C   UNL     1      -8.391  10.875  68.357  1.00  0.00    -0.136 C  
HETATM   31  C   UNL     1      -8.891  10.671  67.124  1.00  0.00    -0.139 C  
BRANCH  31  32
HETATM   32  C   UNL     1      -9.577  11.677  66.306  1.00  0.00    -0.221 A  
HETATM   33  N   UNL     1      -9.288  12.960  66.633  1.00  0.00    -0.245 NA 
HETATM   34  C   UNL     1      -9.920  13.953  65.982  1.00  0.00    -0.310 A  
HETATM   35  C   UNL     1     -10.883  13.704  64.983  1.00  0.00    -0.358 A  
HETATM   36  C   UNL     1     -11.169  12.374  64.665  1.00  0.00    -0.356 A  
HETATM   37  C   UNL     1     -11.538  14.770  64.341  1.00  0.00    -0.304 A  
HETATM   38  C   UNL     1     -11.243  16.084  64.692  1.00  0.00    -0.340 A  
HETATM   39  C   UNL     1     -10.515  11.349  65.338  1.00  0.00    -0.336 A  
HETATM   40  C   UNL     1     -10.287  16.329  65.672  1.00  0.00    -0.363 A  
HETATM   41  C   UNL     1      -9.634  15.271  66.306  1.00  0.00    -0.331 A  
HETATM   42 CL   UNL     1      -9.918  17.951  66.111  1.00  0.00    -0.315 Cl 
ENDBRANCH  31  32
ENDBRANCH  29  30
ENDBRANCH  10  24
ENDBRANCH   9  10
ENDBRANCH   8   9
ENDBRANCH   5   8
ENDBRANCH   3   5
TORSDOF 10
ENDMDL
MODEL      115
REMARK 921   NORMALIZED FREE ENERGY PREDICTED BY IDOCK:   -5.71 KCAL/MOL
REMARK 922        TOTAL FREE ENERGY PREDICTED BY IDOCK:  -10.71 KCAL/MOL
REMARK 923 INTER-LIGAND FREE ENERGY PREDICTED BY IDOCK:   -8.96 KCAL/MOL
REMARK 924 INTRA-LIGAND FREE ENERGY PREDICTED BY IDOCK:   -1.74 KCAL/MOL
REMARK 927      BINDING AFFINITY PREDICTED BY RF-SCORE:    0.00 PKD
ROOT
HETATM    1  O   UNL     1     -14.203  14.795  72.441  1.00  0.00    -0.456 OA 
HETATM    2  C   UNL     1     -13.006  14.530  71.858  1.00  0.00    -0.341 C  
HETATM    3  C   UNL     1     -13.143  14.065  70.422  1.00  0.00    -0.002 C  
HETATM    4  O   UNL     1     -11.952  14.711  72.446  1.00  0.00    -0.257 OA 
ENDROOT
BRANCH   3   5
HETATM    5  C   UNL     1     -11.958  13.244  69.915  1.00  0.00    -0.400 C  
HETATM    6  C   UNL     1     -12.282  11.950  69.181  1.00  0.00    -0.141 C  
HETATM    7  C   UNL     1     -11.727  11.895  70.576  1.00  0.00    -0.103 C  
BRANCH   5   8
HETATM    8  C   UNL     1     -10.777  14.118  69.509  1.00  0.00    -0.018 C  
BRANCH   8   9
HETATM    9  S   UNL     1     -10.977  15.224  68.097  1.00  0.00    -0.304 SA 
BRANCH   9  10
HETATM   10  C   UNL     1      -9.557  14.677  67.031  1.00  0.00    -0.240 C  
BRANCH  10  11
HETATM   11  C   UNL     1      -8.717  15.834  66.440  1.00  0.00    -0.372 C  
BRANCH  11  12
HETATM   12  C   UNL     1      -9.494  17.145  66.185  1.00  0.00    -0.228 C  
BRANCH  12  13
HETATM   13  C   UNL     1      -8.618  18.379  66.358  1.00  0.00    -0.264 A  
HETATM   14  C   UNL     1      -7.426  18.383  65.591  1.00  0.00    -0.010 A  
HETATM   15  C   UNL     1      -6.810  20.541  66.406  1.00  0.00    -0.301 A  
HETATM   16  H   UNL     1     -12.149  19.605  67.705  1.00  0.00     0.000 HD 
HETATM   17  C   UNL     1      -6.524  19.438  65.626  1.00  0.00    -0.266 A  
HETATM   18  C   UNL     1     -10.362  21.009  68.727  1.00  0.00     0.750 C  
HETATM   19  C   UNL     1      -7.991  20.576  67.151  1.00  0.00    -0.361 A  
HETATM   20  C   UNL     1      -8.924  19.508  67.166  1.00  0.00    -0.363 A  
HETATM   21  O   UNL     1     -11.361  19.521  67.181  1.00  0.00    -0.210 OA 
HETATM   22  C   UNL     1     -10.299  18.575  69.116  1.00  0.00     0.057 C  
HETATM   23  C   UNL     1     -10.203  19.645  68.017  1.00  0.00    -0.457 C  
ENDBRANCH  12  13
ENDBRANCH  11  12
ENDBRANCH  10  11
BRANCH  10  24
HETATM   24  C   UNL     1     -10.035  13.640  66.011  1.00  0.00    -0.313 A  
HETATM   25  C   UNL     1     -10.935  11.645  64.231  1.00  0.00    -0.418 A  
HETATM   26  C   UNL     1     -10.765  13.976  64.861  1.00  0.00    -0.432 A  
HETATM   27  C   UNL     1      -9.771  12.273  66.244  1.00  0.00    -0.254 A  
HETATM   28  C   UNL     1     -11.212  12.988  63.980  1.00  0.00    -0.448 A  
HETATM   29  C   UNL     1     -10.197  11.270  65.356  1.00  0.00    -0.323 A  
BRANCH  29  30
HETATM   30  C   UNL     1      -9.924   9.862  65.686  1.00  0.00    -0.353 C  
HETATM   31  C   UNL     1     -10.472   9.195  66.718  1.00  0.00    -0.266 C  
BRANCH  31  32
HETATM   32  C   UNL     1     -10.191   7.801  67.076  1.00  0.00    -0.305 A  
HETATM   33  N   UNL     1      -9.601   7.076  66.095  1.00  0.00    -0.021 NA 
HETATM   34  C   UNL     1      -9.364   5.768  66.307  1.00  0.00    -0.156 A  
HETATM   35  C   UNL     1      -9.723   5.125  67.509  1.00  0.00    -0.177 A  
HETATM   36  C   UNL     1     -10.334   5.890  68.506  1.00  0.00    -0.268 A  
HETATM   37  C   UNL     1      -9.479   3.751  67.684  1.00  0.00    -0.234 A  
HETATM   38  C   UNL     1      -8.884   3.013  66.665  1.00  0.00    -0.155 A  
HETATM   39  C   UNL     1     -10.578   7.241  68.285  1.00  0.00    -0.217 A  
HETATM   40  C   UNL     1      -8.523   3.650  65.483  1.00  0.00    -0.110 A  
HETATM   41  C   UNL     1      -8.761   5.014  65.312  1.00  0.00    -0.149 A  
HETATM   42 CL   UNL     1      -7.788   2.742  64.220  1.00  0.00    -0.077 Cl 
ENDBRANCH  31  32
ENDBRANCH  29  30
ENDBRANCH  10  24
ENDBRANCH   9  10
ENDBRANCH   8   9
ENDBRANCH   5   8
ENDBRANCH   3   5
TORSDOF 10
ENDMDL
MODEL      116
REMARK 921   NORMALIZED FREE ENERGY PREDICTED BY IDOCK:   -5.70 KCAL/MOL
REMARK 922        TOTAL FREE ENERGY PREDICTED BY IDOCK:  -10.68 KCAL/MOL
REMARK 923 INTER-LIGAND FREE ENERGY PREDICTED BY IDOCK:   -8.67 KCAL/MOL
REMARK 924 INTRA-LIGAND FREE ENERGY PREDICTED BY IDOCK:   -2.01 KCAL/MOL
REMARK 927      BINDING AFFINITY PREDICTED BY RF-SCORE:    0.00 PKD
ROOT
HETATM    1  O   UNL     1      -8.991   1.942  65.461  1.00  0.00    -0.123 OA 
HETATM    2  C   UNL     1      -8.239   3.073  65.451  1.00  0.00    -0.091 C  
HETATM    3  C   UNL     1      -8.976   4.261  64.867  1.00  0.00    -0.143 C  
HETATM    4  O   UNL     1      -7.113   3.098  65.921  1.00  0.00    -0.062 OA 
ENDROOT
BRANCH   3   5
HETATM    5  C   UNL     1      -8.061   5.357  64.322  1.00  0.00    -0.123 C  
HETATM    6  C   UNL     1      -8.382   5.892  62.932  1.00  0.00    -0.029 C  
HETATM    7  C   UNL     1      -7.194   4.993  63.128  1.00  0.00    -0.047 C  
BRANCH   5   8
HETATM    8  C   UNL     1      -7.520   6.264  65.421  1.00  0.00    -0.083 C  
BRANCH   8   9
HETATM    9  S   UNL     1      -7.063   7.955  64.985  1.00  0.00    -0.062 SA 
BRANCH   9  10
HETATM   10  C   UNL     1      -8.035   8.907  66.249  1.00  0.00    -0.103 C  
BRANCH  10  11
HETATM   11  C   UNL     1      -9.398   9.438  65.743  1.00  0.00    -0.301 C  
BRANCH  11  12
HETATM   12  C   UNL     1     -10.506   9.529  66.815  1.00  0.00    -0.263 C  
BRANCH  12  13
HETATM   13  C   UNL     1     -10.582   8.274  67.675  1.00  0.00    -0.264 A  
HETATM   14  C   UNL     1     -10.726   7.059  66.956  1.00  0.00    -0.423 A  
HETATM   15  C   UNL     1     -10.693   5.769  68.965  1.00  0.00    -0.354 A  
HETATM   16  H   UNL     1      -8.969  10.938  70.142  1.00  0.00     0.000 HD 
HETATM   17  C   UNL     1     -10.799   5.826  67.590  1.00  0.00    -0.264 A  
HETATM   18  C   UNL     1     -10.079   9.158  71.487  1.00  0.00    -0.381 C  
HETATM   19  C   UNL     1     -10.523   6.947  69.697  1.00  0.00    -0.240 A  
HETATM   20  C   UNL     1     -10.472   8.229  69.092  1.00  0.00    -0.217 A  
HETATM   21  O   UNL     1      -9.090  10.173  69.591  1.00  0.00    -0.206 OA 
HETATM   22  C   UNL     1     -11.455  10.452  69.903  1.00  0.00    -0.368 C  
HETATM   23  C   UNL     1     -10.276   9.471  69.986  1.00  0.00    -0.244 C  
ENDBRANCH  12  13
ENDBRANCH  11  12
ENDBRANCH  10  11
BRANCH  10  24
HETATM   24  C   UNL     1      -7.143   9.957  66.917  1.00  0.00    -0.090 A  
HETATM   25  C   UNL     1      -5.608  11.960  68.180  1.00  0.00    -0.045 A  
HETATM   26  C   UNL     1      -5.961   9.636  67.602  1.00  0.00    -0.051 A  
HETATM   27  C   UNL     1      -7.534  11.313  66.885  1.00  0.00    -0.145 A  
HETATM   28  C   UNL     1      -5.203  10.627  68.228  1.00  0.00    -0.033 A  
HETATM   29  C   UNL     1      -6.770  12.324  67.494  1.00  0.00    -0.138 A  
BRANCH  29  30
HETATM   30  C   UNL     1      -7.262  13.710  67.458  1.00  0.00    -0.169 C  
HETATM   31  C   UNL     1      -8.551  14.071  67.595  1.00  0.00    -0.188 C  
BRANCH  31  32
HETATM   32  C   UNL     1      -9.061  15.445  67.536  1.00  0.00    -0.194 A  
HETATM   33  N   UNL     1      -8.105  16.395  67.395  1.00  0.00    -0.147 NA 
HETATM   34  C   UNL     1      -8.471  17.689  67.397  1.00  0.00    -0.221 A  
HETATM   35  C   UNL     1      -9.814  18.090  67.556  1.00  0.00    -0.309 A  
HETATM   36  C   UNL     1     -10.783  17.095  67.704  1.00  0.00    -0.302 A  
HETATM   37  C   UNL     1     -10.154  19.455  67.576  1.00  0.00    -0.507 A  
HETATM   38  C   UNL     1      -9.163  20.423  67.442  1.00  0.00    -0.513 A  
HETATM   39  C   UNL     1     -10.403  15.758  67.702  1.00  0.00    -0.281 A  
HETATM   40  C   UNL     1      -7.840  20.026  67.277  1.00  0.00    -0.298 A  
HETATM   41  C   UNL     1      -7.504  18.672  67.254  1.00  0.00    -0.225 A  
HETATM   42 CL   UNL     1      -6.610  21.218  67.112  1.00  0.00    -0.420 Cl 
ENDBRANCH  31  32
ENDBRANCH  29  30
ENDBRANCH  10  24
ENDBRANCH   9  10
ENDBRANCH   8   9
ENDBRANCH   5   8
ENDBRANCH   3   5
TORSDOF 10
ENDMDL
MODEL      117
REMARK 921   NORMALIZED FREE ENERGY PREDICTED BY IDOCK:   -5.68 KCAL/MOL
REMARK 922        TOTAL FREE ENERGY PREDICTED BY IDOCK:  -10.66 KCAL/MOL
REMARK 923 INTER-LIGAND FREE ENERGY PREDICTED BY IDOCK:   -9.25 KCAL/MOL
REMARK 924 INTRA-LIGAND FREE ENERGY PREDICTED BY IDOCK:   -1.41 KCAL/MOL
REMARK 927      BINDING AFFINITY PREDICTED BY RF-SCORE:    0.00 PKD
ROOT
HETATM    1  O   UNL     1     -13.774  10.900  71.273  1.00  0.00     0.177 OA 
HETATM    2  C   UNL     1     -13.014  11.974  71.608  1.00  0.00    -0.334 C  
HETATM    3  C   UNL     1     -13.833  13.121  72.166  1.00  0.00    -0.506 C  
HETATM    4  O   UNL     1     -11.799  11.956  71.504  1.00  0.00     0.630 OA 
ENDROOT
BRANCH   3   5
HETATM    5  C   UNL     1     -13.164  14.489  72.031  1.00  0.00    -0.446 C  
HETATM    6  C   UNL     1     -12.364  14.983  73.229  1.00  0.00    -0.531 C  
HETATM    7  C   UNL     1     -13.698  15.601  72.920  1.00  0.00    -0.628 C  
BRANCH   5   8
HETATM    8  C   UNL     1     -12.727  14.785  70.602  1.00  0.00    -0.358 C  
BRANCH   8   9
HETATM    9  S   UNL     1     -11.562  16.135  70.327  1.00  0.00    -0.170 SA 
BRANCH   9  10
HETATM   10  C   UNL     1     -10.170  15.222  69.503  1.00  0.00    -0.260 C  
BRANCH  10  11
HETATM   11  C   UNL     1      -9.033  16.129  68.975  1.00  0.00    -0.247 C  
BRANCH  11  12
HETATM   12  C   UNL     1      -9.365  17.636  68.927  1.00  0.00    -0.157 C  
BRANCH  12  13
HETATM   13  C   UNL     1      -8.124  18.495  68.727  1.00  0.00    -0.287 A  
HETATM   14  C   UNL     1      -7.122  18.346  69.720  1.00  0.00     0.303 A  
HETATM   15  C   UNL     1      -5.680  19.898  68.617  1.00  0.00    -0.259 A  
HETATM   16  H   UNL     1      -9.776  18.476  65.114  1.00  0.00     0.000 HD 
HETATM   17  C   UNL     1      -5.925  19.049  69.679  1.00  0.00    -0.281 A  
HETATM   18  C   UNL     1      -8.345  20.504  65.337  1.00  0.00     0.688 C  
HETATM   19  C   UNL     1      -6.637  20.043  67.610  1.00  0.00    -0.264 A  
HETATM   20  C   UNL     1      -7.884  19.367  67.629  1.00  0.00    -0.309 A  
HETATM   21  O   UNL     1      -9.167  18.339  65.830  1.00  0.00    -0.450 OA 
HETATM   22  C   UNL     1     -10.202  20.205  66.931  1.00  0.00    -0.566 C  
HETATM   23  C   UNL     1      -8.873  19.589  66.467  1.00  0.00    -0.357 C  
ENDBRANCH  12  13
ENDBRANCH  11  12
ENDBRANCH  10  11
BRANCH  10  24
HETATM   24  C   UNL     1     -10.726  14.225  68.483  1.00  0.00    -0.262 A  
HETATM   25  C   UNL     1     -11.774  12.303  66.703  1.00  0.00    -0.417 A  
HETATM   26  C   UNL     1     -11.458  14.613  67.351  1.00  0.00    -0.384 A  
HETATM   27  C   UNL     1     -10.536  12.842  68.698  1.00  0.00    -0.256 A  
HETATM   28  C   UNL     1     -11.978  13.662  66.471  1.00  0.00    -0.465 A  
HETATM   29  C   UNL     1     -11.037  11.875  67.810  1.00  0.00    -0.295 A  
BRANCH  29  30
HETATM   30  C   UNL     1     -10.839  10.450  68.120  1.00  0.00    -0.311 C  
HETATM   31  C   UNL     1     -10.359   9.979  69.286  1.00  0.00    -0.237 C  
BRANCH  31  32
HETATM   32  C   UNL     1     -10.130   8.565  69.602  1.00  0.00    -0.202 A  
HETATM   33  N   UNL     1     -10.017   7.757  68.520  1.00  0.00    -0.176 NA 
HETATM   34  C   UNL     1      -9.871   6.433  68.711  1.00  0.00    -0.139 A  
HETATM   35  C   UNL     1      -9.849   5.858  69.998  1.00  0.00    -0.225 A  
HETATM   36  C   UNL     1      -9.972   6.708  71.100  1.00  0.00    -0.198 A  
HETATM   37  C   UNL     1      -9.717   4.466  70.155  1.00  0.00    -0.288 A  
HETATM   38  C   UNL     1      -9.614   3.644  69.037  1.00  0.00    -0.165 A  
HETATM   39  C   UNL     1     -10.122   8.075  70.901  1.00  0.00    -0.211 A  
HETATM   40  C   UNL     1      -9.628   4.214  67.769  1.00  0.00    -0.155 A  
HETATM   41  C   UNL     1      -9.754   5.594  67.613  1.00  0.00    -0.135 A  
HETATM   42 CL   UNL     1      -9.500   3.202  66.382  1.00  0.00    -0.116 Cl 
ENDBRANCH  31  32
ENDBRANCH  29  30
ENDBRANCH  10  24
ENDBRANCH   9  10
ENDBRANCH   8   9
ENDBRANCH   5   8
ENDBRANCH   3   5
TORSDOF 10
ENDMDL
MODEL      118
REMARK 921   NORMALIZED FREE ENERGY PREDICTED BY IDOCK:   -5.64 KCAL/MOL
REMARK 922        TOTAL FREE ENERGY PREDICTED BY IDOCK:  -10.60 KCAL/MOL
REMARK 923 INTER-LIGAND FREE ENERGY PREDICTED BY IDOCK:   -9.94 KCAL/MOL
REMARK 924 INTRA-LIGAND FREE ENERGY PREDICTED BY IDOCK:   -0.66 KCAL/MOL
REMARK 927      BINDING AFFINITY PREDICTED BY RF-SCORE:    0.00 PKD
ROOT
HETATM    1  O   UNL     1     -13.287  12.341  63.797  1.00  0.00    -0.633 OA 
HETATM    2  C   UNL     1     -11.971  12.374  64.128  1.00  0.00    -0.435 C  
HETATM    3  C   UNL     1     -11.707  11.878  65.535  1.00  0.00    -0.224 C  
HETATM    4  O   UNL     1     -11.118  12.723  63.328  1.00  0.00    -0.359 OA 
ENDROOT
BRANCH   3   5
HETATM    5  C   UNL     1     -10.406  12.397  66.147  1.00  0.00    -0.271 C  
HETATM    6  C   UNL     1      -9.140  11.609  65.839  1.00  0.00    -0.155 C  
HETATM    7  C   UNL     1      -9.754  11.525  67.208  1.00  0.00    -0.197 C  
BRANCH   5   8
HETATM    8  C   UNL     1     -10.389  13.915  66.278  1.00  0.00    -0.293 C  
BRANCH   8   9
HETATM    9  S   UNL     1      -9.318  14.653  67.528  1.00  0.00    -0.200 SA 
BRANCH   9  10
HETATM   10  C   UNL     1     -10.573  15.526  68.582  1.00  0.00    -0.243 C  
BRANCH  10  11
HETATM   11  C   UNL     1     -10.037  16.782  69.310  1.00  0.00    -0.240 C  
BRANCH  11  12
HETATM   12  C   UNL     1      -8.809  17.448  68.650  1.00  0.00    -0.258 C  
BRANCH  12  13
HETATM   13  C   UNL     1      -9.201  18.581  67.711  1.00  0.00    -0.295 A  
HETATM   14  C   UNL     1     -10.503  18.482  67.158  1.00  0.00    -0.446 A  
HETATM   15  C   UNL     1     -10.252  20.546  65.984  1.00  0.00    -0.058 A  
HETATM   16  H   UNL     1      -6.159  20.129  69.744  1.00  0.00     0.000 HD 
HETATM   17  C   UNL     1     -11.017  19.439  66.293  1.00  0.00    -0.265 A  
HETATM   18  C   UNL     1      -6.362  21.318  67.563  1.00  0.00    -0.416 C  
HETATM   19  C   UNL     1      -8.977  20.684  66.536  1.00  0.00    -0.034 A  
HETATM   20  C   UNL     1      -8.403  19.717  67.400  1.00  0.00    -0.335 A  
HETATM   21  O   UNL     1      -7.030  19.978  69.397  1.00  0.00    -0.291 OA 
HETATM   22  C   UNL     1      -5.984  18.882  67.533  1.00  0.00    -0.182 C  
HETATM   23  C   UNL     1      -6.988  19.962  67.964  1.00  0.00    -0.281 C  
ENDBRANCH  12  13
ENDBRANCH  11  12
ENDBRANCH  10  11
BRANCH  10  24
HETATM   24  C   UNL     1     -11.296  14.520  69.482  1.00  0.00    -0.313 A  
HETATM   25  C   UNL     1     -12.516  12.595  71.145  1.00  0.00    -0.326 A  
HETATM   26  C   UNL     1     -12.256  14.894  70.434  1.00  0.00    -0.393 A  
HETATM   27  C   UNL     1     -10.964  13.151  69.388  1.00  0.00    -0.056 A  
HETATM   28  C   UNL     1     -12.859  13.941  71.258  1.00  0.00    -0.435 A  
HETATM   29  C   UNL     1     -11.576  12.179  70.198  1.00  0.00    -0.202 A  
BRANCH  29  30
HETATM   30  C   UNL     1     -11.149  10.776  70.076  1.00  0.00    -0.327 C  
HETATM   31  C   UNL     1     -11.305   9.841  71.031  1.00  0.00    -0.460 C  
BRANCH  31  32
HETATM   32  C   UNL     1     -10.861   8.446  70.937  1.00  0.00    -0.231 A  
HETATM   33  N   UNL     1     -11.415   7.617  71.854  1.00  0.00    -0.262 NA 
HETATM   34  C   UNL     1     -11.019   6.331  71.889  1.00  0.00    -0.256 A  
HETATM   35  C   UNL     1     -10.038   5.823  71.014  1.00  0.00    -0.260 A  
HETATM   36  C   UNL     1      -9.476   6.696  70.079  1.00  0.00    -0.161 A  
HETATM   37  C   UNL     1      -9.635   4.478  71.097  1.00  0.00    -0.245 A  
HETATM   38  C   UNL     1     -10.201   3.637  72.051  1.00  0.00    -0.145 A  
HETATM   39  C   UNL     1      -9.886   8.024  70.045  1.00  0.00    -0.185 A  
HETATM   40  C   UNL     1     -11.175   4.137  72.907  1.00  0.00     0.024 A  
HETATM   41  C   UNL     1     -11.578   5.470  72.822  1.00  0.00    -0.298 A  
HETATM   42 CL   UNL     1     -11.879   3.103  74.089  1.00  0.00     0.699 Cl 
ENDBRANCH  31  32
ENDBRANCH  29  30
ENDBRANCH  10  24
ENDBRANCH   9  10
ENDBRANCH   8   9
ENDBRANCH   5   8
ENDBRANCH   3   5
TORSDOF 10
ENDMDL
MODEL      119
REMARK 921   NORMALIZED FREE ENERGY PREDICTED BY IDOCK:   -5.64 KCAL/MOL
REMARK 922        TOTAL FREE ENERGY PREDICTED BY IDOCK:  -10.59 KCAL/MOL
REMARK 923 INTER-LIGAND FREE ENERGY PREDICTED BY IDOCK:   -8.49 KCAL/MOL
REMARK 924 INTRA-LIGAND FREE ENERGY PREDICTED BY IDOCK:   -2.10 KCAL/MOL
REMARK 927      BINDING AFFINITY PREDICTED BY RF-SCORE:    0.00 PKD
ROOT
HETATM    1  O   UNL     1     -10.516   3.426  72.595  1.00  0.00    -0.158 OA 
HETATM    2  C   UNL     1     -10.097   4.716  72.655  1.00  0.00    -0.172 C  
HETATM    3  C   UNL     1     -11.206   5.707  72.366  1.00  0.00    -0.336 C  
HETATM    4  O   UNL     1      -8.952   5.004  72.965  1.00  0.00    -0.116 OA 
ENDROOT
BRANCH   3   5
HETATM    5  C   UNL     1     -10.716   7.068  71.874  1.00  0.00    -0.244 C  
HETATM    6  C   UNL     1     -10.252   8.056  72.936  1.00  0.00    -0.384 C  
HETATM    7  C   UNL     1     -11.565   8.274  72.239  1.00  0.00    -0.449 C  
BRANCH   5   8
HETATM    8  C   UNL     1     -10.039   6.985  70.511  1.00  0.00    -0.191 C  
BRANCH   8   9
HETATM    9  S   UNL     1     -10.852   7.767  69.104  1.00  0.00     0.031 SA 
BRANCH   9  10
HETATM   10  C   UNL     1      -9.764   9.253  68.862  1.00  0.00    -0.161 C  
BRANCH  10  11
HETATM   11  C   UNL     1      -8.360   9.130  69.503  1.00  0.00    -0.126 C  
BRANCH  11  12
HETATM   12  C   UNL     1      -7.323   8.349  68.667  1.00  0.00    -0.088 C  
BRANCH  12  13
HETATM   13  C   UNL     1      -6.844   9.140  67.456  1.00  0.00    -0.077 A  
HETATM   14  C   UNL     1      -6.360  10.442  67.741  1.00  0.00    -0.060 A  
HETATM   15  C   UNL     1      -5.829  10.838  65.447  1.00  0.00    -0.079 A  
HETATM   16  H   UNL     1      -6.812   5.394  66.133  1.00  0.00     0.000 HD 
HETATM   17  C   UNL     1      -5.876  11.287  66.752  1.00  0.00    -0.121 A  
HETATM   18  C   UNL     1      -7.021   6.937  64.187  1.00  0.00    -0.052 C  
HETATM   19  C   UNL     1      -6.274   9.549  65.141  1.00  0.00    -0.073 A  
HETATM   20  C   UNL     1      -6.802   8.665  66.116  1.00  0.00    -0.073 A  
HETATM   21  O   UNL     1      -6.528   6.260  66.402  1.00  0.00    -0.043 OA 
HETATM   22  C   UNL     1      -8.758   7.021  65.935  1.00  0.00    -0.140 C  
HETATM   23  C   UNL     1      -7.262   7.258  65.680  1.00  0.00    -0.070 C  
ENDBRANCH  12  13
ENDBRANCH  11  12
ENDBRANCH  10  11
BRANCH  10  24
HETATM   24  C   UNL     1     -10.528  10.529  69.224  1.00  0.00    -0.258 A  
HETATM   25  C   UNL     1     -11.900  12.932  69.773  1.00  0.00    -0.380 A  
HETATM   26  C   UNL     1     -11.722  10.526  69.960  1.00  0.00    -0.394 A  
HETATM   27  C   UNL     1     -10.042  11.774  68.768  1.00  0.00    -0.153 A  
HETATM   28  C   UNL     1     -12.402  11.715  70.231  1.00  0.00    -0.339 A  
HETATM   29  C   UNL     1     -10.706  12.981  69.050  1.00  0.00    -0.138 A  
BRANCH  29  30
HETATM   30  C   UNL     1     -10.165  14.236  68.505  1.00  0.00    -0.245 C  
HETATM   31  C   UNL     1     -10.384  15.457  69.028  1.00  0.00    -0.243 C  
BRANCH  31  32
HETATM   32  C   UNL     1      -9.875  16.720  68.484  1.00  0.00    -0.257 A  
HETATM   33  N   UNL     1      -8.846  16.583  67.613  1.00  0.00    -0.191 NA 
HETATM   34  C   UNL     1      -8.269  17.691  67.111  1.00  0.00    -0.214 A  
HETATM   35  C   UNL     1      -8.688  18.987  67.474  1.00  0.00    -0.315 A  
HETATM   36  C   UNL     1      -9.747  19.105  68.378  1.00  0.00    -0.451 A  
HETATM   37  C   UNL     1      -8.044  20.120  66.945  1.00  0.00    -0.360 A  
HETATM   38  C   UNL     1      -6.981  19.969  66.060  1.00  0.00    -0.286 A  
HETATM   39  C   UNL     1     -10.342  17.960  68.895  1.00  0.00    -0.272 A  
HETATM   40  C   UNL     1      -6.574  18.690  65.696  1.00  0.00    -0.274 A  
HETATM   41  C   UNL     1      -7.216  17.566  66.218  1.00  0.00    -0.351 A  
HETATM   42 CL   UNL     1      -5.260  18.496  64.602  1.00  0.00    -0.187 Cl 
ENDBRANCH  31  32
ENDBRANCH  29  30
ENDBRANCH  10  24
ENDBRANCH   9  10
ENDBRANCH   8   9
ENDBRANCH   5   8
ENDBRANCH   3   5
TORSDOF 10
ENDMDL
MODEL      120
REMARK 921   NORMALIZED FREE ENERGY PREDICTED BY IDOCK:   -5.61 KCAL/MOL
REMARK 922        TOTAL FREE ENERGY PREDICTED BY IDOCK:  -10.55 KCAL/MOL
REMARK 923 INTER-LIGAND FREE ENERGY PREDICTED BY IDOCK:   -8.07 KCAL/MOL
REMARK 924 INTRA-LIGAND FREE ENERGY PREDICTED BY IDOCK:   -2.48 KCAL/MOL
REMARK 927      BINDING AFFINITY PREDICTED BY RF-SCORE:    0.00 PKD
ROOT
HETATM    1  O   UNL     1     -12.684  11.459  69.564  1.00  0.00    -0.075 OA 
HETATM    2  C   UNL     1     -12.659  10.738  70.714  1.00  0.00    -0.383 C  
HETATM    3  C   UNL     1     -12.509   9.250  70.469  1.00  0.00     0.135 C  
HETATM    4  O   UNL     1     -12.702  11.275  71.808  1.00  0.00    -0.364 OA 
ENDROOT
BRANCH   3   5
HETATM    5  C   UNL     1     -13.023   8.374  71.611  1.00  0.00    -0.355 C  
HETATM    6  C   UNL     1     -14.378   7.708  71.409  1.00  0.00    -0.537 C  
HETATM    7  C   UNL     1     -14.254   8.870  72.353  1.00  0.00    -0.452 C  
BRANCH   5   8
HETATM    8  C   UNL     1     -11.896   7.677  72.363  1.00  0.00    -0.289 C  
BRANCH   8   9
HETATM    9  S   UNL     1     -11.405   6.025  71.830  1.00  0.00    -0.233 SA 
BRANCH   9  10
HETATM   10  C   UNL     1      -9.761   6.393  71.048  1.00  0.00    -0.176 C  
BRANCH  10  11
HETATM   11  C   UNL     1      -8.735   7.060  71.997  1.00  0.00    -0.128 C  
BRANCH  11  12
HETATM   12  C   UNL     1      -7.283   6.556  71.849  1.00  0.00    -0.086 C  
BRANCH  12  13
HETATM   13  C   UNL     1      -6.739   6.764  70.442  1.00  0.00    -0.057 A  
HETATM   14  C   UNL     1      -6.841   5.639  69.585  1.00  0.00    -0.061 A  
HETATM   15  C   UNL     1      -5.879   6.839  67.758  1.00  0.00    -0.020 A  
HETATM   16  H   UNL     1      -7.276  10.481  71.739  1.00  0.00     0.000 HD 
HETATM   17  C   UNL     1      -6.402   5.667  68.268  1.00  0.00    -0.041 A  
HETATM   18  C   UNL     1      -5.555  10.495  69.938  1.00  0.00    -0.048 C  
HETATM   19  C   UNL     1      -5.793   7.971  68.571  1.00  0.00    -0.039 A  
HETATM   20  C   UNL     1      -6.202   7.977  69.929  1.00  0.00    -0.029 A  
HETATM   21  O   UNL     1      -7.357   9.678  71.238  1.00  0.00    -0.322 OA 
HETATM   22  C   UNL     1      -5.129   9.133  71.948  1.00  0.00    -0.050 C  
HETATM   23  C   UNL     1      -6.071   9.281  70.744  1.00  0.00    -0.062 C  
ENDBRANCH  12  13
ENDBRANCH  11  12
ENDBRANCH  10  11
BRANCH  10  24
HETATM   24  C   UNL     1      -9.963   7.112  69.711  1.00  0.00    -0.180 A  
HETATM   25  C   UNL     1     -10.216   8.490  67.262  1.00  0.00    -0.346 A  
HETATM   26  C   UNL     1     -10.638   6.535  68.625  1.00  0.00    -0.289 A  
HETATM   27  C   UNL     1      -9.416   8.401  69.533  1.00  0.00    -0.166 A  
HETATM   28  C   UNL     1     -10.762   7.216  67.412  1.00  0.00    -0.368 A  
HETATM   29  C   UNL     1      -9.550   9.106  68.325  1.00  0.00    -0.161 A  
BRANCH  29  30
HETATM   30  C   UNL     1      -8.916  10.428  68.196  1.00  0.00    -0.132 C  
HETATM   31  C   UNL     1      -9.577  11.576  67.960  1.00  0.00    -0.180 C  
BRANCH  31  32
HETATM   32  C   UNL     1      -8.960  12.897  67.803  1.00  0.00    -0.191 A  
HETATM   33  N   UNL     1      -9.834  13.933  67.826  1.00  0.00    -0.231 NA 
HETATM   34  C   UNL     1      -9.368  15.179  67.624  1.00  0.00    -0.189 A  
HETATM   35  C   UNL     1      -8.006  15.441  67.373  1.00  0.00    -0.213 A  
HETATM   36  C   UNL     1      -7.123  14.359  67.348  1.00  0.00    -0.121 A  
HETATM   37  C   UNL     1      -7.562  16.756  67.144  1.00  0.00    -0.221 A  
HETATM   38  C   UNL     1      -8.469  17.811  67.158  1.00  0.00    -0.239 A  
HETATM   39  C   UNL     1      -7.605  13.072  67.558  1.00  0.00    -0.166 A  
HETATM   40  C   UNL     1      -9.812  17.552  67.414  1.00  0.00    -0.297 A  
HETATM   41  C   UNL     1     -10.251  16.249  67.645  1.00  0.00    -0.272 A  
HETATM   42 CL   UNL     1     -10.938  18.853  67.432  1.00  0.00    -0.437 Cl 
ENDBRANCH  31  32
ENDBRANCH  29  30
ENDBRANCH  10  24
ENDBRANCH   9  10
ENDBRANCH   8   9
ENDBRANCH   5   8
ENDBRANCH   3   5
TORSDOF 10
ENDMDL
MODEL      121
REMARK 921   NORMALIZED FREE ENERGY PREDICTED BY IDOCK:   -5.58 KCAL/MOL
REMARK 922        TOTAL FREE ENERGY PREDICTED BY IDOCK:  -10.49 KCAL/MOL
REMARK 923 INTER-LIGAND FREE ENERGY PREDICTED BY IDOCK:  -10.17 KCAL/MOL
REMARK 924 INTRA-LIGAND FREE ENERGY PREDICTED BY IDOCK:   -0.33 KCAL/MOL
REMARK 927      BINDING AFFINITY PREDICTED BY RF-SCORE:    0.00 PKD
ROOT
HETATM    1  O   UNL     1      -8.464   8.456  67.994  1.00  0.00    -0.129 OA 
HETATM    2  C   UNL     1      -7.709   9.537  67.669  1.00  0.00    -0.095 C  
HETATM    3  C   UNL     1      -7.894  10.692  68.632  1.00  0.00    -0.121 C  
HETATM    4  O   UNL     1      -6.937   9.518  66.724  1.00  0.00    -0.080 OA 
ENDROOT
BRANCH   3   5
HETATM    5  C   UNL     1      -7.543  12.058  68.044  1.00  0.00    -0.120 C  
HETATM    6  C   UNL     1      -6.546  12.076  66.893  1.00  0.00    -0.048 C  
HETATM    7  C   UNL     1      -6.120  12.549  68.254  1.00  0.00    -0.065 C  
BRANCH   5   8
HETATM    8  C   UNL     1      -8.713  13.034  68.101  1.00  0.00    -0.190 C  
BRANCH   8   9
HETATM    9  S   UNL     1      -9.685  13.291  66.604  1.00  0.00    -0.274 SA 
BRANCH   9  10
HETATM   10  C   UNL     1     -11.128  14.237  67.292  1.00  0.00    -0.306 C  
BRANCH  10  11
HETATM   11  C   UNL     1     -10.928  15.771  67.333  1.00  0.00    -0.279 C  
BRANCH  11  12
HETATM   12  C   UNL     1     -10.074  16.290  68.510  1.00  0.00    -0.239 C  
BRANCH  12  13
HETATM   13  C   UNL     1      -8.764  16.911  68.043  1.00  0.00    -0.215 A  
HETATM   14  C   UNL     1      -7.657  16.025  68.006  1.00  0.00    -0.137 A  
HETATM   15  C   UNL     1      -6.212  17.733  67.170  1.00  0.00    -0.175 A  
HETATM   16  H   UNL     1     -11.485  19.481  66.712  1.00  0.00     0.000 HD 
HETATM   17  C   UNL     1      -6.395  16.432  67.593  1.00  0.00    -0.177 A  
HETATM   18  C   UNL     1      -9.307  20.666  66.958  1.00  0.00    -0.424 C  
HETATM   19  C   UNL     1      -7.292  18.620  67.169  1.00  0.00    -0.218 A  
HETATM   20  C   UNL     1      -8.589  18.255  67.610  1.00  0.00    -0.261 A  
HETATM   21  O   UNL     1     -10.791  18.834  66.739  1.00  0.00    -0.352 OA 
HETATM   22  C   UNL     1     -10.294  19.612  68.956  1.00  0.00    -0.222 C  
HETATM   23  C   UNL     1      -9.718  19.305  67.566  1.00  0.00    -0.323 C  
ENDBRANCH  12  13
ENDBRANCH  11  12
ENDBRANCH  10  11
BRANCH  10  24
HETATM   24  C   UNL     1     -11.585  13.611  68.613  1.00  0.00    -0.364 A  
HETATM   25  C   UNL     1     -12.316  12.386  71.047  1.00  0.00    -0.309 A  
HETATM   26  C   UNL     1     -12.283  14.325  69.599  1.00  0.00    -0.371 A  
HETATM   27  C   UNL     1     -11.262  12.264  68.884  1.00  0.00    -0.323 A  
HETATM   28  C   UNL     1     -12.644  13.718  70.804  1.00  0.00    -0.410 A  
HETATM   29  C   UNL     1     -11.635  11.635  70.084  1.00  0.00    -0.303 A  
BRANCH  29  30
HETATM   30  C   UNL     1     -11.226  10.241  70.317  1.00  0.00    -0.395 C  
HETATM   31  C   UNL     1     -11.361   9.587  71.485  1.00  0.00    -0.456 C  
BRANCH  31  32
HETATM   32  C   UNL     1     -10.935   8.207  71.742  1.00  0.00    -0.261 A  
HETATM   33  N   UNL     1     -10.696   7.475  70.627  1.00  0.00    -0.226 NA 
HETATM   34  C   UNL     1     -10.364   6.178  70.760  1.00  0.00    -0.213 A  
HETATM   35  C   UNL     1     -10.273   5.552  72.020  1.00  0.00    -0.249 A  
HETATM   36  C   UNL     1     -10.529   6.323  73.157  1.00  0.00    -0.259 A  
HETATM   37  C   UNL     1      -9.946   4.187  72.117  1.00  0.00    -0.243 A  
HETATM   38  C   UNL     1      -9.713   3.442  70.965  1.00  0.00    -0.216 A  
HETATM   39  C   UNL     1     -10.871   7.663  73.017  1.00  0.00    -0.457 A  
HETATM   40  C   UNL     1      -9.794   4.063  69.724  1.00  0.00    -0.103 A  
HETATM   41  C   UNL     1     -10.115   5.417  69.628  1.00  0.00    -0.319 A  
HETATM   42 CL   UNL     1      -9.508   3.146  68.296  1.00  0.00    -0.243 Cl 
ENDBRANCH  31  32
ENDBRANCH  29  30
ENDBRANCH  10  24
ENDBRANCH   9  10
ENDBRANCH   8   9
ENDBRANCH   5   8
ENDBRANCH   3   5
TORSDOF 10
ENDMDL
MODEL      122
REMARK 921   NORMALIZED FREE ENERGY PREDICTED BY IDOCK:   -5.58 KCAL/MOL
REMARK 922        TOTAL FREE ENERGY PREDICTED BY IDOCK:  -10.49 KCAL/MOL
REMARK 923 INTER-LIGAND FREE ENERGY PREDICTED BY IDOCK:   -9.38 KCAL/MOL
REMARK 924 INTRA-LIGAND FREE ENERGY PREDICTED BY IDOCK:   -1.11 KCAL/MOL
REMARK 927      BINDING AFFINITY PREDICTED BY RF-SCORE:    0.00 PKD
ROOT
HETATM    1  O   UNL     1      -8.644  11.639  67.072  1.00  0.00    -0.157 OA 
HETATM    2  C   UNL     1      -9.552  10.659  67.311  1.00  0.00    -0.163 C  
HETATM    3  C   UNL     1      -9.041   9.607  68.275  1.00  0.00    -0.123 C  
HETATM    4  O   UNL     1     -10.670  10.688  66.822  1.00  0.00    -0.250 OA 
ENDROOT
BRANCH   3   5
HETATM    5  C   UNL     1      -9.739   8.253  68.151  1.00  0.00    -0.178 C  
HETATM    6  C   UNL     1      -9.124   7.248  67.187  1.00  0.00    -0.144 C  
HETATM    7  C   UNL     1     -10.403   7.945  66.819  1.00  0.00    -0.357 C  
BRANCH   5   8
HETATM    8  C   UNL     1     -10.389   7.812  69.457  1.00  0.00    -0.219 C  
BRANCH   8   9
HETATM    9  S   UNL     1      -9.323   7.194  70.776  1.00  0.00    -0.160 SA 
BRANCH   9  10
HETATM   10  C   UNL     1     -10.583   6.833  72.092  1.00  0.00    -0.211 C  
BRANCH  10  11
HETATM   11  C   UNL     1     -10.842   5.327  72.334  1.00  0.00    -0.283 C  
BRANCH  11  12
HETATM   12  C   UNL     1     -10.152   4.373  71.334  1.00  0.00    -0.210 C  
BRANCH  12  13
HETATM   13  C   UNL     1      -9.072   3.526  71.995  1.00  0.00    -0.157 A  
HETATM   14  C   UNL     1      -9.195   3.383  73.401  1.00  0.00    -0.112 A  
HETATM   15  C   UNL     1      -7.271   1.974  73.510  1.00  0.00    -0.032 A  
HETATM   16  H   UNL     1      -8.828   2.448  68.179  1.00  0.00     0.000 HD 
HETATM   17  C   UNL     1      -8.300   2.634  74.152  1.00  0.00    -0.068 A  
HETATM   18  C   UNL     1      -6.643   1.997  69.288  1.00  0.00    -0.029 C  
HETATM   19  C   UNL     1      -7.141   2.074  72.123  1.00  0.00    -0.030 A  
HETATM   20  C   UNL     1      -8.016   2.852  71.322  1.00  0.00    -0.055 A  
HETATM   21  O   UNL     1      -8.966   2.421  69.119  1.00  0.00    -0.086 OA 
HETATM   22  C   UNL     1      -7.492   4.311  69.283  1.00  0.00    -0.055 C  
HETATM   23  C   UNL     1      -7.794   2.895  69.796  1.00  0.00    -0.042 C  
ENDBRANCH  12  13
ENDBRANCH  11  12
ENDBRANCH  10  11
BRANCH  10  24
HETATM   24  C   UNL     1     -11.841   7.675  71.861  1.00  0.00    -0.332 A  
HETATM   25  C   UNL     1     -14.089   9.302  71.353  1.00  0.00    -0.143 A  
HETATM   26  C   UNL     1     -13.132   7.129  71.822  1.00  0.00    -0.363 A  
HETATM   27  C   UNL     1     -11.708   9.062  71.636  1.00  0.00    -0.431 A  
HETATM   28  C   UNL     1     -14.245   7.934  71.569  1.00  0.00    -0.527 A  
HETATM   29  C   UNL     1     -12.821   9.888  71.399  1.00  0.00    -0.505 A  
BRANCH  29  30
HETATM   30  C   UNL     1     -12.604  11.318  71.129  1.00  0.00    -0.501 C  
HETATM   31  C   UNL     1     -12.109  11.816  69.981  1.00  0.00    -0.387 C  
BRANCH  31  32
HETATM   32  C   UNL     1     -11.862  13.235  69.705  1.00  0.00    -0.325 A  
HETATM   33  N   UNL     1     -10.783  13.476  68.922  1.00  0.00    -0.231 NA 
HETATM   34  C   UNL     1     -10.437  14.751  68.668  1.00  0.00    -0.250 A  
HETATM   35  C   UNL     1     -11.150  15.843  69.203  1.00  0.00    -0.302 A  
HETATM   36  C   UNL     1     -12.256  15.573  70.011  1.00  0.00    -0.380 A  
HETATM   37  C   UNL     1     -10.743  17.162  68.932  1.00  0.00    -0.257 A  
HETATM   38  C   UNL     1      -9.627  17.399  68.136  1.00  0.00    -0.287 A  
HETATM   39  C   UNL     1     -12.612  14.255  70.273  1.00  0.00    -0.378 A  
HETATM   40  C   UNL     1      -8.929  16.321  67.603  1.00  0.00    -0.192 A  
HETATM   41  C   UNL     1      -9.335  15.013  67.868  1.00  0.00    -0.183 A  
HETATM   42 CL   UNL     1      -7.547  16.607  66.618  1.00  0.00    -0.287 Cl 
ENDBRANCH  31  32
ENDBRANCH  29  30
ENDBRANCH  10  24
ENDBRANCH   9  10
ENDBRANCH   8   9
ENDBRANCH   5   8
ENDBRANCH   3   5
TORSDOF 10
ENDMDL
MODEL      123
REMARK 921   NORMALIZED FREE ENERGY PREDICTED BY IDOCK:   -5.51 KCAL/MOL
REMARK 922        TOTAL FREE ENERGY PREDICTED BY IDOCK:  -10.39 KCAL/MOL
REMARK 923 INTER-LIGAND FREE ENERGY PREDICTED BY IDOCK:   -8.38 KCAL/MOL
REMARK 924 INTRA-LIGAND FREE ENERGY PREDICTED BY IDOCK:   -2.01 KCAL/MOL
REMARK 927      BINDING AFFINITY PREDICTED BY RF-SCORE:    0.00 PKD
ROOT
HETATM    1  O   UNL     1     -10.952   5.100  73.901  1.00  0.00    -0.292 OA 
HETATM    2  C   UNL     1     -10.724   6.259  73.232  1.00  0.00    -0.260 C  
HETATM    3  C   UNL     1     -11.958   6.778  72.521  1.00  0.00    -0.083 C  
HETATM    4  O   UNL     1      -9.640   6.817  73.269  1.00  0.00    -0.148 OA 
ENDROOT
BRANCH   3   5
HETATM    5  C   UNL     1     -11.657   7.707  71.345  1.00  0.00    -0.300 C  
HETATM    6  C   UNL     1     -10.810   8.938  71.641  1.00  0.00    -0.420 C  
HETATM    7  C   UNL     1     -12.283   9.092  71.390  1.00  0.00    -0.387 C  
BRANCH   5   8
HETATM    8  C   UNL     1     -11.539   6.955  70.025  1.00  0.00    -0.246 C  
BRANCH   8   9
HETATM    9  S   UNL     1     -10.082   5.926  69.756  1.00  0.00    -0.217 SA 
BRANCH   9  10
HETATM   10  C   UNL     1      -9.262   6.852  68.370  1.00  0.00    -0.124 C  
BRANCH  10  11
HETATM   11  C   UNL     1      -8.414   5.968  67.423  1.00  0.00    -0.104 C  
BRANCH  11  12
HETATM   12  C   UNL     1      -7.340   6.723  66.609  1.00  0.00    -0.074 C  
BRANCH  12  13
HETATM   13  C   UNL     1      -7.410   6.401  65.122  1.00  0.00    -0.077 A  
HETATM   14  C   UNL     1      -7.104   5.059  64.782  1.00  0.00    -0.058 A  
HETATM   15  C   UNL     1      -7.504   5.467  62.463  1.00  0.00    -0.049 A  
HETATM   16  H   UNL     1      -9.527   9.752  65.399  1.00  0.00     0.000 HD 
HETATM   17  C   UNL     1      -7.132   4.600  63.471  1.00  0.00    -0.048 A  
HETATM   18  C   UNL     1      -8.667   9.529  63.071  1.00  0.00    -0.233 C  
HETATM   19  C   UNL     1      -7.838   6.787  62.772  1.00  0.00    -0.107 A  
HETATM   20  C   UNL     1      -7.794   7.304  64.092  1.00  0.00    -0.118 A  
HETATM   21  O   UNL     1      -9.285   8.845  65.252  1.00  0.00    -0.189 OA 
HETATM   22  C   UNL     1      -7.033   9.608  64.915  1.00  0.00    -0.113 C  
HETATM   23  C   UNL     1      -8.186   8.777  64.333  1.00  0.00    -0.168 C  
ENDBRANCH  12  13
ENDBRANCH  11  12
ENDBRANCH  10  11
BRANCH  10  24
HETATM   24  C   UNL     1      -8.541   8.087  68.916  1.00  0.00    -0.131 A  
HETATM   25  C   UNL     1      -7.315  10.437  69.881  1.00  0.00    -0.149 A  
HETATM   26  C   UNL     1      -7.769   8.069  70.088  1.00  0.00    -0.087 A  
HETATM   27  C   UNL     1      -8.682   9.319  68.242  1.00  0.00    -0.129 A  
HETATM   28  C   UNL     1      -7.164   9.233  70.566  1.00  0.00    -0.111 A  
HETATM   29  C   UNL     1      -8.062  10.494  68.702  1.00  0.00    -0.127 A  
BRANCH  29  30
HETATM   30  C   UNL     1      -8.288  11.753  67.973  1.00  0.00    -0.154 C  
HETATM   31  C   UNL     1      -9.472  12.385  67.882  1.00  0.00    -0.198 C  
BRANCH  31  32
HETATM   32  C   UNL     1      -9.722  13.624  67.139  1.00  0.00    -0.245 A  
HETATM   33  N   UNL     1      -9.620  14.754  67.880  1.00  0.00    -0.208 NA 
HETATM   34  C   UNL     1      -9.896  15.937  67.300  1.00  0.00    -0.234 A  
HETATM   35  C   UNL     1     -10.302  16.037  65.953  1.00  0.00    -0.386 A  
HETATM   36  C   UNL     1     -10.405  14.860  65.209  1.00  0.00    -0.424 A  
HETATM   37  C   UNL     1     -10.604  17.290  65.390  1.00  0.00    -0.083 A  
HETATM   38  C   UNL     1     -10.508  18.444  66.163  1.00  0.00    -0.422 A  
HETATM   39  C   UNL     1     -10.119  13.639  65.809  1.00  0.00    -0.311 A  
HETATM   40  C   UNL     1     -10.100  18.344  67.488  1.00  0.00    -0.357 A  
HETATM   41  C   UNL     1      -9.797  17.102  68.045  1.00  0.00    -0.283 A  
HETATM   42 CL   UNL     1      -9.980  19.767  68.449  1.00  0.00    -0.529 Cl 
ENDBRANCH  31  32
ENDBRANCH  29  30
ENDBRANCH  10  24
ENDBRANCH   9  10
ENDBRANCH   8   9
ENDBRANCH   5   8
ENDBRANCH   3   5
TORSDOF 10
ENDMDL
MODEL      124
REMARK 921   NORMALIZED FREE ENERGY PREDICTED BY IDOCK:   -5.48 KCAL/MOL
REMARK 922        TOTAL FREE ENERGY PREDICTED BY IDOCK:  -10.34 KCAL/MOL
REMARK 923 INTER-LIGAND FREE ENERGY PREDICTED BY IDOCK:   -8.23 KCAL/MOL
REMARK 924 INTRA-LIGAND FREE ENERGY PREDICTED BY IDOCK:   -2.11 KCAL/MOL
REMARK 927      BINDING AFFINITY PREDICTED BY RF-SCORE:    0.00 PKD
ROOT
HETATM    1  O   UNL     1      -6.519  10.084  70.174  1.00  0.00    -0.077 OA 
HETATM    2  C   UNL     1      -6.369   8.997  70.973  1.00  0.00    -0.061 C  
HETATM    3  C   UNL     1      -7.612   8.690  71.784  1.00  0.00    -0.125 C  
HETATM    4  O   UNL     1      -5.344   8.334  70.967  1.00  0.00    -0.029 OA 
ENDROOT
BRANCH   3   5
HETATM    5  C   UNL     1      -7.345   7.883  73.055  1.00  0.00    -0.132 C  
HETATM    6  C   UNL     1      -7.755   8.524  74.374  1.00  0.00    -0.196 C  
HETATM    7  C   UNL     1      -6.300   8.438  74.010  1.00  0.00    -0.144 C  
BRANCH   5   8
HETATM    8  C   UNL     1      -7.462   6.381  72.826  1.00  0.00    -0.095 C  
BRANCH   8   9
HETATM    9  S   UNL     1      -7.922   5.801  71.181  1.00  0.00    -0.114 SA 
BRANCH   9  10
HETATM   10  C   UNL     1      -9.748   5.544  71.408  1.00  0.00    -0.158 C  
BRANCH  10  11
HETATM   11  C   UNL     1     -10.386   4.556  70.403  1.00  0.00    -0.009 C  
BRANCH  11  12
HETATM   12  C   UNL     1     -10.545   5.095  68.964  1.00  0.00    -0.061 C  
BRANCH  12  13
HETATM   13  C   UNL     1      -9.617   4.396  67.979  1.00  0.00    -0.204 A  
HETATM   14  C   UNL     1      -9.480   2.997  68.170  1.00  0.00    -0.219 A  
HETATM   15  C   UNL     1      -8.022   2.798  66.290  1.00  0.00    -0.082 A  
HETATM   16  H   UNL     1     -10.467   7.805  66.124  1.00  0.00     0.000 HD 
HETATM   17  C   UNL     1      -8.681   2.210  67.351  1.00  0.00    -0.138 A  
HETATM   18  C   UNL     1      -8.300   6.931  65.257  1.00  0.00    -0.102 C  
HETATM   19  C   UNL     1      -8.161   4.169  66.061  1.00  0.00    -0.098 A  
HETATM   20  C   UNL     1      -8.943   5.013  66.890  1.00  0.00    -0.112 A  
HETATM   21  O   UNL     1     -10.408   6.880  66.333  1.00  0.00    -0.082 OA 
HETATM   22  C   UNL     1      -8.484   7.410  67.669  1.00  0.00    -0.120 C  
HETATM   23  C   UNL     1      -9.039   6.515  66.550  1.00  0.00    -0.152 C  
ENDBRANCH  12  13
ENDBRANCH  11  12
ENDBRANCH  10  11
BRANCH  10  24
HETATM   24  C   UNL     1     -10.458   6.895  71.523  1.00  0.00    -0.231 A  
HETATM   25  C   UNL     1     -11.793   9.380  71.604  1.00  0.00    -0.464 A  
HETATM   26  C   UNL     1     -11.221   7.269  72.640  1.00  0.00    -0.355 A  
HETATM   27  C   UNL     1     -10.386   7.804  70.445  1.00  0.00    -0.212 A  
HETATM   28  C   UNL     1     -11.883   8.498  72.679  1.00  0.00    -0.311 A  
HETATM   29  C   UNL     1     -11.031   9.053  70.479  1.00  0.00    -0.295 A  
BRANCH  29  30
HETATM   30  C   UNL     1     -10.947   9.932  69.302  1.00  0.00    -0.244 C  
HETATM   31  C   UNL     1     -10.890  11.275  69.349  1.00  0.00    -0.239 C  
BRANCH  31  32
HETATM   32  C   UNL     1     -10.833  12.167  68.186  1.00  0.00    -0.222 A  
HETATM   33  N   UNL     1     -10.533  13.455  68.479  1.00  0.00    -0.251 NA 
HETATM   34  C   UNL     1     -10.522  14.361  67.484  1.00  0.00    -0.252 A  
HETATM   35  C   UNL     1     -10.829  14.018  66.152  1.00  0.00    -0.291 A  
HETATM   36  C   UNL     1     -11.140  12.685  65.872  1.00  0.00    -0.323 A  
HETATM   37  C   UNL     1     -10.829  14.999  65.144  1.00  0.00    -0.422 A  
HETATM   38  C   UNL     1     -10.531  16.321  65.457  1.00  0.00    -0.383 A  
HETATM   39  C   UNL     1     -11.150  11.750  66.901  1.00  0.00    -0.361 A  
HETATM   40  C   UNL     1     -10.221  16.657  66.770  1.00  0.00    -0.301 A  
HETATM   41  C   UNL     1     -10.216  15.684  67.769  1.00  0.00    -0.252 A  
HETATM   42 CL   UNL     1      -9.852  18.291  67.164  1.00  0.00    -0.313 Cl 
ENDBRANCH  31  32
ENDBRANCH  29  30
ENDBRANCH  10  24
ENDBRANCH   9  10
ENDBRANCH   8   9
ENDBRANCH   5   8
ENDBRANCH   3   5
TORSDOF 10
ENDMDL
MODEL      125
REMARK 921   NORMALIZED FREE ENERGY PREDICTED BY IDOCK:   -5.46 KCAL/MOL
REMARK 922        TOTAL FREE ENERGY PREDICTED BY IDOCK:  -10.31 KCAL/MOL
REMARK 923 INTER-LIGAND FREE ENERGY PREDICTED BY IDOCK:   -7.49 KCAL/MOL
REMARK 924 INTRA-LIGAND FREE ENERGY PREDICTED BY IDOCK:   -2.82 KCAL/MOL
REMARK 927      BINDING AFFINITY PREDICTED BY RF-SCORE:    0.00 PKD
ROOT
HETATM    1  O   UNL     1     -12.534  11.737  69.175  1.00  0.00    -0.142 OA 
HETATM    2  C   UNL     1     -12.322  11.150  70.381  1.00  0.00    -0.344 C  
HETATM    3  C   UNL     1     -12.210   9.642  70.288  1.00  0.00     0.027 C  
HETATM    4  O   UNL     1     -12.189  11.809  71.399  1.00  0.00    -0.134 OA 
ENDROOT
BRANCH   3   5
HETATM    5  C   UNL     1     -12.531   8.910  71.590  1.00  0.00    -0.403 C  
HETATM    6  C   UNL     1     -13.949   8.378  71.748  1.00  0.00    -0.482 C  
HETATM    7  C   UNL     1     -13.516   9.586  72.530  1.00  0.00    -0.381 C  
BRANCH   5   8
HETATM    8  C   UNL     1     -11.329   8.154  72.145  1.00  0.00    -0.336 C  
BRANCH   8   9
HETATM    9  S   UNL     1     -11.138   6.414  71.709  1.00  0.00    -0.279 SA 
BRANCH   9  10
HETATM   10  C   UNL     1      -9.554   6.476  70.741  1.00  0.00    -0.179 C  
BRANCH  10  11
HETATM   11  C   UNL     1      -8.317   6.911  71.564  1.00  0.00    -0.114 C  
BRANCH  11  12
HETATM   12  C   UNL     1      -6.977   6.295  71.107  1.00  0.00    -0.068 C  
BRANCH  12  13
HETATM   13  C   UNL     1      -6.353   7.063  69.949  1.00  0.00    -0.038 A  
HETATM   14  C   UNL     1      -6.136   8.444  70.190  1.00  0.00    -0.031 A  
HETATM   15  C   UNL     1      -5.161   8.753  68.033  1.00  0.00    -0.034 A  
HETATM   16  H   UNL     1      -5.487   3.287  69.072  1.00  0.00     0.000 HD 
HETATM   17  C   UNL     1      -5.566   9.283  69.242  1.00  0.00    -0.035 A  
HETATM   18  C   UNL     1      -5.466   4.629  66.972  1.00  0.00    -0.013 C  
HETATM   19  C   UNL     1      -5.336   7.391  67.779  1.00  0.00    -0.025 A  
HETATM   20  C   UNL     1      -5.940   6.505  68.708  1.00  0.00    -0.022 A  
HETATM   21  O   UNL     1      -5.399   4.204  69.301  1.00  0.00    -0.010 OA 
HETATM   22  C   UNL     1      -7.549   4.557  68.290  1.00  0.00    -0.072 C  
HETATM   23  C   UNL     1      -6.084   5.015  68.337  1.00  0.00    -0.030 C  
ENDBRANCH  12  13
ENDBRANCH  11  12
ENDBRANCH  10  11
BRANCH  10  24
HETATM   24  C   UNL     1      -9.765   7.250  69.437  1.00  0.00    -0.161 A  
HETATM   25  C   UNL     1     -10.033   8.730  67.050  1.00  0.00    -0.307 A  
HETATM   26  C   UNL     1     -10.436   6.714  68.327  1.00  0.00    -0.249 A  
HETATM   27  C   UNL     1      -9.229   8.550  69.314  1.00  0.00    -0.153 A  
HETATM   28  C   UNL     1     -10.567   7.447  67.146  1.00  0.00    -0.413 A  
HETATM   29  C   UNL     1      -9.371   9.306  68.137  1.00  0.00    -0.143 A  
BRANCH  29  30
HETATM   30  C   UNL     1      -8.749  10.638  68.066  1.00  0.00    -0.126 C  
HETATM   31  C   UNL     1      -9.407  11.778  67.787  1.00  0.00    -0.181 C  
BRANCH  31  32
HETATM   32  C   UNL     1      -8.799  13.109  67.685  1.00  0.00    -0.191 A  
HETATM   33  N   UNL     1      -9.688  14.128  67.599  1.00  0.00    -0.224 NA 
HETATM   34  C   UNL     1      -9.225  15.381  67.436  1.00  0.00    -0.197 A  
HETATM   35  C   UNL     1      -7.848  15.666  67.337  1.00  0.00    -0.210 A  
HETATM   36  C   UNL     1      -6.949  14.600  67.424  1.00  0.00    -0.123 A  
HETATM   37  C   UNL     1      -7.404  16.986  67.144  1.00  0.00    -0.202 A  
HETATM   38  C   UNL     1      -8.325  18.025  67.044  1.00  0.00    -0.248 A  
HETATM   39  C   UNL     1      -7.429  13.306  67.592  1.00  0.00    -0.173 A  
HETATM   40  C   UNL     1      -9.683  17.743  67.151  1.00  0.00    -0.288 A  
HETATM   41  C   UNL     1     -10.123  16.434  67.346  1.00  0.00    -0.262 A  
HETATM   42 CL   UNL     1     -10.827  19.023  67.028  1.00  0.00    -0.497 Cl 
ENDBRANCH  31  32
ENDBRANCH  29  30
ENDBRANCH  10  24
ENDBRANCH   9  10
ENDBRANCH   8   9
ENDBRANCH   5   8
ENDBRANCH   3   5
TORSDOF 10
ENDMDL
MODEL      126
REMARK 921   NORMALIZED FREE ENERGY PREDICTED BY IDOCK:   -5.45 KCAL/MOL
REMARK 922        TOTAL FREE ENERGY PREDICTED BY IDOCK:  -10.29 KCAL/MOL
REMARK 923 INTER-LIGAND FREE ENERGY PREDICTED BY IDOCK:   -8.47 KCAL/MOL
REMARK 924 INTRA-LIGAND FREE ENERGY PREDICTED BY IDOCK:   -1.82 KCAL/MOL
REMARK 927      BINDING AFFINITY PREDICTED BY RF-SCORE:    0.00 PKD
ROOT
HETATM    1  O   UNL     1     -12.558  13.926  64.765  1.00  0.00    -0.603 OA 
HETATM    2  C   UNL     1     -11.308  13.396  64.789  1.00  0.00    -0.337 C  
HETATM    3  C   UNL     1     -11.310  11.885  64.673  1.00  0.00    -0.355 C  
HETATM    4  O   UNL     1     -10.314  14.101  64.845  1.00  0.00    -0.411 OA 
ENDROOT
BRANCH   3   5
HETATM    5  C   UNL     1     -10.060  11.213  65.240  1.00  0.00    -0.329 C  
HETATM    6  C   UNL     1      -8.939  10.905  64.256  1.00  0.00    -0.112 C  
HETATM    7  C   UNL     1      -9.787   9.786  64.791  1.00  0.00    -0.123 C  
BRANCH   5   8
HETATM    8  C   UNL     1      -9.768  11.641  66.673  1.00  0.00    -0.202 C  
BRANCH   8   9
HETATM    9  S   UNL     1      -9.797  10.381  67.964  1.00  0.00    -0.154 SA 
BRANCH   9  10
HETATM   10  C   UNL     1      -8.036   9.793  67.905  1.00  0.00    -0.104 C  
BRANCH  10  11
HETATM   11  C   UNL     1      -7.864   8.265  68.082  1.00  0.00    -0.118 C  
BRANCH  11  12
HETATM   12  C   UNL     1      -8.995   7.564  68.866  1.00  0.00    -0.134 C  
BRANCH  12  13
HETATM   13  C   UNL     1      -8.541   7.099  70.244  1.00  0.00    -0.143 A  
HETATM   14  C   UNL     1      -7.195   6.658  70.317  1.00  0.00    -0.077 A  
HETATM   15  C   UNL     1      -7.375   6.231  72.659  1.00  0.00    -0.085 A  
HETATM   16  H   UNL     1     -11.767   9.269  71.063  1.00  0.00     0.000 HD 
HETATM   17  C   UNL     1      -6.623   6.212  71.501  1.00  0.00    -0.054 A  
HETATM   18  C   UNL     1     -11.396   7.642  72.914  1.00  0.00    -0.394 C  
HETATM   19  C   UNL     1      -8.694   6.687  72.622  1.00  0.00    -0.127 A  
HETATM   20  C   UNL     1      -9.326   7.123  71.430  1.00  0.00    -0.155 A  
HETATM   21  O   UNL     1     -10.867   8.967  71.024  1.00  0.00    -0.225 OA 
HETATM   22  C   UNL     1     -11.735   6.761  70.637  1.00  0.00    -0.440 C  
HETATM   23  C   UNL     1     -10.787   7.614  71.493  1.00  0.00    -0.227 C  
ENDBRANCH  12  13
ENDBRANCH  11  12
ENDBRANCH  10  11
BRANCH  10  24
HETATM   24  C   UNL     1      -7.164  10.650  68.827  1.00  0.00    -0.087 A  
HETATM   25  C   UNL     1      -5.658  12.317  70.533  1.00  0.00    -0.168 A  
HETATM   26  C   UNL     1      -6.281  10.106  69.772  1.00  0.00    -0.058 A  
HETATM   27  C   UNL     1      -7.272  12.056  68.764  1.00  0.00    -0.108 A  
HETATM   28  C   UNL     1      -5.537  10.932  70.617  1.00  0.00    -0.125 A  
HETATM   29  C   UNL     1      -6.514  12.899  69.595  1.00  0.00    -0.044 A  
BRANCH  29  30
HETATM   30  C   UNL     1      -6.710  14.355  69.503  1.00  0.00    -0.141 C  
HETATM   31  C   UNL     1      -5.959  15.185  68.756  1.00  0.00    -0.088 C  
BRANCH  31  32
HETATM   32  C   UNL     1      -6.124  16.640  68.674  1.00  0.00    -0.140 A  
HETATM   33  N   UNL     1      -6.204  17.126  67.411  1.00  0.00    -0.138 NA 
HETATM   34  C   UNL     1      -6.290  18.457  67.233  1.00  0.00    -0.181 A  
HETATM   35  C   UNL     1      -6.282  19.362  68.314  1.00  0.00    -0.254 A  
HETATM   36  C   UNL     1      -6.193  18.840  69.607  1.00  0.00    -0.267 A  
HETATM   37  C   UNL     1      -6.350  20.748  68.085  1.00  0.00    -0.354 A  
HETATM   38  C   UNL     1      -6.421  21.238  66.785  1.00  0.00    -0.359 A  
HETATM   39  C   UNL     1      -6.105  17.465  69.789  1.00  0.00    -0.228 A  
HETATM   40  C   UNL     1      -6.437  20.344  65.720  1.00  0.00    -0.238 A  
HETATM   41  C   UNL     1      -6.374  18.969  65.947  1.00  0.00    -0.246 A  
HETATM   42 CL   UNL     1      -6.525  20.944  64.109  1.00  0.00    -0.334 Cl 
ENDBRANCH  31  32
ENDBRANCH  29  30
ENDBRANCH  10  24
ENDBRANCH   9  10
ENDBRANCH   8   9
ENDBRANCH   5   8
ENDBRANCH   3   5
TORSDOF 10
ENDMDL
MODEL      127
REMARK 921   NORMALIZED FREE ENERGY PREDICTED BY IDOCK:   -5.43 KCAL/MOL
REMARK 922        TOTAL FREE ENERGY PREDICTED BY IDOCK:  -10.26 KCAL/MOL
REMARK 923 INTER-LIGAND FREE ENERGY PREDICTED BY IDOCK:   -8.44 KCAL/MOL
REMARK 924 INTRA-LIGAND FREE ENERGY PREDICTED BY IDOCK:   -1.83 KCAL/MOL
REMARK 927      BINDING AFFINITY PREDICTED BY RF-SCORE:    0.00 PKD
ROOT
HETATM    1  O   UNL     1      -7.778   2.717  69.668  1.00  0.00    -0.043 OA 
HETATM    2  C   UNL     1      -8.377   3.157  68.533  1.00  0.00    -0.073 C  
HETATM    3  C   UNL     1      -7.677   2.678  67.277  1.00  0.00    -0.069 C  
HETATM    4  O   UNL     1      -9.400   3.822  68.564  1.00  0.00    -0.148 OA 
ENDROOT
BRANCH   3   5
HETATM    5  C   UNL     1      -7.932   3.550  66.048  1.00  0.00    -0.092 C  
HETATM    6  C   UNL     1      -9.267   3.367  65.339  1.00  0.00    -0.152 C  
HETATM    7  C   UNL     1      -8.011   2.837  64.707  1.00  0.00    -0.082 C  
BRANCH   5   8
HETATM    8  C   UNL     1      -7.267   4.917  66.157  1.00  0.00    -0.077 C  
BRANCH   8   9
HETATM    9  S   UNL     1      -7.611   6.139  64.876  1.00  0.00    -0.097 SA 
BRANCH   9  10
HETATM   10  C   UNL     1      -8.506   7.431  65.866  1.00  0.00    -0.150 C  
BRANCH  10  11
HETATM   11  C   UNL     1      -9.670   6.885  66.727  1.00  0.00    -0.232 C  
BRANCH  11  12
HETATM   12  C   UNL     1     -10.392   7.938  67.597  1.00  0.00    -0.307 C  
BRANCH  12  13
HETATM   13  C   UNL     1     -10.319   7.608  69.082  1.00  0.00    -0.217 A  
HETATM   14  C   UNL     1     -11.257   6.644  69.532  1.00  0.00    -0.383 A  
HETATM   15  C   UNL     1     -10.408   6.735  71.762  1.00  0.00    -0.217 A  
HETATM   16  H   UNL     1      -6.780   9.268  68.371  1.00  0.00     0.000 HD 
HETATM   17  C   UNL     1     -11.315   6.226  70.855  1.00  0.00    -0.389 A  
HETATM   18  C   UNL     1      -7.317   9.516  70.791  1.00  0.00    -0.103 C  
HETATM   19  C   UNL     1      -9.454   7.665  71.341  1.00  0.00    -0.166 A  
HETATM   20  C   UNL     1      -9.379   8.141  70.007  1.00  0.00    -0.159 A  
HETATM   21  O   UNL     1      -7.453   8.637  68.597  1.00  0.00    -0.092 OA 
HETATM   22  C   UNL     1      -8.867  10.499  69.146  1.00  0.00    -0.161 C  
HETATM   23  C   UNL     1      -8.286   9.166  69.638  1.00  0.00    -0.116 C  
ENDBRANCH  12  13
ENDBRANCH  11  12
ENDBRANCH  10  11
BRANCH  10  24
HETATM   24  C   UNL     1      -8.868   8.621  64.973  1.00  0.00    -0.114 A  
HETATM   25  C   UNL     1      -9.486  10.895  63.422  1.00  0.00    -0.339 A  
HETATM   26  C   UNL     1      -8.780   8.585  63.574  1.00  0.00     0.171 A  
HETATM   27  C   UNL     1      -9.274   9.832  65.574  1.00  0.00    -0.270 A  
HETATM   28  C   UNL     1      -9.084   9.711  62.806  1.00  0.00    -0.254 A  
HETATM   29  C   UNL     1      -9.602  10.968  64.812  1.00  0.00    -0.292 A  
BRANCH  29  30
HETATM   30  C   UNL     1      -9.976  12.210  65.508  1.00  0.00    -0.269 C  
HETATM   31  C   UNL     1      -9.196  12.858  66.392  1.00  0.00    -0.144 C  
BRANCH  31  32
HETATM   32  C   UNL     1      -9.562  14.082  67.113  1.00  0.00    -0.245 A  
HETATM   33  N   UNL     1      -9.718  15.173  66.326  1.00  0.00    -0.270 NA 
HETATM   34  C   UNL     1      -9.990  16.357  66.905  1.00  0.00    -0.271 A  
HETATM   35  C   UNL     1     -10.102  16.502  68.303  1.00  0.00    -0.259 A  
HETATM   36  C   UNL     1      -9.932  15.365  69.096  1.00  0.00    -0.241 A  
HETATM   37  C   UNL     1     -10.364  17.762  68.871  1.00  0.00    -0.300 A  
HETATM   38  C   UNL     1     -10.511  18.879  68.055  1.00  0.00    -0.427 A  
HETATM   39  C   UNL     1      -9.652  14.143  68.497  1.00  0.00    -0.214 A  
HETATM   40  C   UNL     1     -10.409  18.733  66.675  1.00  0.00    -0.420 A  
HETATM   41  C   UNL     1     -10.153  17.483  66.112  1.00  0.00    -0.317 A  
HETATM   42 CL   UNL     1     -10.589  20.111  65.661  1.00  0.00    -0.435 Cl 
ENDBRANCH  31  32
ENDBRANCH  29  30
ENDBRANCH  10  24
ENDBRANCH   9  10
ENDBRANCH   8   9
ENDBRANCH   5   8
ENDBRANCH   3   5
TORSDOF 10
ENDMDL
MODEL      128
REMARK 921   NORMALIZED FREE ENERGY PREDICTED BY IDOCK:   -5.41 KCAL/MOL
REMARK 922        TOTAL FREE ENERGY PREDICTED BY IDOCK:  -10.23 KCAL/MOL
REMARK 923 INTER-LIGAND FREE ENERGY PREDICTED BY IDOCK:   -9.08 KCAL/MOL
REMARK 924 INTRA-LIGAND FREE ENERGY PREDICTED BY IDOCK:   -1.16 KCAL/MOL
REMARK 927      BINDING AFFINITY PREDICTED BY RF-SCORE:    0.00 PKD
ROOT
HETATM    1  O   UNL     1     -13.157  13.494  65.167  1.00  0.00    -0.737 OA 
HETATM    2  C   UNL     1     -11.979  13.118  65.727  1.00  0.00    -0.423 C  
HETATM    3  C   UNL     1     -11.432  11.834  65.136  1.00  0.00    -0.248 C  
HETATM    4  O   UNL     1     -11.427  13.799  66.576  1.00  0.00    -0.324 OA 
ENDROOT
BRANCH   3   5
HETATM    5  C   UNL     1     -10.468  11.084  66.056  1.00  0.00    -0.304 C  
HETATM    6  C   UNL     1      -9.042  11.612  66.134  1.00  0.00    -0.209 C  
HETATM    7  C   UNL     1      -9.324  10.340  65.387  1.00  0.00    -0.258 C  
BRANCH   5   8
HETATM    8  C   UNL     1     -11.168  10.491  67.273  1.00  0.00    -0.125 C  
BRANCH   8   9
HETATM    9  S   UNL     1     -10.672  11.068  68.909  1.00  0.00    -0.225 SA 
BRANCH   9  10
HETATM   10  C   UNL     1      -9.538   9.691  69.427  1.00  0.00    -0.191 C  
BRANCH  10  11
HETATM   11  C   UNL     1     -10.033   8.879  70.648  1.00  0.00    -0.265 C  
BRANCH  11  12
HETATM   12  C   UNL     1      -9.527   7.421  70.714  1.00  0.00    -0.167 C  
BRANCH  12  13
HETATM   13  C   UNL     1      -9.877   6.631  69.460  1.00  0.00    -0.162 A  
HETATM   14  C   UNL     1     -10.422   7.397  68.398  1.00  0.00    -0.220 A  
HETATM   15  C   UNL     1     -10.576   5.480  66.983  1.00  0.00    -0.332 A  
HETATM   16  H   UNL     1      -7.362   4.210  71.357  1.00  0.00     0.000 HD 
HETATM   17  C   UNL     1     -10.784   6.830  67.184  1.00  0.00    -0.441 A  
HETATM   18  C   UNL     1      -8.804   2.853  69.844  1.00  0.00    -0.149 C  
HETATM   19  C   UNL     1     -10.015   4.706  68.001  1.00  0.00    -0.129 A  
HETATM   20  C   UNL     1      -9.658   5.239  69.267  1.00  0.00    -0.214 A  
HETATM   21  O   UNL     1      -7.743   4.786  70.705  1.00  0.00    -0.063 OA 
HETATM   22  C   UNL     1      -9.895   4.201  71.596  1.00  0.00    -0.254 C  
HETATM   23  C   UNL     1      -9.039   4.303  70.325  1.00  0.00    -0.101 C  
ENDBRANCH  12  13
ENDBRANCH  11  12
ENDBRANCH  10  11
BRANCH  10  24
HETATM   24  C   UNL     1      -8.101  10.207  69.536  1.00  0.00    -0.176 A  
HETATM   25  C   UNL     1      -5.499  11.271  69.784  1.00  0.00    -0.058 A  
HETATM   26  C   UNL     1      -7.014   9.386  69.874  1.00  0.00    -0.071 A  
HETATM   27  C   UNL     1      -7.845  11.579  69.327  1.00  0.00     0.153 A  
HETATM   28  C   UNL     1      -5.727   9.913  69.998  1.00  0.00    -0.044 A  
HETATM   29  C   UNL     1      -6.551  12.120  69.430  1.00  0.00    -0.090 A  
BRANCH  29  30
HETATM   30  C   UNL     1      -6.365  13.567  69.241  1.00  0.00    -0.109 C  
HETATM   31  C   UNL     1      -7.276  14.505  69.558  1.00  0.00    -0.095 C  
BRANCH  31  32
HETATM   32  C   UNL     1      -7.119  15.949  69.353  1.00  0.00    -0.215 A  
HETATM   33  N   UNL     1      -8.116  16.529  68.642  1.00  0.00    -0.221 NA 
HETATM   34  C   UNL     1      -8.026  17.838  68.346  1.00  0.00    -0.293 A  
HETATM   35  C   UNL     1      -6.921  18.622  68.737  1.00  0.00    -0.311 A  
HETATM   36  C   UNL     1      -5.902  18.004  69.464  1.00  0.00    -0.236 A  
HETATM   37  C   UNL     1      -6.854  19.983  68.389  1.00  0.00    -0.337 A  
HETATM   38  C   UNL     1      -7.878  20.567  67.649  1.00  0.00    -0.272 A  
HETATM   39  C   UNL     1      -5.997  16.651  69.769  1.00  0.00    -0.222 A  
HETATM   40  C   UNL     1      -8.971  19.794  67.271  1.00  0.00    -0.326 A  
HETATM   41  C   UNL     1      -9.040  18.445  67.620  1.00  0.00    -0.282 A  
HETATM   42 CL   UNL     1     -10.240  20.509  66.356  1.00  0.00    -0.332 Cl 
ENDBRANCH  31  32
ENDBRANCH  29  30
ENDBRANCH  10  24
ENDBRANCH   9  10
ENDBRANCH   8   9
ENDBRANCH   5   8
ENDBRANCH   3   5
TORSDOF 10
ENDMDL
MODEL      129
REMARK 921   NORMALIZED FREE ENERGY PREDICTED BY IDOCK:   -5.37 KCAL/MOL
REMARK 922        TOTAL FREE ENERGY PREDICTED BY IDOCK:  -10.17 KCAL/MOL
REMARK 923 INTER-LIGAND FREE ENERGY PREDICTED BY IDOCK:   -7.79 KCAL/MOL
REMARK 924 INTRA-LIGAND FREE ENERGY PREDICTED BY IDOCK:   -2.39 KCAL/MOL
REMARK 927      BINDING AFFINITY PREDICTED BY RF-SCORE:    0.00 PKD
ROOT
HETATM    1  O   UNL     1     -13.476  10.678  70.784  1.00  0.00    -0.099 OA 
HETATM    2  C   UNL     1     -12.708   9.810  71.491  1.00  0.00    -0.406 C  
HETATM    3  C   UNL     1     -11.721   9.057  70.622  1.00  0.00    -0.237 C  
HETATM    4  O   UNL     1     -12.799   9.716  72.704  1.00  0.00    -0.212 OA 
ENDROOT
BRANCH   3   5
HETATM    5  C   UNL     1     -11.253   7.729  71.214  1.00  0.00    -0.280 C  
HETATM    6  C   UNL     1     -11.560   6.472  70.411  1.00  0.00    -0.470 C  
HETATM    7  C   UNL     1     -12.336   6.761  71.665  1.00  0.00    -0.409 C  
BRANCH   5   8
HETATM    8  C   UNL     1      -9.963   7.870  72.012  1.00  0.00    -0.193 C  
BRANCH   8   9
HETATM    9  S   UNL     1      -8.513   8.548  71.180  1.00  0.00    -0.172 SA 
BRANCH   9  10
HETATM   10  C   UNL     1      -8.149   7.189  69.967  1.00  0.00    -0.127 C  
BRANCH  10  11
HETATM   11  C   UNL     1      -6.712   6.620  70.055  1.00  0.00    -0.049 C  
BRANCH  11  12
HETATM   12  C   UNL     1      -6.621   5.081  70.142  1.00  0.00    -0.036 C  
BRANCH  12  13
HETATM   13  C   UNL     1      -7.805   4.473  70.882  1.00  0.00    -0.068 A  
HETATM   14  C   UNL     1      -8.087   5.052  72.146  1.00  0.00    -0.112 A  
HETATM   15  C   UNL     1      -9.966   3.616  72.477  1.00  0.00    -0.227 A  
HETATM   16  H   UNL     1      -8.415   3.310  67.132  1.00  0.00     0.000 HD 
HETATM   17  C   UNL     1      -9.140   4.620  72.942  1.00  0.00    -0.131 A  
HETATM   18  C   UNL     1      -9.578   1.729  68.668  1.00  0.00    -0.161 C  
HETATM   19  C   UNL     1      -9.729   3.047  71.224  1.00  0.00    -0.208 A  
HETATM   20  C   UNL     1      -8.649   3.438  70.392  1.00  0.00    -0.109 A  
HETATM   21  O   UNL     1      -8.523   3.732  67.976  1.00  0.00    -0.090 OA 
HETATM   22  C   UNL     1      -7.139   2.002  68.902  1.00  0.00    -0.040 C  
HETATM   23  C   UNL     1      -8.474   2.752  69.022  1.00  0.00    -0.067 C  
ENDBRANCH  12  13
ENDBRANCH  11  12
ENDBRANCH  10  11
BRANCH  10  24
HETATM   24  C   UNL     1      -8.592   7.605  68.562  1.00  0.00    -0.129 A  
HETATM   25  C   UNL     1      -9.332   8.479  65.984  1.00  0.00    -0.266 A  
HETATM   26  C   UNL     1      -8.838   6.685  67.531  1.00  0.00    -0.116 A  
HETATM   27  C   UNL     1      -8.727   8.978  68.262  1.00  0.00    -0.130 A  
HETATM   28  C   UNL     1      -9.203   7.118  66.255  1.00  0.00    -0.169 A  
HETATM   29  C   UNL     1      -9.113   9.427  66.987  1.00  0.00    -0.155 A  
BRANCH  29  30
HETATM   30  C   UNL     1      -9.191  10.874  66.733  1.00  0.00    -0.174 C  
HETATM   31  C   UNL     1      -9.805  11.762  67.537  1.00  0.00    -0.195 C  
BRANCH  31  32
HETATM   32  C   UNL     1      -9.915  13.203  67.286  1.00  0.00    -0.230 A  
HETATM   33  N   UNL     1      -8.827  13.922  67.653  1.00  0.00    -0.180 NA 
HETATM   34  C   UNL     1      -8.860  15.261  67.523  1.00  0.00    -0.179 A  
HETATM   35  C   UNL     1      -9.995  15.940  67.034  1.00  0.00    -0.248 A  
HETATM   36  C   UNL     1     -11.107  15.180  66.667  1.00  0.00    -0.308 A  
HETATM   37  C   UNL     1      -9.999  17.343  66.934  1.00  0.00    -0.300 A  
HETATM   38  C   UNL     1      -8.880  18.074  67.324  1.00  0.00    -0.247 A  
HETATM   39  C   UNL     1     -11.071  13.797  66.801  1.00  0.00    -0.316 A  
HETATM   40  C   UNL     1      -7.759  17.402  67.798  1.00  0.00    -0.195 A  
HETATM   41  C   UNL     1      -7.754  16.010  67.893  1.00  0.00    -0.149 A  
HETATM   42 CL   UNL     1      -6.373  18.300  68.282  1.00  0.00    -0.195 Cl 
ENDBRANCH  31  32
ENDBRANCH  29  30
ENDBRANCH  10  24
ENDBRANCH   9  10
ENDBRANCH   8   9
ENDBRANCH   5   8
ENDBRANCH   3   5
TORSDOF 10
ENDMDL
MODEL      130
REMARK 921   NORMALIZED FREE ENERGY PREDICTED BY IDOCK:   -5.36 KCAL/MOL
REMARK 922        TOTAL FREE ENERGY PREDICTED BY IDOCK:  -10.14 KCAL/MOL
REMARK 923 INTER-LIGAND FREE ENERGY PREDICTED BY IDOCK:   -8.51 KCAL/MOL
REMARK 924 INTRA-LIGAND FREE ENERGY PREDICTED BY IDOCK:   -1.64 KCAL/MOL
REMARK 927      BINDING AFFINITY PREDICTED BY RF-SCORE:    0.00 PKD
ROOT
HETATM    1  O   UNL     1      -8.961  12.521  68.272  1.00  0.00    -0.194 OA 
HETATM    2  C   UNL     1      -8.024  11.729  67.692  1.00  0.00    -0.143 C  
HETATM    3  C   UNL     1      -8.427  11.261  66.308  1.00  0.00    -0.156 C  
HETATM    4  O   UNL     1      -6.961  11.487  68.240  1.00  0.00    -0.066 OA 
ENDROOT
BRANCH   3   5
HETATM    5  C   UNL     1      -7.731   9.978  65.854  1.00  0.00    -0.116 C  
HETATM    6  C   UNL     1      -6.383  10.135  65.163  1.00  0.00    -0.121 C  
HETATM    7  C   UNL     1      -7.595   9.767  64.355  1.00  0.00    -0.135 C  
BRANCH   5   8
HETATM    8  C   UNL     1      -8.022   8.801  66.776  1.00  0.00    -0.097 C  
BRANCH   8   9
HETATM    9  S   UNL     1      -9.480   7.792  66.440  1.00  0.00    -0.145 SA 
BRANCH   9  10
HETATM   10  C   UNL     1      -9.059   6.255  67.394  1.00  0.00    -0.111 C  
BRANCH  10  11
HETATM   11  C   UNL     1      -9.219   4.940  66.593  1.00  0.00    -0.126 C  
BRANCH  11  12
HETATM   12  C   UNL     1      -8.639   4.969  65.162  1.00  0.00    -0.148 C  
BRANCH  12  13
HETATM   13  C   UNL     1      -9.073   3.764  64.338  1.00  0.00    -0.129 A  
HETATM   14  C   UNL     1     -10.447   3.738  63.988  1.00  0.00    -0.271 A  
HETATM   15  C   UNL     1     -10.183   1.702  62.768  1.00  0.00    -0.102 A  
HETATM   16  H   UNL     1      -5.132   3.805  63.835  1.00  0.00     0.000 HD 
HETATM   17  C   UNL     1     -11.000   2.714  63.230  1.00  0.00    -0.199 A  
HETATM   18  C   UNL     1      -5.973   1.492  63.444  1.00  0.00    -0.009 C  
HETATM   19  C   UNL     1      -8.820   1.717  63.074  1.00  0.00    -0.075 A  
HETATM   20  C   UNL     1      -8.220   2.727  63.869  1.00  0.00    -0.082 A  
HETATM   21  O   UNL     1      -6.065   3.848  63.664  1.00  0.00    -0.017 OA 
HETATM   22  C   UNL     1      -6.384   2.526  65.644  1.00  0.00    -0.024 C  
HETATM   23  C   UNL     1      -6.704   2.658  64.147  1.00  0.00    -0.032 C  
ENDBRANCH  12  13
ENDBRANCH  11  12
ENDBRANCH  10  11
BRANCH  10  24
HETATM   24  C   UNL     1      -9.762   6.271  68.754  1.00  0.00    -0.141 A  
HETATM   25  C   UNL     1     -11.128   6.404  71.219  1.00  0.00    -0.334 A  
HETATM   26  C   UNL     1     -10.074   5.105  69.470  1.00  0.00    -0.316 A  
HETATM   27  C   UNL     1     -10.157   7.507  69.309  1.00  0.00    -0.188 A  
HETATM   28  C   UNL     1     -10.751   5.172  70.689  1.00  0.00    -0.133 A  
HETATM   29  C   UNL     1     -10.823   7.590  70.545  1.00  0.00    -0.252 A  
BRANCH  29  30
HETATM   30  C   UNL     1     -11.243   8.909  71.042  1.00  0.00    -0.342 C  
HETATM   31  C   UNL     1     -11.991   9.788  70.349  1.00  0.00    -0.218 C  
BRANCH  31  32
HETATM   32  C   UNL     1     -12.397  11.117  70.818  1.00  0.00    -0.406 A  
HETATM   33  N   UNL     1     -11.784  12.147  70.187  1.00  0.00    -0.272 NA 
HETATM   34  C   UNL     1     -12.043  13.404  70.594  1.00  0.00    -0.295 A  
HETATM   35  C   UNL     1     -12.918  13.681  71.665  1.00  0.00    -0.448 A  
HETATM   36  C   UNL     1     -13.535  12.604  72.304  1.00  0.00    -0.541 A  
HETATM   37  C   UNL     1     -13.145  15.007  72.075  1.00  0.00    -0.440 A  
HETATM   38  C   UNL     1     -12.502  16.058  71.428  1.00  0.00    -0.343 A  
HETATM   39  C   UNL     1     -13.266  11.307  71.883  1.00  0.00    -0.491 A  
HETATM   40  C   UNL     1     -11.646  15.783  70.367  1.00  0.00    -0.360 A  
HETATM   41  C   UNL     1     -11.424  14.469  69.957  1.00  0.00    -0.311 A  
HETATM   42 CL   UNL     1     -10.848  17.079  69.563  1.00  0.00    -0.176 Cl 
ENDBRANCH  31  32
ENDBRANCH  29  30
ENDBRANCH  10  24
ENDBRANCH   9  10
ENDBRANCH   8   9
ENDBRANCH   5   8
ENDBRANCH   3   5
TORSDOF 10
ENDMDL
MODEL      131
REMARK 921   NORMALIZED FREE ENERGY PREDICTED BY IDOCK:   -5.32 KCAL/MOL
REMARK 922        TOTAL FREE ENERGY PREDICTED BY IDOCK:  -10.09 KCAL/MOL
REMARK 923 INTER-LIGAND FREE ENERGY PREDICTED BY IDOCK:   -8.05 KCAL/MOL
REMARK 924 INTRA-LIGAND FREE ENERGY PREDICTED BY IDOCK:   -2.04 KCAL/MOL
REMARK 927      BINDING AFFINITY PREDICTED BY RF-SCORE:    0.00 PKD
ROOT
HETATM    1  O   UNL     1      -9.568   1.596  64.768  1.00  0.00    -0.098 OA 
HETATM    2  C   UNL     1      -8.633   2.579  64.820  1.00  0.00    -0.098 C  
HETATM    3  C   UNL     1      -9.141   3.901  64.281  1.00  0.00    -0.137 C  
HETATM    4  O   UNL     1      -7.530   2.389  65.306  1.00  0.00    -0.068 OA 
ENDROOT
BRANCH   3   5
HETATM    5  C   UNL     1      -8.039   4.844  63.798  1.00  0.00    -0.112 C  
HETATM    6  C   UNL     1      -8.232   5.482  62.429  1.00  0.00    -0.105 C  
HETATM    7  C   UNL     1      -7.221   4.384  62.602  1.00  0.00    -0.040 C  
BRANCH   5   8
HETATM    8  C   UNL     1      -7.375   5.598  64.944  1.00  0.00    -0.071 C  
BRANCH   8   9
HETATM    9  S   UNL     1      -7.793   7.338  65.177  1.00  0.00    -0.129 SA 
BRANCH   9  10
HETATM   10  C   UNL     1      -8.757   7.247  66.762  1.00  0.00    -0.130 C  
BRANCH  10  11
HETATM   11  C   UNL     1     -10.294   7.264  66.580  1.00  0.00    -0.229 C  
BRANCH  11  12
HETATM   12  C   UNL     1     -11.106   6.838  67.823  1.00  0.00    -0.285 C  
BRANCH  12  13
HETATM   13  C   UNL     1     -10.460   5.676  68.565  1.00  0.00    -0.273 A  
HETATM   14  C   UNL     1      -9.882   4.680  67.737  1.00  0.00    -0.183 A  
HETATM   15  C   UNL     1      -9.134   3.426  69.626  1.00  0.00    -0.202 A  
HETATM   16  H   UNL     1     -10.666   8.500  71.353  1.00  0.00     0.000 HD 
HETATM   17  C   UNL     1      -9.244   3.561  68.257  1.00  0.00    -0.225 A  
HETATM   18  C   UNL     1     -10.573   6.271  72.464  1.00  0.00    -0.239 C  
HETATM   19  C   UNL     1      -9.669   4.406  70.466  1.00  0.00    -0.287 A  
HETATM   20  C   UNL     1     -10.353   5.548  69.978  1.00  0.00    -0.358 A  
HETATM   21  O   UNL     1     -10.326   7.866  70.732  1.00  0.00    -0.201 OA 
HETATM   22  C   UNL     1     -12.431   6.722  70.908  1.00  0.00    -0.270 C  
HETATM   23  C   UNL     1     -10.904   6.578  70.985  1.00  0.00    -0.253 C  
ENDBRANCH  12  13
ENDBRANCH  11  12
ENDBRANCH  10  11
BRANCH  10  24
HETATM   24  C   UNL     1      -8.216   8.270  67.766  1.00  0.00    -0.127 A  
HETATM   25  C   UNL     1      -7.328  10.226  69.595  1.00  0.00    -0.150 A  
HETATM   26  C   UNL     1      -7.477   7.912  68.903  1.00  0.00    -0.094 A  
HETATM   27  C   UNL     1      -8.499   9.639  67.573  1.00  0.00    -0.125 A  
HETATM   28  C   UNL     1      -7.039   8.880  69.809  1.00  0.00    -0.054 A  
HETATM   29  C   UNL     1      -8.048  10.626  68.466  1.00  0.00    -0.125 A  
BRANCH  29  30
HETATM   30  C   UNL     1      -8.418  12.030  68.225  1.00  0.00    -0.167 C  
HETATM   31  C   UNL     1      -9.673  12.513  68.278  1.00  0.00    -0.220 C  
BRANCH  31  32
HETATM   32  C   UNL     1     -10.063  13.902  68.015  1.00  0.00    -0.244 A  
HETATM   33  N   UNL     1      -9.096  14.659  67.443  1.00  0.00    -0.190 NA 
HETATM   34  C   UNL     1      -9.338  15.964  67.224  1.00  0.00    -0.211 A  
HETATM   35  C   UNL     1     -10.557  16.573  67.584  1.00  0.00    -0.321 A  
HETATM   36  C   UNL     1     -11.539  15.776  68.176  1.00  0.00    -0.259 A  
HETATM   37  C   UNL     1     -10.763  17.946  67.359  1.00  0.00    -0.306 A  
HETATM   38  C   UNL     1      -9.759  18.717  66.782  1.00  0.00    -0.355 A  
HETATM   39  C   UNL     1     -11.288  14.427  68.402  1.00  0.00    -0.312 A  
HETATM   40  C   UNL     1      -8.560  18.114  66.419  1.00  0.00    -0.229 A  
HETATM   41  C   UNL     1      -8.357  16.751  66.639  1.00  0.00    -0.296 A  
HETATM   42 CL   UNL     1      -7.314  19.062  65.706  1.00  0.00    -0.275 Cl 
ENDBRANCH  31  32
ENDBRANCH  29  30
ENDBRANCH  10  24
ENDBRANCH   9  10
ENDBRANCH   8   9
ENDBRANCH   5   8
ENDBRANCH   3   5
TORSDOF 10
ENDMDL
MODEL      132
REMARK 921   NORMALIZED FREE ENERGY PREDICTED BY IDOCK:   -5.29 KCAL/MOL
REMARK 922        TOTAL FREE ENERGY PREDICTED BY IDOCK:  -10.04 KCAL/MOL
REMARK 923 INTER-LIGAND FREE ENERGY PREDICTED BY IDOCK:   -9.69 KCAL/MOL
REMARK 924 INTRA-LIGAND FREE ENERGY PREDICTED BY IDOCK:   -0.36 KCAL/MOL
REMARK 927      BINDING AFFINITY PREDICTED BY RF-SCORE:    0.00 PKD
ROOT
HETATM    1  O   UNL     1      -9.280  19.197  67.327  1.00  0.00    -0.285 OA 
HETATM    2  C   UNL     1     -10.042  18.263  66.704  1.00  0.00    -0.375 C  
HETATM    3  C   UNL     1     -10.313  17.052  67.575  1.00  0.00    -0.329 C  
HETATM    4  O   UNL     1     -10.485  18.442  65.581  1.00  0.00    -0.624 OA 
ENDROOT
BRANCH   3   5
HETATM    5  C   UNL     1     -10.653  15.783  66.793  1.00  0.00    -0.309 C  
HETATM    6  C   UNL     1      -9.576  15.239  65.864  1.00  0.00    -0.377 C  
HETATM    7  C   UNL     1     -10.781  15.924  65.284  1.00  0.00    -0.442 C  
BRANCH   5   8
HETATM    8  C   UNL     1     -11.585  14.857  67.564  1.00  0.00    -0.339 C  
BRANCH   8   9
HETATM    9  S   UNL     1     -10.852  13.641  68.677  1.00  0.00    -0.266 SA 
BRANCH   9  10
HETATM   10  C   UNL     1     -11.716  12.097  68.113  1.00  0.00    -0.341 C  
BRANCH  10  11
HETATM   11  C   UNL     1     -11.641  10.918  69.114  1.00  0.00    -0.389 C  
BRANCH  11  12
HETATM   12  C   UNL     1     -11.083   9.600  68.534  1.00  0.00    -0.091 C  
BRANCH  12  13
HETATM   13  C   UNL     1      -9.874   9.094  69.311  1.00  0.00    -0.175 A  
HETATM   14  C   UNL     1      -8.880  10.069  69.580  1.00  0.00    -0.217 A  
HETATM   15  C   UNL     1      -7.542   8.496  70.778  1.00  0.00    -0.074 A  
HETATM   16  H   UNL     1     -12.620   6.318  70.042  1.00  0.00     0.000 HD 
HETATM   17  C   UNL     1      -7.722   9.774  70.287  1.00  0.00    -0.187 A  
HETATM   18  C   UNL     1     -10.358   5.316  70.343  1.00  0.00    -0.345 C  
HETATM   19  C   UNL     1      -8.517   7.522  70.551  1.00  0.00    -0.133 A  
HETATM   20  C   UNL     1      -9.700   7.774  69.810  1.00  0.00    -0.176 A  
HETATM   21  O   UNL     1     -11.992   7.020  70.160  1.00  0.00    -0.209 OA 
HETATM   22  C   UNL     1     -10.929   6.268  68.142  1.00  0.00    -0.412 C  
HETATM   23  C   UNL     1     -10.721   6.633  69.619  1.00  0.00    -0.260 C  
ENDBRANCH  12  13
ENDBRANCH  11  12
ENDBRANCH  10  11
BRANCH  10  24
HETATM   24  C   UNL     1     -11.297  11.753  66.681  1.00  0.00    -0.381 A  
HETATM   25  C   UNL     1     -10.524  10.991  64.076  1.00  0.00    -0.433 A  
HETATM   26  C   UNL     1     -11.769  12.447  65.556  1.00  0.00    -0.459 A  
HETATM   27  C   UNL     1     -10.427  10.663  66.461  1.00  0.00    -0.285 A  
HETATM   28  C   UNL     1     -11.387  12.069  64.267  1.00  0.00    -0.433 A  
HETATM   29  C   UNL     1     -10.019  10.284  65.170  1.00  0.00    -0.395 A  
BRANCH  29  30
HETATM   30  C   UNL     1      -9.144   9.111  65.014  1.00  0.00    -0.215 C  
HETATM   31  C   UNL     1      -8.531   8.471  66.027  1.00  0.00    -0.150 C  
BRANCH  31  32
HETATM   32  C   UNL     1      -7.636   7.318  65.887  1.00  0.00    -0.090 A  
HETATM   33  N   UNL     1      -8.036   6.403  64.971  1.00  0.00    -0.134 NA 
HETATM   34  C   UNL     1      -7.314   5.278  64.819  1.00  0.00    -0.067 A  
HETATM   35  C   UNL     1      -6.165   5.013  65.592  1.00  0.00    -0.034 A  
HETATM   36  C   UNL     1      -5.772   5.967  66.533  1.00  0.00    -0.017 A  
HETATM   37  C   UNL     1      -5.449   3.814  65.419  1.00  0.00    -0.010 A  
HETATM   38  C   UNL     1      -5.875   2.875  64.484  1.00  0.00    -0.014 A  
HETATM   39  C   UNL     1      -6.520   7.128  66.689  1.00  0.00    -0.054 A  
HETATM   40  C   UNL     1      -7.004   3.142  63.716  1.00  0.00    -0.048 A  
HETATM   41  C   UNL     1      -7.711   4.332  63.885  1.00  0.00    -0.079 A  
HETATM   42 CL   UNL     1      -7.536   1.985  62.559  1.00  0.00    -0.036 Cl 
ENDBRANCH  31  32
ENDBRANCH  29  30
ENDBRANCH  10  24
ENDBRANCH   9  10
ENDBRANCH   8   9
ENDBRANCH   5   8
ENDBRANCH   3   5
TORSDOF 10
ENDMDL
MODEL      133
REMARK 921   NORMALIZED FREE ENERGY PREDICTED BY IDOCK:   -5.27 KCAL/MOL
REMARK 922        TOTAL FREE ENERGY PREDICTED BY IDOCK:  -10.01 KCAL/MOL
REMARK 923 INTER-LIGAND FREE ENERGY PREDICTED BY IDOCK:   -7.97 KCAL/MOL
REMARK 924 INTRA-LIGAND FREE ENERGY PREDICTED BY IDOCK:   -2.05 KCAL/MOL
REMARK 927      BINDING AFFINITY PREDICTED BY RF-SCORE:    0.00 PKD
ROOT
HETATM    1  O   UNL     1      -8.352   9.995  67.341  1.00  0.00    -0.118 OA 
HETATM    2  C   UNL     1      -8.570   8.969  68.202  1.00  0.00    -0.130 C  
HETATM    3  C   UNL     1      -7.564   8.929  69.334  1.00  0.00    -0.081 C  
HETATM    4  O   UNL     1      -9.520   8.213  68.071  1.00  0.00    -0.142 OA 
ENDROOT
BRANCH   3   5
HETATM    5  C   UNL     1      -7.401   7.552  69.978  1.00  0.00    -0.081 C  
HETATM    6  C   UNL     1      -5.988   6.989  70.048  1.00  0.00    -0.024 C  
HETATM    7  C   UNL     1      -6.969   6.417  69.064  1.00  0.00    -0.072 C  
BRANCH   5   8
HETATM    8  C   UNL     1      -8.415   7.306  71.089  1.00  0.00    -0.116 C  
BRANCH   8   9
HETATM    9  S   UNL     1      -7.837   7.349  72.798  1.00  0.00    -0.096 SA 
BRANCH   9  10
HETATM   10  C   UNL     1      -9.276   6.559  73.665  1.00  0.00    -0.135 C  
BRANCH  10  11
HETATM   11  C   UNL     1      -9.122   5.038  73.909  1.00  0.00    -0.112 C  
BRANCH  11  12
HETATM   12  C   UNL     1      -9.260   4.155  72.649  1.00  0.00    -0.140 C  
BRANCH  12  13
HETATM   13  C   UNL     1      -7.910   3.818  72.030  1.00  0.00    -0.063 A  
HETATM   14  C   UNL     1      -6.789   4.040  72.870  1.00  0.00    -0.048 A  
HETATM   15  C   UNL     1      -5.277   3.239  71.205  1.00  0.00    -0.004 A  
HETATM   16  H   UNL     1     -10.462   1.828  69.725  1.00  0.00     0.000 HD 
HETATM   17  C   UNL     1      -5.489   3.773  72.460  1.00  0.00     0.000 A  
HETATM   18  C   UNL     1      -8.373   2.256  68.435  1.00  0.00    -0.078 C  
HETATM   19  C   UNL     1      -6.364   2.983  70.367  1.00  0.00    -0.027 A  
HETATM   20  C   UNL     1      -7.704   3.268  70.734  1.00  0.00    -0.040 A  
HETATM   21  O   UNL     1      -9.764   2.027  70.338  1.00  0.00    -0.081 OA 
HETATM   22  C   UNL     1      -9.621   4.193  69.310  1.00  0.00    -0.256 C  
HETATM   23  C   UNL     1      -8.838   2.944  69.740  1.00  0.00    -0.086 C  
ENDBRANCH  12  13
ENDBRANCH  11  12
ENDBRANCH  10  11
BRANCH  10  24
HETATM   24  C   UNL     1     -10.588   6.973  72.992  1.00  0.00    -0.323 A  
HETATM   25  C   UNL     1     -12.937   7.829  71.684  1.00  0.00    -0.374 A  
HETATM   26  C   UNL     1     -11.595   6.060  72.646  1.00  0.00    -0.266 A  
HETATM   27  C   UNL     1     -10.792   8.330  72.661  1.00  0.00    -0.381 A  
HETATM   28  C   UNL     1     -12.757   6.483  71.998  1.00  0.00    -0.154 A  
HETATM   29  C   UNL     1     -11.965   8.774  72.026  1.00  0.00    -0.446 A  
BRANCH  29  30
HETATM   30  C   UNL     1     -12.091  10.196  71.672  1.00  0.00    -0.373 C  
HETATM   31  C   UNL     1     -11.702  10.733  70.500  1.00  0.00    -0.449 C  
BRANCH  31  32
HETATM   32  C   UNL     1     -11.795  12.152  70.141  1.00  0.00    -0.287 A  
HETATM   33  N   UNL     1     -11.272  12.461  68.930  1.00  0.00    -0.264 NA 
HETATM   34  C   UNL     1     -11.252  13.749  68.542  1.00  0.00    -0.275 A  
HETATM   35  C   UNL     1     -11.743  14.788  69.359  1.00  0.00    -0.358 A  
HETATM   36  C   UNL     1     -12.274  14.448  70.605  1.00  0.00    -0.414 A  
HETATM   37  C   UNL     1     -11.683  16.125  68.926  1.00  0.00    -0.250 A  
HETATM   38  C   UNL     1     -11.133  16.433  67.686  1.00  0.00    -0.150 A  
HETATM   39  C   UNL     1     -12.294  13.117  71.005  1.00  0.00    -0.355 A  
HETATM   40  C   UNL     1     -10.657  15.407  66.877  1.00  0.00    -0.309 A  
HETATM   41  C   UNL     1     -10.719  14.081  67.305  1.00  0.00    -0.278 A  
HETATM   42 CL   UNL     1      -9.974  15.782  65.343  1.00  0.00    -0.331 Cl 
ENDBRANCH  31  32
ENDBRANCH  29  30
ENDBRANCH  10  24
ENDBRANCH   9  10
ENDBRANCH   8   9
ENDBRANCH   5   8
ENDBRANCH   3   5
TORSDOF 10
ENDMDL
MODEL      134
REMARK 921   NORMALIZED FREE ENERGY PREDICTED BY IDOCK:   -5.27 KCAL/MOL
REMARK 922        TOTAL FREE ENERGY PREDICTED BY IDOCK:  -10.00 KCAL/MOL
REMARK 923 INTER-LIGAND FREE ENERGY PREDICTED BY IDOCK:   -7.20 KCAL/MOL
REMARK 924 INTRA-LIGAND FREE ENERGY PREDICTED BY IDOCK:   -2.80 KCAL/MOL
REMARK 927      BINDING AFFINITY PREDICTED BY RF-SCORE:    0.00 PKD
ROOT
HETATM    1  O   UNL     1     -10.597   7.439  68.286  1.00  0.00    -0.202 OA 
HETATM    2  C   UNL     1      -9.820   6.499  67.689  1.00  0.00    -0.125 C  
HETATM    3  C   UNL     1      -8.366   6.588  68.106  1.00  0.00    -0.116 C  
HETATM    4  O   UNL     1     -10.293   5.658  66.942  1.00  0.00    -0.204 OA 
ENDROOT
BRANCH   3   5
HETATM    5  C   UNL     1      -7.389   5.979  67.101  1.00  0.00    -0.076 C  
HETATM    6  C   UNL     1      -6.704   4.681  67.509  1.00  0.00    -0.051 C  
HETATM    7  C   UNL     1      -5.921   5.964  67.497  1.00  0.00    -0.018 C  
BRANCH   5   8
HETATM    8  C   UNL     1      -7.797   6.246  65.657  1.00  0.00    -0.098 C  
BRANCH   8   9
HETATM    9  S   UNL     1      -7.085   7.676  64.819  1.00  0.00    -0.067 SA 
BRANCH   9  10
HETATM   10  C   UNL     1      -8.029   9.053  65.634  1.00  0.00    -0.104 C  
BRANCH  10  11
HETATM   11  C   UNL     1      -8.864   9.921  64.662  1.00  0.00    -0.234 C  
BRANCH  11  12
HETATM   12  C   UNL     1     -10.394   9.817  64.841  1.00  0.00     0.594 C  
BRANCH  12  13
HETATM   13  C   UNL     1     -10.921  10.792  65.886  1.00  0.00     0.003 A  
HETATM   14  C   UNL     1     -10.877  10.322  67.224  1.00  0.00    -0.312 A  
HETATM   15  C   UNL     1     -11.766  12.374  68.061  1.00  0.00    -0.414 A  
HETATM   16  H   UNL     1     -10.189  13.147  62.771  1.00  0.00     0.000 HD 
HETATM   17  C   UNL     1     -11.309  11.092  68.295  1.00  0.00    -0.365 A  
HETATM   18  C   UNL     1     -11.901  14.233  64.221  1.00  0.00    -0.401 C  
HETATM   19  C   UNL     1     -11.794  12.873  66.757  1.00  0.00    -0.452 A  
HETATM   20  C   UNL     1     -11.390  12.110  65.632  1.00  0.00    -0.395 A  
HETATM   21  O   UNL     1     -10.149  12.751  63.634  1.00  0.00    -0.378 OA 
HETATM   22  C   UNL     1     -12.407  12.010  63.282  1.00  0.00    -0.553 C  
HETATM   23  C   UNL     1     -11.453  12.753  64.231  1.00  0.00    -0.373 C  
ENDBRANCH  12  13
ENDBRANCH  11  12
ENDBRANCH  10  11
BRANCH  10  24
HETATM   24  C   UNL     1      -7.107   9.840  66.570  1.00  0.00    -0.090 A  
HETATM   25  C   UNL     1      -5.517  11.350  68.346  1.00  0.00    -0.042 A  
HETATM   26  C   UNL     1      -5.939   9.301  67.129  1.00  0.00    -0.049 A  
HETATM   27  C   UNL     1      -7.457  11.160  66.930  1.00  0.00    -0.138 A  
HETATM   28  C   UNL     1      -5.153  10.048  68.008  1.00  0.00    -0.035 A  
HETATM   29  C   UNL     1      -6.664  11.930  67.799  1.00  0.00    -0.087 A  
BRANCH  29  30
HETATM   30  C   UNL     1      -7.113  13.283  68.164  1.00  0.00    -0.111 C  
HETATM   31  C   UNL     1      -8.285  13.829  67.791  1.00  0.00    -0.174 C  
BRANCH  31  32
HETATM   32  C   UNL     1      -8.736  15.185  68.123  1.00  0.00    -0.167 A  
HETATM   33  N   UNL     1      -9.269  15.871  67.083  1.00  0.00    -0.205 NA 
HETATM   34  C   UNL     1      -9.651  17.147  67.275  1.00  0.00    -0.245 A  
HETATM   35  C   UNL     1      -9.501  17.797  68.517  1.00  0.00    -0.304 A  
HETATM   36  C   UNL     1      -8.945  17.073  69.574  1.00  0.00     0.457 A  
HETATM   37  C   UNL     1      -9.891  19.140  68.671  1.00  0.00    -0.485 A  
HETATM   38  C   UNL     1     -10.426  19.839  67.594  1.00  0.00    -0.564 A  
HETATM   39  C   UNL     1      -8.551  15.755  69.374  1.00  0.00    -0.225 A  
HETATM   40  C   UNL     1     -10.582  19.194  66.372  1.00  0.00    -0.435 A  
HETATM   41  C   UNL     1     -10.198  17.862  66.220  1.00  0.00    -0.363 A  
HETATM   42 CL   UNL     1     -11.242  20.054  65.036  1.00  0.00     0.401 Cl 
ENDBRANCH  31  32
ENDBRANCH  29  30
ENDBRANCH  10  24
ENDBRANCH   9  10
ENDBRANCH   8   9
ENDBRANCH   5   8
ENDBRANCH   3   5
TORSDOF 10
ENDMDL
MODEL      135
REMARK 921   NORMALIZED FREE ENERGY PREDICTED BY IDOCK:   -5.25 KCAL/MOL
REMARK 922        TOTAL FREE ENERGY PREDICTED BY IDOCK:   -9.98 KCAL/MOL
REMARK 923 INTER-LIGAND FREE ENERGY PREDICTED BY IDOCK:   -8.89 KCAL/MOL
REMARK 924 INTRA-LIGAND FREE ENERGY PREDICTED BY IDOCK:   -1.09 KCAL/MOL
REMARK 927      BINDING AFFINITY PREDICTED BY RF-SCORE:    0.00 PKD
ROOT
HETATM    1  O   UNL     1      -6.496   4.515  67.759  1.00  0.00    -0.042 OA 
HETATM    2  C   UNL     1      -6.349   5.821  67.418  1.00  0.00    -0.042 C  
HETATM    3  C   UNL     1      -7.460   6.697  67.961  1.00  0.00    -0.098 C  
HETATM    4  O   UNL     1      -5.382   6.214  66.785  1.00  0.00    -0.008 OA 
ENDROOT
BRANCH   3   5
HETATM    5  C   UNL     1      -7.667   7.997  67.185  1.00  0.00    -0.101 C  
HETATM    6  C   UNL     1      -6.662   8.308  66.084  1.00  0.00    -0.054 C  
HETATM    7  C   UNL     1      -6.617   9.080  67.372  1.00  0.00    -0.065 C  
BRANCH   5   8
HETATM    8  C   UNL     1      -9.140   8.365  67.047  1.00  0.00    -0.144 C  
BRANCH   8   9
HETATM    9  S   UNL     1      -9.683   9.965  67.678  1.00  0.00    -0.160 SA 
BRANCH   9  10
HETATM   10  C   UNL     1     -10.417   9.458  69.308  1.00  0.00    -0.218 C  
BRANCH  10  11
HETATM   11  C   UNL     1     -11.147   8.094  69.285  1.00  0.00     0.137 C  
BRANCH  11  12
HETATM   12  C   UNL     1     -11.239   7.377  70.649  1.00  0.00    -0.292 C  
BRANCH  12  13
HETATM   13  C   UNL     1     -10.257   6.218  70.760  1.00  0.00    -0.238 A  
HETATM   14  C   UNL     1     -10.346   5.252  69.725  1.00  0.00    -0.369 A  
HETATM   15  C   UNL     1      -8.542   3.983  70.639  1.00  0.00    -0.106 A  
HETATM   16  H   UNL     1      -8.627   8.982  73.102  1.00  0.00     0.000 HD 
HETATM   17  C   UNL     1      -9.515   4.141  69.673  1.00  0.00    -0.259 A  
HETATM   18  C   UNL     1      -7.820   6.737  73.820  1.00  0.00    -0.106 C  
HETATM   19  C   UNL     1      -8.413   4.933  71.655  1.00  0.00    -0.124 A  
HETATM   20  C   UNL     1      -9.259   6.066  71.762  1.00  0.00    -0.151 A  
HETATM   21  O   UNL     1      -8.767   8.369  72.390  1.00  0.00    -0.195 OA 
HETATM   22  C   UNL     1     -10.247   7.169  73.852  1.00  0.00    -0.358 C  
HETATM   23  C   UNL     1      -9.033   7.062  72.918  1.00  0.00    -0.126 C  
ENDBRANCH  12  13
ENDBRANCH  11  12
ENDBRANCH  10  11
BRANCH  10  24
HETATM   24  C   UNL     1     -11.228  10.613  69.902  1.00  0.00    -0.378 A  
HETATM   25  C   UNL     1     -12.717  12.802  70.877  1.00  0.00    -0.277 A  
HETATM   26  C   UNL     1     -12.234  10.430  70.862  1.00  0.00    -0.484 A  
HETATM   27  C   UNL     1     -10.991  11.927  69.442  1.00  0.00    -0.156 A  
HETATM   28  C   UNL     1     -12.972  11.513  71.344  1.00  0.00    -0.450 A  
HETATM   29  C   UNL     1     -11.713  13.029  69.933  1.00  0.00    -0.326 A  
BRANCH  29  30
HETATM   30  C   UNL     1     -11.442  14.364  69.377  1.00  0.00    -0.330 C  
HETATM   31  C   UNL     1     -10.488  14.638  68.468  1.00  0.00    -0.247 C  
BRANCH  31  32
HETATM   32  C   UNL     1     -10.187  15.966  67.924  1.00  0.00    -0.251 A  
HETATM   33  N   UNL     1      -9.013  16.047  67.253  1.00  0.00    -0.193 NA 
HETATM   34  C   UNL     1      -8.619  17.241  66.774  1.00  0.00    -0.249 A  
HETATM   35  C   UNL     1      -9.380  18.413  66.960  1.00  0.00    -0.281 A  
HETATM   36  C   UNL     1     -10.586  18.309  67.658  1.00  0.00    -0.427 A  
HETATM   37  C   UNL     1      -8.924  19.647  66.463  1.00  0.00    -0.422 A  
HETATM   38  C   UNL     1      -7.710  19.721  65.786  1.00  0.00    -0.268 A  
HETATM   39  C   UNL     1     -10.991  17.074  68.152  1.00  0.00    -0.263 A  
HETATM   40  C   UNL     1      -6.964  18.562  65.596  1.00  0.00    -0.209 A  
HETATM   41  C   UNL     1      -7.419  17.338  66.085  1.00  0.00    -0.321 A  
HETATM   42 CL   UNL     1      -5.463  18.647  64.760  1.00  0.00    -0.236 Cl 
ENDBRANCH  31  32
ENDBRANCH  29  30
ENDBRANCH  10  24
ENDBRANCH   9  10
ENDBRANCH   8   9
ENDBRANCH   5   8
ENDBRANCH   3   5
TORSDOF 10
ENDMDL
MODEL      136
REMARK 921   NORMALIZED FREE ENERGY PREDICTED BY IDOCK:   -5.21 KCAL/MOL
REMARK 922        TOTAL FREE ENERGY PREDICTED BY IDOCK:   -9.91 KCAL/MOL
REMARK 923 INTER-LIGAND FREE ENERGY PREDICTED BY IDOCK:   -9.40 KCAL/MOL
REMARK 924 INTRA-LIGAND FREE ENERGY PREDICTED BY IDOCK:   -0.51 KCAL/MOL
REMARK 927      BINDING AFFINITY PREDICTED BY RF-SCORE:    0.00 PKD
ROOT
HETATM    1  O   UNL     1     -12.847  16.149  69.643  1.00  0.00     0.166 OA 
HETATM    2  C   UNL     1     -12.981  15.241  70.643  1.00  0.00    -0.391 C  
HETATM    3  C   UNL     1     -12.159  13.988  70.410  1.00  0.00    -0.426 C  
HETATM    4  O   UNL     1     -13.659  15.470  71.631  1.00  0.00    -0.474 OA 
ENDROOT
BRANCH   3   5
HETATM    5  C   UNL     1     -12.674  12.756  71.154  1.00  0.00    -0.355 C  
HETATM    6  C   UNL     1     -13.999  12.902  71.891  1.00  0.00     0.049 C  
HETATM    7  C   UNL     1     -12.716  12.842  72.672  1.00  0.00     0.552 C  
BRANCH   5   8
HETATM    8  C   UNL     1     -12.283  11.455  70.465  1.00  0.00    -0.386 C  
BRANCH   8   9
HETATM    9  S   UNL     1     -12.709   9.899  71.273  1.00  0.00    -0.408 SA 
BRANCH   9  10
HETATM   10  C   UNL     1     -11.173   8.909  70.939  1.00  0.00    -0.279 C  
BRANCH  10  11
HETATM   11  C   UNL     1      -9.981   9.244  71.868  1.00  0.00     0.048 C  
BRANCH  11  12
HETATM   12  C   UNL     1      -9.545   8.103  72.812  1.00  0.00    -0.353 C  
BRANCH  12  13
HETATM   13  C   UNL     1      -8.955   6.920  72.056  1.00  0.00    -0.136 A  
HETATM   14  C   UNL     1      -7.894   7.241  71.170  1.00  0.00    -0.093 A  
HETATM   15  C   UNL     1      -7.608   4.953  70.551  1.00  0.00    -0.062 A  
HETATM   16  H   UNL     1     -10.832   5.177  75.092  1.00  0.00     0.000 HD 
HETATM   17  C   UNL     1      -7.241   6.277  70.414  1.00  0.00    -0.083 A  
HETATM   18  C   UNL     1     -10.620   3.539  73.226  1.00  0.00    -0.277 C  
HETATM   19  C   UNL     1      -8.630   4.604  71.437  1.00  0.00    -0.123 A  
HETATM   20  C   UNL     1      -9.342   5.560  72.206  1.00  0.00    -0.159 A  
HETATM   21  O   UNL     1     -10.149   5.476  74.504  1.00  0.00    -0.227 OA 
HETATM   22  C   UNL     1     -11.833   5.643  72.799  1.00  0.00    -0.164 C  
HETATM   23  C   UNL     1     -10.452   5.075  73.161  1.00  0.00    -0.206 C  
ENDBRANCH  12  13
ENDBRANCH  11  12
ENDBRANCH  10  11
BRANCH  10  24
HETATM   24  C   UNL     1     -10.850   8.928  69.443  1.00  0.00    -0.133 A  
HETATM   25  C   UNL     1     -10.198   9.083  66.702  1.00  0.00    -0.333 A  
HETATM   26  C   UNL     1     -10.491   7.780  68.721  1.00  0.00    -0.201 A  
HETATM   27  C   UNL     1     -10.870  10.159  68.751  1.00  0.00    -0.259 A  
HETATM   28  C   UNL     1     -10.168   7.857  67.365  1.00  0.00    -0.320 A  
HETATM   29  C   UNL     1     -10.565  10.248  67.381  1.00  0.00    -0.324 A  
BRANCH  29  30
HETATM   30  C   UNL     1     -10.563  11.570  66.735  1.00  0.00    -0.289 C  
HETATM   31  C   UNL     1     -10.445  12.742  67.386  1.00  0.00    -0.234 C  
BRANCH  31  32
HETATM   32  C   UNL     1     -10.468  14.069  66.761  1.00  0.00    -0.277 A  
HETATM   33  N   UNL     1     -10.322  15.101  67.626  1.00  0.00    -0.246 NA 
HETATM   34  C   UNL     1     -10.396  16.359  67.155  1.00  0.00    -0.290 A  
HETATM   35  C   UNL     1     -10.637  16.638  65.794  1.00  0.00    -0.278 A  
HETATM   36  C   UNL     1     -10.789  15.559  64.920  1.00  0.00    -0.447 A  
HETATM   37  C   UNL     1     -10.730  17.967  65.344  1.00  0.00     0.156 A  
HETATM   38  C   UNL     1     -10.590  19.020  66.243  1.00  0.00    -0.493 A  
HETATM   39  C   UNL     1     -10.712  14.260  65.408  1.00  0.00    -0.353 A  
HETATM   40  C   UNL     1     -10.345  18.743  67.583  1.00  0.00    -0.420 A  
HETATM   41  C   UNL     1     -10.248  17.425  68.029  1.00  0.00    -0.345 A  
HETATM   42 CL   UNL     1     -10.171  20.041  68.700  1.00  0.00    -0.523 Cl 
ENDBRANCH  31  32
ENDBRANCH  29  30
ENDBRANCH  10  24
ENDBRANCH   9  10
ENDBRANCH   8   9
ENDBRANCH   5   8
ENDBRANCH   3   5
TORSDOF 10
ENDMDL
MODEL      137
REMARK 921   NORMALIZED FREE ENERGY PREDICTED BY IDOCK:   -5.19 KCAL/MOL
REMARK 922        TOTAL FREE ENERGY PREDICTED BY IDOCK:   -9.88 KCAL/MOL
REMARK 923 INTER-LIGAND FREE ENERGY PREDICTED BY IDOCK:   -8.18 KCAL/MOL
REMARK 924 INTRA-LIGAND FREE ENERGY PREDICTED BY IDOCK:   -1.70 KCAL/MOL
REMARK 927      BINDING AFFINITY PREDICTED BY RF-SCORE:    0.00 PKD
ROOT
HETATM    1  O   UNL     1     -14.273  14.812  72.842  1.00  0.00    -0.355 OA 
HETATM    2  C   UNL     1     -13.063  14.554  72.283  1.00  0.00    -0.374 C  
HETATM    3  C   UNL     1     -13.158  14.217  70.809  1.00  0.00    -0.289 C  
HETATM    4  O   UNL     1     -12.029  14.647  72.924  1.00  0.00    -0.159 OA 
ENDROOT
BRANCH   3   5
HETATM    5  C   UNL     1     -11.980  13.399  70.278  1.00  0.00    -0.378 C  
HETATM    6  C   UNL     1     -12.315  12.213  69.384  1.00  0.00     0.014 C  
HETATM    7  C   UNL     1     -11.849  11.975  70.793  1.00  0.00     0.045 C  
BRANCH   5   8
HETATM    8  C   UNL     1     -10.740  14.252  70.041  1.00  0.00     0.246 C  
BRANCH   8   9
HETATM    9  S   UNL     1     -10.891  15.704  68.981  1.00  0.00    -0.275 SA 
BRANCH   9  10
HETATM   10  C   UNL     1      -9.410  15.480  67.882  1.00  0.00    -0.192 C  
BRANCH  10  11
HETATM   11  C   UNL     1      -8.856  16.792  67.277  1.00  0.00    -0.216 C  
BRANCH  11  12
HETATM   12  C   UNL     1      -7.800  17.517  68.139  1.00  0.00    -0.244 C  
BRANCH  12  13
HETATM   13  C   UNL     1      -7.228  18.745  67.441  1.00  0.00    -0.215 A  
HETATM   14  C   UNL     1      -7.558  18.864  66.067  1.00  0.00    -0.259 A  
HETATM   15  C   UNL     1      -6.378  20.931  65.878  1.00  0.00    -0.266 A  
HETATM   16  H   UNL     1      -7.000  19.726  71.284  1.00  0.00     0.000 HD 
HETATM   17  C   UNL     1      -7.125  19.930  65.290  1.00  0.00    -0.215 A  
HETATM   18  C   UNL     1      -5.315  21.049  70.011  1.00  0.00    -0.291 C  
HETATM   19  C   UNL     1      -6.062  20.854  67.236  1.00  0.00    -0.337 A  
HETATM   20  C   UNL     1      -6.458  19.768  68.059  1.00  0.00    -0.276 A  
HETATM   21  O   UNL     1      -7.243  19.720  70.366  1.00  0.00     0.129 OA 
HETATM   22  C   UNL     1      -5.169  18.589  69.932  1.00  0.00    -0.205 C  
HETATM   23  C   UNL     1      -6.065  19.777  69.550  1.00  0.00    -0.311 C  
ENDBRANCH  12  13
ENDBRANCH  11  12
ENDBRANCH  10  11
BRANCH  10  24
HETATM   24  C   UNL     1      -9.672  14.363  66.868  1.00  0.00    -0.266 A  
HETATM   25  C   UNL     1     -10.190  12.225  65.101  1.00  0.00    -0.305 A  
HETATM   26  C   UNL     1     -10.206  14.595  65.591  1.00  0.00    -0.382 A  
HETATM   27  C   UNL     1      -9.407  13.025  67.234  1.00  0.00    -0.220 A  
HETATM   28  C   UNL     1     -10.463  13.537  64.717  1.00  0.00    -0.430 A  
HETATM   29  C   UNL     1      -9.643  11.952  66.357  1.00  0.00    -0.239 A  
BRANCH  29  30
HETATM   30  C   UNL     1      -9.384  10.580  66.822  1.00  0.00    -0.180 C  
HETATM   31  C   UNL     1     -10.211   9.868  67.609  1.00  0.00    -0.255 C  
BRANCH  31  32
HETATM   32  C   UNL     1      -9.956   8.510  68.103  1.00  0.00    -0.181 A  
HETATM   33  N   UNL     1      -9.063   7.803  67.370  1.00  0.00    -0.125 NA 
HETATM   34  C   UNL     1      -8.814   6.524  67.707  1.00  0.00    -0.113 A  
HETATM   35  C   UNL     1      -9.464   5.892  68.787  1.00  0.00    -0.143 A  
HETATM   36  C   UNL     1     -10.384   6.638  69.527  1.00  0.00    -0.232 A  
HETATM   37  C   UNL     1      -9.193   4.547  69.094  1.00  0.00    -0.194 A  
HETATM   38  C   UNL     1      -8.283   3.825  68.327  1.00  0.00    -0.090 A  
HETATM   39  C   UNL     1     -10.640   7.959  69.178  1.00  0.00    -0.184 A  
HETATM   40  C   UNL     1      -7.637   4.452  67.268  1.00  0.00    -0.081 A  
HETATM   41  C   UNL     1      -7.902   5.788  66.966  1.00  0.00    -0.102 A  
HETATM   42 CL   UNL     1      -6.510   3.566  66.316  1.00  0.00    -0.036 Cl 
ENDBRANCH  31  32
ENDBRANCH  29  30
ENDBRANCH  10  24
ENDBRANCH   9  10
ENDBRANCH   8   9
ENDBRANCH   5   8
ENDBRANCH   3   5
TORSDOF 10
ENDMDL
MODEL      138
REMARK 921   NORMALIZED FREE ENERGY PREDICTED BY IDOCK:   -5.18 KCAL/MOL
REMARK 922        TOTAL FREE ENERGY PREDICTED BY IDOCK:   -9.87 KCAL/MOL
REMARK 923 INTER-LIGAND FREE ENERGY PREDICTED BY IDOCK:   -7.79 KCAL/MOL
REMARK 924 INTRA-LIGAND FREE ENERGY PREDICTED BY IDOCK:   -2.08 KCAL/MOL
REMARK 927      BINDING AFFINITY PREDICTED BY RF-SCORE:    0.00 PKD
ROOT
HETATM    1  O   UNL     1      -9.626   2.770  67.763  1.00  0.00    -0.184 OA 
HETATM    2  C   UNL     1      -9.561   3.534  66.643  1.00  0.00    -0.106 C  
HETATM    3  C   UNL     1      -8.563   3.007  65.631  1.00  0.00    -0.115 C  
HETATM    4  O   UNL     1     -10.285   4.504  66.486  1.00  0.00    -0.243 OA 
ENDROOT
BRANCH   3   5
HETATM    5  C   UNL     1      -8.043   4.065  64.657  1.00  0.00    -0.093 C  
HETATM    6  C   UNL     1      -9.011   4.548  63.586  1.00  0.00    -0.130 C  
HETATM    7  C   UNL     1      -7.878   3.638  63.208  1.00  0.00    -0.071 C  
BRANCH   5   8
HETATM    8  C   UNL     1      -7.035   5.006  65.305  1.00  0.00    -0.062 C  
BRANCH   8   9
HETATM    9  S   UNL     1      -6.647   6.554  64.463  1.00  0.00    -0.038 SA 
BRANCH   9  10
HETATM   10  C   UNL     1      -7.569   7.763  65.529  1.00  0.00    -0.083 C  
BRANCH  10  11
HETATM   11  C   UNL     1      -8.443   7.112  66.628  1.00  0.00    -0.121 C  
BRANCH  11  12
HETATM   12  C   UNL     1      -7.870   7.204  68.060  1.00  0.00    -0.118 C  
BRANCH  12  13
HETATM   13  C   UNL     1      -8.798   6.579  69.094  1.00  0.00    -0.128 A  
HETATM   14  C   UNL     1     -10.154   6.987  69.011  1.00  0.00    -0.182 A  
HETATM   15  C   UNL     1     -10.779   5.564  70.824  1.00  0.00    -0.294 A  
HETATM   16  H   UNL     1      -5.671   4.127  69.115  1.00  0.00     0.000 HD 
HETATM   17  C   UNL     1     -11.128   6.502  69.873  1.00  0.00    -0.430 A  
HETATM   18  C   UNL     1      -6.859   3.942  71.298  1.00  0.00    -0.031 C  
HETATM   19  C   UNL     1      -9.456   5.123  70.910  1.00  0.00    -0.223 A  
HETATM   20  C   UNL     1      -8.425   5.613  70.069  1.00  0.00    -0.122 A  
HETATM   21  O   UNL     1      -6.552   4.468  69.010  1.00  0.00    -0.042 OA 
HETATM   22  C   UNL     1      -5.983   6.148  70.630  1.00  0.00    -0.026 C  
HETATM   23  C   UNL     1      -6.995   5.060  70.239  1.00  0.00    -0.052 C  
ENDBRANCH  12  13
ENDBRANCH  11  12
ENDBRANCH  10  11
BRANCH  10  24
HETATM   24  C   UNL     1      -8.294   8.789  64.654  1.00  0.00    -0.175 A  
HETATM   25  C   UNL     1      -9.579  10.777  63.117  1.00  0.00    -0.385 A  
HETATM   26  C   UNL     1      -8.463   8.634  63.269  1.00  0.00    -0.089 A  
HETATM   27  C   UNL     1      -8.787   9.972  65.246  1.00  0.00    -0.205 A  
HETATM   28  C   UNL     1      -9.098   9.619  62.509  1.00  0.00    -0.283 A  
HETATM   29  C   UNL     1      -9.445  10.963  64.496  1.00  0.00    -0.284 A  
BRANCH  29  30
HETATM   30  C   UNL     1      -9.893  12.190  65.172  1.00  0.00    -0.200 C  
HETATM   31  C   UNL     1      -9.372  12.670  66.316  1.00  0.00    -0.162 C  
BRANCH  31  32
HETATM   32  C   UNL     1      -9.824  13.876  67.017  1.00  0.00    -0.257 A  
HETATM   33  N   UNL     1      -9.766  15.011  66.279  1.00  0.00    -0.273 NA 
HETATM   34  C   UNL     1     -10.097  16.180  66.858  1.00  0.00    -0.272 A  
HETATM   35  C   UNL     1     -10.488  16.264  68.210  1.00  0.00    -0.284 A  
HETATM   36  C   UNL     1     -10.537  15.083  68.954  1.00  0.00    -0.242 A  
HETATM   37  C   UNL     1     -10.806  17.508  68.785  1.00  0.00    -0.012 A  
HETATM   38  C   UNL     1     -10.731  18.669  68.022  1.00  0.00    -0.273 A  
HETATM   39  C   UNL     1     -10.194  13.876  68.355  1.00  0.00    -0.243 A  
HETATM   40  C   UNL     1     -10.353  18.583  66.687  1.00  0.00    -0.408 A  
HETATM   41  C   UNL     1     -10.043  17.349  66.115  1.00  0.00    -0.309 A  
HETATM   42 CL   UNL     1     -10.259  20.016  65.738  1.00  0.00    -0.533 Cl 
ENDBRANCH  31  32
ENDBRANCH  29  30
ENDBRANCH  10  24
ENDBRANCH   9  10
ENDBRANCH   8   9
ENDBRANCH   5   8
ENDBRANCH   3   5
TORSDOF 10
ENDMDL
MODEL      139
REMARK 921   NORMALIZED FREE ENERGY PREDICTED BY IDOCK:   -5.16 KCAL/MOL
REMARK 922        TOTAL FREE ENERGY PREDICTED BY IDOCK:   -9.83 KCAL/MOL
REMARK 923 INTER-LIGAND FREE ENERGY PREDICTED BY IDOCK:   -8.13 KCAL/MOL
REMARK 924 INTRA-LIGAND FREE ENERGY PREDICTED BY IDOCK:   -1.70 KCAL/MOL
REMARK 927      BINDING AFFINITY PREDICTED BY RF-SCORE:    0.00 PKD
ROOT
HETATM    1  O   UNL     1      -7.702   1.917  69.390  1.00  0.00    -0.043 OA 
HETATM    2  C   UNL     1      -8.060   2.195  68.110  1.00  0.00    -0.058 C  
HETATM    3  C   UNL     1      -6.999   1.796  67.105  1.00  0.00    -0.039 C  
HETATM    4  O   UNL     1      -9.152   2.667  67.839  1.00  0.00    -0.145 OA 
ENDROOT
BRANCH   3   5
HETATM    5  C   UNL     1      -7.075   2.556  65.781  1.00  0.00    -0.064 C  
HETATM    6  C   UNL     1      -8.043   2.020  64.735  1.00  0.00    -0.078 C  
HETATM    7  C   UNL     1      -6.564   1.832  64.546  1.00  0.00    -0.022 C  
BRANCH   5   8
HETATM    8  C   UNL     1      -6.835   4.051  65.954  1.00  0.00    -0.054 C  
BRANCH   8   9
HETATM    9  S   UNL     1      -7.589   5.181  64.767  1.00  0.00    -0.082 SA 
BRANCH   9  10
HETATM   10  C   UNL     1      -7.975   6.626  65.868  1.00  0.00    -0.112 C  
BRANCH  10  11
HETATM   11  C   UNL     1      -8.953   6.307  67.025  1.00  0.00    -0.115 C  
BRANCH  11  12
HETATM   12  C   UNL     1      -8.858   7.252  68.243  1.00  0.00    -0.127 C  
BRANCH  12  13
HETATM   13  C   UNL     1      -8.421   6.522  69.507  1.00  0.00    -0.131 A  
HETATM   14  C   UNL     1      -7.141   5.916  69.439  1.00  0.00    -0.065 A  
HETATM   15  C   UNL     1      -7.293   5.147  71.694  1.00  0.00    -0.083 A  
HETATM   16  H   UNL     1     -11.313   8.908  70.820  1.00  0.00     0.000 HD 
HETATM   17  C   UNL     1      -6.590   5.222  70.508  1.00  0.00    -0.038 A  
HETATM   18  C   UNL     1     -11.090   6.976  72.377  1.00  0.00    -0.294 C  
HETATM   19  C   UNL     1      -8.544   5.760  71.799  1.00  0.00    -0.131 A  
HETATM   20  C   UNL     1      -9.155   6.452  70.722  1.00  0.00    -0.151 A  
HETATM   21  O   UNL     1     -10.461   8.510  70.687  1.00  0.00    -0.194 OA 
HETATM   22  C   UNL     1     -11.616   6.515  70.014  1.00  0.00    -0.455 C  
HETATM   23  C   UNL     1     -10.538   7.100  70.938  1.00  0.00    -0.220 C  
ENDBRANCH  12  13
ENDBRANCH  11  12
ENDBRANCH  10  11
BRANCH  10  24
HETATM   24  C   UNL     1      -8.352   7.845  65.023  1.00  0.00    -0.111 A  
HETATM   25  C   UNL     1      -9.021  10.169  63.570  1.00  0.00    -0.265 A  
HETATM   26  C   UNL     1      -8.073   7.944  63.651  1.00  0.00    -0.074 A  
HETATM   27  C   UNL     1      -8.976   8.948  65.646  1.00  0.00    -0.249 A  
HETATM   28  C   UNL     1      -8.403   9.095  62.933  1.00  0.00    -0.199 A  
HETATM   29  C   UNL     1      -9.331  10.105  64.931  1.00  0.00    -0.310 A  
BRANCH  29  30
HETATM   30  C   UNL     1      -9.939  11.233  65.655  1.00  0.00    -0.292 C  
HETATM   31  C   UNL     1      -9.462  11.757  66.798  1.00  0.00    -0.202 C  
BRANCH  31  32
HETATM   32  C   UNL     1     -10.070  12.863  67.546  1.00  0.00    -0.214 A  
HETATM   33  N   UNL     1     -10.826  12.479  68.602  1.00  0.00    -0.242 NA 
HETATM   34  C   UNL     1     -11.478  13.420  69.310  1.00  0.00    -0.290 A  
HETATM   35  C   UNL     1     -11.412  14.788  68.979  1.00  0.00    -0.316 A  
HETATM   36  C   UNL     1     -10.631  15.162  67.884  1.00  0.00    -0.257 A  
HETATM   37  C   UNL     1     -12.127  15.739  69.730  1.00  0.00    -0.298 A  
HETATM   38  C   UNL     1     -12.910  15.333  70.806  1.00  0.00    -0.494 A  
HETATM   39  C   UNL     1      -9.958  14.189  67.154  1.00  0.00    -0.255 A  
HETATM   40  C   UNL     1     -12.967  13.984  71.137  1.00  0.00    -0.332 A  
HETATM   41  C   UNL     1     -12.255  13.041  70.394  1.00  0.00    -0.386 A  
HETATM   42 CL   UNL     1     -13.935  13.475  72.466  1.00  0.00    -0.646 Cl 
ENDBRANCH  31  32
ENDBRANCH  29  30
ENDBRANCH  10  24
ENDBRANCH   9  10
ENDBRANCH   8   9
ENDBRANCH   5   8
ENDBRANCH   3   5
TORSDOF 10
ENDMDL
MODEL      140
REMARK 921   NORMALIZED FREE ENERGY PREDICTED BY IDOCK:   -5.16 KCAL/MOL
REMARK 922        TOTAL FREE ENERGY PREDICTED BY IDOCK:   -9.83 KCAL/MOL
REMARK 923 INTER-LIGAND FREE ENERGY PREDICTED BY IDOCK:   -7.67 KCAL/MOL
REMARK 924 INTRA-LIGAND FREE ENERGY PREDICTED BY IDOCK:   -2.16 KCAL/MOL
REMARK 927      BINDING AFFINITY PREDICTED BY RF-SCORE:    0.00 PKD
ROOT
HETATM    1  O   UNL     1     -10.986   4.360  74.016  1.00  0.00    -0.263 OA 
HETATM    2  C   UNL     1     -10.482   5.409  73.318  1.00  0.00    -0.226 C  
HETATM    3  C   UNL     1     -11.535   6.127  72.498  1.00  0.00    -0.318 C  
HETATM    4  O   UNL     1      -9.311   5.738  73.412  1.00  0.00    -0.135 OA 
ENDROOT
BRANCH   3   5
HETATM    5  C   UNL     1     -10.975   6.909  71.309  1.00  0.00    -0.275 C  
HETATM    6  C   UNL     1      -9.875   7.918  71.608  1.00  0.00    -0.212 C  
HETATM    7  C   UNL     1     -11.258   8.402  71.279  1.00  0.00    -0.309 C  
BRANCH   5   8
HETATM    8  C   UNL     1     -10.984   6.095  70.021  1.00  0.00    -0.372 C  
BRANCH   8   9
HETATM    9  S   UNL     1      -9.916   4.644  69.920  1.00  0.00    -0.178 SA 
BRANCH   9  10
HETATM   10  C   UNL     1      -8.877   5.087  68.445  1.00  0.00    -0.102 C  
BRANCH  10  11
HETATM   11  C   UNL     1      -8.004   3.929  67.906  1.00  0.00    -0.085 C  
BRANCH  11  12
HETATM   12  C   UNL     1      -7.298   4.211  66.561  1.00  0.00    -0.080 C  
BRANCH  12  13
HETATM   13  C   UNL     1      -8.111   3.724  65.369  1.00  0.00    -0.097 A  
HETATM   14  C   UNL     1      -8.699   2.443  65.524  1.00  0.00    -0.120 A  
HETATM   15  C   UNL     1      -9.725   2.560  63.371  1.00  0.00    -0.105 A  
HETATM   16  H   UNL     1      -7.903   7.643  64.753  1.00  0.00     0.000 HD 
HETATM   17  C   UNL     1      -9.480   1.859  64.535  1.00  0.00    -0.109 A  
HETATM   18  C   UNL     1      -8.295   6.502  62.572  1.00  0.00     0.023 C  
HETATM   19  C   UNL     1      -9.181   3.835  63.202  1.00  0.00    -0.108 A  
HETATM   20  C   UNL     1      -8.356   4.456  64.174  1.00  0.00    -0.110 A  
HETATM   21  O   UNL     1      -8.241   6.772  64.924  1.00  0.00    -0.134 OA 
HETATM   22  C   UNL     1      -6.272   5.911  63.851  1.00  0.00    -0.025 C  
HETATM   23  C   UNL     1      -7.807   5.871  63.897  1.00  0.00    -0.119 C  
ENDBRANCH  12  13
ENDBRANCH  11  12
ENDBRANCH  10  11
BRANCH  10  24
HETATM   24  C   UNL     1      -8.125   6.395  68.705  1.00  0.00    -0.113 A  
HETATM   25  C   UNL     1      -6.854   8.870  69.172  1.00  0.00    -0.055 A  
HETATM   26  C   UNL     1      -7.042   6.494  69.591  1.00  0.00    -0.072 A  
HETATM   27  C   UNL     1      -8.554   7.575  68.060  1.00  0.00    -0.122 A  
HETATM   28  C   UNL     1      -6.414   7.719  69.823  1.00  0.00    -0.034 A  
HETATM   29  C   UNL     1      -7.919   8.811  68.269  1.00  0.00    -0.106 A  
BRANCH  29  30
HETATM   30  C   UNL     1      -8.448  10.008  67.596  1.00  0.00    -0.114 C  
HETATM   31  C   UNL     1      -9.276   9.990  66.536  1.00  0.00    -0.182 C  
BRANCH  31  32
HETATM   32  C   UNL     1      -9.791  11.172  65.837  1.00  0.00    -0.232 A  
HETATM   33  N   UNL     1      -9.596  12.342  66.492  1.00  0.00    -0.232 NA 
HETATM   34  C   UNL     1     -10.093  13.474  65.960  1.00  0.00    -0.310 A  
HETATM   35  C   UNL     1     -10.823  13.480  64.754  1.00  0.00    -0.392 A  
HETATM   36  C   UNL     1     -11.016  12.262  64.097  1.00  0.00    -0.415 A  
HETATM   37  C   UNL     1     -11.346  14.681  64.242  1.00  0.00    -0.113 A  
HETATM   38  C   UNL     1     -11.151  15.876  64.929  1.00  0.00    -0.400 A  
HETATM   39  C   UNL     1     -10.502  11.094  64.648  1.00  0.00    -0.400 A  
HETATM   40  C   UNL     1     -10.423  15.870  66.114  1.00  0.00    -0.326 A  
HETATM   41  C   UNL     1      -9.901  14.679  66.619  1.00  0.00    -0.280 A  
HETATM   42 CL   UNL     1     -10.179  17.344  66.967  1.00  0.00    -0.314 Cl 
ENDBRANCH  31  32
ENDBRANCH  29  30
ENDBRANCH  10  24
ENDBRANCH   9  10
ENDBRANCH   8   9
ENDBRANCH   5   8
ENDBRANCH   3   5
TORSDOF 10
ENDMDL
MODEL      141
REMARK 921   NORMALIZED FREE ENERGY PREDICTED BY IDOCK:   -5.08 KCAL/MOL
REMARK 922        TOTAL FREE ENERGY PREDICTED BY IDOCK:   -9.70 KCAL/MOL
REMARK 923 INTER-LIGAND FREE ENERGY PREDICTED BY IDOCK:   -7.83 KCAL/MOL
REMARK 924 INTRA-LIGAND FREE ENERGY PREDICTED BY IDOCK:   -1.86 KCAL/MOL
REMARK 927      BINDING AFFINITY PREDICTED BY RF-SCORE:    0.00 PKD
ROOT
HETATM    1  O   UNL     1      -5.393   4.918  66.698  1.00  0.00    -0.008 OA 
HETATM    2  C   UNL     1      -5.795   6.214  66.681  1.00  0.00    -0.020 C  
HETATM    3  C   UNL     1      -6.791   6.534  67.777  1.00  0.00    -0.080 C  
HETATM    4  O   UNL     1      -5.338   7.016  65.883  1.00  0.00    -0.022 OA 
ENDROOT
BRANCH   3   5
HETATM    5  C   UNL     1      -7.675   7.745  67.485  1.00  0.00    -0.117 C  
HETATM    6  C   UNL     1      -7.103   8.804  66.551  1.00  0.00    -0.080 C  
HETATM    7  C   UNL     1      -7.200   9.085  68.024  1.00  0.00    -0.080 C  
BRANCH   5   8
HETATM    8  C   UNL     1      -9.159   7.396  67.482  1.00  0.00    -0.125 C  
BRANCH   8   9
HETATM    9  S   UNL     1     -10.346   8.711  67.821  1.00  0.00    -0.233 SA 
BRANCH   9  10
HETATM   10  C   UNL     1     -10.354   8.693  69.679  1.00  0.00    -0.213 C  
BRANCH  10  11
HETATM   11  C   UNL     1     -10.590   7.298  70.305  1.00  0.00    -0.243 C  
BRANCH  11  12
HETATM   12  C   UNL     1      -9.853   7.045  71.638  1.00  0.00    -0.169 C  
BRANCH  12  13
HETATM   13  C   UNL     1      -8.342   7.185  71.500  1.00  0.00    -0.111 A  
HETATM   14  C   UNL     1      -7.852   8.514  71.566  1.00  0.00    -0.158 A  
HETATM   15  C   UNL     1      -5.591   7.780  71.336  1.00  0.00    -0.035 A  
HETATM   16  H   UNL     1      -8.790   3.359  72.473  1.00  0.00     0.000 HD 
HETATM   17  C   UNL     1      -6.499   8.812  71.468  1.00  0.00    -0.074 A  
HETATM   18  C   UNL     1      -6.626   3.639  71.270  1.00  0.00    -0.026 C  
HETATM   19  C   UNL     1      -6.044   6.459  71.296  1.00  0.00    -0.039 A  
HETATM   20  C   UNL     1      -7.417   6.113  71.364  1.00  0.00    -0.093 A  
HETATM   21  O   UNL     1      -8.544   4.276  72.502  1.00  0.00    -0.103 OA 
HETATM   22  C   UNL     1      -8.700   4.287  70.106  1.00  0.00    -0.115 C  
HETATM   23  C   UNL     1      -7.817   4.624  71.316  1.00  0.00    -0.086 C  
ENDBRANCH  12  13
ENDBRANCH  11  12
ENDBRANCH  10  11
BRANCH  10  24
HETATM   24  C   UNL     1     -11.267   9.801  70.211  1.00  0.00    -0.347 A  
HETATM   25  C   UNL     1     -12.943  11.900  71.074  1.00  0.00    -0.180 A  
HETATM   26  C   UNL     1     -12.312   9.564  71.118  1.00  0.00    -0.410 A  
HETATM   27  C   UNL     1     -11.088  11.122  69.747  1.00  0.00    -0.271 A  
HETATM   28  C   UNL     1     -13.141  10.604  71.544  1.00  0.00    -0.527 A  
HETATM   29  C   UNL     1     -11.904  12.181  70.183  1.00  0.00    -0.368 A  
BRANCH  29  30
HETATM   30  C   UNL     1     -11.688  13.525  69.623  1.00  0.00    -0.378 C  
HETATM   31  C   UNL     1     -10.588  13.907  68.949  1.00  0.00    -0.228 C  
BRANCH  31  32
HETATM   32  C   UNL     1     -10.344  15.249  68.408  1.00  0.00    -0.227 A  
HETATM   33  N   UNL     1      -9.193  15.371  67.705  1.00  0.00    -0.186 NA 
HETATM   34  C   UNL     1      -8.850  16.581  67.225  1.00  0.00    -0.192 A  
HETATM   35  C   UNL     1      -9.642  17.727  67.444  1.00  0.00    -0.264 A  
HETATM   36  C   UNL     1     -10.822  17.580  68.176  1.00  0.00    -0.246 A  
HETATM   37  C   UNL     1      -9.238  18.979  66.946  1.00  0.00    -0.332 A  
HETATM   38  C   UNL     1      -8.047  19.096  66.235  1.00  0.00    -0.308 A  
HETATM   39  C   UNL     1     -11.174  16.329  68.671  1.00  0.00    -0.354 A  
HETATM   40  C   UNL     1      -7.272  17.963  66.012  1.00  0.00    -0.290 A  
HETATM   41  C   UNL     1      -7.675  16.721  66.503  1.00  0.00    -0.334 A  
HETATM   42 CL   UNL     1      -5.799  18.102  65.134  1.00  0.00    -0.166 Cl 
ENDBRANCH  31  32
ENDBRANCH  29  30
ENDBRANCH  10  24
ENDBRANCH   9  10
ENDBRANCH   8   9
ENDBRANCH   5   8
ENDBRANCH   3   5
TORSDOF 10
ENDMDL
MODEL      142
REMARK 921   NORMALIZED FREE ENERGY PREDICTED BY IDOCK:   -5.06 KCAL/MOL
REMARK 922        TOTAL FREE ENERGY PREDICTED BY IDOCK:   -9.68 KCAL/MOL
REMARK 923 INTER-LIGAND FREE ENERGY PREDICTED BY IDOCK:   -8.36 KCAL/MOL
REMARK 924 INTRA-LIGAND FREE ENERGY PREDICTED BY IDOCK:   -1.32 KCAL/MOL
REMARK 927      BINDING AFFINITY PREDICTED BY RF-SCORE:    0.00 PKD
ROOT
HETATM    1  O   UNL     1      -8.468   5.710  66.757  1.00  0.00    -0.112 OA 
HETATM    2  C   UNL     1      -8.110   6.978  66.432  1.00  0.00    -0.112 C  
HETATM    3  C   UNL     1      -8.572   7.997  67.454  1.00  0.00    -0.125 C  
HETATM    4  O   UNL     1      -7.441   7.221  65.441  1.00  0.00    -0.078 OA 
ENDROOT
BRANCH   3   5
HETATM    5  C   UNL     1      -8.705   9.417  66.904  1.00  0.00    -0.137 C  
HETATM    6  C   UNL     1      -7.556   9.933  66.047  1.00  0.00    -0.106 C  
HETATM    7  C   UNL     1      -7.734  10.454  67.445  1.00  0.00    -0.095 C  
BRANCH   5   8
HETATM    8  C   UNL     1     -10.152   9.794  66.609  1.00  0.00    -0.237 C  
BRANCH   8   9
HETATM    9  S   UNL     1     -10.642  11.519  66.805  1.00  0.00    -0.261 SA 
BRANCH   9  10
HETATM   10  C   UNL     1     -10.567  11.688  68.653  1.00  0.00    -0.209 C  
BRANCH  10  11
HETATM   11  C   UNL     1     -11.125  10.472  69.431  1.00  0.00    -0.310 C  
BRANCH  11  12
HETATM   12  C   UNL     1     -10.169   9.872  70.485  1.00  0.00    -0.257 C  
BRANCH  12  13
HETATM   13  C   UNL     1     -10.062   8.357  70.371  1.00  0.00    -0.202 A  
HETATM   14  C   UNL     1     -11.228   7.705  69.897  1.00  0.00    -0.097 A  
HETATM   15  C   UNL     1     -10.172   5.565  69.992  1.00  0.00    -0.337 A  
HETATM   16  H   UNL     1      -6.260   9.504  70.490  1.00  0.00     0.000 HD 
HETATM   17  C   UNL     1     -11.292   6.328  69.726  1.00  0.00    -0.506 A  
HETATM   18  C   UNL     1      -6.416   7.142  71.267  1.00  0.00    -0.041 C  
HETATM   19  C   UNL     1      -9.000   6.184  70.434  1.00  0.00    -0.151 A  
HETATM   20  C   UNL     1      -8.902   7.582  70.649  1.00  0.00    -0.146 A  
HETATM   21  O   UNL     1      -7.086   9.141  70.191  1.00  0.00    -0.045 OA 
HETATM   22  C   UNL     1      -7.679   8.862  72.501  1.00  0.00     0.250 C  
HETATM   23  C   UNL     1      -7.561   8.172  71.134  1.00  0.00    -0.082 C  
ENDBRANCH  12  13
ENDBRANCH  11  12
ENDBRANCH  10  11
BRANCH  10  24
HETATM   24  C   UNL     1     -11.135  13.043  69.082  1.00  0.00    -0.245 A  
HETATM   25  C   UNL     1     -12.148  15.590  69.752  1.00  0.00    -0.372 A  
HETATM   26  C   UNL     1     -12.279  13.177  69.883  1.00  0.00    -0.293 A  
HETATM   27  C   UNL     1     -10.514  14.225  68.624  1.00  0.00    -0.249 A  
HETATM   28  C   UNL     1     -12.781  14.437  70.214  1.00  0.00    -0.318 A  
HETATM   29  C   UNL     1     -10.997  15.501  68.965  1.00  0.00    -0.256 A  
BRANCH  29  30
HETATM   30  C   UNL     1     -10.324  16.689  68.416  1.00  0.00    -0.299 C  
HETATM   31  C   UNL     1      -9.028  16.994  68.608  1.00  0.00    -0.267 C  
BRANCH  31  32
HETATM   32  C   UNL     1      -8.348  18.186  68.091  1.00  0.00    -0.277 A  
HETATM   33  N   UNL     1      -7.846  18.049  66.840  1.00  0.00    -0.218 NA 
HETATM   34  C   UNL     1      -7.147  19.068  66.306  1.00  0.00    -0.241 A  
HETATM   35  C   UNL     1      -6.907  20.265  67.011  1.00  0.00    -0.284 A  
HETATM   36  C   UNL     1      -7.430  20.384  68.300  1.00  0.00    -0.109 A  
HETATM   37  C   UNL     1      -6.153  21.298  66.426  1.00  0.00    -0.340 A  
HETATM   38  C   UNL     1      -5.631  21.143  65.145  1.00  0.00    -0.231 A  
HETATM   39  C   UNL     1      -8.152  19.331  68.851  1.00  0.00    -0.347 A  
HETATM   40  C   UNL     1      -5.875  19.965  64.448  1.00  0.00    -0.250 A  
HETATM   41  C   UNL     1      -6.627  18.942  65.027  1.00  0.00    -0.105 A  
HETATM   42 CL   UNL     1      -5.232  19.767  62.864  1.00  0.00    -0.264 Cl 
ENDBRANCH  31  32
ENDBRANCH  29  30
ENDBRANCH  10  24
ENDBRANCH   9  10
ENDBRANCH   8   9
ENDBRANCH   5   8
ENDBRANCH   3   5
TORSDOF 10
ENDMDL
MODEL      143
REMARK 921   NORMALIZED FREE ENERGY PREDICTED BY IDOCK:   -5.05 KCAL/MOL
REMARK 922        TOTAL FREE ENERGY PREDICTED BY IDOCK:   -9.65 KCAL/MOL
REMARK 923 INTER-LIGAND FREE ENERGY PREDICTED BY IDOCK:   -8.30 KCAL/MOL
REMARK 924 INTRA-LIGAND FREE ENERGY PREDICTED BY IDOCK:   -1.35 KCAL/MOL
REMARK 927      BINDING AFFINITY PREDICTED BY RF-SCORE:    0.00 PKD
ROOT
HETATM    1  O   UNL     1      -6.979  16.615  69.052  1.00  0.00    -0.188 OA 
HETATM    2  C   UNL     1      -7.004  15.525  68.244  1.00  0.00    -0.115 C  
HETATM    3  C   UNL     1      -7.801  14.377  68.830  1.00  0.00    -0.118 C  
HETATM    4  O   UNL     1      -6.471  15.529  67.145  1.00  0.00    -0.302 OA 
ENDROOT
BRANCH   3   5
HETATM    5  C   UNL     1      -7.416  13.004  68.281  1.00  0.00    -0.128 C  
HETATM    6  C   UNL     1      -6.803  12.017  69.265  1.00  0.00    -0.066 C  
HETATM    7  C   UNL     1      -5.932  12.677  68.234  1.00  0.00    -0.068 C  
BRANCH   5   8
HETATM    8  C   UNL     1      -8.344  12.543  67.163  1.00  0.00    -0.179 C  
BRANCH   8   9
HETATM    9  S   UNL     1      -8.927  10.836  67.186  1.00  0.00    -0.141 SA 
BRANCH   9  10
HETATM   10  C   UNL     1     -10.763  11.102  67.264  1.00  0.00    -0.258 C  
BRANCH  10  11
HETATM   11  C   UNL     1     -11.240  12.452  66.678  1.00  0.00    -0.366 C  
BRANCH  11  12
HETATM   12  C   UNL     1     -11.890  13.416  67.695  1.00  0.00    -0.394 C  
BRANCH  12  13
HETATM   13  C   UNL     1     -11.286  14.813  67.634  1.00  0.00    -0.332 A  
HETATM   14  C   UNL     1     -10.858  15.229  66.347  1.00  0.00    -0.317 A  
HETATM   15  C   UNL     1     -10.179  17.365  67.171  1.00  0.00    -0.323 A  
HETATM   16  H   UNL     1     -13.307  14.873  71.054  1.00  0.00     0.000 HD 
HETATM   17  C   UNL     1     -10.297  16.478  66.119  1.00  0.00    -0.344 A  
HETATM   18  C   UNL     1     -11.496  16.581  71.156  1.00  0.00    -0.092 C  
HETATM   19  C   UNL     1     -10.617  16.992  68.444  1.00  0.00    -0.375 A  
HETATM   20  C   UNL     1     -11.170  15.717  68.726  1.00  0.00    -0.332 A  
HETATM   21  O   UNL     1     -13.024  15.066  70.168  1.00  0.00    -0.218 OA 
HETATM   22  C   UNL     1     -10.860  14.228  70.788  1.00  0.00     0.776 C  
HETATM   23  C   UNL     1     -11.630  15.402  70.165  1.00  0.00    -0.327 C  
ENDBRANCH  12  13
ENDBRANCH  11  12
ENDBRANCH  10  11
BRANCH  10  24
HETATM   24  C   UNL     1     -11.279  10.792  68.672  1.00  0.00    -0.333 A  
HETATM   25  C   UNL     1     -12.111  10.173  71.296  1.00  0.00    -0.489 A  
HETATM   26  C   UNL     1     -12.193  11.612  69.351  1.00  0.00    -0.246 A  
HETATM   27  C   UNL     1     -10.792   9.653  69.348  1.00  0.00    -0.239 A  
HETATM   28  C   UNL     1     -12.604  11.306  70.651  1.00  0.00    -0.377 A  
HETATM   29  C   UNL     1     -11.212   9.322  70.648  1.00  0.00    -0.333 A  
BRANCH  29  30
HETATM   30  C   UNL     1     -10.629   8.143  71.308  1.00  0.00    -0.258 C  
HETATM   31  C   UNL     1     -11.212   6.932  71.370  1.00  0.00    -0.296 C  
BRANCH  31  32
HETATM   32  C   UNL     1     -10.658   5.754  72.046  1.00  0.00    -0.226 A  
HETATM   33  N   UNL     1      -9.433   5.377  71.605  1.00  0.00    -0.146 NA 
HETATM   34  C   UNL     1      -8.872   4.268  72.119  1.00  0.00    -0.112 A  
HETATM   35  C   UNL     1      -9.523   3.476  73.088  1.00  0.00    -0.135 A  
HETATM   36  C   UNL     1     -10.786   3.880  73.524  1.00  0.00    -0.330 A  
HETATM   37  C   UNL     1      -8.912   2.310  73.584  1.00  0.00    -0.072 A  
HETATM   38  C   UNL     1      -7.659   1.925  73.117  1.00  0.00    -0.037 A  
HETATM   39  C   UNL     1     -11.365   5.026  72.993  1.00  0.00    -0.374 A  
HETATM   40  C   UNL     1      -7.015   2.712  72.167  1.00  0.00    -0.030 A  
HETATM   41  C   UNL     1      -7.619   3.870  71.679  1.00  0.00    -0.057 A  
HETATM   42 CL   UNL     1      -5.465   2.241  71.585  1.00  0.00    -0.007 Cl 
ENDBRANCH  31  32
ENDBRANCH  29  30
ENDBRANCH  10  24
ENDBRANCH   9  10
ENDBRANCH   8   9
ENDBRANCH   5   8
ENDBRANCH   3   5
TORSDOF 10
ENDMDL
MODEL      144
REMARK 921   NORMALIZED FREE ENERGY PREDICTED BY IDOCK:   -5.01 KCAL/MOL
REMARK 922        TOTAL FREE ENERGY PREDICTED BY IDOCK:   -9.60 KCAL/MOL
REMARK 923 INTER-LIGAND FREE ENERGY PREDICTED BY IDOCK:   -8.22 KCAL/MOL
REMARK 924 INTRA-LIGAND FREE ENERGY PREDICTED BY IDOCK:   -1.38 KCAL/MOL
REMARK 927      BINDING AFFINITY PREDICTED BY RF-SCORE:    0.00 PKD
ROOT
HETATM    1  O   UNL     1     -13.541  10.273  70.549  1.00  0.00    -0.069 OA 
HETATM    2  C   UNL     1     -12.823   9.717  71.558  1.00  0.00    -0.405 C  
HETATM    3  C   UNL     1     -11.384   9.443  71.171  1.00  0.00    -0.422 C  
HETATM    4  O   UNL     1     -13.310   9.525  72.660  1.00  0.00    -0.361 OA 
ENDROOT
BRANCH   3   5
HETATM    5  C   UNL     1     -10.709   8.355  72.007  1.00  0.00    -0.387 C  
HETATM    6  C   UNL     1     -11.271   6.945  71.882  1.00  0.00    -0.287 C  
HETATM    7  C   UNL     1     -11.534   7.742  73.127  1.00  0.00    -0.101 C  
BRANCH   5   8
HETATM    8  C   UNL     1      -9.218   8.606  72.194  1.00  0.00    -0.255 C  
BRANCH   8   9
HETATM    9  S   UNL     1      -8.135   8.431  70.762  1.00  0.00    -0.123 SA 
BRANCH   9  10
HETATM   10  C   UNL     1      -8.603   6.729  70.185  1.00  0.00    -0.140 C  
BRANCH  10  11
HETATM   11  C   UNL     1      -7.416   5.742  70.071  1.00  0.00    -0.075 C  
BRANCH  11  12
HETATM   12  C   UNL     1      -6.173   6.295  69.340  1.00  0.00    -0.033 C  
BRANCH  12  13
HETATM   13  C   UNL     1      -6.456   6.613  67.877  1.00  0.00    -0.056 A  
HETATM   14  C   UNL     1      -6.411   7.990  67.541  1.00  0.00    -0.056 A  
HETATM   15  C   UNL     1      -6.876   7.531  65.245  1.00  0.00    -0.048 A  
HETATM   16  H   UNL     1      -5.522   2.753  67.776  1.00  0.00     0.000 HD 
HETATM   17  C   UNL     1      -6.635   8.447  66.249  1.00  0.00    -0.058 A  
HETATM   18  C   UNL     1      -6.926   3.297  65.791  1.00  0.00    -0.057 C  
HETATM   19  C   UNL     1      -6.899   6.166  65.542  1.00  0.00    -0.052 A  
HETATM   20  C   UNL     1      -6.704   5.659  66.852  1.00  0.00    -0.062 A  
HETATM   21  O   UNL     1      -5.498   3.692  67.638  1.00  0.00    -0.018 OA 
HETATM   22  C   UNL     1      -7.867   3.706  68.032  1.00  0.00    -0.068 C  
HETATM   23  C   UNL     1      -6.742   4.134  67.078  1.00  0.00    -0.047 C  
ENDBRANCH  12  13
ENDBRANCH  11  12
ENDBRANCH  10  11
BRANCH  10  24
HETATM   24  C   UNL     1      -9.488   6.820  68.939  1.00  0.00    -0.128 A  
HETATM   25  C   UNL     1     -11.032   7.074  66.591  1.00  0.00     0.084 A  
HETATM   26  C   UNL     1     -10.192   5.725  68.416  1.00  0.00    -0.242 A  
HETATM   27  C   UNL     1      -9.579   8.048  68.249  1.00  0.00    -0.156 A  
HETATM   28  C   UNL     1     -10.955   5.851  67.254  1.00  0.00    -0.276 A  
HETATM   29  C   UNL     1     -10.359   8.194  67.088  1.00  0.00    -0.391 A  
BRANCH  29  30
HETATM   30  C   UNL     1     -10.372   9.492  66.396  1.00  0.00    -0.243 C  
HETATM   31  C   UNL     1     -10.481  10.686  67.007  1.00  0.00    -0.295 C  
BRANCH  31  32
HETATM   32  C   UNL     1     -10.522  11.988  66.331  1.00  0.00    -0.233 A  
HETATM   33  N   UNL     1     -10.421  13.055  67.160  1.00  0.00    -0.242 NA 
HETATM   34  C   UNL     1     -10.516  14.292  66.639  1.00  0.00    -0.278 A  
HETATM   35  C   UNL     1     -10.732  14.513  65.264  1.00  0.00    -0.390 A  
HETATM   36  C   UNL     1     -10.838  13.400  64.428  1.00  0.00    -0.422 A  
HETATM   37  C   UNL     1     -10.848  15.822  64.761  1.00  0.00    -0.365 A  
HETATM   38  C   UNL     1     -10.755  16.911  65.622  1.00  0.00    -0.173 A  
HETATM   39  C   UNL     1     -10.740  12.122  64.968  1.00  0.00    -0.338 A  
HETATM   40  C   UNL     1     -10.533  16.692  66.977  1.00  0.00    -0.283 A  
HETATM   41  C   UNL     1     -10.414  15.394  67.475  1.00  0.00    -0.275 A  
HETATM   42 CL   UNL     1     -10.417  18.034  68.047  1.00  0.00    -0.392 Cl 
ENDBRANCH  31  32
ENDBRANCH  29  30
ENDBRANCH  10  24
ENDBRANCH   9  10
ENDBRANCH   8   9
ENDBRANCH   5   8
ENDBRANCH   3   5
TORSDOF 10
ENDMDL
MODEL      145
REMARK 921   NORMALIZED FREE ENERGY PREDICTED BY IDOCK:   -5.00 KCAL/MOL
REMARK 922        TOTAL FREE ENERGY PREDICTED BY IDOCK:   -9.57 KCAL/MOL
REMARK 923 INTER-LIGAND FREE ENERGY PREDICTED BY IDOCK:   -7.77 KCAL/MOL
REMARK 924 INTRA-LIGAND FREE ENERGY PREDICTED BY IDOCK:   -1.80 KCAL/MOL
REMARK 927      BINDING AFFINITY PREDICTED BY RF-SCORE:    0.00 PKD
ROOT
HETATM    1  O   UNL     1     -12.554  15.423  70.416  1.00  0.00    -0.394 OA 
HETATM    2  C   UNL     1     -11.590  15.167  69.495  1.00  0.00    -0.319 C  
HETATM    3  C   UNL     1     -11.714  16.035  68.259  1.00  0.00    -0.136 C  
HETATM    4  O   UNL     1     -10.706  14.352  69.703  1.00  0.00    -0.177 OA 
ENDROOT
BRANCH   3   5
HETATM    5  C   UNL     1     -11.058  15.444  67.012  1.00  0.00    -0.273 C  
HETATM    6  C   UNL     1      -9.544  15.567  66.907  1.00  0.00    -0.241 C  
HETATM    7  C   UNL     1     -10.422  16.427  66.042  1.00  0.00    -0.333 C  
BRANCH   5   8
HETATM    8  C   UNL     1     -11.797  14.216  66.493  1.00  0.00    -0.419 C  
BRANCH   8   9
HETATM    9  S   UNL     1     -10.887  13.039  65.473  1.00  0.00    -0.283 SA 
BRANCH   9  10
HETATM   10  C   UNL     1     -10.688  11.633  66.671  1.00  0.00    -0.270 C  
BRANCH  10  11
HETATM   11  C   UNL     1     -10.117  12.042  68.050  1.00  0.00    -0.199 C  
BRANCH  11  12
HETATM   12  C   UNL     1      -9.033  11.099  68.617  1.00  0.00    -0.162 C  
BRANCH  12  13
HETATM   13  C   UNL     1      -7.714  11.819  68.866  1.00  0.00    -0.041 A  
HETATM   14  C   UNL     1      -7.700  13.192  68.507  1.00  0.00    -0.117 A  
HETATM   15  C   UNL     1      -5.447  13.450  69.255  1.00  0.00    -0.076 A  
HETATM   16  H   UNL     1      -7.415   8.602  71.177  1.00  0.00     0.000 HD 
HETATM   17  C   UNL     1      -6.580  13.993  68.681  1.00  0.00    -0.093 A  
HETATM   18  C   UNL     1      -5.125   9.423  70.634  1.00  0.00    -0.024 C  
HETATM   19  C   UNL     1      -5.442  12.108  69.644  1.00  0.00    -0.083 A  
HETATM   20  C   UNL     1      -6.554  11.248  69.458  1.00  0.00    -0.129 A  
HETATM   21  O   UNL     1      -7.478   9.505  70.889  1.00  0.00    -0.259 OA 
HETATM   22  C   UNL     1      -6.608   8.781  68.771  1.00  0.00    -0.054 C  
HETATM   23  C   UNL     1      -6.452   9.782  69.926  1.00  0.00    -0.062 C  
ENDBRANCH  12  13
ENDBRANCH  11  12
ENDBRANCH  10  11
BRANCH  10  24
HETATM   24  C   UNL     1      -9.964  10.465  65.995  1.00  0.00    -0.301 A  
HETATM   25  C   UNL     1      -8.727   8.232  64.793  1.00  0.00     0.034 A  
HETATM   26  C   UNL     1      -9.277  10.589  64.778  1.00  0.00    -0.266 A  
HETATM   27  C   UNL     1     -10.015   9.187  66.592  1.00  0.00    -0.343 A  
HETATM   28  C   UNL     1      -8.666   9.484  64.183  1.00  0.00    -0.239 A  
HETATM   29  C   UNL     1      -9.387   8.069  66.013  1.00  0.00    -0.158 A  
BRANCH  29  30
HETATM   30  C   UNL     1      -9.518   6.759  66.669  1.00  0.00    -0.205 C  
HETATM   31  C   UNL     1      -9.257   6.521  67.968  1.00  0.00    -0.111 C  
BRANCH  31  32
HETATM   32  C   UNL     1      -9.356   5.216  68.631  1.00  0.00    -0.125 A  
HETATM   33  N   UNL     1      -9.606   5.280  69.962  1.00  0.00    -0.161 NA 
HETATM   34  C   UNL     1      -9.649   4.136  70.669  1.00  0.00    -0.194 A  
HETATM   35  C   UNL     1      -9.427   2.877  70.075  1.00  0.00    -0.183 A  
HETATM   36  C   UNL     1      -9.167   2.834  68.703  1.00  0.00    -0.238 A  
HETATM   37  C   UNL     1      -9.458   1.705  70.853  1.00  0.00    -0.192 A  
HETATM   38  C   UNL     1      -9.704   1.782  72.221  1.00  0.00    -0.178 A  
HETATM   39  C   UNL     1      -9.123   4.017  67.974  1.00  0.00    -0.179 A  
HETATM   40  C   UNL     1      -9.931   3.024  72.804  1.00  0.00    -0.145 A  
HETATM   41  C   UNL     1      -9.904   4.185  72.031  1.00  0.00    -0.242 A  
HETATM   42 CL   UNL     1     -10.235   3.125  74.494  1.00  0.00    -0.201 Cl 
ENDBRANCH  31  32
ENDBRANCH  29  30
ENDBRANCH  10  24
ENDBRANCH   9  10
ENDBRANCH   8   9
ENDBRANCH   5   8
ENDBRANCH   3   5
TORSDOF 10
ENDMDL
MODEL      146
REMARK 921   NORMALIZED FREE ENERGY PREDICTED BY IDOCK:   -4.99 KCAL/MOL
REMARK 922        TOTAL FREE ENERGY PREDICTED BY IDOCK:   -9.57 KCAL/MOL
REMARK 923 INTER-LIGAND FREE ENERGY PREDICTED BY IDOCK:   -7.69 KCAL/MOL
REMARK 924 INTRA-LIGAND FREE ENERGY PREDICTED BY IDOCK:   -1.88 KCAL/MOL
REMARK 927      BINDING AFFINITY PREDICTED BY RF-SCORE:    0.00 PKD
ROOT
HETATM    1  O   UNL     1      -7.278   3.728  67.155  1.00  0.00    -0.062 OA 
HETATM    2  C   UNL     1      -7.897   4.935  67.104  1.00  0.00    -0.095 C  
HETATM    3  C   UNL     1      -7.638   5.780  68.335  1.00  0.00    -0.089 C  
HETATM    4  O   UNL     1      -8.541   5.284  66.128  1.00  0.00    -0.115 OA 
ENDROOT
BRANCH   3   5
HETATM    5  C   UNL     1      -8.701   6.846  68.597  1.00  0.00    -0.122 C  
HETATM    6  C   UNL     1      -8.731   8.035  67.646  1.00  0.00    -0.126 C  
HETATM    7  C   UNL     1      -8.205   8.212  69.043  1.00  0.00    -0.127 C  
BRANCH   5   8
HETATM    8  C   UNL     1      -9.981   6.260  69.182  1.00  0.00    -0.150 C  
BRANCH   8   9
HETATM    9  S   UNL     1     -11.409   7.346  69.371  1.00  0.00     0.274 SA 
BRANCH   9  10
HETATM   10  C   UNL     1     -11.177   7.913  71.124  1.00  0.00    -0.261 C  
BRANCH  10  11
HETATM   11  C   UNL     1     -11.521   6.848  72.193  1.00  0.00    -0.316 C  
BRANCH  11  12
HETATM   12  C   UNL     1     -10.549   6.785  73.392  1.00  0.00    -0.351 C  
BRANCH  12  13
HETATM   13  C   UNL     1      -9.914   5.409  73.548  1.00  0.00    -0.187 A  
HETATM   14  C   UNL     1     -10.831   4.335  73.687  1.00  0.00    -0.358 A  
HETATM   15  C   UNL     1      -9.065   2.732  73.797  1.00  0.00    -0.085 A  
HETATM   16  H   UNL     1      -6.965   7.572  71.996  1.00  0.00     0.000 HD 
HETATM   17  C   UNL     1     -10.415   3.018  73.827  1.00  0.00    -0.246 A  
HETATM   18  C   UNL     1      -5.988   5.636  73.225  1.00  0.00    -0.040 C  
HETATM   19  C   UNL     1      -8.140   3.767  73.634  1.00  0.00    -0.087 A  
HETATM   20  C   UNL     1      -8.521   5.128  73.515  1.00  0.00    -0.112 A  
HETATM   21  O   UNL     1      -7.640   6.913  72.108  1.00  0.00    -0.091 OA 
HETATM   22  C   UNL     1      -7.401   7.221  74.478  1.00  0.00    -0.133 C  
HETATM   23  C   UNL     1      -7.425   6.198  73.333  1.00  0.00    -0.092 C  
ENDBRANCH  12  13
ENDBRANCH  11  12
ENDBRANCH  10  11
BRANCH  10  24
HETATM   24  C   UNL     1     -11.850   9.274  71.330  1.00  0.00    -0.428 A  
HETATM   25  C   UNL     1     -13.080  11.800  71.579  1.00  0.00    -0.389 A  
HETATM   26  C   UNL     1     -12.856   9.496  72.283  1.00  0.00    -0.426 A  
HETATM   27  C   UNL     1     -11.479  10.356  70.503  1.00  0.00    -0.431 A  
HETATM   28  C   UNL     1     -13.465  10.746  72.405  1.00  0.00     0.133 A  
HETATM   29  C   UNL     1     -12.071  11.625  70.628  1.00  0.00    -0.432 A  
BRANCH  29  30
HETATM   30  C   UNL     1     -11.666  12.695  69.703  1.00  0.00    -0.373 C  
HETATM   31  C   UNL     1     -10.489  12.742  69.052  1.00  0.00    -0.019 C  
BRANCH  31  32
HETATM   32  C   UNL     1     -10.059  13.814  68.147  1.00  0.00    -0.245 A  
HETATM   33  N   UNL     1      -9.041  14.573  68.620  1.00  0.00    -0.192 NA 
HETATM   34  C   UNL     1      -8.621  15.623  67.889  1.00  0.00    -0.162 A  
HETATM   35  C   UNL     1      -9.216  15.966  66.657  1.00  0.00    -0.280 A  
HETATM   36  C   UNL     1     -10.266  15.173  66.191  1.00  0.00    -0.310 A  
HETATM   37  C   UNL     1      -8.763  17.084  65.934  1.00  0.00    -0.033 A  
HETATM   38  C   UNL     1      -7.725  17.865  66.433  1.00  0.00    -0.311 A  
HETATM   39  C   UNL     1     -10.699  14.089  66.947  1.00  0.00    -0.285 A  
HETATM   40  C   UNL     1      -7.134  17.520  67.644  1.00  0.00    -0.168 A  
HETATM   41  C   UNL     1      -7.580  16.409  68.359  1.00  0.00    -0.178 A  
HETATM   42 CL   UNL     1      -5.850  18.482  68.266  1.00  0.00    -0.191 Cl 
ENDBRANCH  31  32
ENDBRANCH  29  30
ENDBRANCH  10  24
ENDBRANCH   9  10
ENDBRANCH   8   9
ENDBRANCH   5   8
ENDBRANCH   3   5
TORSDOF 10
ENDMDL
MODEL      147
REMARK 921   NORMALIZED FREE ENERGY PREDICTED BY IDOCK:   -4.99 KCAL/MOL
REMARK 922        TOTAL FREE ENERGY PREDICTED BY IDOCK:   -9.56 KCAL/MOL
REMARK 923 INTER-LIGAND FREE ENERGY PREDICTED BY IDOCK:   -8.94 KCAL/MOL
REMARK 924 INTRA-LIGAND FREE ENERGY PREDICTED BY IDOCK:   -0.62 KCAL/MOL
REMARK 927      BINDING AFFINITY PREDICTED BY RF-SCORE:    0.00 PKD
ROOT
HETATM    1  O   UNL     1     -10.935   3.862  72.954  1.00  0.00    -0.130 OA 
HETATM    2  C   UNL     1      -9.913   4.749  73.050  1.00  0.00    -0.152 C  
HETATM    3  C   UNL     1     -10.325   6.050  73.709  1.00  0.00    -0.277 C  
HETATM    4  O   UNL     1      -8.784   4.469  72.680  1.00  0.00    -0.112 OA 
ENDROOT
BRANCH   3   5
HETATM    5  C   UNL     1      -9.436   7.241  73.352  1.00  0.00    -0.252 C  
HETATM    6  C   UNL     1      -7.977   6.939  73.037  1.00  0.00    -0.113 C  
HETATM    7  C   UNL     1      -8.337   7.594  74.341  1.00  0.00    -0.268 C  
BRANCH   5   8
HETATM    8  C   UNL     1     -10.200   8.339  72.622  1.00  0.00    -0.298 C  
BRANCH   8   9
HETATM    9  S   UNL     1     -11.790   7.924  71.877  1.00  0.00    -0.319 SA 
BRANCH   9  10
HETATM   10  C   UNL     1     -11.248   7.426  70.172  1.00  0.00    -0.218 C  
BRANCH  10  11
HETATM   11  C   UNL     1     -10.994   5.909  69.997  1.00  0.00    -0.430 C  
BRANCH  11  12
HETATM   12  C   UNL     1      -9.597   5.537  69.453  1.00  0.00    -0.196 C  
BRANCH  12  13
HETATM   13  C   UNL     1      -9.668   4.885  68.078  1.00  0.00    -0.202 A  
HETATM   14  C   UNL     1     -10.495   5.550  67.138  1.00  0.00    -0.321 A  
HETATM   15  C   UNL     1      -9.968   3.969  65.429  1.00  0.00    -0.182 A  
HETATM   16  H   UNL     1      -6.368   3.311  69.634  1.00  0.00     0.000 HD 
HETATM   17  C   UNL     1     -10.659   5.092  65.838  1.00  0.00    -0.234 A  
HETATM   18  C   UNL     1      -7.248   1.774  67.880  1.00  0.00    -0.046 C  
HETATM   19  C   UNL     1      -9.124   3.309  66.325  1.00  0.00    -0.161 A  
HETATM   20  C   UNL     1      -8.951   3.727  67.670  1.00  0.00    -0.158 A  
HETATM   21  O   UNL     1      -6.959   3.799  69.072  1.00  0.00    -0.045 OA 
HETATM   22  C   UNL     1      -8.705   2.316  69.794  1.00  0.00    -0.120 C  
HETATM   23  C   UNL     1      -7.992   2.934  68.582  1.00  0.00    -0.056 C  
ENDBRANCH  12  13
ENDBRANCH  11  12
ENDBRANCH  10  11
BRANCH  10  24
HETATM   24  C   UNL     1     -10.107   8.329  69.697  1.00  0.00    -0.199 A  
HETATM   25  C   UNL     1      -8.081  10.099  68.847  1.00  0.00    -0.117 A  
HETATM   26  C   UNL     1      -8.754   8.048  69.942  1.00  0.00    -0.139 A  
HETATM   27  C   UNL     1     -10.415   9.526  69.015  1.00  0.00    -0.229 A  
HETATM   28  C   UNL     1      -7.751   8.925  69.522  1.00  0.00    -0.088 A  
HETATM   29  C   UNL     1      -9.415  10.408  68.569  1.00  0.00    -0.159 A  
BRANCH  29  30
HETATM   30  C   UNL     1      -9.812  11.658  67.903  1.00  0.00    -0.189 C  
HETATM   31  C   UNL     1      -9.031  12.748  67.788  1.00  0.00    -0.190 C  
BRANCH  31  32
HETATM   32  C   UNL     1      -9.419  14.011  67.151  1.00  0.00    -0.241 A  
HETATM   33  N   UNL     1      -9.221  15.111  67.916  1.00  0.00    -0.183 NA 
HETATM   34  C   UNL     1      -9.609  16.309  67.442  1.00  0.00    -0.230 A  
HETATM   35  C   UNL     1     -10.228  16.455  66.183  1.00  0.00    -0.363 A  
HETATM   36  C   UNL     1     -10.427  15.307  65.413  1.00  0.00    -0.422 A  
HETATM   37  C   UNL     1     -10.639  17.722  65.733  1.00  0.00    -0.175 A  
HETATM   38  C   UNL     1     -10.442  18.845  66.531  1.00  0.00    -0.500 A  
HETATM   39  C   UNL     1     -10.026  14.070  65.904  1.00  0.00    -0.325 A  
HETATM   40  C   UNL     1      -9.824  18.701  67.769  1.00  0.00    -0.325 A  
HETATM   41  C   UNL     1      -9.412  17.445  68.213  1.00  0.00    -0.290 A  
HETATM   42 CL   UNL     1      -9.577  20.086  68.760  1.00  0.00    -0.278 Cl 
ENDBRANCH  31  32
ENDBRANCH  29  30
ENDBRANCH  10  24
ENDBRANCH   9  10
ENDBRANCH   8   9
ENDBRANCH   5   8
ENDBRANCH   3   5
TORSDOF 10
ENDMDL
MODEL      148
REMARK 921   NORMALIZED FREE ENERGY PREDICTED BY IDOCK:   -4.96 KCAL/MOL
REMARK 922        TOTAL FREE ENERGY PREDICTED BY IDOCK:   -9.52 KCAL/MOL
REMARK 923 INTER-LIGAND FREE ENERGY PREDICTED BY IDOCK:   -8.78 KCAL/MOL
REMARK 924 INTRA-LIGAND FREE ENERGY PREDICTED BY IDOCK:   -0.74 KCAL/MOL
REMARK 927      BINDING AFFINITY PREDICTED BY RF-SCORE:    0.00 PKD
ROOT
HETATM    1  O   UNL     1     -12.688  14.777  65.822  1.00  0.00    -0.057 OA 
HETATM    2  C   UNL     1     -12.476  13.550  65.282  1.00  0.00    -0.482 C  
HETATM    3  C   UNL     1     -11.295  12.832  65.902  1.00  0.00    -0.363 C  
HETATM    4  O   UNL     1     -13.216  13.091  64.426  1.00  0.00    -0.484 OA 
ENDROOT
BRANCH   3   5
HETATM    5  C   UNL     1     -10.676  11.758  65.007  1.00  0.00    -0.344 C  
HETATM    6  C   UNL     1     -10.245  12.191  63.612  1.00  0.00    -0.459 C  
HETATM    7  C   UNL     1     -11.476  11.346  63.781  1.00  0.00    -0.246 C  
BRANCH   5   8
HETATM    8  C   UNL     1      -9.889  10.722  65.800  1.00  0.00    -0.240 C  
BRANCH   8   9
HETATM    9  S   UNL     1      -8.325  11.224  66.545  1.00  0.00    -0.156 SA 
BRANCH   9  10
HETATM   10  C   UNL     1      -8.928  12.414  67.837  1.00  0.00    -0.184 C  
BRANCH  10  11
HETATM   11  C   UNL     1      -7.804  13.127  68.627  1.00  0.00    -0.056 C  
BRANCH  11  12
HETATM   12  C   UNL     1      -7.791  14.666  68.503  1.00  0.00    -0.133 C  
BRANCH  12  13
HETATM   13  C   UNL     1      -9.139  15.285  68.848  1.00  0.00    -0.209 A  
HETATM   14  C   UNL     1      -9.630  14.975  70.143  1.00  0.00     0.340 A  
HETATM   15  C   UNL     1     -11.576  16.320  69.817  1.00  0.00    -0.140 A  
HETATM   16  H   UNL     1      -7.896  17.516  65.805  1.00  0.00     0.000 HD 
HETATM   17  C   UNL     1     -10.839  15.469  70.616  1.00  0.00    -0.333 A  
HETATM   18  C   UNL     1     -10.381  17.643  65.938  1.00  0.00    -0.261 C  
HETATM   19  C   UNL     1     -11.103  16.665  68.549  1.00  0.00    -0.301 A  
HETATM   20  C   UNL     1      -9.889  16.161  68.016  1.00  0.00    -0.231 A  
HETATM   21  O   UNL     1      -8.166  17.242  66.674  1.00  0.00    -0.222 OA 
HETATM   22  C   UNL     1      -9.341  15.430  65.623  1.00  0.00    -0.168 C  
HETATM   23  C   UNL     1      -9.449  16.605  66.606  1.00  0.00    -0.252 C  
ENDBRANCH  12  13
ENDBRANCH  11  12
ENDBRANCH  10  11
BRANCH  10  24
HETATM   24  C   UNL     1     -10.002  11.750  68.703  1.00  0.00    -0.181 A  
HETATM   25  C   UNL     1     -11.886  10.482  70.377  1.00  0.00    -0.431 A  
HETATM   26  C   UNL     1     -11.265  12.319  68.929  1.00  0.00    -0.323 A  
HETATM   27  C   UNL     1      -9.710  10.526  69.343  1.00  0.00    -0.188 A  
HETATM   28  C   UNL     1     -12.196  11.692  69.759  1.00  0.00    -0.285 A  
HETATM   29  C   UNL     1     -10.646   9.874  70.165  1.00  0.00    -0.350 A  
BRANCH  29  30
HETATM   30  C   UNL     1     -10.257   8.623  70.835  1.00  0.00    -0.261 C  
HETATM   31  C   UNL     1     -10.078   8.486  72.161  1.00  0.00    -0.393 C  
BRANCH  31  32
HETATM   32  C   UNL     1      -9.666   7.254  72.842  1.00  0.00    -0.169 A  
HETATM   33  N   UNL     1      -8.582   6.648  72.300  1.00  0.00    -0.122 NA 
HETATM   34  C   UNL     1      -8.168   5.476  72.816  1.00  0.00    -0.109 A  
HETATM   35  C   UNL     1      -8.834   4.851  73.890  1.00  0.00    -0.114 A  
HETATM   36  C   UNL     1      -9.952   5.491  74.431  1.00  0.00    -0.255 A  
HETATM   37  C   UNL     1      -8.384   3.615  74.387  1.00  0.00    -0.081 A  
HETATM   38  C   UNL     1      -7.277   2.994  73.816  1.00  0.00    -0.046 A  
HETATM   39  C   UNL     1     -10.378   6.701  73.897  1.00  0.00    -0.385 A  
HETATM   40  C   UNL     1      -6.616   3.616  72.762  1.00  0.00    -0.029 A  
HETATM   41  C   UNL     1      -7.060   4.844  72.272  1.00  0.00    -0.079 A  
HETATM   42 CL   UNL     1      -5.246   2.854  72.051  1.00  0.00     0.000 Cl 
ENDBRANCH  31  32
ENDBRANCH  29  30
ENDBRANCH  10  24
ENDBRANCH   9  10
ENDBRANCH   8   9
ENDBRANCH   5   8
ENDBRANCH   3   5
TORSDOF 10
ENDMDL
MODEL      149
REMARK 921   NORMALIZED FREE ENERGY PREDICTED BY IDOCK:   -4.91 KCAL/MOL
REMARK 922        TOTAL FREE ENERGY PREDICTED BY IDOCK:   -9.44 KCAL/MOL
REMARK 923 INTER-LIGAND FREE ENERGY PREDICTED BY IDOCK:   -8.13 KCAL/MOL
REMARK 924 INTRA-LIGAND FREE ENERGY PREDICTED BY IDOCK:   -1.31 KCAL/MOL
REMARK 927      BINDING AFFINITY PREDICTED BY RF-SCORE:    0.00 PKD
ROOT
HETATM    1  O   UNL     1     -12.616  14.213  64.613  1.00  0.00    -0.627 OA 
HETATM    2  C   UNL     1     -11.532  13.463  64.936  1.00  0.00    -0.325 C  
HETATM    3  C   UNL     1     -11.890  12.032  65.282  1.00  0.00    -0.269 C  
HETATM    4  O   UNL     1     -10.401  13.919  64.888  1.00  0.00    -0.397 OA 
ENDROOT
BRANCH   3   5
HETATM    5  C   UNL     1     -10.859  11.325  66.162  1.00  0.00    -0.281 C  
HETATM    6  C   UNL     1      -9.727  10.600  65.447  1.00  0.00    -0.306 C  
HETATM    7  C   UNL     1     -10.827   9.807  66.093  1.00  0.00     0.300 C  
BRANCH   5   8
HETATM    8  C   UNL     1     -10.635  12.043  67.488  1.00  0.00    -0.221 C  
BRANCH   8   9
HETATM    9  S   UNL     1     -10.410  11.044  68.973  1.00  0.00    -0.187 SA 
BRANCH   9  10
HETATM   10  C   UNL     1      -8.763  10.265  68.614  1.00  0.00    -0.133 C  
BRANCH  10  11
HETATM   11  C   UNL     1      -8.664   8.769  68.998  1.00  0.00    -0.133 C  
BRANCH  11  12
HETATM   12  C   UNL     1     -10.002   8.102  69.387  1.00  0.00    -0.188 C  
BRANCH  12  13
HETATM   13  C   UNL     1      -9.846   6.613  69.666  1.00  0.00    -0.168 A  
HETATM   14  C   UNL     1      -9.656   6.272  71.030  1.00  0.00    -0.191 A  
HETATM   15  C   UNL     1      -9.584   3.940  70.524  1.00  0.00    -0.263 A  
HETATM   16  H   UNL     1     -11.541   6.666  66.073  1.00  0.00     0.000 HD 
HETATM   17  C   UNL     1      -9.509   4.958  71.453  1.00  0.00    -0.212 A  
HETATM   18  C   UNL     1     -10.316   4.514  66.357  1.00  0.00    -0.194 C  
HETATM   19  C   UNL     1      -9.798   4.244  69.177  1.00  0.00    -0.163 A  
HETATM   20  C   UNL     1      -9.925   5.573  68.698  1.00  0.00    -0.222 A  
HETATM   21  O   UNL     1     -11.393   6.523  67.000  1.00  0.00    -0.342 OA 
HETATM   22  C   UNL     1      -9.039   6.615  66.533  1.00  0.00    -0.167 C  
HETATM   23  C   UNL     1     -10.166   5.806  67.193  1.00  0.00    -0.207 C  
ENDBRANCH  12  13
ENDBRANCH  11  12
ENDBRANCH  10  11
BRANCH  10  24
HETATM   24  C   UNL     1      -7.635  11.145  69.159  1.00  0.00    -0.098 A  
HETATM   25  C   UNL     1      -5.645  12.865  70.180  1.00  0.00    -0.137 A  
HETATM   26  C   UNL     1      -6.578  10.646  69.935  1.00  0.00    -0.137 A  
HETATM   27  C   UNL     1      -7.667  12.535  68.911  1.00  0.00     0.085 A  
HETATM   28  C   UNL     1      -5.594  11.498  70.441  1.00  0.00    -0.144 A  
HETATM   29  C   UNL     1      -6.672  13.401  69.398  1.00  0.00    -0.037 A  
BRANCH  29  30
HETATM   30  C   UNL     1      -6.793  14.844  69.137  1.00  0.00    -0.132 C  
HETATM   31  C   UNL     1      -6.093  15.517  68.205  1.00  0.00    -0.121 C  
BRANCH  31  32
HETATM   32  C   UNL     1      -6.181  16.958  67.950  1.00  0.00    -0.134 A  
HETATM   33  N   UNL     1      -6.031  17.309  66.650  1.00  0.00    -0.193 NA 
HETATM   34  C   UNL     1      -6.031  18.615  66.326  1.00  0.00    -0.158 A  
HETATM   35  C   UNL     1      -6.166  19.630  67.296  1.00  0.00    -0.200 A  
HETATM   36  C   UNL     1      -6.315  19.246  68.631  1.00  0.00    -0.278 A  
HETATM   37  C   UNL     1      -6.138  20.985  66.920  1.00  0.00    -0.349 A  
HETATM   38  C   UNL     1      -5.971  21.335  65.584  1.00  0.00    -0.192 A  
HETATM   39  C   UNL     1      -6.315  17.896  68.963  1.00  0.00    -0.232 A  
HETATM   40  C   UNL     1      -5.846  20.333  64.627  1.00  0.00    -0.234 A  
HETATM   41  C   UNL     1      -5.878  18.990  64.999  1.00  0.00    -0.296 A  
HETATM   42 CL   UNL     1      -5.640  20.761  62.973  1.00  0.00    -0.248 Cl 
ENDBRANCH  31  32
ENDBRANCH  29  30
ENDBRANCH  10  24
ENDBRANCH   9  10
ENDBRANCH   8   9
ENDBRANCH   5   8
ENDBRANCH   3   5
TORSDOF 10
ENDMDL
MODEL      150
REMARK 921   NORMALIZED FREE ENERGY PREDICTED BY IDOCK:   -4.89 KCAL/MOL
REMARK 922        TOTAL FREE ENERGY PREDICTED BY IDOCK:   -9.41 KCAL/MOL
REMARK 923 INTER-LIGAND FREE ENERGY PREDICTED BY IDOCK:   -8.44 KCAL/MOL
REMARK 924 INTRA-LIGAND FREE ENERGY PREDICTED BY IDOCK:   -0.96 KCAL/MOL
REMARK 927      BINDING AFFINITY PREDICTED BY RF-SCORE:    0.00 PKD
ROOT
HETATM    1  O   UNL     1     -13.938   9.448  72.257  1.00  0.00    -0.412 OA 
HETATM    2  C   UNL     1     -12.661   9.192  71.875  1.00  0.00    -0.388 C  
HETATM    3  C   UNL     1     -12.353   7.709  71.813  1.00  0.00    -0.349 C  
HETATM    4  O   UNL     1     -11.891  10.089  71.570  1.00  0.00    -0.377 OA 
ENDROOT
BRANCH   3   5
HETATM    5  C   UNL     1     -10.868   7.373  71.946  1.00  0.00    -0.262 C  
HETATM    6  C   UNL     1     -10.225   7.625  73.303  1.00  0.00    -0.398 C  
HETATM    7  C   UNL     1      -9.918   8.542  72.154  1.00  0.00    -0.387 C  
BRANCH   5   8
HETATM    8  C   UNL     1     -10.459   6.191  71.076  1.00  0.00    -0.229 C  
BRANCH   8   9
HETATM    9  S   UNL     1      -8.850   5.429  71.370  1.00  0.00    -0.135 SA 
BRANCH   9  10
HETATM   10  C   UNL     1      -8.059   5.649  69.704  1.00  0.00    -0.102 C  
BRANCH  10  11
HETATM   11  C   UNL     1      -6.853   6.618  69.690  1.00  0.00    -0.058 C  
BRANCH  11  12
HETATM   12  C   UNL     1      -5.922   6.489  68.464  1.00  0.00    -0.021 C  
BRANCH  12  13
HETATM   13  C   UNL     1      -5.886   5.069  67.913  1.00  0.00    -0.021 A  
HETATM   14  C   UNL     1      -5.702   4.051  68.884  1.00  0.00    -0.021 A  
HETATM   15  C   UNL     1      -5.834   2.334  67.229  1.00  0.00    -0.019 A  
HETATM   16  H   UNL     1      -7.632   7.110  64.985  1.00  0.00     0.000 HD 
HETATM   17  C   UNL     1      -5.658   2.705  68.548  1.00  0.00    -0.018 A  
HETATM   18  C   UNL     1      -6.587   5.059  64.030  1.00  0.00    -0.041 C  
HETATM   19  C   UNL     1      -6.045   3.314  66.256  1.00  0.00    -0.024 A  
HETATM   20  C   UNL     1      -6.068   4.701  66.552  1.00  0.00    -0.031 A  
HETATM   21  O   UNL     1      -7.480   6.491  65.690  1.00  0.00    -0.077 OA 
HETATM   22  C   UNL     1      -5.135   6.669  65.203  1.00  0.00    -0.022 C  
HETATM   23  C   UNL     1      -6.314   5.706  65.407  1.00  0.00    -0.038 C  
ENDBRANCH  12  13
ENDBRANCH  11  12
ENDBRANCH  10  11
BRANCH  10  24
HETATM   24  C   UNL     1      -9.129   5.936  68.648  1.00  0.00    -0.115 A  
HETATM   25  C   UNL     1     -11.028   6.569  66.659  1.00  0.00    -0.163 A  
HETATM   26  C   UNL     1      -9.854   4.928  67.995  1.00  0.00    -0.197 A  
HETATM   27  C   UNL     1      -9.383   7.274  68.272  1.00  0.00    -0.135 A  
HETATM   28  C   UNL     1     -10.793   5.241  67.010  1.00  0.00    -0.038 A  
HETATM   29  C   UNL     1     -10.339   7.604  67.296  1.00  0.00    -0.367 A  
BRANCH  29  30
HETATM   30  C   UNL     1     -10.520   9.017  66.924  1.00  0.00    -0.293 C  
HETATM   31  C   UNL     1      -9.947   9.610  65.861  1.00  0.00    -0.351 C  
BRANCH  31  32
HETATM   32  C   UNL     1     -10.095  11.021  65.491  1.00  0.00    -0.261 A  
HETATM   33  N   UNL     1     -10.304  11.858  66.536  1.00  0.00    -0.212 NA 
HETATM   34  C   UNL     1     -10.518  13.163  66.290  1.00  0.00    -0.285 A  
HETATM   35  C   UNL     1     -10.547  13.686  64.980  1.00  0.00    -0.394 A  
HETATM   36  C   UNL     1     -10.333  12.805  63.917  1.00  0.00    -0.352 A  
HETATM   37  C   UNL     1     -10.795  15.053  64.763  1.00  0.00    -0.375 A  
HETATM   38  C   UNL     1     -11.021  15.902  65.843  1.00  0.00    -0.151 A  
HETATM   39  C   UNL     1     -10.113  11.457  64.174  1.00  0.00    -0.358 A  
HETATM   40  C   UNL     1     -10.984  15.387  67.134  1.00  0.00    -0.317 A  
HETATM   41  C   UNL     1     -10.733  14.031  67.349  1.00  0.00    -0.285 A  
HETATM   42 CL   UNL     1     -11.262  16.431  68.473  1.00  0.00    -0.363 Cl 
ENDBRANCH  31  32
ENDBRANCH  29  30
ENDBRANCH  10  24
ENDBRANCH   9  10
ENDBRANCH   8   9
ENDBRANCH   5   8
ENDBRANCH   3   5
TORSDOF 10
ENDMDL
MODEL      151
REMARK 921   NORMALIZED FREE ENERGY PREDICTED BY IDOCK:   -4.89 KCAL/MOL
REMARK 922        TOTAL FREE ENERGY PREDICTED BY IDOCK:   -9.40 KCAL/MOL
REMARK 923 INTER-LIGAND FREE ENERGY PREDICTED BY IDOCK:   -8.54 KCAL/MOL
REMARK 924 INTRA-LIGAND FREE ENERGY PREDICTED BY IDOCK:   -0.85 KCAL/MOL
REMARK 927      BINDING AFFINITY PREDICTED BY RF-SCORE:    0.00 PKD
ROOT
HETATM    1  O   UNL     1     -10.495   3.867  72.383  1.00  0.00    -0.157 OA 
HETATM    2  C   UNL     1      -9.683   4.895  72.738  1.00  0.00    -0.144 C  
HETATM    3  C   UNL     1     -10.451   6.150  73.102  1.00  0.00    -0.254 C  
HETATM    4  O   UNL     1      -8.471   4.764  72.796  1.00  0.00    -0.110 OA 
ENDROOT
BRANCH   3   5
HETATM    5  C   UNL     1      -9.644   7.440  72.961  1.00  0.00    -0.242 C  
HETATM    6  C   UNL     1      -8.130   7.298  72.879  1.00  0.00    -0.124 C  
HETATM    7  C   UNL     1      -8.760   7.826  74.137  1.00  0.00    -0.293 C  
BRANCH   5   8
HETATM    8  C   UNL     1     -10.389   8.509  72.172  1.00  0.00    -0.339 C  
BRANCH   8   9
HETATM    9  S   UNL     1     -11.750   7.992  71.106  1.00  0.00    -0.276 SA 
BRANCH   9  10
HETATM   10  C   UNL     1     -10.826   7.586  69.546  1.00  0.00    -0.175 C  
BRANCH  10  11
HETATM   11  C   UNL     1     -10.348   6.118  69.447  1.00  0.00    -0.283 C  
BRANCH  11  12
HETATM   12  C   UNL     1      -9.410   5.812  68.260  1.00  0.00    -0.123 C  
BRANCH  12  13
HETATM   13  C   UNL     1      -9.197   4.317  68.061  1.00  0.00    -0.182 A  
HETATM   14  C   UNL     1      -8.870   3.594  69.237  1.00  0.00    -0.157 A  
HETATM   15  C   UNL     1      -8.797   1.526  68.046  1.00  0.00    -0.138 A  
HETATM   16  H   UNL     1     -11.228   5.359  64.810  1.00  0.00     0.000 HD 
HETATM   17  C   UNL     1      -8.655   2.223  69.229  1.00  0.00    -0.112 A  
HETATM   18  C   UNL     1      -9.938   3.283  64.326  1.00  0.00    -0.166 C  
HETATM   19  C   UNL     1      -9.146   2.208  66.877  1.00  0.00    -0.107 A  
HETATM   20  C   UNL     1      -9.346   3.612  66.835  1.00  0.00    -0.217 A  
HETATM   21  O   UNL     1     -10.989   4.953  65.634  1.00  0.00    -0.198 OA 
HETATM   22  C   UNL     1      -8.694   5.296  65.018  1.00  0.00    -0.136 C  
HETATM   23  C   UNL     1      -9.735   4.272  65.497  1.00  0.00    -0.203 C  
ENDBRANCH  12  13
ENDBRANCH  11  12
ENDBRANCH  10  11
BRANCH  10  24
HETATM   24  C   UNL     1      -9.741   8.636  69.289  1.00  0.00    -0.173 A  
HETATM   25  C   UNL     1      -7.831  10.664  68.847  1.00  0.00    -0.129 A  
HETATM   26  C   UNL     1      -8.389   8.435  69.606  1.00  0.00    -0.122 A  
HETATM   27  C   UNL     1     -10.109   9.886  68.745  1.00  0.00    -0.186 A  
HETATM   28  C   UNL     1      -7.444   9.439  69.388  1.00  0.00    -0.080 A  
HETATM   29  C   UNL     1      -9.164  10.899  68.503  1.00  0.00    -0.181 A  
BRANCH  29  30
HETATM   30  C   UNL     1      -9.625  12.192  67.974  1.00  0.00    -0.204 C  
HETATM   31  C   UNL     1      -8.857  13.059  67.290  1.00  0.00    -0.208 C  
BRANCH  31  32
HETATM   32  C   UNL     1      -9.293  14.364  66.779  1.00  0.00    -0.268 A  
HETATM   33  N   UNL     1      -8.664  15.425  67.339  1.00  0.00    -0.170 NA 
HETATM   34  C   UNL     1      -9.043  16.666  66.982  1.00  0.00    -0.216 A  
HETATM   35  C   UNL     1     -10.082  16.897  66.057  1.00  0.00    -0.336 A  
HETATM   36  C   UNL     1     -10.720  15.789  65.496  1.00  0.00    -0.397 A  
HETATM   37  C   UNL     1     -10.465  18.210  65.727  1.00  0.00    -0.215 A  
HETATM   38  C   UNL     1      -9.821  19.294  66.316  1.00  0.00    -0.456 A  
HETATM   39  C   UNL     1     -10.327  14.508  65.866  1.00  0.00    -0.332 A  
HETATM   40  C   UNL     1      -8.790  19.064  67.221  1.00  0.00    -0.281 A  
HETATM   41  C   UNL     1      -8.409  17.763  67.546  1.00  0.00    -0.227 A  
HETATM   42 CL   UNL     1      -7.991  20.401  67.953  1.00  0.00    -0.226 Cl 
ENDBRANCH  31  32
ENDBRANCH  29  30
ENDBRANCH  10  24
ENDBRANCH   9  10
ENDBRANCH   8   9
ENDBRANCH   5   8
ENDBRANCH   3   5
TORSDOF 10
ENDMDL
MODEL      152
REMARK 921   NORMALIZED FREE ENERGY PREDICTED BY IDOCK:   -4.82 KCAL/MOL
REMARK 922        TOTAL FREE ENERGY PREDICTED BY IDOCK:   -9.29 KCAL/MOL
REMARK 923 INTER-LIGAND FREE ENERGY PREDICTED BY IDOCK:   -8.83 KCAL/MOL
REMARK 924 INTRA-LIGAND FREE ENERGY PREDICTED BY IDOCK:   -0.46 KCAL/MOL
REMARK 927      BINDING AFFINITY PREDICTED BY RF-SCORE:    0.00 PKD
ROOT
HETATM    1  O   UNL     1      -7.621  17.984  68.099  1.00  0.00    -0.241 OA 
HETATM    2  C   UNL     1      -7.509  16.684  67.727  1.00  0.00    -0.155 C  
HETATM    3  C   UNL     1      -7.638  15.727  68.895  1.00  0.00    -0.181 C  
HETATM    4  O   UNL     1      -7.372  16.361  66.558  1.00  0.00    -0.229 OA 
ENDROOT
BRANCH   3   5
HETATM    5  C   UNL     1      -6.986  14.364  68.662  1.00  0.00    -0.102 C  
HETATM    6  C   UNL     1      -5.859  13.971  69.608  1.00  0.00    -0.109 C  
HETATM    7  C   UNL     1      -5.539  14.370  68.195  1.00  0.00    -0.124 C  
BRANCH   5   8
HETATM    8  C   UNL     1      -7.969  13.334  68.120  1.00  0.00    -0.150 C  
BRANCH   8   9
HETATM    9  S   UNL     1      -8.034  11.715  68.914  1.00  0.00     0.044 SA 
BRANCH   9  10
HETATM   10  C   UNL     1      -9.644  11.072  68.247  1.00  0.00    -0.171 C  
BRANCH  10  11
HETATM   11  C   UNL     1     -10.395  12.061  67.323  1.00  0.00    -0.232 C  
BRANCH  11  12
HETATM   12  C   UNL     1     -11.624  12.747  67.958  1.00  0.00    -0.388 C  
BRANCH  12  13
HETATM   13  C   UNL     1     -11.441  14.253  68.092  1.00  0.00    -0.336 A  
HETATM   14  C   UNL     1     -11.325  14.730  69.423  1.00  0.00    -0.312 A  
HETATM   15  C   UNL     1     -11.033  16.980  68.680  1.00  0.00    -0.217 A  
HETATM   16  H   UNL     1     -10.429  13.572  64.311  1.00  0.00     0.000 HD 
HETATM   17  C   UNL     1     -11.142  16.074  69.717  1.00  0.00    -0.337 A  
HETATM   18  C   UNL     1     -11.149  15.947  64.540  1.00  0.00    -0.285 C  
HETATM   19  C   UNL     1     -11.115  16.535  67.359  1.00  0.00    -0.027 A  
HETATM   20  C   UNL     1     -11.330  15.176  67.016  1.00  0.00    -0.277 A  
HETATM   21  O   UNL     1     -10.385  13.814  65.228  1.00  0.00    -0.329 OA 
HETATM   22  C   UNL     1     -12.758  14.177  65.138  1.00  0.00    -0.387 C  
HETATM   23  C   UNL     1     -11.400  14.782  65.526  1.00  0.00    -0.343 C  
ENDBRANCH  12  13
ENDBRANCH  11  12
ENDBRANCH  10  11
BRANCH  10  24
HETATM   24  C   UNL     1     -10.486  10.484  69.382  1.00  0.00    -0.264 A  
HETATM   25  C   UNL     1     -11.927   9.354  71.528  1.00  0.00    -0.456 A  
HETATM   26  C   UNL     1     -11.629  11.116  69.896  1.00  0.00    -0.416 A  
HETATM   27  C   UNL     1     -10.085   9.269  69.977  1.00  0.00    -0.240 A  
HETATM   28  C   UNL     1     -12.341  10.557  70.959  1.00  0.00    -0.503 A  
HETATM   29  C   UNL     1     -10.803   8.685  71.036  1.00  0.00    -0.302 A  
BRANCH  29  30
HETATM   30  C   UNL     1     -10.302   7.439  71.637  1.00  0.00    -0.215 C  
HETATM   31  C   UNL     1     -11.061   6.548  72.301  1.00  0.00    -0.297 C  
BRANCH  31  32
HETATM   32  C   UNL     1     -10.573   5.315  72.928  1.00  0.00    -0.229 A  
HETATM   33  N   UNL     1      -9.268   5.040  72.690  1.00  0.00    -0.131 NA 
HETATM   34  C   UNL     1      -8.748   3.896  73.169  1.00  0.00    -0.094 A  
HETATM   35  C   UNL     1      -9.519   2.967  73.897  1.00  0.00    -0.112 A  
HETATM   36  C   UNL     1     -10.863   3.267  74.128  1.00  0.00    -0.215 A  
HETATM   37  C   UNL     1      -8.944   1.771  74.362  1.00  0.00    -0.068 A  
HETATM   38  C   UNL     1      -7.605   1.492  74.102  1.00  0.00    -0.029 A  
HETATM   39  C   UNL     1     -11.399   4.450  73.632  1.00  0.00    -0.287 A  
HETATM   40  C   UNL     1      -6.844   2.413  73.391  1.00  0.00    -0.023 A  
HETATM   41  C   UNL     1      -7.413   3.601  72.933  1.00  0.00    -0.060 A  
HETATM   42 CL   UNL     1      -5.188   2.074  73.065  1.00  0.00     0.000 Cl 
ENDBRANCH  31  32
ENDBRANCH  29  30
ENDBRANCH  10  24
ENDBRANCH   9  10
ENDBRANCH   8   9
ENDBRANCH   5   8
ENDBRANCH   3   5
TORSDOF 10
ENDMDL
MODEL      153
REMARK 921   NORMALIZED FREE ENERGY PREDICTED BY IDOCK:   -4.81 KCAL/MOL
REMARK 922        TOTAL FREE ENERGY PREDICTED BY IDOCK:   -9.28 KCAL/MOL
REMARK 923 INTER-LIGAND FREE ENERGY PREDICTED BY IDOCK:   -7.03 KCAL/MOL
REMARK 924 INTRA-LIGAND FREE ENERGY PREDICTED BY IDOCK:   -2.25 KCAL/MOL
REMARK 927      BINDING AFFINITY PREDICTED BY RF-SCORE:    0.00 PKD
ROOT
HETATM    1  O   UNL     1      -8.115   9.968  69.952  1.00  0.00    -0.171 OA 
HETATM    2  C   UNL     1      -7.537   9.298  68.924  1.00  0.00    -0.075 C  
HETATM    3  C   UNL     1      -8.414   9.249  67.689  1.00  0.00    -0.116 C  
HETATM    4  O   UNL     1      -6.407   8.843  69.009  1.00  0.00    -0.043 OA 
ENDROOT
BRANCH   3   5
HETATM    5  C   UNL     1      -8.099   8.090  66.744  1.00  0.00    -0.107 C  
HETATM    6  C   UNL     1      -7.019   8.331  65.697  1.00  0.00    -0.067 C  
HETATM    7  C   UNL     1      -8.462   8.282  65.280  1.00  0.00    -0.179 C  
BRANCH   5   8
HETATM    8  C   UNL     1      -8.275   6.731  67.410  1.00  0.00    -0.122 C  
BRANCH   8   9
HETATM    9  S   UNL     1      -9.947   6.079  67.593  1.00  0.00    -0.150 SA 
BRANCH   9  10
HETATM   10  C   UNL     1      -9.665   4.772  68.883  1.00  0.00    -0.174 C  
BRANCH  10  11
HETATM   11  C   UNL     1     -10.228   3.378  68.516  1.00  0.00     1.028 C  
BRANCH  11  12
HETATM   12  C   UNL     1      -9.239   2.443  67.787  1.00  0.00    -0.235 C  
BRANCH  12  13
HETATM   13  C   UNL     1      -7.787   2.772  68.110  1.00  0.00    -0.055 A  
HETATM   14  C   UNL     1      -7.468   2.793  69.492  1.00  0.00    -0.044 A  
HETATM   15  C   UNL     1      -5.177   3.289  69.041  1.00  0.00    -0.012 A  
HETATM   16  H   UNL     1      -7.615   1.677  64.295  1.00  0.00     0.000 HD 
HETATM   17  C   UNL     1      -6.188   3.065  69.954  1.00  0.00    -0.028 A  
HETATM   18  C   UNL     1      -5.667   3.146  64.803  1.00  0.00    -0.014 C  
HETATM   19  C   UNL     1      -5.456   3.247  67.673  1.00  0.00    -0.017 A  
HETATM   20  C   UNL     1      -6.755   3.002  67.159  1.00  0.00    -0.045 A  
HETATM   21  O   UNL     1      -7.488   1.696  65.236  1.00  0.00    -0.055 OA 
HETATM   22  C   UNL     1      -7.934   4.054  65.143  1.00  0.00    -0.093 C  
HETATM   23  C   UNL     1      -6.961   2.970  65.631  1.00  0.00    -0.053 C  
ENDBRANCH  12  13
ENDBRANCH  11  12
ENDBRANCH  10  11
BRANCH  10  24
HETATM   24  C   UNL     1     -10.084   5.294  70.260  1.00  0.00    -0.329 A  
HETATM   25  C   UNL     1     -10.938   6.339  72.738  1.00  0.00    -0.291 A  
HETATM   26  C   UNL     1     -10.178   4.474  71.395  1.00  0.00    -0.183 A  
HETATM   27  C   UNL     1     -10.432   6.655  70.403  1.00  0.00    -0.249 A  
HETATM   28  C   UNL     1     -10.602   4.991  72.620  1.00  0.00    -0.274 A  
HETATM   29  C   UNL     1     -10.843   7.192  71.636  1.00  0.00    -0.250 A  
BRANCH  29  30
HETATM   30  C   UNL     1     -11.233   8.610  71.701  1.00  0.00    -0.379 C  
HETATM   31  C   UNL     1     -11.643   9.342  70.650  1.00  0.00    -0.330 C  
BRANCH  31  32
HETATM   32  C   UNL     1     -12.010  10.762  70.692  1.00  0.00    -0.367 A  
HETATM   33  N   UNL     1     -11.447  11.517  69.718  1.00  0.00    -0.294 NA 
HETATM   34  C   UNL     1     -11.672  12.844  69.715  1.00  0.00    -0.281 A  
HETATM   35  C   UNL     1     -12.461  13.475  70.699  1.00  0.00    -0.405 A  
HETATM   36  C   UNL     1     -13.028  12.678  71.695  1.00  0.00    -0.400 A  
HETATM   37  C   UNL     1     -12.654  14.868  70.673  1.00  0.00    -0.420 A  
HETATM   38  C   UNL     1     -12.062  15.637  69.676  1.00  0.00    -0.329 A  
HETATM   39  C   UNL     1     -12.795  11.307  71.698  1.00  0.00    -0.510 A  
HETATM   40  C   UNL     1     -11.291  15.012  68.702  1.00  0.00    -0.296 A  
HETATM   41  C   UNL     1     -11.103  13.630  68.724  1.00  0.00    -0.302 A  
HETATM   42 CL   UNL     1     -10.555  15.958  67.466  1.00  0.00    -0.309 Cl 
ENDBRANCH  31  32
ENDBRANCH  29  30
ENDBRANCH  10  24
ENDBRANCH   9  10
ENDBRANCH   8   9
ENDBRANCH   5   8
ENDBRANCH   3   5
TORSDOF 10
ENDMDL
MODEL      154
REMARK 921   NORMALIZED FREE ENERGY PREDICTED BY IDOCK:   -4.75 KCAL/MOL
REMARK 922        TOTAL FREE ENERGY PREDICTED BY IDOCK:   -9.18 KCAL/MOL
REMARK 923 INTER-LIGAND FREE ENERGY PREDICTED BY IDOCK:   -7.25 KCAL/MOL
REMARK 924 INTRA-LIGAND FREE ENERGY PREDICTED BY IDOCK:   -1.93 KCAL/MOL
REMARK 927      BINDING AFFINITY PREDICTED BY RF-SCORE:    0.00 PKD
ROOT
HETATM    1  O   UNL     1     -12.642  16.117  70.070  1.00  0.00    -0.135 OA 
HETATM    2  C   UNL     1     -11.600  15.571  69.393  1.00  0.00    -0.355 C  
HETATM    3  C   UNL     1     -11.409  16.182  68.019  1.00  0.00    -0.234 C  
HETATM    4  O   UNL     1     -10.887  14.718  69.895  1.00  0.00    -0.232 OA 
ENDROOT
BRANCH   3   5
HETATM    5  C   UNL     1     -10.670  15.279  67.031  1.00  0.00    -0.313 C  
HETATM    6  C   UNL     1      -9.150  15.371  67.021  1.00  0.00    -0.247 C  
HETATM    7  C   UNL     1      -9.939  15.969  65.890  1.00  0.00    -0.380 C  
BRANCH   5   8
HETATM    8  C   UNL     1     -11.391  13.957  66.799  1.00  0.00    -0.333 C  
BRANCH   8   9
HETATM    9  S   UNL     1     -10.670  12.783  65.635  1.00  0.00    -0.279 SA 
BRANCH   9  10
HETATM   10  C   UNL     1     -10.133  11.436  66.796  1.00  0.00    -0.216 C  
BRANCH  10  11
HETATM   11  C   UNL     1      -9.234  11.915  67.961  1.00  0.00    -0.190 C  
BRANCH  11  12
HETATM   12  C   UNL     1      -8.298  10.838  68.552  1.00  0.00    -0.138 C  
BRANCH  12  13
HETATM   13  C   UNL     1      -8.929  10.107  69.730  1.00  0.00    -0.159 A  
HETATM   14  C   UNL     1     -10.338  10.230  69.830  1.00  0.00    -0.287 A  
HETATM   15  C   UNL     1     -10.408   8.827  71.760  1.00  0.00    -0.413 A  
HETATM   16  H   UNL     1      -5.391   8.334  69.382  1.00  0.00     0.000 HD 
HETATM   17  C   UNL     1     -11.068   9.615  70.839  1.00  0.00    -0.422 A  
HETATM   18  C   UNL     1      -6.210   8.051  71.718  1.00  0.00    -0.042 C  
HETATM   19  C   UNL     1      -9.023   8.665  71.669  1.00  0.00    -0.305 A  
HETATM   20  C   UNL     1      -8.237   9.297  70.673  1.00  0.00    -0.224 A  
HETATM   21  O   UNL     1      -6.328   8.485  69.393  1.00  0.00    -0.037 OA 
HETATM   22  C   UNL     1      -5.905  10.341  70.857  1.00  0.00    -0.074 C  
HETATM   23  C   UNL     1      -6.714   9.052  70.653  1.00  0.00    -0.064 C  
ENDBRANCH  12  13
ENDBRANCH  11  12
ENDBRANCH  10  11
BRANCH  10  24
HETATM   24  C   UNL     1      -9.583  10.247  66.004  1.00  0.00    -0.259 A  
HETATM   25  C   UNL     1      -8.654   7.978  64.608  1.00  0.00     0.085 A  
HETATM   26  C   UNL     1      -9.161  10.344  64.669  1.00  0.00    -0.255 A  
HETATM   27  C   UNL     1      -9.527   8.978  66.619  1.00  0.00    -0.251 A  
HETATM   28  C   UNL     1      -8.703   9.220  63.978  1.00  0.00    -0.198 A  
HETATM   29  C   UNL     1      -9.050   7.842  65.941  1.00  0.00    -0.139 A  
BRANCH  29  30
HETATM   30  C   UNL     1      -9.062   6.542  66.631  1.00  0.00    -0.159 C  
HETATM   31  C   UNL     1      -8.648   6.341  67.895  1.00  0.00    -0.115 C  
BRANCH  31  32
HETATM   32  C   UNL     1      -8.628   5.049  68.589  1.00  0.00    -0.093 A  
HETATM   33  N   UNL     1      -7.938   5.047  69.755  1.00  0.00    -0.073 NA 
HETATM   34  C   UNL     1      -7.808   3.890  70.430  1.00  0.00    -0.051 A  
HETATM   35  C   UNL     1      -8.352   2.679  69.957  1.00  0.00    -0.074 A  
HETATM   36  C   UNL     1      -9.056   2.702  68.751  1.00  0.00    -0.209 A  
HETATM   37  C   UNL     1      -8.175   1.486  70.681  1.00  0.00    -0.055 A  
HETATM   38  C   UNL     1      -7.454   1.492  71.871  1.00  0.00    -0.039 A  
HETATM   39  C   UNL     1      -9.190   3.898  68.054  1.00  0.00    -0.212 A  
HETATM   40  C   UNL     1      -6.925   2.689  72.341  1.00  0.00    -0.027 A  
HETATM   41  C   UNL     1      -7.104   3.873  71.625  1.00  0.00    -0.038 A  
HETATM   42 CL   UNL     1      -6.032   2.703  73.812  1.00  0.00    -0.003 Cl 
ENDBRANCH  31  32
ENDBRANCH  29  30
ENDBRANCH  10  24
ENDBRANCH   9  10
ENDBRANCH   8   9
ENDBRANCH   5   8
ENDBRANCH   3   5
TORSDOF 10
ENDMDL
MODEL      155
REMARK 921   NORMALIZED FREE ENERGY PREDICTED BY IDOCK:   -4.74 KCAL/MOL
REMARK 922        TOTAL FREE ENERGY PREDICTED BY IDOCK:   -9.17 KCAL/MOL
REMARK 923 INTER-LIGAND FREE ENERGY PREDICTED BY IDOCK:   -7.31 KCAL/MOL
REMARK 924 INTRA-LIGAND FREE ENERGY PREDICTED BY IDOCK:   -1.86 KCAL/MOL
REMARK 927      BINDING AFFINITY PREDICTED BY RF-SCORE:    0.00 PKD
ROOT
HETATM    1  O   UNL     1     -13.391  13.686  65.134  1.00  0.00    -0.677 OA 
HETATM    2  C   UNL     1     -12.106  13.542  65.545  1.00  0.00    -0.419 C  
HETATM    3  C   UNL     1     -11.456  12.282  65.009  1.00  0.00    -0.386 C  
HETATM    4  O   UNL     1     -11.553  14.388  66.230  1.00  0.00    -0.354 OA 
ENDROOT
BRANCH   3   5
HETATM    5  C   UNL     1     -10.276  11.784  65.843  1.00  0.00    -0.272 C  
HETATM    6  C   UNL     1      -9.007  12.624  65.808  1.00  0.00     0.397 C  
HETATM    7  C   UNL     1      -9.050  11.311  65.079  1.00  0.00    -0.085 C  
BRANCH   5   8
HETATM    8  C   UNL     1     -10.722  11.063  67.110  1.00  0.00    -0.265 C  
BRANCH   8   9
HETATM    9  S   UNL     1     -10.232  11.755  68.703  1.00  0.00    -0.168 SA 
BRANCH   9  10
HETATM   10  C   UNL     1      -8.835  10.617  69.154  1.00  0.00    -0.122 C  
BRANCH  10  11
HETATM   11  C   UNL     1      -9.129   9.687  70.356  1.00  0.00    -0.245 C  
BRANCH  11  12
HETATM   12  C   UNL     1      -8.709   8.213  70.162  1.00  0.00    -0.130 C  
BRANCH  12  13
HETATM   13  C   UNL     1      -9.585   7.253  70.957  1.00  0.00    -0.158 A  
HETATM   14  C   UNL     1     -10.982   7.443  70.800  1.00  0.00    -0.272 A  
HETATM   15  C   UNL     1     -11.477   5.607  72.243  1.00  0.00    -0.278 A  
HETATM   16  H   UNL     1      -6.078   5.389  70.877  1.00  0.00     0.000 HD 
HETATM   17  C   UNL     1     -11.916   6.645  71.446  1.00  0.00    -0.405 A  
HETATM   18  C   UNL     1      -7.377   4.583  72.845  1.00  0.00    -0.083 C  
HETATM   19  C   UNL     1     -10.108   5.379  72.394  1.00  0.00    -0.225 A  
HETATM   20  C   UNL     1      -9.120   6.187  71.775  1.00  0.00    -0.145 A  
HETATM   21  O   UNL     1      -6.994   5.595  70.739  1.00  0.00    -0.054 OA 
HETATM   22  C   UNL     1      -6.866   6.990  72.690  1.00  0.00    -0.068 C  
HETATM   23  C   UNL     1      -7.631   5.852  71.998  1.00  0.00    -0.097 C  
ENDBRANCH  12  13
ENDBRANCH  11  12
ENDBRANCH  10  11
BRANCH  10  24
HETATM   24  C   UNL     1      -7.526  11.406  69.255  1.00  0.00    -0.005 A  
HETATM   25  C   UNL     1      -5.186  12.968  69.463  1.00  0.00    -0.077 A  
HETATM   26  C   UNL     1      -6.351  10.875  69.808  1.00  0.00    -0.114 A  
HETATM   27  C   UNL     1      -7.495  12.745  68.810  1.00  0.00    -0.048 A  
HETATM   28  C   UNL     1      -5.194  11.648  69.912  1.00  0.00    -0.073 A  
HETATM   29  C   UNL     1      -6.331  13.529  68.891  1.00  0.00    -0.098 A  
BRANCH  29  30
HETATM   30  C   UNL     1      -6.383  14.932  68.449  1.00  0.00    -0.105 C  
HETATM   31  C   UNL     1      -7.505  15.669  68.368  1.00  0.00    -0.120 C  
BRANCH  31  32
HETATM   32  C   UNL     1      -7.579  17.059  67.904  1.00  0.00    -0.173 A  
HETATM   33  N   UNL     1      -6.909  17.304  66.752  1.00  0.00    -0.192 NA 
HETATM   34  C   UNL     1      -6.864  18.564  66.283  1.00  0.00    -0.230 A  
HETATM   35  C   UNL     1      -7.478  19.640  66.958  1.00  0.00    -0.258 A  
HETATM   36  C   UNL     1      -8.159  19.366  68.146  1.00  0.00    -0.354 A  
HETATM   37  C   UNL     1      -7.389  20.947  66.447  1.00  0.00    -0.017 A  
HETATM   38  C   UNL     1      -6.688  21.190  65.269  1.00  0.00     0.138 A  
HETATM   39  C   UNL     1      -8.205  18.063  68.629  1.00  0.00    -0.287 A  
HETATM   40  C   UNL     1      -6.091  20.127  64.600  1.00  0.00    -0.270 A  
HETATM   41  C   UNL     1      -6.183  18.830  65.105  1.00  0.00    -0.302 A  
HETATM   42 CL   UNL     1      -5.223  20.422  63.144  1.00  0.00    -0.214 Cl 
ENDBRANCH  31  32
ENDBRANCH  29  30
ENDBRANCH  10  24
ENDBRANCH   9  10
ENDBRANCH   8   9
ENDBRANCH   5   8
ENDBRANCH   3   5
TORSDOF 10
ENDMDL
MODEL      156
REMARK 921   NORMALIZED FREE ENERGY PREDICTED BY IDOCK:   -4.74 KCAL/MOL
REMARK 922        TOTAL FREE ENERGY PREDICTED BY IDOCK:   -9.16 KCAL/MOL
REMARK 923 INTER-LIGAND FREE ENERGY PREDICTED BY IDOCK:   -6.47 KCAL/MOL
REMARK 924 INTRA-LIGAND FREE ENERGY PREDICTED BY IDOCK:   -2.69 KCAL/MOL
REMARK 927      BINDING AFFINITY PREDICTED BY RF-SCORE:    0.00 PKD
ROOT
HETATM    1  O   UNL     1     -11.159   7.716  68.432  1.00  0.00     0.072 OA 
HETATM    2  C   UNL     1     -10.295   7.310  67.467  1.00  0.00    -0.242 C  
HETATM    3  C   UNL     1      -8.853   7.644  67.792  1.00  0.00    -0.125 C  
HETATM    4  O   UNL     1     -10.676   6.698  66.482  1.00  0.00    -0.173 OA 
ENDROOT
BRANCH   3   5
HETATM    5  C   UNL     1      -7.941   7.734  66.568  1.00  0.00    -0.106 C  
HETATM    6  C   UNL     1      -7.422   6.420  66.000  1.00  0.00    -0.082 C  
HETATM    7  C   UNL     1      -6.492   7.319  66.764  1.00  0.00    -0.052 C  
BRANCH   5   8
HETATM    8  C   UNL     1      -8.293   8.910  65.666  1.00  0.00    -0.139 C  
BRANCH   8   9
HETATM    9  S   UNL     1      -7.346  10.435  65.842  1.00  0.00    -0.136 SA 
BRANCH   9  10
HETATM   10  C   UNL     1      -8.240  11.229  67.264  1.00  0.00    -0.140 C  
BRANCH  10  11
HETATM   11  C   UNL     1      -8.971  12.545  66.907  1.00  0.00    -0.212 C  
BRANCH  11  12
HETATM   12  C   UNL     1     -10.512  12.484  66.996  1.00  0.00    -0.246 C  
BRANCH  12  13
HETATM   13  C   UNL     1     -11.064  13.385  68.093  1.00  0.00    -0.284 A  
HETATM   14  C   UNL     1     -10.977  14.776  67.830  1.00  0.00    -0.294 A  
HETATM   15  C   UNL     1     -12.049  15.318  69.894  1.00  0.00    -0.375 A  
HETATM   16  H   UNL     1     -12.741   9.876  68.905  1.00  0.00     0.000 HD 
HETATM   17  C   UNL     1     -11.445  15.731  68.723  1.00  0.00    -0.391 A  
HETATM   18  C   UNL     1     -12.668  11.239  70.990  1.00  0.00    -0.457 C  
HETATM   19  C   UNL     1     -12.173  13.953  70.166  1.00  0.00    -0.425 A  
HETATM   20  C   UNL     1     -11.683  12.946  69.296  1.00  0.00    -0.378 A  
HETATM   21  O   UNL     1     -12.624  10.788  68.666  1.00  0.00    -0.176 OA 
HETATM   22  C   UNL     1     -10.540  10.724  69.857  1.00  0.00    -0.130 C  
HETATM   23  C   UNL     1     -11.874  11.465  69.683  1.00  0.00    -0.362 C  
ENDBRANCH  12  13
ENDBRANCH  11  12
ENDBRANCH  10  11
BRANCH  10  24
HETATM   24  C   UNL     1      -7.317  11.315  68.483  1.00  0.00    -0.106 A  
HETATM   25  C   UNL     1      -5.588  11.346  70.712  1.00  0.00    -0.111 A  
HETATM   26  C   UNL     1      -6.547  12.449  68.784  1.00  0.00    -0.088 A  
HETATM   27  C   UNL     1      -7.193  10.195  69.332  1.00  0.00    -0.096 A  
HETATM   28  C   UNL     1      -5.691  12.464  69.887  1.00  0.00    -0.125 A  
HETATM   29  C   UNL     1      -6.349  10.202  70.457  1.00  0.00    -0.117 A  
BRANCH  29  30
HETATM   30  C   UNL     1      -6.237   8.983  71.273  1.00  0.00    -0.065 C  
HETATM   31  C   UNL     1      -6.745   7.784  70.935  1.00  0.00    -0.038 C  
BRANCH  31  32
HETATM   32  C   UNL     1      -6.666   6.565  71.747  1.00  0.00    -0.063 A  
HETATM   33  N   UNL     1      -7.864   6.005  72.040  1.00  0.00    -0.105 NA 
HETATM   34  C   UNL     1      -7.897   4.921  72.836  1.00  0.00    -0.094 A  
HETATM   35  C   UNL     1      -6.727   4.359  73.388  1.00  0.00    -0.057 A  
HETATM   36  C   UNL     1      -5.503   4.955  73.078  1.00  0.00    -0.009 A  
HETATM   37  C   UNL     1      -6.805   3.238  74.235  1.00  0.00    -0.044 A  
HETATM   38  C   UNL     1      -8.042   2.678  74.539  1.00  0.00    -0.066 A  
HETATM   39  C   UNL     1      -5.471   6.075  72.255  1.00  0.00    -0.030 A  
HETATM   40  C   UNL     1      -9.194   3.228  73.987  1.00  0.00    -0.088 A  
HETATM   41  C   UNL     1      -9.116   4.337  73.144  1.00  0.00    -0.119 A  
HETATM   42 CL   UNL     1     -10.726   2.539  74.360  1.00  0.00    -0.193 Cl 
ENDBRANCH  31  32
ENDBRANCH  29  30
ENDBRANCH  10  24
ENDBRANCH   9  10
ENDBRANCH   8   9
ENDBRANCH   5   8
ENDBRANCH   3   5
TORSDOF 10
ENDMDL
MODEL      157
REMARK 921   NORMALIZED FREE ENERGY PREDICTED BY IDOCK:   -4.73 KCAL/MOL
REMARK 922        TOTAL FREE ENERGY PREDICTED BY IDOCK:   -9.14 KCAL/MOL
REMARK 923 INTER-LIGAND FREE ENERGY PREDICTED BY IDOCK:   -8.81 KCAL/MOL
REMARK 924 INTRA-LIGAND FREE ENERGY PREDICTED BY IDOCK:   -0.34 KCAL/MOL
REMARK 927      BINDING AFFINITY PREDICTED BY RF-SCORE:    0.00 PKD
ROOT
HETATM    1  O   UNL     1     -12.303  16.073  69.407  1.00  0.00    -0.149 OA 
HETATM    2  C   UNL     1     -12.800  15.258  70.373  1.00  0.00    -0.317 C  
HETATM    3  C   UNL     1     -12.026  13.962  70.500  1.00  0.00    -0.384 C  
HETATM    4  O   UNL     1     -13.738  15.596  71.076  1.00  0.00    -0.582 OA 
ENDROOT
BRANCH   3   5
HETATM    5  C   UNL     1     -12.823  12.817  71.125  1.00  0.00    -0.315 C  
HETATM    6  C   UNL     1     -14.036  13.201  71.962  1.00  0.00    -0.144 C  
HETATM    7  C   UNL     1     -12.790  12.708  72.641  1.00  0.00     0.653 C  
BRANCH   5   8
HETATM    8  C   UNL     1     -12.815  11.562  70.261  1.00  0.00     0.116 C  
BRANCH   8   9
HETATM    9  S   UNL     1     -13.223   9.986  71.039  1.00  0.00    -0.234 SA 
BRANCH   9  10
HETATM   10  C   UNL     1     -11.665   9.031  70.711  1.00  0.00    -0.242 C  
BRANCH  10  11
HETATM   11  C   UNL     1     -10.562   9.216  71.781  1.00  0.00    -0.383 C  
BRANCH  11  12
HETATM   12  C   UNL     1     -10.163   7.932  72.541  1.00  0.00    -0.342 C  
BRANCH  12  13
HETATM   13  C   UNL     1      -9.431   6.937  71.649  1.00  0.00    -0.157 A  
HETATM   14  C   UNL     1     -10.235   5.890  71.129  1.00  0.00    -0.266 A  
HETATM   15  C   UNL     1      -8.396   4.966  69.919  1.00  0.00    -0.080 A  
HETATM   16  H   UNL     1      -7.002  10.081  71.643  1.00  0.00     0.000 HD 
HETATM   17  C   UNL     1      -9.724   4.908  70.292  1.00  0.00    -0.287 A  
HETATM   18  C   UNL     1      -5.680   8.036  71.112  1.00  0.00    -0.034 C  
HETATM   19  C   UNL     1      -7.587   6.002  70.393  1.00  0.00    -0.095 A  
HETATM   20  C   UNL     1      -8.061   7.008  71.273  1.00  0.00    -0.108 A  
HETATM   21  O   UNL     1      -7.600   9.400  71.357  1.00  0.00    -0.340 OA 
HETATM   22  C   UNL     1      -6.887   8.120  73.260  1.00  0.00    -0.128 C  
HETATM   23  C   UNL     1      -7.091   8.114  71.738  1.00  0.00    -0.078 C  
ENDBRANCH  12  13
ENDBRANCH  11  12
ENDBRANCH  10  11
BRANCH  10  24
HETATM   24  C   UNL     1     -11.205   9.252  69.267  1.00  0.00     0.066 A  
HETATM   25  C   UNL     1     -10.313   9.780  66.643  1.00  0.00    -0.276 A  
HETATM   26  C   UNL     1     -10.702   8.224  68.456  1.00  0.00    -0.065 A  
HETATM   27  C   UNL     1     -11.247  10.555  68.725  1.00  0.00    -0.317 A  
HETATM   28  C   UNL     1     -10.259   8.486  67.158  1.00  0.00    -0.355 A  
HETATM   29  C   UNL     1     -10.823  10.829  67.413  1.00  0.00    -0.345 A  
BRANCH  29  30
HETATM   30  C   UNL     1     -10.855  12.219  66.929  1.00  0.00    -0.290 C  
HETATM   31  C   UNL     1     -10.051  13.203  67.370  1.00  0.00    -0.229 C  
BRANCH  31  32
HETATM   32  C   UNL     1     -10.087  14.598  66.918  1.00  0.00    -0.255 A  
HETATM   33  N   UNL     1      -9.346  15.451  67.666  1.00  0.00    -0.202 NA 
HETATM   34  C   UNL     1      -9.368  16.763  67.368  1.00  0.00    -0.233 A  
HETATM   35  C   UNL     1     -10.149  17.281  66.315  1.00  0.00    -0.323 A  
HETATM   36  C   UNL     1     -10.909  16.385  65.559  1.00  0.00    -0.224 A  
HETATM   37  C   UNL     1     -10.164  18.662  66.049  1.00  0.00    -0.386 A  
HETATM   38  C   UNL     1      -9.408  19.531  66.831  1.00  0.00    -0.424 A  
HETATM   39  C   UNL     1     -10.885  15.030  65.868  1.00  0.00    -0.339 A  
HETATM   40  C   UNL     1      -8.632  19.018  67.864  1.00  0.00    -0.301 A  
HETATM   41  C   UNL     1      -8.615  17.648  68.125  1.00  0.00    -0.261 A  
HETATM   42 CL   UNL     1      -7.696  20.088  68.835  1.00  0.00    -0.151 Cl 
ENDBRANCH  31  32
ENDBRANCH  29  30
ENDBRANCH  10  24
ENDBRANCH   9  10
ENDBRANCH   8   9
ENDBRANCH   5   8
ENDBRANCH   3   5
TORSDOF 10
ENDMDL
MODEL      158
REMARK 921   NORMALIZED FREE ENERGY PREDICTED BY IDOCK:   -4.63 KCAL/MOL
REMARK 922        TOTAL FREE ENERGY PREDICTED BY IDOCK:   -8.99 KCAL/MOL
REMARK 923 INTER-LIGAND FREE ENERGY PREDICTED BY IDOCK:   -8.30 KCAL/MOL
REMARK 924 INTRA-LIGAND FREE ENERGY PREDICTED BY IDOCK:   -0.70 KCAL/MOL
REMARK 927      BINDING AFFINITY PREDICTED BY RF-SCORE:    0.00 PKD
ROOT
HETATM    1  O   UNL     1     -10.630  13.674  66.283  1.00  0.00    -0.283 OA 
HETATM    2  C   UNL     1      -9.984  12.529  66.618  1.00  0.00    -0.236 C  
HETATM    3  C   UNL     1     -10.894  11.317  66.608  1.00  0.00    -0.325 C  
HETATM    4  O   UNL     1      -8.785  12.512  66.845  1.00  0.00    -0.200 OA 
ENDROOT
BRANCH   3   5
HETATM    5  C   UNL     1     -10.407  10.161  67.481  1.00  0.00    -0.279 C  
HETATM    6  C   UNL     1      -9.348   9.246  66.881  1.00  0.00    -0.193 C  
HETATM    7  C   UNL     1     -10.763   8.757  67.019  1.00  0.00    -0.186 C  
BRANCH   5   8
HETATM    8  C   UNL     1     -10.411  10.511  68.964  1.00  0.00    -0.217 C  
BRANCH   8   9
HETATM    9  S   UNL     1     -10.194   9.175  70.158  1.00  0.00    -0.221 SA 
BRANCH   9  10
HETATM   10  C   UNL     1      -8.606   8.428  69.548  1.00  0.00    -0.129 C  
BRANCH  10  11
HETATM   11  C   UNL     1      -8.413   6.939  69.922  1.00  0.00    -0.140 C  
BRANCH  11  12
HETATM   12  C   UNL     1      -9.612   6.284  70.644  1.00  0.00    -0.189 C  
BRANCH  12  13
HETATM   13  C   UNL     1      -9.541   4.763  70.618  1.00  0.00    -0.255 A  
HETATM   14  C   UNL     1      -9.103   4.202  69.391  1.00  0.00    -0.189 A  
HETATM   15  C   UNL     1      -9.244   1.982  70.259  1.00  0.00    -0.174 A  
HETATM   16  H   UNL     1      -9.568   5.578  74.506  1.00  0.00     0.000 HD 
HETATM   17  C   UNL     1      -8.973   2.832  69.205  1.00  0.00    -0.171 A  
HETATM   18  C   UNL     1     -10.416   3.261  74.160  1.00  0.00    -0.249 C  
HETATM   19  C   UNL     1      -9.650   2.508  71.488  1.00  0.00    -0.220 A  
HETATM   20  C   UNL     1      -9.824   3.898  71.711  1.00  0.00    -0.249 A  
HETATM   21  O   UNL     1      -9.293   5.280  73.647  1.00  0.00    -0.133 OA 
HETATM   22  C   UNL     1     -11.619   5.117  73.072  1.00  0.00    -0.301 C  
HETATM   23  C   UNL     1     -10.271   4.382  73.106  1.00  0.00    -0.161 C  
ENDBRANCH  12  13
ENDBRANCH  11  12
ENDBRANCH  10  11
BRANCH  10  24
HETATM   24  C   UNL     1      -7.427   9.339  69.900  1.00  0.00    -0.085 A  
HETATM   25  C   UNL     1      -5.341  11.115  70.574  1.00  0.00    -0.112 A  
HETATM   26  C   UNL     1      -6.272   8.882  70.553  1.00  0.00    -0.042 A  
HETATM   27  C   UNL     1      -7.507  10.716  69.597  1.00  0.00    -0.121 A  
HETATM   28  C   UNL     1      -5.240   9.761  70.887  1.00  0.00    -0.052 A  
HETATM   29  C   UNL     1      -6.467  11.609  69.910  1.00  0.00    -0.085 A  
BRANCH  29  30
HETATM   30  C   UNL     1      -6.638  13.038  69.603  1.00  0.00     0.015 C  
HETATM   31  C   UNL     1      -5.966  14.037  70.204  1.00  0.00    -0.151 C  
BRANCH  31  32
HETATM   32  C   UNL     1      -6.142  15.467  69.929  1.00  0.00    -0.157 A  
HETATM   33  N   UNL     1      -7.314  15.784  69.328  1.00  0.00    -0.203 NA 
HETATM   34  C   UNL     1      -7.538  17.064  68.977  1.00  0.00    -0.194 A  
HETATM   35  C   UNL     1      -6.587  18.081  69.198  1.00  0.00    -0.253 A  
HETATM   36  C   UNL     1      -5.383  17.731  69.814  1.00  0.00    -0.211 A  
HETATM   37  C   UNL     1      -6.849  19.403  68.795  1.00  0.00    -0.354 A  
HETATM   38  C   UNL     1      -8.051  19.716  68.168  1.00  0.00    -0.353 A  
HETATM   39  C   UNL     1      -5.154  16.409  70.177  1.00  0.00    -0.163 A  
HETATM   40  C   UNL     1      -8.992  18.713  67.958  1.00  0.00    -0.302 A  
HETATM   41  C   UNL     1      -8.733  17.403  68.361  1.00  0.00    -0.271 A  
HETATM   42 CL   UNL     1     -10.480  19.095  67.183  1.00  0.00    -0.501 Cl 
ENDBRANCH  31  32
ENDBRANCH  29  30
ENDBRANCH  10  24
ENDBRANCH   9  10
ENDBRANCH   8   9
ENDBRANCH   5   8
ENDBRANCH   3   5
TORSDOF 10
ENDMDL
MODEL      159
REMARK 921   NORMALIZED FREE ENERGY PREDICTED BY IDOCK:   -4.63 KCAL/MOL
REMARK 922        TOTAL FREE ENERGY PREDICTED BY IDOCK:   -8.99 KCAL/MOL
REMARK 923 INTER-LIGAND FREE ENERGY PREDICTED BY IDOCK:   -8.57 KCAL/MOL
REMARK 924 INTRA-LIGAND FREE ENERGY PREDICTED BY IDOCK:   -0.42 KCAL/MOL
REMARK 927      BINDING AFFINITY PREDICTED BY RF-SCORE:    0.00 PKD
ROOT
HETATM    1  O   UNL     1     -14.408  13.674  72.368  1.00  0.00    -0.661 OA 
HETATM    2  C   UNL     1     -13.200  13.298  71.877  1.00  0.00    -0.431 C  
HETATM    3  C   UNL     1     -13.301  12.631  70.520  1.00  0.00     0.883 C  
HETATM    4  O   UNL     1     -12.163  13.539  72.473  1.00  0.00     0.361 OA 
ENDROOT
BRANCH   3   5
HETATM    5  C   UNL     1     -12.123  11.716  70.184  1.00  0.00    -0.414 C  
HETATM    6  C   UNL     1     -12.420  10.228  70.066  1.00  0.00    -0.112 C  
HETATM    7  C   UNL     1     -11.681  10.745  71.267  1.00  0.00    -0.027 C  
BRANCH   5   8
HETATM    8  C   UNL     1     -11.093  12.398  69.291  1.00  0.00    -0.147 C  
BRANCH   8   9
HETATM    9  S   UNL     1     -11.198  14.187  69.078  1.00  0.00    -0.284 SA 
BRANCH   9  10
HETATM   10  C   UNL     1     -10.217  14.402  67.516  1.00  0.00    -0.240 C  
BRANCH  10  11
HETATM   11  C   UNL     1     -10.397  15.778  66.831  1.00  0.00    -0.295 C  
BRANCH  11  12
HETATM   12  C   UNL     1      -9.085  16.532  66.520  1.00  0.00    -0.307 C  
BRANCH  12  13
HETATM   13  C   UNL     1      -9.194  18.024  66.808  1.00  0.00    -0.285 A  
HETATM   14  C   UNL     1     -10.342  18.659  66.269  1.00  0.00    -0.483 A  
HETATM   15  C   UNL     1      -9.722  20.764  67.210  1.00  0.00    -0.487 A  
HETATM   16  H   UNL     1      -6.606  16.781  69.554  1.00  0.00     0.000 HD 
HETATM   17  C   UNL     1     -10.596  20.012  66.450  1.00  0.00    -0.460 A  
HETATM   18  C   UNL     1      -6.250  19.214  69.151  1.00  0.00    -0.298 C  
HETATM   19  C   UNL     1      -8.597  20.159  67.776  1.00  0.00    -0.318 A  
HETATM   20  C   UNL     1      -8.286  18.788  67.592  1.00  0.00    -0.282 A  
HETATM   21  O   UNL     1      -7.384  17.136  69.141  1.00  0.00    -0.240 OA 
HETATM   22  C   UNL     1      -6.008  17.668  67.246  1.00  0.00    -0.161 C  
HETATM   23  C   UNL     1      -7.022  18.211  68.264  1.00  0.00    -0.233 C  
ENDBRANCH  12  13
ENDBRANCH  11  12
ENDBRANCH  10  11
BRANCH  10  24
HETATM   24  C   UNL     1     -10.419  13.194  66.597  1.00  0.00    -0.280 A  
HETATM   25  C   UNL     1     -10.815  10.894  65.012  1.00  0.00    -0.142 A  
HETATM   26  C   UNL     1     -11.017  13.284  65.331  1.00  0.00    -0.299 A  
HETATM   27  C   UNL     1     -10.027  11.915  67.047  1.00  0.00    -0.219 A  
HETATM   28  C   UNL     1     -11.214  12.145  64.547  1.00  0.00    -0.385 A  
HETATM   29  C   UNL     1     -10.201  10.763  66.261  1.00  0.00    -0.301 A  
BRANCH  29  30
HETATM   30  C   UNL     1      -9.808   9.456  66.812  1.00  0.00    -0.280 C  
HETATM   31  C   UNL     1     -10.640   8.609  67.444  1.00  0.00    -0.298 C  
BRANCH  31  32
HETATM   32  C   UNL     1     -10.259   7.315  68.023  1.00  0.00    -0.185 A  
HETATM   33  N   UNL     1      -9.247   7.377  68.922  1.00  0.00    -0.143 NA 
HETATM   34  C   UNL     1      -8.784   6.232  69.457  1.00  0.00    -0.132 A  
HETATM   35  C   UNL     1      -9.306   4.972  69.101  1.00  0.00    -0.174 A  
HETATM   36  C   UNL     1     -10.346   4.931  68.170  1.00  0.00    -0.035 A  
HETATM   37  C   UNL     1      -8.779   3.796  69.666  1.00  0.00    -0.127 A  
HETATM   38  C   UNL     1      -7.732   3.869  70.580  1.00  0.00    -0.044 A  
HETATM   39  C   UNL     1     -10.823   6.114  67.618  1.00  0.00    -0.421 A  
HETATM   40  C   UNL     1      -7.224   5.114  70.936  1.00  0.00    -0.064 A  
HETATM   41  C   UNL     1      -7.749   6.280  70.378  1.00  0.00    -0.098 A  
HETATM   42 CL   UNL     1      -5.929   5.211  72.065  1.00  0.00    -0.024 Cl 
ENDBRANCH  31  32
ENDBRANCH  29  30
ENDBRANCH  10  24
ENDBRANCH   9  10
ENDBRANCH   8   9
ENDBRANCH   5   8
ENDBRANCH   3   5
TORSDOF 10
ENDMDL
MODEL      160
REMARK 921   NORMALIZED FREE ENERGY PREDICTED BY IDOCK:   -4.56 KCAL/MOL
REMARK 922        TOTAL FREE ENERGY PREDICTED BY IDOCK:   -8.88 KCAL/MOL
REMARK 923 INTER-LIGAND FREE ENERGY PREDICTED BY IDOCK:   -7.05 KCAL/MOL
REMARK 924 INTRA-LIGAND FREE ENERGY PREDICTED BY IDOCK:   -1.83 KCAL/MOL
REMARK 927      BINDING AFFINITY PREDICTED BY RF-SCORE:    0.00 PKD
ROOT
HETATM    1  O   UNL     1      -5.646   5.416  66.743  1.00  0.00    -0.015 OA 
HETATM    2  C   UNL     1      -6.653   6.297  66.970  1.00  0.00    -0.059 C  
HETATM    3  C   UNL     1      -7.061   6.360  68.428  1.00  0.00    -0.083 C  
HETATM    4  O   UNL     1      -7.116   6.985  66.075  1.00  0.00    -0.069 OA 
ENDROOT
BRANCH   3   5
HETATM    5  C   UNL     1      -8.485   6.865  68.658  1.00  0.00    -0.121 C  
HETATM    6  C   UNL     1      -9.048   7.828  67.621  1.00  0.00    -0.138 C  
HETATM    7  C   UNL     1      -8.644   8.343  68.973  1.00  0.00    -0.131 C  
BRANCH   5   8
HETATM    8  C   UNL     1      -9.366   5.829  69.347  1.00  0.00    -0.126 C  
BRANCH   8   9
HETATM    9  S   UNL     1     -11.120   6.199  69.549  1.00  0.00    -0.404 SA 
BRANCH   9  10
HETATM   10  C   UNL     1     -11.166   6.662  71.347  1.00  0.00    -0.274 C  
BRANCH  10  11
HETATM   11  C   UNL     1     -11.536   5.499  72.299  1.00  0.00    -0.221 C  
BRANCH  11  12
HETATM   12  C   UNL     1     -10.406   5.046  73.251  1.00  0.00    -0.232 C  
BRANCH  12  13
HETATM   13  C   UNL     1      -9.317   4.267  72.525  1.00  0.00    -0.155 A  
HETATM   14  C   UNL     1      -9.752   3.079  71.885  1.00  0.00    -0.234 A  
HETATM   15  C   UNL     1      -7.561   2.630  71.048  1.00  0.00    -0.036 A  
HETATM   16  H   UNL     1      -7.711   7.880  72.912  1.00  0.00     0.000 HD 
HETATM   17  C   UNL     1      -8.886   2.261  71.171  1.00  0.00    -0.127 A  
HETATM   18  C   UNL     1      -5.882   6.205  72.667  1.00  0.00    -0.037 C  
HETATM   19  C   UNL     1      -7.111   3.809  71.645  1.00  0.00    -0.038 A  
HETATM   20  C   UNL     1      -7.955   4.658  72.406  1.00  0.00    -0.095 A  
HETATM   21  O   UNL     1      -8.075   7.089  72.533  1.00  0.00    -0.101 OA 
HETATM   22  C   UNL     1      -7.447   5.956  74.555  1.00  0.00    -0.094 C  
HETATM   23  C   UNL     1      -7.364   5.944  73.022  1.00  0.00    -0.094 C  
ENDBRANCH  12  13
ENDBRANCH  11  12
ENDBRANCH  10  11
BRANCH  10  24
HETATM   24  C   UNL     1     -11.989   7.939  71.541  1.00  0.00    -0.333 A  
HETATM   25  C   UNL     1     -13.510  10.304  71.764  1.00  0.00    -0.387 A  
HETATM   26  C   UNL     1     -12.932   8.096  72.568  1.00  0.00    -0.072 A  
HETATM   27  C   UNL     1     -11.832   9.003  70.626  1.00  0.00    -0.193 A  
HETATM   28  C   UNL     1     -13.685   9.266  72.678  1.00  0.00    -0.386 A  
HETATM   29  C   UNL     1     -12.570  10.194  70.736  1.00  0.00    -0.406 A  
BRANCH  29  30
HETATM   30  C   UNL     1     -12.386  11.244  69.722  1.00  0.00    -0.277 C  
HETATM   31  C   UNL     1     -11.450  12.209  69.778  1.00  0.00    -0.261 C  
BRANCH  31  32
HETATM   32  C   UNL     1     -11.269  13.278  68.789  1.00  0.00    -0.276 A  
HETATM   33  N   UNL     1     -11.823  13.024  67.579  1.00  0.00    -0.366 NA 
HETATM   34  C   UNL     1     -11.653  13.918  66.587  1.00  0.00    -0.374 A  
HETATM   35  C   UNL     1     -10.904  15.100  66.762  1.00  0.00    -0.322 A  
HETATM   36  C   UNL     1     -10.338  15.339  68.016  1.00  0.00    -0.244 A  
HETATM   37  C   UNL     1     -10.730  15.998  65.694  1.00  0.00    -0.341 A  
HETATM   38  C   UNL     1     -11.293  15.723  64.451  1.00  0.00    -0.274 A  
HETATM   39  C   UNL     1     -10.515  14.415  69.039  1.00  0.00    -0.227 A  
HETATM   40  C   UNL     1     -12.038  14.561  64.283  1.00  0.00    -0.425 A  
HETATM   41  C   UNL     1     -12.215  13.672  65.344  1.00  0.00    -0.474 A  
HETATM   42 CL   UNL     1     -12.737  14.215  62.749  1.00  0.00     1.467 Cl 
ENDBRANCH  31  32
ENDBRANCH  29  30
ENDBRANCH  10  24
ENDBRANCH   9  10
ENDBRANCH   8   9
ENDBRANCH   5   8
ENDBRANCH   3   5
TORSDOF 10
ENDMDL
MODEL      161
REMARK 921   NORMALIZED FREE ENERGY PREDICTED BY IDOCK:   -4.53 KCAL/MOL
REMARK 922        TOTAL FREE ENERGY PREDICTED BY IDOCK:   -8.84 KCAL/MOL
REMARK 923 INTER-LIGAND FREE ENERGY PREDICTED BY IDOCK:   -7.22 KCAL/MOL
REMARK 924 INTRA-LIGAND FREE ENERGY PREDICTED BY IDOCK:   -1.62 KCAL/MOL
REMARK 927      BINDING AFFINITY PREDICTED BY RF-SCORE:    0.00 PKD
ROOT
HETATM    1  O   UNL     1     -14.410   8.771  71.760  1.00  0.00    -0.387 OA 
HETATM    2  C   UNL     1     -13.136   8.728  71.294  1.00  0.00    -0.177 C  
HETATM    3  C   UNL     1     -12.514   7.351  71.413  1.00  0.00    -0.402 C  
HETATM    4  O   UNL     1     -12.604   9.705  70.792  1.00  0.00    -0.247 OA 
ENDROOT
BRANCH   3   5
HETATM    5  C   UNL     1     -10.986   7.356  71.446  1.00  0.00    -0.258 C  
HETATM    6  C   UNL     1     -10.314   6.314  72.331  1.00  0.00    -0.215 C  
HETATM    7  C   UNL     1     -10.331   7.755  72.759  1.00  0.00    -0.374 C  
BRANCH   5   8
HETATM    8  C   UNL     1     -10.377   7.787  70.117  1.00  0.00    -0.218 C  
BRANCH   8   9
HETATM    9  S   UNL     1      -9.188   9.143  70.122  1.00  0.00    -0.225 SA 
BRANCH   9  10
HETATM   10  C   UNL     1      -8.335   8.856  68.497  1.00  0.00    -0.125 C  
BRANCH  10  11
HETATM   11  C   UNL     1      -6.790   8.894  68.569  1.00  0.00    -0.064 C  
BRANCH  11  12
HETATM   12  C   UNL     1      -6.090   7.534  68.351  1.00  0.00    -0.035 C  
BRANCH  12  13
HETATM   13  C   UNL     1      -6.372   6.552  69.481  1.00  0.00    -0.038 A  
HETATM   14  C   UNL     1      -5.719   6.840  70.706  1.00  0.00    -0.027 A  
HETATM   15  C   UNL     1      -6.730   4.963  71.782  1.00  0.00    -0.043 A  
HETATM   16  H   UNL     1      -9.368   5.882  66.959  1.00  0.00     0.000 HD 
HETATM   17  C   UNL     1      -5.879   6.050  71.837  1.00  0.00    -0.031 A  
HETATM   18  C   UNL     1      -9.016   3.847  68.354  1.00  0.00    -0.165 C  
HETATM   19  C   UNL     1      -7.407   4.672  70.596  1.00  0.00    -0.049 A  
HETATM   20  C   UNL     1      -7.250   5.435  69.412  1.00  0.00    -0.065 A  
HETATM   21  O   UNL     1      -8.877   6.128  67.734  1.00  0.00    -0.113 OA 
HETATM   22  C   UNL     1      -7.139   4.655  66.974  1.00  0.00    -0.072 C  
HETATM   23  C   UNL     1      -8.048   5.036  68.153  1.00  0.00    -0.086 C  
ENDBRANCH  12  13
ENDBRANCH  11  12
ENDBRANCH  10  11
BRANCH  10  24
HETATM   24  C   UNL     1      -8.952   9.746  67.415  1.00  0.00    -0.144 A  
HETATM   25  C   UNL     1      -9.978  11.459  65.421  1.00  0.00    -0.289 A  
HETATM   26  C   UNL     1      -9.775   9.251  66.392  1.00  0.00    -0.325 A  
HETATM   27  C   UNL     1      -8.656  11.126  67.408  1.00  0.00    -0.137 A  
HETATM   28  C   UNL     1     -10.282  10.099  65.405  1.00  0.00    -0.281 A  
HETATM   29  C   UNL     1      -9.175  11.994  66.432  1.00  0.00    -0.216 A  
BRANCH  29  30
HETATM   30  C   UNL     1      -8.789  13.414  66.462  1.00  0.00     0.005 C  
HETATM   31  C   UNL     1      -8.090  13.998  67.452  1.00  0.00    -0.199 C  
BRANCH  31  32
HETATM   32  C   UNL     1      -7.720  15.416  67.511  1.00  0.00    -0.181 A  
HETATM   33  N   UNL     1      -7.207  15.815  68.700  1.00  0.00    -0.129 NA 
HETATM   34  C   UNL     1      -6.899  17.113  68.871  1.00  0.00    -0.221 A  
HETATM   35  C   UNL     1      -7.107  18.074  67.861  1.00  0.00    -0.216 A  
HETATM   36  C   UNL     1      -7.641  17.643  66.645  1.00  0.00    -0.273 A  
HETATM   37  C   UNL     1      -6.794  19.427  68.087  1.00  0.00    -0.301 A  
HETATM   38  C   UNL     1      -6.278  19.828  69.316  1.00  0.00    -0.347 A  
HETATM   39  C   UNL     1      -7.959  16.301  66.469  1.00  0.00    -0.326 A  
HETATM   40  C   UNL     1      -6.066  18.878  70.309  1.00  0.00    -0.083 A  
HETATM   41  C   UNL     1      -6.373  17.536  70.083  1.00  0.00     0.229 A  
HETATM   42 CL   UNL     1      -5.429  19.368  71.830  1.00  0.00    -0.373 Cl 
ENDBRANCH  31  32
ENDBRANCH  29  30
ENDBRANCH  10  24
ENDBRANCH   9  10
ENDBRANCH   8   9
ENDBRANCH   5   8
ENDBRANCH   3   5
TORSDOF 10
ENDMDL
MODEL      162
REMARK 921   NORMALIZED FREE ENERGY PREDICTED BY IDOCK:   -4.51 KCAL/MOL
REMARK 922        TOTAL FREE ENERGY PREDICTED BY IDOCK:   -8.81 KCAL/MOL
REMARK 923 INTER-LIGAND FREE ENERGY PREDICTED BY IDOCK:   -7.32 KCAL/MOL
REMARK 924 INTRA-LIGAND FREE ENERGY PREDICTED BY IDOCK:   -1.49 KCAL/MOL
REMARK 927      BINDING AFFINITY PREDICTED BY RF-SCORE:    0.00 PKD
ROOT
HETATM    1  O   UNL     1     -11.600  16.166  64.305  1.00  0.00    -0.526 OA 
HETATM    2  C   UNL     1     -11.781  15.339  65.366  1.00  0.00    -0.013 C  
HETATM    3  C   UNL     1     -11.393  15.980  66.683  1.00  0.00     0.263 C  
HETATM    4  O   UNL     1     -12.258  14.224  65.234  1.00  0.00    -0.395 OA 
ENDROOT
BRANCH   3   5
HETATM    5  C   UNL     1     -11.042  14.981  67.785  1.00  0.00    -0.312 C  
HETATM    6  C   UNL     1     -12.056  14.812  68.908  1.00  0.00    -0.240 C  
HETATM    7  C   UNL     1     -10.776  15.554  69.168  1.00  0.00    -0.250 C  
BRANCH   5   8
HETATM    8  C   UNL     1     -10.223  13.806  67.266  1.00  0.00    -0.253 C  
BRANCH   8   9
HETATM    9  S   UNL     1      -8.552  14.127  66.666  1.00  0.00     0.164 SA 
BRANCH   9  10
HETATM   10  C   UNL     1      -7.557  13.672  68.167  1.00  0.00    -0.137 C  
BRANCH  10  11
HETATM   11  C   UNL     1      -6.349  14.599  68.441  1.00  0.00    -0.100 C  
BRANCH  11  12
HETATM   12  C   UNL     1      -6.392  15.962  67.717  1.00  0.00    -0.172 C  
BRANCH  12  13
HETATM   13  C   UNL     1      -6.200  17.131  68.675  1.00  0.00    -0.159 A  
HETATM   14  C   UNL     1      -5.504  16.822  69.871  1.00  0.00    -0.194 A  
HETATM   15  C   UNL     1      -5.630  19.083  70.628  1.00  0.00    -0.210 A  
HETATM   16  H   UNL     1      -7.001  18.936  65.227  1.00  0.00     0.000 HD 
HETATM   17  C   UNL     1      -5.237  17.776  70.843  1.00  0.00    -0.258 A  
HETATM   18  C   UNL     1      -7.590  20.472  67.100  1.00  0.00    -0.372 C  
HETATM   19  C   UNL     1      -6.293  19.422  69.447  1.00  0.00    -0.349 A  
HETATM   20  C   UNL     1      -6.611  18.473  68.442  1.00  0.00    -0.235 A  
HETATM   21  O   UNL     1      -6.551  18.644  66.011  1.00  0.00    -0.206 OA 
HETATM   22  C   UNL     1      -8.713  18.280  66.991  1.00  0.00    -0.265 C  
HETATM   23  C   UNL     1      -7.341  18.947  67.169  1.00  0.00    -0.213 C  
ENDBRANCH  12  13
ENDBRANCH  11  12
ENDBRANCH  10  11
BRANCH  10  24
HETATM   24  C   UNL     1      -7.230  12.176  68.147  1.00  0.00    -0.096 A  
HETATM   25  C   UNL     1      -6.754   9.395  68.144  1.00  0.00    -0.059 A  
HETATM   26  C   UNL     1      -6.340  11.597  67.230  1.00  0.00    -0.118 A  
HETATM   27  C   UNL     1      -7.877  11.318  69.063  1.00  0.00    -0.079 A  
HETATM   28  C   UNL     1      -6.106  10.221  67.228  1.00  0.00    -0.054 A  
HETATM   29  C   UNL     1      -7.636   9.933  69.085  1.00  0.00    -0.090 A  
BRANCH  29  30
HETATM   30  C   UNL     1      -8.379   9.094  70.038  1.00  0.00    -0.156 C  
HETATM   31  C   UNL     1      -9.089   8.001  69.707  1.00  0.00    -0.149 C  
BRANCH  31  32
HETATM   32  C   UNL     1      -9.856   7.169  70.640  1.00  0.00    -0.182 A  
HETATM   33  N   UNL     1      -9.157   6.144  71.185  1.00  0.00    -0.146 NA 
HETATM   34  C   UNL     1      -9.794   5.286  72.003  1.00  0.00    -0.174 A  
HETATM   35  C   UNL     1     -11.167   5.409  72.298  1.00  0.00    -0.235 A  
HETATM   36  C   UNL     1     -11.870   6.470  71.722  1.00  0.00    -0.384 A  
HETATM   37  C   UNL     1     -11.803   4.478  73.140  1.00  0.00    -0.057 A  
HETATM   38  C   UNL     1     -11.079   3.422  73.685  1.00  0.00    -0.316 A  
HETATM   39  C   UNL     1     -11.210   7.355  70.878  1.00  0.00    -0.292 A  
HETATM   40  C   UNL     1      -9.722   3.307  73.400  1.00  0.00    -0.105 A  
HETATM   41  C   UNL     1      -9.092   4.232  72.568  1.00  0.00    -0.136 A  
HETATM   42 CL   UNL     1      -8.822   2.003  74.071  1.00  0.00    -0.062 Cl 
ENDBRANCH  31  32
ENDBRANCH  29  30
ENDBRANCH  10  24
ENDBRANCH   9  10
ENDBRANCH   8   9
ENDBRANCH   5   8
ENDBRANCH   3   5
TORSDOF 10
ENDMDL
MODEL      163
REMARK 921   NORMALIZED FREE ENERGY PREDICTED BY IDOCK:   -4.51 KCAL/MOL
REMARK 922        TOTAL FREE ENERGY PREDICTED BY IDOCK:   -8.80 KCAL/MOL
REMARK 923 INTER-LIGAND FREE ENERGY PREDICTED BY IDOCK:   -6.94 KCAL/MOL
REMARK 924 INTRA-LIGAND FREE ENERGY PREDICTED BY IDOCK:   -1.86 KCAL/MOL
REMARK 927      BINDING AFFINITY PREDICTED BY RF-SCORE:    0.00 PKD
ROOT
HETATM    1  O   UNL     1     -12.653  15.411  70.546  1.00  0.00    -0.394 OA 
HETATM    2  C   UNL     1     -11.523  15.441  69.794  1.00  0.00    -0.324 C  
HETATM    3  C   UNL     1     -11.707  16.189  68.489  1.00  0.00    -0.170 C  
HETATM    4  O   UNL     1     -10.478  14.950  70.188  1.00  0.00    -0.127 OA 
ENDROOT
BRANCH   3   5
HETATM    5  C   UNL     1     -10.714  15.793  67.396  1.00  0.00    -0.317 C  
HETATM    6  C   UNL     1      -9.308  16.369  67.505  1.00  0.00    -0.214 C  
HETATM    7  C   UNL     1     -10.250  16.899  66.461  1.00  0.00    -0.320 C  
BRANCH   5   8
HETATM    8  C   UNL     1     -10.962  14.386  66.866  1.00  0.00    -0.308 C  
BRANCH   8   9
HETATM    9  S   UNL     1      -9.555  13.452  66.232  1.00  0.00    -0.189 SA 
BRANCH   9  10
HETATM   10  C   UNL     1      -9.554  12.005  67.396  1.00  0.00    -0.176 C  
BRANCH  10  11
HETATM   11  C   UNL     1     -10.897  11.770  68.128  1.00  0.00    -0.258 C  
BRANCH  11  12
HETATM   12  C   UNL     1     -10.817  10.849  69.365  1.00  0.00    -0.286 C  
BRANCH  12  13
HETATM   13  C   UNL     1     -10.876   9.373  68.992  1.00  0.00    -0.161 A  
HETATM   14  C   UNL     1     -10.784   9.100  67.603  1.00  0.00    -0.257 A  
HETATM   15  C   UNL     1     -10.894   6.744  67.975  1.00  0.00    -0.306 A  
HETATM   16  H   UNL     1      -9.927   9.272  72.848  1.00  0.00     0.000 HD 
HETATM   17  C   UNL     1     -10.810   7.807  67.098  1.00  0.00    -0.227 A  
HETATM   18  C   UNL     1     -11.014   7.117  72.226  1.00  0.00    -0.277 C  
HETATM   19  C   UNL     1     -10.957   6.983  69.350  1.00  0.00    -0.232 A  
HETATM   20  C   UNL     1     -10.963   8.287  69.906  1.00  0.00    -0.166 A  
HETATM   21  O   UNL     1      -9.885   9.173  71.904  1.00  0.00    -0.289 OA 
HETATM   22  C   UNL     1     -12.286   9.203  71.898  1.00  0.00    -0.455 C  
HETATM   23  C   UNL     1     -11.030   8.448  71.438  1.00  0.00    -0.253 C  
ENDBRANCH  12  13
ENDBRANCH  11  12
ENDBRANCH  10  11
BRANCH  10  24
HETATM   24  C   UNL     1      -8.325  12.064  68.307  1.00  0.00    -0.163 A  
HETATM   25  C   UNL     1      -6.026  12.053  69.943  1.00  0.00    -0.149 A  
HETATM   26  C   UNL     1      -7.616  13.247  68.563  1.00  0.00    -0.128 A  
HETATM   27  C   UNL     1      -7.846  10.873  68.894  1.00  0.00    -0.142 A  
HETATM   28  C   UNL     1      -6.477  13.241  69.372  1.00  0.00    -0.097 A  
HETATM   29  C   UNL     1      -6.713  10.855  69.726  1.00  0.00    -0.144 A  
BRANCH  29  30
HETATM   30  C   UNL     1      -6.245   9.570  70.268  1.00  0.00    -0.061 C  
HETATM   31  C   UNL     1      -6.668   9.025  71.423  1.00  0.00    -0.076 C  
BRANCH  31  32
HETATM   32  C   UNL     1      -6.194   7.759  71.991  1.00  0.00    -0.040 A  
HETATM   33  N   UNL     1      -6.428   6.672  71.217  1.00  0.00    -0.048 NA 
HETATM   34  C   UNL     1      -6.088   5.457  71.684  1.00  0.00    -0.029 A  
HETATM   35  C   UNL     1      -5.511   5.276  72.957  1.00  0.00    -0.021 A  
HETATM   36  C   UNL     1      -5.283   6.408  73.742  1.00  0.00    -0.041 A  
HETATM   37  C   UNL     1      -5.191   3.986  73.419  1.00  0.00     0.000 A  
HETATM   38  C   UNL     1      -5.447   2.875  72.621  1.00  0.00     0.000 A  
HETATM   39  C   UNL     1      -5.634   7.663  73.258  1.00  0.00    -0.044 A  
HETATM   40  C   UNL     1      -6.008   3.056  71.361  1.00  0.00    -0.014 A  
HETATM   41  C   UNL     1      -6.322   4.335  70.902  1.00  0.00    -0.018 A  
HETATM   42 CL   UNL     1      -6.327   1.686  70.369  1.00  0.00    -0.023 Cl 
ENDBRANCH  31  32
ENDBRANCH  29  30
ENDBRANCH  10  24
ENDBRANCH   9  10
ENDBRANCH   8   9
ENDBRANCH   5   8
ENDBRANCH   3   5
TORSDOF 10
ENDMDL
MODEL      164
REMARK 921   NORMALIZED FREE ENERGY PREDICTED BY IDOCK:   -4.50 KCAL/MOL
REMARK 922        TOTAL FREE ENERGY PREDICTED BY IDOCK:   -8.78 KCAL/MOL
REMARK 923 INTER-LIGAND FREE ENERGY PREDICTED BY IDOCK:   -7.15 KCAL/MOL
REMARK 924 INTRA-LIGAND FREE ENERGY PREDICTED BY IDOCK:   -1.63 KCAL/MOL
REMARK 927      BINDING AFFINITY PREDICTED BY RF-SCORE:    0.00 PKD
ROOT
HETATM    1  O   UNL     1      -9.763   3.551  70.877  1.00  0.00    -0.170 OA 
HETATM    2  C   UNL     1      -9.526   4.790  71.381  1.00  0.00    -0.154 C  
HETATM    3  C   UNL     1     -10.794   5.599  71.567  1.00  0.00    -0.297 C  
HETATM    4  O   UNL     1      -8.402   5.153  71.687  1.00  0.00    -0.113 OA 
ENDROOT
BRANCH   3   5
HETATM    5  C   UNL     1     -10.574   7.111  71.581  1.00  0.00    -0.229 C  
HETATM    6  C   UNL     1      -9.605   7.655  72.623  1.00  0.00    -0.235 C  
HETATM    7  C   UNL     1     -11.082   7.865  72.799  1.00  0.00    -0.462 C  
BRANCH   5   8
HETATM    8  C   UNL     1     -10.680   7.728  70.192  1.00  0.00    -0.240 C  
BRANCH   8   9
HETATM    9  S   UNL     1     -10.866   6.622  68.778  1.00  0.00    -0.259 SA 
BRANCH   9  10
HETATM   10  C   UNL     1      -9.168   6.731  68.034  1.00  0.00    -0.117 C  
BRANCH  10  11
HETATM   11  C   UNL     1      -8.389   5.393  68.016  1.00  0.00    -0.098 C  
BRANCH  11  12
HETATM   12  C   UNL     1      -7.398   5.228  66.843  1.00  0.00    -0.086 C  
BRANCH  12  13
HETATM   13  C   UNL     1      -8.076   4.712  65.581  1.00  0.00    -0.107 A  
HETATM   14  C   UNL     1      -8.797   3.501  65.737  1.00  0.00    -0.127 A  
HETATM   15  C   UNL     1      -9.492   3.523  63.453  1.00  0.00    -0.113 A  
HETATM   16  H   UNL     1      -7.417   8.536  64.729  1.00  0.00     0.000 HD 
HETATM   17  C   UNL     1      -9.481   2.903  64.687  1.00  0.00    -0.149 A  
HETATM   18  C   UNL     1      -7.602   7.255  62.600  1.00  0.00    -0.110 C  
HETATM   19  C   UNL     1      -8.814   4.731  63.277  1.00  0.00    -0.112 A  
HETATM   20  C   UNL     1      -8.079   5.360  64.315  1.00  0.00    -0.123 A  
HETATM   21  O   UNL     1      -7.856   7.713  64.909  1.00  0.00    -0.113 OA 
HETATM   22  C   UNL     1      -5.844   6.607  64.203  1.00  0.00    -0.031 C  
HETATM   23  C   UNL     1      -7.367   6.697  64.023  1.00  0.00    -0.078 C  
ENDBRANCH  12  13
ENDBRANCH  11  12
ENDBRANCH  10  11
BRANCH  10  24
HETATM   24  C   UNL     1      -8.404   7.913  68.637  1.00  0.00    -0.128 A  
HETATM   25  C   UNL     1      -7.104  10.166  69.729  1.00  0.00    -0.127 A  
HETATM   26  C   UNL     1      -7.486   7.776  69.689  1.00  0.00    -0.090 A  
HETATM   27  C   UNL     1      -8.653   9.214  68.149  1.00  0.00    -0.129 A  
HETATM   28  C   UNL     1      -6.844   8.892  70.231  1.00  0.00    -0.045 A  
HETATM   29  C   UNL     1      -8.000  10.343  68.671  1.00  0.00    -0.115 A  
BRANCH  29  30
HETATM   30  C   UNL     1      -8.341  11.673  68.143  1.00  0.00    -0.154 C  
HETATM   31  C   UNL     1      -7.560  12.764  68.247  1.00  0.00    -0.134 C  
BRANCH  31  32
HETATM   32  C   UNL     1      -7.896  14.102  67.750  1.00  0.00    -0.170 A  
HETATM   33  N   UNL     1      -7.325  15.119  68.441  1.00  0.00    -0.110 NA 
HETATM   34  C   UNL     1      -7.627  16.385  68.100  1.00  0.00    -0.155 A  
HETATM   35  C   UNL     1      -8.529  16.688  67.059  1.00  0.00    -0.225 A  
HETATM   36  C   UNL     1      -9.109  15.626  66.363  1.00  0.00    -0.355 A  
HETATM   37  C   UNL     1      -8.836  18.025  66.748  1.00  0.00    -0.274 A  
HETATM   38  C   UNL     1      -8.254  19.062  67.472  1.00  0.00    -0.301 A  
HETATM   39  C   UNL     1      -8.796  14.318  66.716  1.00  0.00    -0.207 A  
HETATM   40  C   UNL     1      -7.358  18.761  68.492  1.00  0.00    -0.297 A  
HETATM   41  C   UNL     1      -7.051  17.435  68.798  1.00  0.00    -0.246 A  
HETATM   42 CL   UNL     1      -6.635  20.038  69.391  1.00  0.00    -0.366 Cl 
ENDBRANCH  31  32
ENDBRANCH  29  30
ENDBRANCH  10  24
ENDBRANCH   9  10
ENDBRANCH   8   9
ENDBRANCH   5   8
ENDBRANCH   3   5
TORSDOF 10
ENDMDL
MODEL      165
REMARK 921   NORMALIZED FREE ENERGY PREDICTED BY IDOCK:   -4.46 KCAL/MOL
REMARK 922        TOTAL FREE ENERGY PREDICTED BY IDOCK:   -8.73 KCAL/MOL
REMARK 923 INTER-LIGAND FREE ENERGY PREDICTED BY IDOCK:   -7.79 KCAL/MOL
REMARK 924 INTRA-LIGAND FREE ENERGY PREDICTED BY IDOCK:   -0.94 KCAL/MOL
REMARK 927      BINDING AFFINITY PREDICTED BY RF-SCORE:    0.00 PKD
ROOT
HETATM    1  O   UNL     1     -13.379   7.832  71.033  1.00  0.00    -0.130 OA 
HETATM    2  C   UNL     1     -12.066   7.692  71.347  1.00  0.00    -0.316 C  
HETATM    3  C   UNL     1     -11.163   8.561  70.495  1.00  0.00    -0.262 C  
HETATM    4  O   UNL     1     -11.699   6.971  72.261  1.00  0.00    -0.275 OA 
ENDROOT
BRANCH   3   5
HETATM    5  C   UNL     1      -9.722   8.059  70.398  1.00  0.00    -0.178 C  
HETATM    6  C   UNL     1      -8.978   7.850  71.710  1.00  0.00    -0.172 C  
HETATM    7  C   UNL     1      -8.632   9.023  70.837  1.00  0.00    -0.263 C  
BRANCH   5   8
HETATM    8  C   UNL     1      -9.505   7.140  69.202  1.00  0.00    -0.147 C  
BRANCH   8   9
HETATM    9  S   UNL     1     -10.319   7.556  67.646  1.00  0.00    -0.242 SA 
BRANCH   9  10
HETATM   10  C   UNL     1      -8.985   7.108  66.433  1.00  0.00    -0.155 C  
BRANCH  10  11
HETATM   11  C   UNL     1      -7.657   6.648  67.081  1.00  0.00    -0.096 C  
BRANCH  11  12
HETATM   12  C   UNL     1      -7.052   5.357  66.490  1.00  0.00    -0.069 C  
BRANCH  12  13
HETATM   13  C   UNL     1      -8.087   4.519  65.751  1.00  0.00    -0.102 A  
HETATM   14  C   UNL     1      -8.351   4.925  64.418  1.00  0.00    -0.133 A  
HETATM   15  C   UNL     1      -9.907   3.143  64.094  1.00  0.00    -0.163 A  
HETATM   16  H   UNL     1      -6.996   2.141  68.742  1.00  0.00     0.000 HD 
HETATM   17  C   UNL     1      -9.260   4.260  63.605  1.00  0.00    -0.138 A  
HETATM   18  C   UNL     1      -9.276   1.485  67.977  1.00  0.00    -0.209 C  
HETATM   19  C   UNL     1      -9.646   2.703  65.394  1.00  0.00     0.109 A  
HETATM   20  C   UNL     1      -8.747   3.369  66.267  1.00  0.00    -0.126 A  
HETATM   21  O   UNL     1      -7.135   2.490  67.869  1.00  0.00    -0.047 OA 
HETATM   22  C   UNL     1      -8.935   3.788  68.787  1.00  0.00    -0.177 C  
HETATM   23  C   UNL     1      -8.522   2.803  67.684  1.00  0.00    -0.088 C  
ENDBRANCH  12  13
ENDBRANCH  11  12
ENDBRANCH  10  11
BRANCH  10  24
HETATM   24  C   UNL     1      -8.841   8.210  65.380  1.00  0.00    -0.086 A  
HETATM   25  C   UNL     1      -8.549  10.327  63.538  1.00  0.00    -0.195 A  
HETATM   26  C   UNL     1      -8.279   7.992  64.113  1.00  0.00    -0.060 A  
HETATM   27  C   UNL     1      -9.251   9.523  65.698  1.00  0.00    -0.281 A  
HETATM   28  C   UNL     1      -8.134   9.040  63.202  1.00  0.00    -0.169 A  
HETATM   29  C   UNL     1      -9.128  10.584  64.784  1.00  0.00    -0.242 A  
BRANCH  29  30
HETATM   30  C   UNL     1      -9.537  11.935  65.199  1.00  0.00    -0.132 C  
HETATM   31  C   UNL     1      -9.556  12.374  66.471  1.00  0.00    -0.242 C  
BRANCH  31  32
HETATM   32  C   UNL     1      -9.984  13.708  66.905  1.00  0.00    -0.260 A  
HETATM   33  N   UNL     1      -8.970  14.571  67.156  1.00  0.00    -0.219 NA 
HETATM   34  C   UNL     1      -9.263  15.798  67.623  1.00  0.00    -0.200 A  
HETATM   35  C   UNL     1     -10.588  16.210  67.875  1.00  0.00    -0.309 A  
HETATM   36  C   UNL     1     -11.618  15.303  67.614  1.00  0.00    -0.249 A  
HETATM   37  C   UNL     1     -10.852  17.494  68.385  1.00  0.00    -0.190 A  
HETATM   38  C   UNL     1      -9.802  18.369  68.650  1.00  0.00    -0.403 A  
HETATM   39  C   UNL     1     -11.314  14.035  67.132  1.00  0.00    -0.348 A  
HETATM   40  C   UNL     1      -8.497  17.964  68.393  1.00  0.00    -0.297 A  
HETATM   41  C   UNL     1      -8.236  16.692  67.883  1.00  0.00    -0.183 A  
HETATM   42 CL   UNL     1      -7.195  19.041  68.719  1.00  0.00    -0.345 Cl 
ENDBRANCH  31  32
ENDBRANCH  29  30
ENDBRANCH  10  24
ENDBRANCH   9  10
ENDBRANCH   8   9
ENDBRANCH   5   8
ENDBRANCH   3   5
TORSDOF 10
ENDMDL
MODEL      166
REMARK 921   NORMALIZED FREE ENERGY PREDICTED BY IDOCK:   -4.44 KCAL/MOL
REMARK 922        TOTAL FREE ENERGY PREDICTED BY IDOCK:   -8.68 KCAL/MOL
REMARK 923 INTER-LIGAND FREE ENERGY PREDICTED BY IDOCK:   -8.73 KCAL/MOL
REMARK 924 INTRA-LIGAND FREE ENERGY PREDICTED BY IDOCK:    0.04 KCAL/MOL
REMARK 927      BINDING AFFINITY PREDICTED BY RF-SCORE:    0.00 PKD
ROOT
HETATM    1  O   UNL     1     -12.390  11.586  68.723  1.00  0.00    -0.425 OA 
HETATM    2  C   UNL     1     -12.406  11.092  69.987  1.00  0.00    -0.305 C  
HETATM    3  C   UNL     1     -11.764   9.723  70.090  1.00  0.00    -0.190 C  
HETATM    4  O   UNL     1     -12.852  11.737  70.922  1.00  0.00    -0.263 OA 
ENDROOT
BRANCH   3   5
HETATM    5  C   UNL     1     -12.231   8.901  71.291  1.00  0.00    -0.351 C  
HETATM    6  C   UNL     1     -13.731   8.861  71.553  1.00  0.00    -0.394 C  
HETATM    7  C   UNL     1     -12.840   9.672  72.451  1.00  0.00    -0.315 C  
BRANCH   5   8
HETATM    8  C   UNL     1     -11.343   7.691  71.550  1.00  0.00    -0.255 C  
BRANCH   8   9
HETATM    9  S   UNL     1     -11.303   6.380  70.311  1.00  0.00    -0.400 SA 
BRANCH   9  10
HETATM   10  C   UNL     1      -9.615   6.647  69.584  1.00  0.00    -0.151 C  
BRANCH  10  11
HETATM   11  C   UNL     1      -8.486   6.813  70.629  1.00  0.00    -0.137 C  
BRANCH  11  12
HETATM   12  C   UNL     1      -8.587   5.881  71.856  1.00  0.00    -0.137 C  
BRANCH  12  13
HETATM   13  C   UNL     1      -8.643   4.411  71.463  1.00  0.00    -0.128 A  
HETATM   14  C   UNL     1      -8.110   4.110  70.183  1.00  0.00    -0.061 A  
HETATM   15  C   UNL     1      -8.542   1.778  70.460  1.00  0.00    -0.093 A  
HETATM   16  H   UNL     1      -9.068   4.284  75.411  1.00  0.00     0.000 HD 
HETATM   17  C   UNL     1      -8.076   2.816  69.679  1.00  0.00    -0.056 A  
HETATM   18  C   UNL     1     -10.062   2.223  74.424  1.00  0.00    -0.162 C  
HETATM   19  C   UNL     1      -9.047   2.041  71.735  1.00  0.00    -0.140 A  
HETATM   20  C   UNL     1      -9.127   3.350  72.277  1.00  0.00    -0.144 A  
HETATM   21  O   UNL     1      -8.717   4.169  74.535  1.00  0.00    -0.094 OA 
HETATM   22  C   UNL     1     -10.963   4.406  73.718  1.00  0.00    -0.357 C  
HETATM   23  C   UNL     1      -9.696   3.538  73.698  1.00  0.00    -0.107 C  
ENDBRANCH  12  13
ENDBRANCH  11  12
ENDBRANCH  10  11
BRANCH  10  24
HETATM   24  C   UNL     1      -9.671   7.743  68.516  1.00  0.00    -0.165 A  
HETATM   25  C   UNL     1      -9.655   9.807  66.592  1.00  0.00    -0.239 A  
HETATM   26  C   UNL     1     -10.222   7.545  67.241  1.00  0.00    -0.337 A  
HETATM   27  C   UNL     1      -9.108   9.007  68.798  1.00  0.00    -0.137 A  
HETATM   28  C   UNL     1     -10.213   8.566  66.289  1.00  0.00    -0.065 A  
HETATM   29  C   UNL     1      -9.110  10.050  67.855  1.00  0.00    -0.135 A  
BRANCH  29  30
HETATM   30  C   UNL     1      -8.467  11.327  68.203  1.00  0.00    -0.145 C  
HETATM   31  C   UNL     1      -9.061  12.532  68.122  1.00  0.00    -0.204 C  
BRANCH  31  32
HETATM   32  C   UNL     1      -8.427  13.816  68.439  1.00  0.00    -0.154 A  
HETATM   33  N   UNL     1      -9.186  14.903  68.157  1.00  0.00    -0.181 NA 
HETATM   34  C   UNL     1      -8.664  16.127  68.352  1.00  0.00    -0.190 A  
HETATM   35  C   UNL     1      -7.349  16.317  68.825  1.00  0.00    -0.191 A  
HETATM   36  C   UNL     1      -6.582  15.184  69.105  1.00  0.00    -0.128 A  
HETATM   37  C   UNL     1      -6.832  17.614  68.994  1.00  0.00    -0.240 A  
HETATM   38  C   UNL     1      -7.615  18.723  68.691  1.00  0.00    -0.357 A  
HETATM   39  C   UNL     1      -7.123  13.919  68.903  1.00  0.00    -0.110 A  
HETATM   40  C   UNL     1      -8.915  18.535  68.233  1.00  0.00    -0.310 A  
HETATM   41  C   UNL     1      -9.429  17.249  68.069  1.00  0.00    -0.271 A  
HETATM   42 CL   UNL     1      -9.889  19.903  67.855  1.00  0.00    -0.502 Cl 
ENDBRANCH  31  32
ENDBRANCH  29  30
ENDBRANCH  10  24
ENDBRANCH   9  10
ENDBRANCH   8   9
ENDBRANCH   5   8
ENDBRANCH   3   5
TORSDOF 10
ENDMDL
MODEL      167
REMARK 921   NORMALIZED FREE ENERGY PREDICTED BY IDOCK:   -4.41 KCAL/MOL
REMARK 922        TOTAL FREE ENERGY PREDICTED BY IDOCK:   -8.64 KCAL/MOL
REMARK 923 INTER-LIGAND FREE ENERGY PREDICTED BY IDOCK:   -7.77 KCAL/MOL
REMARK 924 INTRA-LIGAND FREE ENERGY PREDICTED BY IDOCK:   -0.87 KCAL/MOL
REMARK 927      BINDING AFFINITY PREDICTED BY RF-SCORE:    0.00 PKD
ROOT
HETATM    1  O   UNL     1      -9.318   8.680  66.625  1.00  0.00    -0.165 OA 
HETATM    2  C   UNL     1      -8.425   9.697  66.533  1.00  0.00    -0.123 C  
HETATM    3  C   UNL     1      -8.069  10.289  67.883  1.00  0.00    -0.102 C  
HETATM    4  O   UNL     1      -7.944  10.033  65.463  1.00  0.00    -0.127 OA 
ENDROOT
BRANCH   3   5
HETATM    5  C   UNL     1      -7.549  11.725  67.818  1.00  0.00    -0.127 C  
HETATM    6  C   UNL     1      -6.355  11.983  66.910  1.00  0.00    -0.066 C  
HETATM    7  C   UNL     1      -6.168  11.978  68.400  1.00  0.00    -0.051 C  
BRANCH   5   8
HETATM    8  C   UNL     1      -8.660  12.754  67.988  1.00  0.00    -0.186 C  
BRANCH   8   9
HETATM    9  S   UNL     1      -9.748  13.077  66.586  1.00  0.00    -0.260 SA 
BRANCH   9  10
HETATM   10  C   UNL     1     -11.268  13.682  67.465  1.00  0.00    -0.294 C  
BRANCH  10  11
HETATM   11  C   UNL     1     -11.273  15.201  67.764  1.00  0.00    -0.327 C  
BRANCH  11  12
HETATM   12  C   UNL     1      -9.954  15.760  68.340  1.00  0.00    -0.217 C  
BRANCH  12  13
HETATM   13  C   UNL     1      -9.772  17.241  68.034  1.00  0.00    -0.277 A  
HETATM   14  C   UNL     1     -10.966  18.007  68.032  1.00  0.00    -0.042 A  
HETATM   15  C   UNL     1      -9.773  20.021  67.563  1.00  0.00    -0.539 A  
HETATM   16  H   UNL     1      -6.116  16.102  69.092  1.00  0.00     0.000 HD 
HETATM   17  C   UNL     1     -10.972  19.373  67.782  1.00  0.00    -0.281 A  
HETATM   18  C   UNL     1      -5.946  18.131  67.655  1.00  0.00    -0.162 C  
HETATM   19  C   UNL     1      -8.578  19.297  67.587  1.00  0.00    -0.332 A  
HETATM   20  C   UNL     1      -8.530  17.897  67.809  1.00  0.00    -0.242 A  
HETATM   21  O   UNL     1      -6.959  16.538  69.084  1.00  0.00    -0.203 OA 
HETATM   22  C   UNL     1      -7.034  16.126  66.719  1.00  0.00    -0.107 C  
HETATM   23  C   UNL     1      -7.160  17.188  67.822  1.00  0.00    -0.153 C  
ENDBRANCH  12  13
ENDBRANCH  11  12
ENDBRANCH  10  11
BRANCH  10  24
HETATM   24  C   UNL     1     -11.570  12.787  68.670  1.00  0.00    -0.352 A  
HETATM   25  C   UNL     1     -12.004  11.089  70.880  1.00  0.00    -0.391 A  
HETATM   26  C   UNL     1     -12.373  13.195  69.746  1.00  0.00    -0.164 A  
HETATM   27  C   UNL     1     -10.989  11.503  68.735  1.00  0.00    -0.271 A  
HETATM   28  C   UNL     1     -12.586  12.355  70.840  1.00  0.00    -0.337 A  
HETATM   29  C   UNL     1     -11.211  10.639  69.822  1.00  0.00    -0.363 A  
BRANCH  29  30
HETATM   30  C   UNL     1     -10.538   9.331  69.843  1.00  0.00    -0.246 C  
HETATM   31  C   UNL     1      -9.827   8.850  70.879  1.00  0.00    -0.304 C  
BRANCH  31  32
HETATM   32  C   UNL     1      -9.128   7.561  70.907  1.00  0.00    -0.153 A  
HETATM   33  N   UNL     1      -8.441   7.269  69.777  1.00  0.00    -0.135 NA 
HETATM   34  C   UNL     1      -7.822   6.078  69.683  1.00  0.00    -0.102 A  
HETATM   35  C   UNL     1      -7.877   5.119  70.715  1.00  0.00    -0.088 A  
HETATM   36  C   UNL     1      -8.594   5.439  71.870  1.00  0.00    -0.131 A  
HETATM   37  C   UNL     1      -7.235   3.876  70.570  1.00  0.00    -0.041 A  
HETATM   38  C   UNL     1      -6.543   3.580  69.400  1.00  0.00    -0.034 A  
HETATM   39  C   UNL     1      -9.234   6.670  71.966  1.00  0.00    -0.142 A  
HETATM   40  C   UNL     1      -6.482   4.530  68.386  1.00  0.00    -0.038 A  
HETATM   41  C   UNL     1      -7.115   5.765  68.532  1.00  0.00    -0.077 A  
HETATM   42 CL   UNL     1      -5.627   4.171  66.936  1.00  0.00    -0.017 Cl 
ENDBRANCH  31  32
ENDBRANCH  29  30
ENDBRANCH  10  24
ENDBRANCH   9  10
ENDBRANCH   8   9
ENDBRANCH   5   8
ENDBRANCH   3   5
TORSDOF 10
ENDMDL
MODEL      168
REMARK 921   NORMALIZED FREE ENERGY PREDICTED BY IDOCK:   -4.34 KCAL/MOL
REMARK 922        TOTAL FREE ENERGY PREDICTED BY IDOCK:   -8.54 KCAL/MOL
REMARK 923 INTER-LIGAND FREE ENERGY PREDICTED BY IDOCK:   -7.83 KCAL/MOL
REMARK 924 INTRA-LIGAND FREE ENERGY PREDICTED BY IDOCK:   -0.71 KCAL/MOL
REMARK 927      BINDING AFFINITY PREDICTED BY RF-SCORE:    0.00 PKD
ROOT
HETATM    1  O   UNL     1     -13.916   9.994  70.533  1.00  0.00     0.232 OA 
HETATM    2  C   UNL     1     -13.218   9.354  71.506  1.00  0.00    -0.384 C  
HETATM    3  C   UNL     1     -11.777   9.090  71.117  1.00  0.00    -0.366 C  
HETATM    4  O   UNL     1     -13.721   9.086  72.585  1.00  0.00    -0.470 OA 
ENDROOT
BRANCH   3   5
HETATM    5  C   UNL     1     -11.126   7.934  71.875  1.00  0.00    -0.317 C  
HETATM    6  C   UNL     1     -11.535   6.526  71.464  1.00  0.00    -0.351 C  
HETATM    7  C   UNL     1     -12.037   7.098  72.760  1.00  0.00     0.185 C  
BRANCH   5   8
HETATM    8  C   UNL     1      -9.704   8.255  72.317  1.00  0.00    -0.292 C  
BRANCH   8   9
HETATM    9  S   UNL     1      -8.383   8.143  71.093  1.00  0.00    -0.130 SA 
BRANCH   9  10
HETATM   10  C   UNL     1      -8.700   6.447  70.404  1.00  0.00    -0.147 C  
BRANCH  10  11
HETATM   11  C   UNL     1      -7.438   5.560  70.277  1.00  0.00    -0.076 C  
BRANCH  11  12
HETATM   12  C   UNL     1      -6.331   6.123  69.360  1.00  0.00    -0.041 C  
BRANCH  12  13
HETATM   13  C   UNL     1      -6.608   5.852  67.886  1.00  0.00    -0.052 A  
HETATM   14  C   UNL     1      -6.807   4.488  67.552  1.00  0.00    -0.059 A  
HETATM   15  C   UNL     1      -7.199   5.021  65.258  1.00  0.00    -0.067 A  
HETATM   16  H   UNL     1      -7.419   9.725  68.240  1.00  0.00     0.000 HD 
HETATM   17  C   UNL     1      -7.080   4.074  66.256  1.00  0.00    -0.064 A  
HETATM   18  C   UNL     1      -6.849   9.232  65.865  1.00  0.00    -0.088 C  
HETATM   19  C   UNL     1      -7.036   6.374  65.564  1.00  0.00    -0.053 A  
HETATM   20  C   UNL     1      -6.727   6.838  66.868  1.00  0.00    -0.056 A  
HETATM   21  O   UNL     1      -7.515   8.792  68.094  1.00  0.00    -0.090 OA 
HETATM   22  C   UNL     1      -5.166   8.734  67.595  1.00  0.00    -0.034 C  
HETATM   23  C   UNL     1      -6.572   8.354  67.106  1.00  0.00    -0.058 C  
ENDBRANCH  12  13
ENDBRANCH  11  12
ENDBRANCH  10  11
BRANCH  10  24
HETATM   24  C   UNL     1      -9.548   6.546  69.133  1.00  0.00    -0.137 A  
HETATM   25  C   UNL     1     -11.027   6.823  66.746  1.00  0.00    -0.248 A  
HETATM   26  C   UNL     1     -10.172   5.439  68.538  1.00  0.00    -0.237 A  
HETATM   27  C   UNL     1      -9.686   7.798  68.494  1.00  0.00    -0.165 A  
HETATM   28  C   UNL     1     -10.903   5.576  67.356  1.00  0.00    -0.118 A  
HETATM   29  C   UNL     1     -10.434   7.953  67.314  1.00  0.00    -0.390 A  
BRANCH  29  30
HETATM   30  C   UNL     1     -10.499   9.279  66.679  1.00  0.00    -0.237 C  
HETATM   31  C   UNL     1     -10.756  10.429  67.329  1.00  0.00    -0.331 C  
BRANCH  31  32
HETATM   32  C   UNL     1     -10.850  11.755  66.708  1.00  0.00    -0.270 A  
HETATM   33  N   UNL     1      -9.923  12.644  67.139  1.00  0.00    -0.215 NA 
HETATM   34  C   UNL     1      -9.970  13.907  66.676  1.00  0.00    -0.279 A  
HETATM   35  C   UNL     1     -10.961  14.338  65.770  1.00  0.00    -0.305 A  
HETATM   36  C   UNL     1     -11.910  13.407  65.343  1.00  0.00    -0.381 A  
HETATM   37  C   UNL     1     -10.991  15.672  65.327  1.00  0.00    -0.375 A  
HETATM   38  C   UNL     1     -10.041  16.581  65.784  1.00  0.00    -0.328 A  
HETATM   39  C   UNL     1     -11.860  12.103  65.823  1.00  0.00    -0.342 A  
HETATM   40  C   UNL     1      -9.059  16.152  66.671  1.00  0.00    -0.252 A  
HETATM   41  C   UNL     1      -9.028  14.828  67.107  1.00  0.00    -0.239 A  
HETATM   42 CL   UNL     1      -7.882  17.271  67.240  1.00  0.00    -0.202 Cl 
ENDBRANCH  31  32
ENDBRANCH  29  30
ENDBRANCH  10  24
ENDBRANCH   9  10
ENDBRANCH   8   9
ENDBRANCH   5   8
ENDBRANCH   3   5
TORSDOF 10
ENDMDL
MODEL      169
REMARK 921   NORMALIZED FREE ENERGY PREDICTED BY IDOCK:   -4.25 KCAL/MOL
REMARK 922        TOTAL FREE ENERGY PREDICTED BY IDOCK:   -8.39 KCAL/MOL
REMARK 923 INTER-LIGAND FREE ENERGY PREDICTED BY IDOCK:   -6.45 KCAL/MOL
REMARK 924 INTRA-LIGAND FREE ENERGY PREDICTED BY IDOCK:   -1.94 KCAL/MOL
REMARK 927      BINDING AFFINITY PREDICTED BY RF-SCORE:    0.00 PKD
ROOT
HETATM    1  O   UNL     1     -11.209   7.173  68.327  1.00  0.00     0.002 OA 
HETATM    2  C   UNL     1     -10.269   7.195  67.349  1.00  0.00    -0.226 C  
HETATM    3  C   UNL     1      -8.985   7.873  67.785  1.00  0.00    -0.128 C  
HETATM    4  O   UNL     1     -10.458   6.666  66.266  1.00  0.00     0.030 OA 
ENDROOT
BRANCH   3   5
HETATM    5  C   UNL     1      -8.144   8.419  66.632  1.00  0.00    -0.101 C  
HETATM    6  C   UNL     1      -7.771   7.438  65.528  1.00  0.00    -0.107 C  
HETATM    7  C   UNL     1      -6.725   7.887  66.508  1.00  0.00    -0.058 C  
BRANCH   5   8
HETATM    8  C   UNL     1      -8.449   9.881  66.330  1.00  0.00    -0.128 C  
BRANCH   8   9
HETATM    9  S   UNL     1      -7.159  11.104  66.636  1.00  0.00    -0.124 SA 
BRANCH   9  10
HETATM   10  C   UNL     1      -7.748  11.826  68.243  1.00  0.00    -0.130 C  
BRANCH  10  11
HETATM   11  C   UNL     1      -7.983  13.355  68.210  1.00  0.00    -0.147 C  
BRANCH  11  12
HETATM   12  C   UNL     1      -9.453  13.796  68.388  1.00  0.00    -0.198 C  
BRANCH  12  13
HETATM   13  C   UNL     1      -9.985  14.537  67.169  1.00  0.00    -0.252 A  
HETATM   14  C   UNL     1     -10.304  13.716  66.057  1.00  0.00    -0.305 A  
HETATM   15  C   UNL     1     -11.048  15.591  64.779  1.00  0.00    -0.421 A  
HETATM   16  H   UNL     1     -10.536  17.156  70.105  1.00  0.00     0.000 HD 
HETATM   17  C   UNL     1     -10.810  14.235  64.872  1.00  0.00    -0.429 A  
HETATM   18  C   UNL     1     -10.397  18.385  67.941  1.00  0.00    -0.425 C  
HETATM   19  C   UNL     1     -10.770  16.420  65.869  1.00  0.00    -0.219 A  
HETATM   20  C   UNL     1     -10.225  15.937  67.086  1.00  0.00    -0.278 A  
HETATM   21  O   UNL     1     -10.700  16.543  69.398  1.00  0.00    -0.299 OA 
HETATM   22  C   UNL     1      -8.474  17.001  68.623  1.00  0.00    -0.262 C  
HETATM   23  C   UNL     1      -9.958  16.931  68.234  1.00  0.00    -0.282 C  
ENDBRANCH  12  13
ENDBRANCH  11  12
ENDBRANCH  10  11
BRANCH  10  24
HETATM   24  C   UNL     1      -6.866  11.334  69.394  1.00  0.00    -0.121 A  
HETATM   25  C   UNL     1      -5.233  10.311  71.455  1.00  0.00    -0.080 A  
HETATM   26  C   UNL     1      -5.941  12.155  70.057  1.00  0.00    -0.156 A  
HETATM   27  C   UNL     1      -6.947   9.983  69.794  1.00  0.00    -0.107 A  
HETATM   28  C   UNL     1      -5.132  11.648  71.076  1.00  0.00    -0.128 A  
HETATM   29  C   UNL     1      -6.153   9.464  70.831  1.00  0.00    -0.069 A  
BRANCH  29  30
HETATM   30  C   UNL     1      -6.260   8.035  71.165  1.00  0.00    -0.034 C  
HETATM   31  C   UNL     1      -7.078   7.162  70.549  1.00  0.00    -0.063 C  
BRANCH  31  32
HETATM   32  C   UNL     1      -7.217   5.741  70.886  1.00  0.00    -0.080 A  
HETATM   33  N   UNL     1      -8.414   5.405  71.423  1.00  0.00    -0.125 NA 
HETATM   34  C   UNL     1      -8.611   4.136  71.826  1.00  0.00    -0.104 A  
HETATM   35  C   UNL     1      -7.609   3.150  71.722  1.00  0.00    -0.052 A  
HETATM   36  C   UNL     1      -6.380   3.519  71.169  1.00  0.00    -0.019 A  
HETATM   37  C   UNL     1      -7.846   1.840  72.175  1.00  0.00    -0.045 A  
HETATM   38  C   UNL     1      -9.076   1.508  72.737  1.00  0.00    -0.079 A  
HETATM   39  C   UNL     1      -6.178   4.830  70.754  1.00  0.00    -0.019 A  
HETATM   40  C   UNL     1     -10.066   2.479  72.831  1.00  0.00    -0.137 A  
HETATM   41  C   UNL     1      -9.832   3.777  72.378  1.00  0.00    -0.223 A  
HETATM   42 CL   UNL     1     -11.588   2.074  73.525  1.00  0.00    -0.320 Cl 
ENDBRANCH  31  32
ENDBRANCH  29  30
ENDBRANCH  10  24
ENDBRANCH   9  10
ENDBRANCH   8   9
ENDBRANCH   5   8
ENDBRANCH   3   5
TORSDOF 10
ENDMDL
MODEL      170
REMARK 921   NORMALIZED FREE ENERGY PREDICTED BY IDOCK:   -4.23 KCAL/MOL
REMARK 922        TOTAL FREE ENERGY PREDICTED BY IDOCK:   -8.36 KCAL/MOL
REMARK 923 INTER-LIGAND FREE ENERGY PREDICTED BY IDOCK:   -7.35 KCAL/MOL
REMARK 924 INTRA-LIGAND FREE ENERGY PREDICTED BY IDOCK:   -1.01 KCAL/MOL
REMARK 927      BINDING AFFINITY PREDICTED BY RF-SCORE:    0.00 PKD
ROOT
HETATM    1  O   UNL     1      -7.172  18.726  68.715  1.00  0.00    -0.291 OA 
HETATM    2  C   UNL     1      -7.012  17.553  68.050  1.00  0.00    -0.195 C  
HETATM    3  C   UNL     1      -7.277  16.343  68.924  1.00  0.00    -0.203 C  
HETATM    4  O   UNL     1      -6.736  17.523  66.862  1.00  0.00    -0.157 OA 
ENDROOT
BRANCH   3   5
HETATM    5  C   UNL     1      -6.597  15.063  68.440  1.00  0.00    -0.102 C  
HETATM    6  C   UNL     1      -5.482  14.505  69.314  1.00  0.00    -0.091 C  
HETATM    7  C   UNL     1      -5.142  15.179  68.015  1.00  0.00    -0.119 C  
BRANCH   5   8
HETATM    8  C   UNL     1      -7.551  14.147  67.683  1.00  0.00    -0.180 C  
BRANCH   8   9
HETATM    9  S   UNL     1      -7.732  12.444  68.250  1.00  0.00    -0.146 SA 
BRANCH   9  10
HETATM   10  C   UNL     1      -9.423  12.044  67.593  1.00  0.00    -0.185 C  
BRANCH  10  11
HETATM   11  C   UNL     1     -10.059  13.163  66.734  1.00  0.00    -0.253 C  
BRANCH  11  12
HETATM   12  C   UNL     1     -11.085  14.052  67.471  1.00  0.00    -0.313 C  
BRANCH  12  13
HETATM   13  C   UNL     1     -10.722  15.530  67.404  1.00  0.00    -0.301 A  
HETATM   14  C   UNL     1     -10.429  16.020  66.105  1.00  0.00    -0.334 A  
HETATM   15  C   UNL     1     -10.073  18.232  66.929  1.00  0.00    -0.377 A  
HETATM   16  H   UNL     1     -12.566  15.231  70.910  1.00  0.00     0.000 HD 
HETATM   17  C   UNL     1     -10.091  17.346  65.870  1.00  0.00    -0.219 A  
HETATM   18  C   UNL     1     -11.058  17.215  70.956  1.00  0.00     1.044 C  
HETATM   19  C   UNL     1     -10.385  17.784  68.214  1.00  0.00    -0.387 A  
HETATM   20  C   UNL     1     -10.706  16.433  68.502  1.00  0.00    -0.320 A  
HETATM   21  O   UNL     1     -12.360  15.475  70.015  1.00  0.00    -0.369 OA 
HETATM   22  C   UNL     1     -10.061  15.001  70.526  1.00  0.00     0.365 C  
HETATM   23  C   UNL     1     -11.042  16.037  69.955  1.00  0.00    -0.362 C  
ENDBRANCH  12  13
ENDBRANCH  11  12
ENDBRANCH  10  11
BRANCH  10  24
HETATM   24  C   UNL     1     -10.313  11.513  68.720  1.00  0.00    -0.213 A  
HETATM   25  C   UNL     1     -11.843  10.490  70.859  1.00  0.00    -0.455 A  
HETATM   26  C   UNL     1     -11.476  12.167  69.153  1.00  0.00    -0.352 A  
HETATM   27  C   UNL     1      -9.937  10.330  69.393  1.00  0.00    -0.254 A  
HETATM   28  C   UNL     1     -12.232  11.662  70.212  1.00  0.00    -0.401 A  
HETATM   29  C   UNL     1     -10.700   9.799  70.449  1.00  0.00    -0.368 A  
BRANCH  29  30
HETATM   30  C   UNL     1     -10.225   8.586  71.133  1.00  0.00    -0.272 C  
HETATM   31  C   UNL     1      -9.042   8.475  71.764  1.00  0.00    -0.304 C  
BRANCH  31  32
HETATM   32  C   UNL     1      -8.541   7.266  72.428  1.00  0.00    -0.115 A  
HETATM   33  N   UNL     1      -9.407   6.223  72.424  1.00  0.00    -0.142 NA 
HETATM   34  C   UNL     1      -9.062   5.093  73.067  1.00  0.00    -0.124 A  
HETATM   35  C   UNL     1      -7.839   4.963  73.757  1.00  0.00    -0.099 A  
HETATM   36  C   UNL     1      -6.964   6.051  73.752  1.00  0.00    -0.081 A  
HETATM   37  C   UNL     1      -7.526   3.772  74.436  1.00  0.00    -0.062 A  
HETATM   38  C   UNL     1      -8.427   2.711  74.436  1.00  0.00    -0.068 A  
HETATM   39  C   UNL     1      -7.321   7.219  73.087  1.00  0.00    -0.081 A  
HETATM   40  C   UNL     1      -9.629   2.837  73.749  1.00  0.00    -0.090 A  
HETATM   41  C   UNL     1      -9.938   4.017  73.072  1.00  0.00    -0.194 A  
HETATM   42 CL   UNL     1     -10.746   1.529  73.746  1.00  0.00    -0.178 Cl 
ENDBRANCH  31  32
ENDBRANCH  29  30
ENDBRANCH  10  24
ENDBRANCH   9  10
ENDBRANCH   8   9
ENDBRANCH   5   8
ENDBRANCH   3   5
TORSDOF 10
ENDMDL
MODEL      171
REMARK 921   NORMALIZED FREE ENERGY PREDICTED BY IDOCK:   -4.22 KCAL/MOL
REMARK 922        TOTAL FREE ENERGY PREDICTED BY IDOCK:   -8.35 KCAL/MOL
REMARK 923 INTER-LIGAND FREE ENERGY PREDICTED BY IDOCK:   -7.15 KCAL/MOL
REMARK 924 INTRA-LIGAND FREE ENERGY PREDICTED BY IDOCK:   -1.20 KCAL/MOL
REMARK 927      BINDING AFFINITY PREDICTED BY RF-SCORE:    0.00 PKD
ROOT
HETATM    1  O   UNL     1     -13.153  13.497  65.147  1.00  0.00    -0.737 OA 
HETATM    2  C   UNL     1     -11.962  13.049  65.619  1.00  0.00    -0.429 C  
HETATM    3  C   UNL     1     -11.504  11.774  64.940  1.00  0.00    -0.269 C  
HETATM    4  O   UNL     1     -11.333  13.668  66.462  1.00  0.00    -0.305 OA 
ENDROOT
BRANCH   3   5
HETATM    5  C   UNL     1     -10.520  10.945  65.766  1.00  0.00    -0.275 C  
HETATM    6  C   UNL     1      -9.051  11.334  65.679  1.00  0.00    -0.203 C  
HETATM    7  C   UNL     1      -9.532  10.087  64.994  1.00  0.00    -0.339 C  
BRANCH   5   8
HETATM    8  C   UNL     1     -11.136  10.435  67.064  1.00  0.00    -0.067 C  
BRANCH   8   9
HETATM    9  S   UNL     1     -10.432  11.005  68.625  1.00  0.00    -0.202 SA 
BRANCH   9  10
HETATM   10  C   UNL     1      -9.304   9.586  69.029  1.00  0.00    -0.155 C  
BRANCH  10  11
HETATM   11  C   UNL     1      -9.689   8.805  70.308  1.00  0.00    -0.198 C  
BRANCH  11  12
HETATM   12  C   UNL     1      -9.465   7.279  70.237  1.00  0.00    -0.165 C  
BRANCH  12  13
HETATM   13  C   UNL     1      -9.867   6.575  71.526  1.00  0.00    -0.182 A  
HETATM   14  C   UNL     1     -10.911   5.624  71.393  1.00  0.00    -0.260 A  
HETATM   15  C   UNL     1     -10.804   5.058  73.710  1.00  0.00    -0.366 A  
HETATM   16  H   UNL     1      -6.262   8.006  72.387  1.00  0.00     0.000 HD 
HETATM   17  C   UNL     1     -11.387   4.889  72.470  1.00  0.00    -0.077 A  
HETATM   18  C   UNL     1      -7.529   7.678  74.508  1.00  0.00    -0.180 C  
HETATM   19  C   UNL     1      -9.754   5.967  73.865  1.00  0.00    -0.174 A  
HETATM   20  C   UNL     1      -9.258   6.759  72.798  1.00  0.00    -0.149 A  
HETATM   21  O   UNL     1      -6.980   7.407  72.220  1.00  0.00    -0.062 OA 
HETATM   22  C   UNL     1      -8.471   9.196  72.809  1.00  0.00     1.094 C  
HETATM   23  C   UNL     1      -8.091   7.731  73.068  1.00  0.00    -0.130 C  
ENDBRANCH  12  13
ENDBRANCH  11  12
ENDBRANCH  10  11
BRANCH  10  24
HETATM   24  C   UNL     1      -7.843  10.041  68.967  1.00  0.00    -0.101 A  
HETATM   25  C   UNL     1      -5.188  10.993  68.914  1.00  0.00    -0.040 A  
HETATM   26  C   UNL     1      -6.759   9.162  69.110  1.00  0.00    -0.050 A  
HETATM   27  C   UNL     1      -7.557  11.413  68.798  1.00  0.00    -0.132 A  
HETATM   28  C   UNL     1      -5.445   9.634  69.085  1.00  0.00    -0.036 A  
HETATM   29  C   UNL     1      -6.239  11.899  68.751  1.00  0.00    -0.058 A  
BRANCH  29  30
HETATM   30  C   UNL     1      -6.016  13.347  68.616  1.00  0.00    -0.084 C  
HETATM   31  C   UNL     1      -6.803  14.298  69.152  1.00  0.00    -0.120 C  
BRANCH  31  32
HETATM   32  C   UNL     1      -6.611  15.745  69.006  1.00  0.00    -0.134 A  
HETATM   33  N   UNL     1      -7.720  16.423  68.622  1.00  0.00    -0.192 NA 
HETATM   34  C   UNL     1      -7.625  17.746  68.397  1.00  0.00    -0.269 A  
HETATM   35  C   UNL     1      -6.409  18.446  68.532  1.00  0.00    -0.219 A  
HETATM   36  C   UNL     1      -5.278  17.727  68.924  1.00  0.00    -0.161 A  
HETATM   37  C   UNL     1      -6.346  19.826  68.266  1.00  0.00    -0.286 A  
HETATM   38  C   UNL     1      -7.487  20.511  67.861  1.00  0.00    -0.227 A  
HETATM   39  C   UNL     1      -5.377  16.360  69.156  1.00  0.00    -0.120 A  
HETATM   40  C   UNL     1      -8.688  19.821  67.736  1.00  0.00    -0.325 A  
HETATM   41  C   UNL     1      -8.751  18.454  68.004  1.00  0.00    -0.302 A  
HETATM   42 CL   UNL     1     -10.103  20.663  67.235  1.00  0.00    -0.466 Cl 
ENDBRANCH  31  32
ENDBRANCH  29  30
ENDBRANCH  10  24
ENDBRANCH   9  10
ENDBRANCH   8   9
ENDBRANCH   5   8
ENDBRANCH   3   5
TORSDOF 10
ENDMDL
MODEL      172
REMARK 921   NORMALIZED FREE ENERGY PREDICTED BY IDOCK:   -4.15 KCAL/MOL
REMARK 922        TOTAL FREE ENERGY PREDICTED BY IDOCK:   -8.23 KCAL/MOL
REMARK 923 INTER-LIGAND FREE ENERGY PREDICTED BY IDOCK:   -6.74 KCAL/MOL
REMARK 924 INTRA-LIGAND FREE ENERGY PREDICTED BY IDOCK:   -1.49 KCAL/MOL
REMARK 927      BINDING AFFINITY PREDICTED BY RF-SCORE:    0.00 PKD
ROOT
HETATM    1  O   UNL     1     -11.289   4.721  71.237  1.00  0.00     0.637 OA 
HETATM    2  C   UNL     1     -10.827   5.995  71.299  1.00  0.00    -0.272 C  
HETATM    3  C   UNL     1     -11.938   7.025  71.270  1.00  0.00    -0.388 C  
HETATM    4  O   UNL     1      -9.637   6.240  71.417  1.00  0.00    -0.157 OA 
ENDROOT
BRANCH   3   5
HETATM    5  C   UNL     1     -11.500   8.405  70.780  1.00  0.00    -0.277 C  
HETATM    6  C   UNL     1     -11.152   9.434  71.848  1.00  0.00    -0.194 C  
HETATM    7  C   UNL     1     -12.436   9.565  71.078  1.00  0.00    -0.347 C  
BRANCH   5   8
HETATM    8  C   UNL     1     -10.745   8.341  69.458  1.00  0.00    -0.174 C  
BRANCH   8   9
HETATM    9  S   UNL     1     -11.155   9.548  68.181  1.00  0.00     0.127 SA 
BRANCH   9  10
HETATM   10  C   UNL     1      -9.746  10.743  68.378  1.00  0.00    -0.174 C  
BRANCH  10  11
HETATM   11  C   UNL     1      -8.587  10.228  69.264  1.00  0.00    -0.175 C  
BRANCH  11  12
HETATM   12  C   UNL     1      -7.968   8.885  68.819  1.00  0.00    -0.102 C  
BRANCH  12  13
HETATM   13  C   UNL     1      -7.217   8.192  69.948  1.00  0.00    -0.060 A  
HETATM   14  C   UNL     1      -7.430   8.741  71.239  1.00  0.00    -0.127 A  
HETATM   15  C   UNL     1      -6.022   7.104  72.258  1.00  0.00    -0.041 A  
HETATM   16  H   UNL     1      -7.167   5.471  67.054  1.00  0.00     0.000 HD 
HETATM   17  C   UNL     1      -6.828   8.219  72.376  1.00  0.00    -0.100 A  
HETATM   18  C   UNL     1      -5.260   5.042  68.599  1.00  0.00     0.000 C  
HETATM   19  C   UNL     1      -5.817   6.526  71.004  1.00  0.00    -0.027 A  
HETATM   20  C   UNL     1      -6.388   7.044  69.814  1.00  0.00    -0.039 A  
HETATM   21  O   UNL     1      -7.341   5.911  67.878  1.00  0.00    -0.074 OA 
HETATM   22  C   UNL     1      -5.376   7.229  67.468  1.00  0.00    -0.021 C  
HETATM   23  C   UNL     1      -6.107   6.330  68.476  1.00  0.00    -0.031 C  
ENDBRANCH  12  13
ENDBRANCH  11  12
ENDBRANCH  10  11
BRANCH  10  24
HETATM   24  C   UNL     1     -10.280  12.128  68.756  1.00  0.00    -0.133 A  
HETATM   25  C   UNL     1     -11.228  14.722  69.332  1.00  0.00    -0.308 A  
HETATM   26  C   UNL     1     -11.416  12.319  69.557  1.00  0.00    -0.318 A  
HETATM   27  C   UNL     1      -9.634  13.276  68.250  1.00  0.00    -0.221 A  
HETATM   28  C   UNL     1     -11.886  13.603  69.841  1.00  0.00    -0.389 A  
HETATM   29  C   UNL     1     -10.085  14.575  68.543  1.00  0.00    -0.242 A  
BRANCH  29  30
HETATM   30  C   UNL     1      -9.387  15.724  67.946  1.00  0.00    -0.200 C  
HETATM   31  C   UNL     1      -9.055  16.849  68.606  1.00  0.00    -0.265 C  
BRANCH  31  32
HETATM   32  C   UNL     1      -8.384  18.014  68.020  1.00  0.00    -0.260 A  
HETATM   33  N   UNL     1      -7.839  17.794  66.799  1.00  0.00    -0.220 NA 
HETATM   34  C   UNL     1      -7.145  18.785  66.210  1.00  0.00    -0.246 A  
HETATM   35  C   UNL     1      -6.953  20.037  66.828  1.00  0.00    -0.250 A  
HETATM   36  C   UNL     1      -7.519  20.242  68.088  1.00  0.00    -0.220 A  
HETATM   37  C   UNL     1      -6.202  21.040  66.189  1.00  0.00    -0.302 A  
HETATM   38  C   UNL     1      -5.636  20.801  64.940  1.00  0.00    -0.249 A  
HETATM   39  C   UNL     1      -8.236  19.217  68.695  1.00  0.00    -0.404 A  
HETATM   40  C   UNL     1      -5.834  19.567  64.328  1.00  0.00    -0.279 A  
HETATM   41  C   UNL     1      -6.582  18.574  64.960  1.00  0.00     0.079 A  
HETATM   42 CL   UNL     1      -5.137  19.265  62.785  1.00  0.00    -0.304 Cl 
ENDBRANCH  31  32
ENDBRANCH  29  30
ENDBRANCH  10  24
ENDBRANCH   9  10
ENDBRANCH   8   9
ENDBRANCH   5   8
ENDBRANCH   3   5
TORSDOF 10
ENDMDL
MODEL      173
REMARK 921   NORMALIZED FREE ENERGY PREDICTED BY IDOCK:   -4.15 KCAL/MOL
REMARK 922        TOTAL FREE ENERGY PREDICTED BY IDOCK:   -8.22 KCAL/MOL
REMARK 923 INTER-LIGAND FREE ENERGY PREDICTED BY IDOCK:   -7.35 KCAL/MOL
REMARK 924 INTRA-LIGAND FREE ENERGY PREDICTED BY IDOCK:   -0.87 KCAL/MOL
REMARK 927      BINDING AFFINITY PREDICTED BY RF-SCORE:    0.00 PKD
ROOT
HETATM    1  O   UNL     1      -6.745  14.661  69.545  1.00  0.00    -0.136 OA 
HETATM    2  C   UNL     1      -6.338  13.552  68.876  1.00  0.00    -0.098 C  
HETATM    3  C   UNL     1      -7.449  12.916  68.065  1.00  0.00    -0.125 C  
HETATM    4  O   UNL     1      -5.179  13.173  68.910  1.00  0.00    -0.068 OA 
ENDROOT
BRANCH   3   5
HETATM    5  C   UNL     1      -7.235  11.433  67.767  1.00  0.00    -0.089 C  
HETATM    6  C   UNL     1      -7.327  10.474  68.947  1.00  0.00    -0.098 C  
HETATM    7  C   UNL     1      -5.986  10.792  68.350  1.00  0.00    -0.043 C  
BRANCH   5   8
HETATM    8  C   UNL     1      -7.728  11.041  66.380  1.00  0.00    -0.146 C  
BRANCH   8   9
HETATM    9  S   UNL     1      -9.104   9.879  66.259  1.00  0.00    -0.162 SA 
BRANCH   9  10
HETATM   10  C   UNL     1     -10.528  10.991  66.691  1.00  0.00    -0.256 C  
BRANCH  10  11
HETATM   11  C   UNL     1     -10.309  12.481  66.335  1.00  0.00    -0.261 C  
BRANCH  11  12
HETATM   12  C   UNL     1     -11.483  13.419  66.689  1.00  0.00    -0.376 C  
BRANCH  12  13
HETATM   13  C   UNL     1     -11.189  14.871  66.337  1.00  0.00    -0.331 A  
HETATM   14  C   UNL     1     -11.197  15.167  64.949  1.00  0.00    -0.424 A  
HETATM   15  C   UNL     1     -10.741  17.476  65.355  1.00  0.00    -0.008 A  
HETATM   16  H   UNL     1     -12.229  15.085  70.165  1.00  0.00     0.000 HD 
HETATM   17  C   UNL     1     -10.958  16.445  64.462  1.00  0.00    -0.019 A  
HETATM   18  C   UNL     1     -10.809  17.054  69.602  1.00  0.00     0.025 C  
HETATM   19  C   UNL     1     -10.756  17.219  66.728  1.00  0.00    -0.095 A  
HETATM   20  C   UNL     1     -10.967  15.924  67.267  1.00  0.00    -0.234 A  
HETATM   21  O   UNL     1     -12.227  15.197  69.222  1.00  0.00    -0.262 OA 
HETATM   22  C   UNL     1      -9.859  14.801  69.285  1.00  0.00    -0.123 C  
HETATM   23  C   UNL     1     -10.971  15.743  68.799  1.00  0.00    -0.291 C  
ENDBRANCH  12  13
ENDBRANCH  11  12
ENDBRANCH  10  11
BRANCH  10  24
HETATM   24  C   UNL     1     -10.979  10.732  68.131  1.00  0.00    -0.308 A  
HETATM   25  C   UNL     1     -11.694  10.194  70.806  1.00  0.00    -0.446 A  
HETATM   26  C   UNL     1     -11.756  11.639  68.866  1.00  0.00    -0.397 A  
HETATM   27  C   UNL     1     -10.569   9.546  68.777  1.00  0.00    -0.240 A  
HETATM   28  C   UNL     1     -12.109  11.373  70.191  1.00  0.00    -0.439 A  
HETATM   29  C   UNL     1     -10.933   9.256  70.104  1.00  0.00    -0.278 A  
BRANCH  29  30
HETATM   30  C   UNL     1     -10.433   8.021  70.728  1.00  0.00    -0.221 C  
HETATM   31  C   UNL     1      -9.224   7.886  71.302  1.00  0.00    -0.170 C  
BRANCH  31  32
HETATM   32  C   UNL     1      -8.700   6.656  71.905  1.00  0.00    -0.128 A  
HETATM   33  N   UNL     1      -9.650   5.778  72.307  1.00  0.00    -0.148 NA 
HETATM   34  C   UNL     1      -9.267   4.649  72.932  1.00  0.00    -0.123 A  
HETATM   35  C   UNL     1      -7.913   4.358  73.195  1.00  0.00    -0.095 A  
HETATM   36  C   UNL     1      -6.950   5.279  72.777  1.00  0.00    -0.086 A  
HETATM   37  C   UNL     1      -7.555   3.178  73.871  1.00  0.00    -0.060 A  
HETATM   38  C   UNL     1      -8.539   2.288  74.291  1.00  0.00    -0.062 A  
HETATM   39  C   UNL     1      -7.347   6.445  72.131  1.00  0.00    -0.092 A  
HETATM   40  C   UNL     1      -9.874   2.571  74.022  1.00  0.00    -0.097 A  
HETATM   41  C   UNL     1     -10.228   3.740  73.348  1.00  0.00    -0.218 A  
HETATM   42 CL   UNL     1     -11.095   1.475  74.539  1.00  0.00    -0.123 Cl 
ENDBRANCH  31  32
ENDBRANCH  29  30
ENDBRANCH  10  24
ENDBRANCH   9  10
ENDBRANCH   8   9
ENDBRANCH   5   8
ENDBRANCH   3   5
TORSDOF 10
ENDMDL
MODEL      174
REMARK 921   NORMALIZED FREE ENERGY PREDICTED BY IDOCK:   -4.14 KCAL/MOL
REMARK 922        TOTAL FREE ENERGY PREDICTED BY IDOCK:   -8.22 KCAL/MOL
REMARK 923 INTER-LIGAND FREE ENERGY PREDICTED BY IDOCK:   -6.82 KCAL/MOL
REMARK 924 INTRA-LIGAND FREE ENERGY PREDICTED BY IDOCK:   -1.40 KCAL/MOL
REMARK 927      BINDING AFFINITY PREDICTED BY RF-SCORE:    0.00 PKD
ROOT
HETATM    1  O   UNL     1      -9.058   2.604  67.927  1.00  0.00    -0.145 OA 
HETATM    2  C   UNL     1      -9.069   3.352  66.795  1.00  0.00    -0.167 C  
HETATM    3  C   UNL     1      -8.016   2.917  65.795  1.00  0.00    -0.085 C  
HETATM    4  O   UNL     1      -9.890   4.237  66.619  1.00  0.00    -0.209 OA 
ENDROOT
BRANCH   3   5
HETATM    5  C   UNL     1      -7.605   4.007  64.805  1.00  0.00    -0.077 C  
HETATM    6  C   UNL     1      -8.541   4.257  63.630  1.00  0.00    -0.110 C  
HETATM    7  C   UNL     1      -7.233   3.554  63.403  1.00  0.00    -0.050 C  
BRANCH   5   8
HETATM    8  C   UNL     1      -6.846   5.146  65.476  1.00  0.00    -0.061 C  
BRANCH   8   9
HETATM    9  S   UNL     1      -6.557   6.654  64.530  1.00  0.00    -0.042 SA 
BRANCH   9  10
HETATM   10  C   UNL     1      -7.530   7.878  65.533  1.00  0.00    -0.079 C  
BRANCH  10  11
HETATM   11  C   UNL     1      -8.379   7.249  66.664  1.00  0.00    -0.121 C  
BRANCH  11  12
HETATM   12  C   UNL     1      -7.636   7.035  68.001  1.00  0.00    -0.111 C  
BRANCH  12  13
HETATM   13  C   UNL     1      -7.444   8.337  68.769  1.00  0.00    -0.096 A  
HETATM   14  C   UNL     1      -7.139   9.468  67.970  1.00  0.00    -0.080 A  
HETATM   15  C   UNL     1      -7.088  10.904  69.877  1.00  0.00    -0.052 A  
HETATM   16  H   UNL     1      -9.431   6.068  71.355  1.00  0.00     0.000 HD 
HETATM   17  C   UNL     1      -6.945  10.731  68.515  1.00  0.00    -0.068 A  
HETATM   18  C   UNL     1      -8.168   7.810  72.612  1.00  0.00    -0.171 C  
HETATM   19  C   UNL     1      -7.416   9.813  70.685  1.00  0.00    -0.050 A  
HETATM   20  C   UNL     1      -7.594   8.502  70.174  1.00  0.00    -0.068 A  
HETATM   21  O   UNL     1      -9.206   6.769  70.756  1.00  0.00    -0.157 OA 
HETATM   22  C   UNL     1      -6.899   6.253  71.183  1.00  0.00    -0.067 C  
HETATM   23  C   UNL     1      -7.960   7.363  71.147  1.00  0.00    -0.100 C  
ENDBRANCH  12  13
ENDBRANCH  11  12
ENDBRANCH  10  11
BRANCH  10  24
HETATM   24  C   UNL     1      -8.293   8.829  64.607  1.00  0.00    -0.175 A  
HETATM   25  C   UNL     1      -9.650  10.682  62.968  1.00  0.00    -0.379 A  
HETATM   26  C   UNL     1      -8.487   8.577  63.240  1.00  0.00    -0.051 A  
HETATM   27  C   UNL     1      -8.799  10.039  65.129  1.00  0.00    -0.207 A  
HETATM   28  C   UNL     1      -9.157   9.495  62.429  1.00  0.00    -0.257 A  
HETATM   29  C   UNL     1      -9.492  10.964  64.328  1.00  0.00    -0.289 A  
BRANCH  29  30
HETATM   30  C   UNL     1      -9.952  12.225  64.930  1.00  0.00    -0.219 C  
HETATM   31  C   UNL     1      -9.583  12.676  66.143  1.00  0.00    -0.222 C  
BRANCH  31  32
HETATM   32  C   UNL     1     -10.053  13.916  66.769  1.00  0.00    -0.265 A  
HETATM   33  N   UNL     1      -9.717  15.046  66.100  1.00  0.00    -0.287 NA 
HETATM   34  C   UNL     1     -10.046  16.237  66.632  1.00  0.00    -0.276 A  
HETATM   35  C   UNL     1     -10.714  16.349  67.868  1.00  0.00    -0.332 A  
HETATM   36  C   UNL     1     -11.047  15.173  68.544  1.00  0.00    -0.281 A  
HETATM   37  C   UNL     1     -11.021  17.614  68.402  1.00  0.00     0.008 A  
HETATM   38  C   UNL     1     -10.662  18.768  67.713  1.00  0.00    -0.406 A  
HETATM   39  C   UNL     1     -10.706  13.943  67.993  1.00  0.00    -0.255 A  
HETATM   40  C   UNL     1     -10.010  18.656  66.489  1.00  0.00    -0.380 A  
HETATM   41  C   UNL     1      -9.709  17.402  65.958  1.00  0.00    -0.172 A  
HETATM   42 CL   UNL     1      -9.562  20.080  65.633  1.00  0.00    -0.206 Cl 
ENDBRANCH  31  32
ENDBRANCH  29  30
ENDBRANCH  10  24
ENDBRANCH   9  10
ENDBRANCH   8   9
ENDBRANCH   5   8
ENDBRANCH   3   5
TORSDOF 10
ENDMDL
MODEL      175
REMARK 921   NORMALIZED FREE ENERGY PREDICTED BY IDOCK:   -4.10 KCAL/MOL
REMARK 922        TOTAL FREE ENERGY PREDICTED BY IDOCK:   -8.15 KCAL/MOL
REMARK 923 INTER-LIGAND FREE ENERGY PREDICTED BY IDOCK:   -6.83 KCAL/MOL
REMARK 924 INTRA-LIGAND FREE ENERGY PREDICTED BY IDOCK:   -1.32 KCAL/MOL
REMARK 927      BINDING AFFINITY PREDICTED BY RF-SCORE:    0.00 PKD
ROOT
HETATM    1  O   UNL     1     -13.148  13.528  64.796  1.00  0.00    -0.680 OA 
HETATM    2  C   UNL     1     -11.856  13.166  64.592  1.00  0.00    -0.370 C  
HETATM    3  C   UNL     1     -11.710  11.711  64.192  1.00  0.00    -0.305 C  
HETATM    4  O   UNL     1     -10.943  13.971  64.682  1.00  0.00    -0.384 OA 
ENDROOT
BRANCH   3   5
HETATM    5  C   UNL     1     -10.335  11.116  64.492  1.00  0.00    -0.400 C  
HETATM    6  C   UNL     1      -9.174  11.600  63.634  1.00  0.00     0.044 C  
HETATM    7  C   UNL     1      -9.730  10.220  63.423  1.00  0.00    -0.243 C  
BRANCH   5   8
HETATM    8  C   UNL     1     -10.153  10.787  65.969  1.00  0.00    -0.249 C  
BRANCH   8   9
HETATM    9  S   UNL     1     -10.349   9.072  66.493  1.00  0.00    -0.111 SA 
BRANCH   9  10
HETATM   10  C   UNL     1      -8.637   8.422  66.186  1.00  0.00    -0.141 C  
BRANCH  10  11
HETATM   11  C   UNL     1      -8.557   6.888  65.998  1.00  0.00    -0.150 C  
BRANCH  11  12
HETATM   12  C   UNL     1      -9.859   6.120  66.315  1.00  0.00    -0.081 C  
BRANCH  12  13
HETATM   13  C   UNL     1      -9.594   4.679  66.728  1.00  0.00    -0.195 A  
HETATM   14  C   UNL     1      -9.061   4.514  68.032  1.00  0.00    -0.151 A  
HETATM   15  C   UNL     1      -9.045   2.136  67.817  1.00  0.00    -0.213 A  
HETATM   16  H   UNL     1     -12.129   4.276  63.696  1.00  0.00     0.000 HD 
HETATM   17  C   UNL     1      -8.773   3.265  68.565  1.00  0.00    -0.141 A  
HETATM   18  C   UNL     1     -10.808   2.176  63.929  1.00  0.00     0.152 C  
HETATM   19  C   UNL     1      -9.597   2.267  66.540  1.00  0.00     0.327 A  
HETATM   20  C   UNL     1      -9.879   3.524  65.948  1.00  0.00     0.032 A  
HETATM   21  O   UNL     1     -11.751   4.252  64.567  1.00  0.00     0.059 OA 
HETATM   22  C   UNL     1      -9.591   4.281  63.517  1.00  0.00    -0.087 C  
HETATM   23  C   UNL     1     -10.493   3.564  64.533  1.00  0.00    -0.071 C  
ENDBRANCH  12  13
ENDBRANCH  11  12
ENDBRANCH  10  11
BRANCH  10  24
HETATM   24  C   UNL     1      -7.663   8.996  67.219  1.00  0.00    -0.096 A  
HETATM   25  C   UNL     1      -5.961  10.144  69.154  1.00  0.00    -0.037 A  
HETATM   26  C   UNL     1      -6.792   8.199  67.977  1.00  0.00    -0.073 A  
HETATM   27  C   UNL     1      -7.658  10.387  67.461  1.00  0.00    -0.094 A  
HETATM   28  C   UNL     1      -5.950   8.768  68.936  1.00  0.00    -0.044 A  
HETATM   29  C   UNL     1      -6.802  10.975  68.409  1.00  0.00    -0.065 A  
BRANCH  29  30
HETATM   30  C   UNL     1      -6.881  12.426  68.638  1.00  0.00    -0.087 C  
HETATM   31  C   UNL     1      -7.224  13.333  67.706  1.00  0.00    -0.151 C  
BRANCH  31  32
HETATM   32  C   UNL     1      -7.283  14.784  67.910  1.00  0.00    -0.156 A  
HETATM   33  N   UNL     1      -8.278  15.408  67.235  1.00  0.00    -0.179 NA 
HETATM   34  C   UNL     1      -8.371  16.748  67.307  1.00  0.00    -0.177 A  
HETATM   35  C   UNL     1      -7.459  17.525  68.049  1.00  0.00    -0.214 A  
HETATM   36  C   UNL     1      -6.437  16.863  68.734  1.00  0.00    -0.178 A  
HETATM   37  C   UNL     1      -7.576  18.927  68.082  1.00  0.00    -0.305 A  
HETATM   38  C   UNL     1      -8.595  19.558  67.375  1.00  0.00    -0.346 A  
HETATM   39  C   UNL     1      -6.342  15.478  68.658  1.00  0.00    -0.099 A  
HETATM   40  C   UNL     1      -9.500  18.790  66.651  1.00  0.00    -0.330 A  
HETATM   41  C   UNL     1      -9.385  17.400  66.622  1.00  0.00    -0.279 A  
HETATM   42 CL   UNL     1     -10.761  19.565  65.774  1.00  0.00    -0.566 Cl 
ENDBRANCH  31  32
ENDBRANCH  29  30
ENDBRANCH  10  24
ENDBRANCH   9  10
ENDBRANCH   8   9
ENDBRANCH   5   8
ENDBRANCH   3   5
TORSDOF 10
ENDMDL
MODEL      176
REMARK 921   NORMALIZED FREE ENERGY PREDICTED BY IDOCK:   -4.05 KCAL/MOL
REMARK 922        TOTAL FREE ENERGY PREDICTED BY IDOCK:   -8.07 KCAL/MOL
REMARK 923 INTER-LIGAND FREE ENERGY PREDICTED BY IDOCK:   -6.91 KCAL/MOL
REMARK 924 INTRA-LIGAND FREE ENERGY PREDICTED BY IDOCK:   -1.16 KCAL/MOL
REMARK 927      BINDING AFFINITY PREDICTED BY RF-SCORE:    0.00 PKD
ROOT
HETATM    1  O   UNL     1     -13.286   7.891  70.884  1.00  0.00    -0.007 OA 
HETATM    2  C   UNL     1     -12.049   7.795  71.434  1.00  0.00    -0.311 C  
HETATM    3  C   UNL     1     -11.051   8.744  70.802  1.00  0.00    -0.306 C  
HETATM    4  O   UNL     1     -11.821   7.049  72.373  1.00  0.00    -0.255 OA 
ENDROOT
BRANCH   3   5
HETATM    5  C   UNL     1      -9.593   8.314  70.960  1.00  0.00    -0.197 C  
HETATM    6  C   UNL     1      -8.916   8.649  72.282  1.00  0.00    -0.245 C  
HETATM    7  C   UNL     1      -8.557   9.424  71.046  1.00  0.00    -0.047 C  
BRANCH   5   8
HETATM    8  C   UNL     1      -9.282   7.025  70.208  1.00  0.00    -0.156 C  
BRANCH   8   9
HETATM    9  S   UNL     1      -9.980   6.808  68.559  1.00  0.00    -0.155 SA 
BRANCH   9  10
HETATM   10  C   UNL     1      -8.516   6.103  67.659  1.00  0.00    -0.108 C  
BRANCH  10  11
HETATM   11  C   UNL     1      -7.227   6.003  68.511  1.00  0.00    -0.084 C  
BRANCH  11  12
HETATM   12  C   UNL     1      -6.580   4.602  68.558  1.00  0.00    -0.046 C  
BRANCH  12  13
HETATM   13  C   UNL     1      -7.560   3.499  68.179  1.00  0.00    -0.061 A  
HETATM   14  C   UNL     1      -7.654   3.228  66.790  1.00  0.00    -0.076 A  
HETATM   15  C   UNL     1      -9.238   1.478  67.154  1.00  0.00    -0.072 A  
HETATM   16  H   UNL     1      -6.916   2.821  72.040  1.00  0.00     0.000 HD 
HETATM   17  C   UNL     1      -8.492   2.245  66.281  1.00  0.00    -0.101 A  
HETATM   18  C   UNL     1      -9.120   1.847  71.406  1.00  0.00    -0.149 C  
HETATM   19  C   UNL     1      -9.144   1.705  68.529  1.00  0.00    -0.187 A  
HETATM   20  C   UNL     1      -8.323   2.716  69.089  1.00  0.00    -0.086 A  
HETATM   21  O   UNL     1      -6.940   2.718  71.097  1.00  0.00    -0.031 OA 
HETATM   22  C   UNL     1      -8.776   4.266  71.078  1.00  0.00    -0.127 C  
HETATM   23  C   UNL     1      -8.283   2.885  70.622  1.00  0.00    -0.049 C  
ENDBRANCH  12  13
ENDBRANCH  11  12
ENDBRANCH  10  11
BRANCH  10  24
HETATM   24  C   UNL     1      -8.343   6.801  66.308  1.00  0.00    -0.126 A  
HETATM   25  C   UNL     1      -7.999   8.202  63.883  1.00  0.00    -0.138 A  
HETATM   26  C   UNL     1      -7.769   6.178  65.189  1.00  0.00    -0.097 A  
HETATM   27  C   UNL     1      -8.738   8.150  66.175  1.00  0.00    -0.179 A  
HETATM   28  C   UNL     1      -7.598   6.871  63.990  1.00  0.00    -0.112 A  
HETATM   29  C   UNL     1      -8.589   8.855  64.968  1.00  0.00    -0.202 A  
BRANCH  29  30
HETATM   30  C   UNL     1      -8.983  10.272  64.915  1.00  0.00    -0.231 C  
HETATM   31  C   UNL     1     -10.119  10.772  65.434  1.00  0.00    -0.347 C  
BRANCH  31  32
HETATM   32  C   UNL     1     -10.539  12.176  65.368  1.00  0.00    -0.272 A  
HETATM   33  N   UNL     1      -9.613  13.062  65.807  1.00  0.00    -0.130 NA 
HETATM   34  C   UNL     1      -9.932  14.368  65.846  1.00  0.00    -0.328 A  
HETATM   35  C   UNL     1     -11.203  14.843  65.461  1.00  0.00    -0.348 A  
HETATM   36  C   UNL     1     -12.144  13.913  65.016  1.00  0.00    -0.422 A  
HETATM   37  C   UNL     1     -11.505  16.215  65.538  1.00  0.00     0.359 A  
HETATM   38  C   UNL     1     -10.551  17.115  66.002  1.00  0.00    -0.205 A  
HETATM   39  C   UNL     1     -11.813  12.563  64.976  1.00  0.00    -0.445 A  
HETATM   40  C   UNL     1      -9.295  16.646  66.374  1.00  0.00    -0.281 A  
HETATM   41  C   UNL     1      -8.994  15.287  66.293  1.00  0.00    -0.314 A  
HETATM   42 CL   UNL     1      -8.111  17.755  66.948  1.00  0.00    -0.238 Cl 
ENDBRANCH  31  32
ENDBRANCH  29  30
ENDBRANCH  10  24
ENDBRANCH   9  10
ENDBRANCH   8   9
ENDBRANCH   5   8
ENDBRANCH   3   5
TORSDOF 10
ENDMDL
MODEL      177
REMARK 921   NORMALIZED FREE ENERGY PREDICTED BY IDOCK:   -3.98 KCAL/MOL
REMARK 922        TOTAL FREE ENERGY PREDICTED BY IDOCK:   -7.97 KCAL/MOL
REMARK 923 INTER-LIGAND FREE ENERGY PREDICTED BY IDOCK:   -7.33 KCAL/MOL
REMARK 924 INTRA-LIGAND FREE ENERGY PREDICTED BY IDOCK:   -0.64 KCAL/MOL
REMARK 927      BINDING AFFINITY PREDICTED BY RF-SCORE:    0.00 PKD
ROOT
HETATM    1  O   UNL     1     -12.422  11.767  68.755  1.00  0.00    -0.209 OA 
HETATM    2  C   UNL     1     -12.223  11.035  69.880  1.00  0.00    -0.336 C  
HETATM    3  C   UNL     1     -10.901  10.293  69.871  1.00  0.00    -0.355 C  
HETATM    4  O   UNL     1     -13.024  11.043  70.801  1.00  0.00    -0.286 OA 
ENDROOT
BRANCH   3   5
HETATM    5  C   UNL     1     -10.866   9.068  70.784  1.00  0.00    -0.310 C  
HETATM    6  C   UNL     1     -12.150   8.259  70.899  1.00  0.00    -0.149 C  
HETATM    7  C   UNL     1     -11.715   9.129  72.044  1.00  0.00    -0.384 C  
BRANCH   5   8
HETATM    8  C   UNL     1      -9.496   8.399  70.807  1.00  0.00    -0.169 C  
BRANCH   8   9
HETATM    9  S   UNL     1      -9.282   6.860  69.891  1.00  0.00    -0.146 SA 
BRANCH   9  10
HETATM   10  C   UNL     1      -8.014   7.382  68.638  1.00  0.00    -0.123 C  
BRANCH  10  11
HETATM   11  C   UNL     1      -6.618   7.693  69.230  1.00  0.00    -0.040 C  
BRANCH  11  12
HETATM   12  C   UNL     1      -6.419   7.264  70.700  1.00  0.00    -0.043 C  
BRANCH  12  13
HETATM   13  C   UNL     1      -6.049   5.792  70.827  1.00  0.00    -0.030 A  
HETATM   14  C   UNL     1      -5.533   5.196  69.648  1.00  0.00    -0.011 A  
HETATM   15  C   UNL     1      -5.215   3.100  70.745  1.00  0.00    -0.004 A  
HETATM   16  H   UNL     1      -6.162   7.005  74.609  1.00  0.00     0.000 HD 
HETATM   17  C   UNL     1      -5.138   3.866  69.599  1.00  0.00    -0.004 A  
HETATM   18  C   UNL     1      -6.541   4.543  74.538  1.00  0.00    -0.064 C  
HETATM   19  C   UNL     1      -5.693   3.668  71.929  1.00  0.00    -0.008 A  
HETATM   20  C   UNL     1      -6.134   5.013  72.014  1.00  0.00    -0.025 A  
HETATM   21  O   UNL     1      -5.849   6.675  73.775  1.00  0.00    -0.057 OA 
HETATM   22  C   UNL     1      -8.108   6.000  73.314  1.00  0.00    -0.115 C  
HETATM   23  C   UNL     1      -6.641   5.550  73.369  1.00  0.00    -0.073 C  
ENDBRANCH  12  13
ENDBRANCH  11  12
ENDBRANCH  10  11
BRANCH  10  24
HETATM   24  C   UNL     1      -8.589   8.476  67.734  1.00  0.00    -0.134 A  
HETATM   25  C   UNL     1      -9.531  10.556  66.077  1.00  0.00    -0.227 A  
HETATM   26  C   UNL     1      -9.473   8.212  66.677  1.00  0.00    -0.274 A  
HETATM   27  C   UNL     1      -8.188   9.815  67.935  1.00  0.00    -0.113 A  
HETATM   28  C   UNL     1      -9.938   9.242  65.856  1.00  0.00    -0.289 A  
HETATM   29  C   UNL     1      -8.664  10.864  67.128  1.00  0.00    -0.132 A  
BRANCH  29  30
HETATM   30  C   UNL     1      -8.170  12.229  67.368  1.00  0.00    -0.178 C  
HETATM   31  C   UNL     1      -8.746  13.119  68.197  1.00  0.00    -0.193 C  
BRANCH  31  32
HETATM   32  C   UNL     1      -8.282  14.491  68.428  1.00  0.00    -0.150 A  
HETATM   33  N   UNL     1      -9.028  15.446  67.821  1.00  0.00    -0.172 NA 
HETATM   34  C   UNL     1      -8.642  16.731  67.921  1.00  0.00    -0.202 A  
HETATM   35  C   UNL     1      -7.480  17.115  68.621  1.00  0.00    -0.245 A  
HETATM   36  C   UNL     1      -6.724  16.114  69.236  1.00  0.00    -0.198 A  
HETATM   37  C   UNL     1      -7.098  18.467  68.683  1.00  0.00    -0.293 A  
HETATM   38  C   UNL     1      -7.864  19.439  68.047  1.00  0.00    -0.337 A  
HETATM   39  C   UNL     1      -7.124  14.787  69.132  1.00  0.00    -0.143 A  
HETATM   40  C   UNL     1      -9.014  19.060  67.363  1.00  0.00    -0.291 A  
HETATM   41  C   UNL     1      -9.396  17.719  67.305  1.00  0.00    -0.254 A  
HETATM   42 CL   UNL     1      -9.965  20.257  66.573  1.00  0.00    -0.562 Cl 
ENDBRANCH  31  32
ENDBRANCH  29  30
ENDBRANCH  10  24
ENDBRANCH   9  10
ENDBRANCH   8   9
ENDBRANCH   5   8
ENDBRANCH   3   5
TORSDOF 10
ENDMDL
MODEL      178
REMARK 921   NORMALIZED FREE ENERGY PREDICTED BY IDOCK:   -3.94 KCAL/MOL
REMARK 922        TOTAL FREE ENERGY PREDICTED BY IDOCK:   -7.89 KCAL/MOL
REMARK 923 INTER-LIGAND FREE ENERGY PREDICTED BY IDOCK:   -8.00 KCAL/MOL
REMARK 924 INTRA-LIGAND FREE ENERGY PREDICTED BY IDOCK:    0.10 KCAL/MOL
REMARK 927      BINDING AFFINITY PREDICTED BY RF-SCORE:    0.00 PKD
ROOT
HETATM    1  O   UNL     1      -6.556  14.024  69.672  1.00  0.00    -0.125 OA 
HETATM    2  C   UNL     1      -6.317  12.843  69.046  1.00  0.00    -0.100 C  
HETATM    3  C   UNL     1      -7.578  12.201  68.504  1.00  0.00    -0.124 C  
HETATM    4  O   UNL     1      -5.185  12.408  68.911  1.00  0.00    -0.055 OA 
ENDROOT
BRANCH   3   5
HETATM    5  C   UNL     1      -7.475  10.688  68.310  1.00  0.00    -0.091 C  
HETATM    6  C   UNL     1      -7.593   9.826  69.559  1.00  0.00    -0.114 C  
HETATM    7  C   UNL     1      -6.254  10.004  68.902  1.00  0.00    -0.044 C  
BRANCH   5   8
HETATM    8  C   UNL     1      -8.042  10.234  66.970  1.00  0.00    -0.121 C  
BRANCH   8   9
HETATM    9  S   UNL     1      -9.474   9.137  66.976  1.00  0.00    -0.164 SA 
BRANCH   9  10
HETATM   10  C   UNL     1     -10.835  10.354  67.315  1.00  0.00    -0.264 C  
BRANCH  10  11
HETATM   11  C   UNL     1     -10.542  11.795  66.831  1.00  0.00    -0.270 C  
BRANCH  11  12
HETATM   12  C   UNL     1     -11.630  12.836  67.175  1.00  0.00    -0.426 C  
BRANCH  12  13
HETATM   13  C   UNL     1     -11.083  13.993  68.000  1.00  0.00    -0.282 A  
HETATM   14  C   UNL     1     -11.506  14.019  69.354  1.00  0.00    -0.343 A  
HETATM   15  C   UNL     1     -10.204  15.968  69.810  1.00  0.00    -0.240 A  
HETATM   16  H   UNL     1      -8.589  13.856  64.911  1.00  0.00     0.000 HD 
HETATM   17  C   UNL     1     -11.089  15.001  70.243  1.00  0.00    -0.261 A  
HETATM   18  C   UNL     1      -8.554  16.153  65.877  1.00  0.00    -0.039 C  
HETATM   19  C   UNL     1      -9.749  15.951  68.489  1.00  0.00    -0.211 A  
HETATM   20  C   UNL     1     -10.172  14.984  67.542  1.00  0.00    -0.234 A  
HETATM   21  O   UNL     1      -8.937  13.817  65.794  1.00  0.00     0.333 OA 
HETATM   22  C   UNL     1     -10.701  15.267  65.051  1.00  0.00    -0.461 C  
HETATM   23  C   UNL     1      -9.608  15.045  66.107  1.00  0.00    -0.314 C  
ENDBRANCH  12  13
ENDBRANCH  11  12
ENDBRANCH  10  11
BRANCH  10  24
HETATM   24  C   UNL     1     -11.287  10.244  68.774  1.00  0.00    -0.226 A  
HETATM   25  C   UNL     1     -12.001   9.987  71.492  1.00  0.00    -0.438 A  
HETATM   26  C   UNL     1     -12.094  11.205  69.402  1.00  0.00    -0.396 A  
HETATM   27  C   UNL     1     -10.845   9.151  69.550  1.00  0.00    -0.194 A  
HETATM   28  C   UNL     1     -12.447  11.078  70.747  1.00  0.00    -0.491 A  
HETATM   29  C   UNL     1     -11.209   9.000  70.900  1.00  0.00    -0.348 A  
BRANCH  29  30
HETATM   30  C   UNL     1     -10.676   7.858  71.659  1.00  0.00    -0.268 C  
HETATM   31  C   UNL     1     -11.269   6.653  71.750  1.00  0.00    -0.299 C  
BRANCH  31  32
HETATM   32  C   UNL     1     -10.766   5.513  72.523  1.00  0.00    -0.240 A  
HETATM   33  N   UNL     1      -9.415   5.416  72.569  1.00  0.00    -0.145 NA 
HETATM   34  C   UNL     1      -8.861   4.365  73.200  1.00  0.00    -0.107 A  
HETATM   35  C   UNL     1      -9.638   3.354  73.800  1.00  0.00    -0.130 A  
HETATM   36  C   UNL     1     -11.029   3.470  73.737  1.00  0.00    -0.308 A  
HETATM   37  C   UNL     1      -9.021   2.258  74.430  1.00  0.00    -0.083 A  
HETATM   38  C   UNL     1      -7.633   2.162  74.461  1.00  0.00    -0.041 A  
HETATM   39  C   UNL     1     -11.600   4.557  73.085  1.00  0.00    -0.221 A  
HETATM   40  C   UNL     1      -6.867   3.164  73.876  1.00  0.00    -0.036 A  
HETATM   41  C   UNL     1      -7.479   4.253  73.255  1.00  0.00    -0.077 A  
HETATM   42 CL   UNL     1      -5.150   3.051  73.911  1.00  0.00     0.000 Cl 
ENDBRANCH  31  32
ENDBRANCH  29  30
ENDBRANCH  10  24
ENDBRANCH   9  10
ENDBRANCH   8   9
ENDBRANCH   5   8
ENDBRANCH   3   5
TORSDOF 10
ENDMDL
MODEL      179
REMARK 921   NORMALIZED FREE ENERGY PREDICTED BY IDOCK:   -3.81 KCAL/MOL
REMARK 922        TOTAL FREE ENERGY PREDICTED BY IDOCK:   -7.69 KCAL/MOL
REMARK 923 INTER-LIGAND FREE ENERGY PREDICTED BY IDOCK:   -6.75 KCAL/MOL
REMARK 924 INTRA-LIGAND FREE ENERGY PREDICTED BY IDOCK:   -0.94 KCAL/MOL
REMARK 927      BINDING AFFINITY PREDICTED BY RF-SCORE:    0.00 PKD
ROOT
HETATM    1  O   UNL     1      -6.560  14.022  69.673  1.00  0.00    -0.125 OA 
HETATM    2  C   UNL     1      -6.301  12.860  69.022  1.00  0.00    -0.100 C  
HETATM    3  C   UNL     1      -7.552  12.206  68.470  1.00  0.00    -0.124 C  
HETATM    4  O   UNL     1      -5.162  12.449  68.873  1.00  0.00    -0.055 OA 
ENDROOT
BRANCH   3   5
HETATM    5  C   UNL     1      -7.422  10.700  68.243  1.00  0.00    -0.091 C  
HETATM    6  C   UNL     1      -7.502   9.810  69.476  1.00  0.00    -0.101 C  
HETATM    7  C   UNL     1      -6.177  10.029  68.802  1.00  0.00    -0.040 C  
BRANCH   5   8
HETATM    8  C   UNL     1      -7.999  10.261  66.903  1.00  0.00    -0.112 C  
BRANCH   8   9
HETATM    9  S   UNL     1      -9.458   9.200  66.908  1.00  0.00    -0.184 SA 
BRANCH   9  10
HETATM   10  C   UNL     1     -10.785  10.445  67.282  1.00  0.00    -0.273 C  
BRANCH  10  11
HETATM   11  C   UNL     1     -10.463  11.885  66.813  1.00  0.00    -0.253 C  
BRANCH  11  12
HETATM   12  C   UNL     1     -11.601  12.909  67.014  1.00  0.00    -0.419 C  
BRANCH  12  13
HETATM   13  C   UNL     1     -11.809  13.789  65.788  1.00  0.00    -0.392 A  
HETATM   14  C   UNL     1     -12.499  13.172  64.714  1.00  0.00    -0.460 A  
HETATM   15  C   UNL     1     -12.407  15.164  63.400  1.00  0.00     1.214 A  
HETATM   16  H   UNL     1     -11.042  16.432  68.654  1.00  0.00     0.000 HD 
HETATM   17  C   UNL     1     -12.779  13.840  63.529  1.00  0.00     0.347 A  
HETATM   18  C   UNL     1     -10.473  17.443  66.448  1.00  0.00    -0.267 C  
HETATM   19  C   UNL     1     -11.750  15.806  64.453  1.00  0.00    -0.201 A  
HETATM   20  C   UNL     1     -11.420  15.152  65.668  1.00  0.00    -0.192 A  
HETATM   21  O   UNL     1     -11.486  15.941  67.973  1.00  0.00    -0.328 OA 
HETATM   22  C   UNL     1      -9.317  15.370  67.114  1.00  0.00    -0.225 C  
HETATM   23  C   UNL     1     -10.699  15.949  66.774  1.00  0.00    -0.281 C  
ENDBRANCH  12  13
ENDBRANCH  11  12
ENDBRANCH  10  11
BRANCH  10  24
HETATM   24  C   UNL     1     -11.221  10.326  68.745  1.00  0.00    -0.260 A  
HETATM   25  C   UNL     1     -11.908  10.049  71.467  1.00  0.00    -0.406 A  
HETATM   26  C   UNL     1     -12.002  11.294  69.394  1.00  0.00    -0.410 A  
HETATM   27  C   UNL     1     -10.793   9.214  69.502  1.00  0.00    -0.194 A  
HETATM   28  C   UNL     1     -12.341  11.158  70.741  1.00  0.00    -0.504 A  
HETATM   29  C   UNL     1     -11.143   9.054  70.854  1.00  0.00    -0.343 A  
BRANCH  29  30
HETATM   30  C   UNL     1     -10.624   7.892  71.592  1.00  0.00    -0.267 C  
HETATM   31  C   UNL     1     -11.267   6.717  71.723  1.00  0.00    -0.299 C  
BRANCH  31  32
HETATM   32  C   UNL     1     -10.777   5.558  72.477  1.00  0.00    -0.240 A  
HETATM   33  N   UNL     1      -9.431   5.400  72.454  1.00  0.00    -0.143 NA 
HETATM   34  C   UNL     1      -8.893   4.327  73.063  1.00  0.00    -0.106 A  
HETATM   35  C   UNL     1      -9.684   3.355  73.709  1.00  0.00    -0.141 A  
HETATM   36  C   UNL     1     -11.069   3.534  73.716  1.00  0.00    -0.286 A  
HETATM   37  C   UNL     1      -9.086   2.235  74.314  1.00  0.00    -0.085 A  
HETATM   38  C   UNL     1      -7.704   2.076  74.275  1.00  0.00    -0.034 A  
HETATM   39  C   UNL     1     -11.623   4.643  73.087  1.00  0.00    -0.261 A  
HETATM   40  C   UNL     1      -6.924   3.040  73.646  1.00  0.00    -0.036 A  
HETATM   41  C   UNL     1      -7.518   4.153  73.049  1.00  0.00    -0.075 A  
HETATM   42 CL   UNL     1      -5.215   2.849  73.594  1.00  0.00     0.000 Cl 
ENDBRANCH  31  32
ENDBRANCH  29  30
ENDBRANCH  10  24
ENDBRANCH   9  10
ENDBRANCH   8   9
ENDBRANCH   5   8
ENDBRANCH   3   5
TORSDOF 10
ENDMDL
MODEL      180
REMARK 921   NORMALIZED FREE ENERGY PREDICTED BY IDOCK:   -3.80 KCAL/MOL
REMARK 922        TOTAL FREE ENERGY PREDICTED BY IDOCK:   -7.67 KCAL/MOL
REMARK 923 INTER-LIGAND FREE ENERGY PREDICTED BY IDOCK:   -8.58 KCAL/MOL
REMARK 924 INTRA-LIGAND FREE ENERGY PREDICTED BY IDOCK:    0.91 KCAL/MOL
REMARK 927      BINDING AFFINITY PREDICTED BY RF-SCORE:    0.00 PKD
ROOT
HETATM    1  O   UNL     1     -12.017  16.394  69.381  1.00  0.00    -0.053 OA 
HETATM    2  C   UNL     1     -12.584  15.486  70.215  1.00  0.00    -0.323 C  
HETATM    3  C   UNL     1     -11.729  14.248  70.402  1.00  0.00    -0.329 C  
HETATM    4  O   UNL     1     -13.646  15.705  70.775  1.00  0.00    -0.524 OA 
ENDROOT
BRANCH   3   5
HETATM    5  C   UNL     1     -12.511  13.009  70.837  1.00  0.00    -0.396 C  
HETATM    6  C   UNL     1     -13.794  13.246  71.623  1.00  0.00    -0.022 C  
HETATM    7  C   UNL     1     -12.573  12.728  72.329  1.00  0.00     0.218 C  
BRANCH   5   8
HETATM    8  C   UNL     1     -12.387  11.863  69.840  1.00  0.00    -0.099 C  
BRANCH   8   9
HETATM    9  S   UNL     1     -12.907  10.216  70.362  1.00  0.00     0.023 SA 
BRANCH   9  10
HETATM   10  C   UNL     1     -11.438   9.211  69.831  1.00  0.00     0.055 C  
BRANCH  10  11
HETATM   11  C   UNL     1     -10.404   8.945  70.951  1.00  0.00    -0.303 C  
BRANCH  11  12
HETATM   12  C   UNL     1     -10.582   7.607  71.703  1.00  0.00    -0.233 C  
BRANCH  12  13
HETATM   13  C   UNL     1      -9.432   7.327  72.662  1.00  0.00    -0.186 A  
HETATM   14  C   UNL     1      -8.610   8.443  72.959  1.00  0.00    -0.217 A  
HETATM   15  C   UNL     1      -7.257   7.156  74.447  1.00  0.00    -0.111 A  
HETATM   16  H   UNL     1     -11.888   4.272  73.308  1.00  0.00     0.000 HD 
HETATM   17  C   UNL     1      -7.527   8.358  73.824  1.00  0.00    -0.151 A  
HETATM   18  C   UNL     1      -9.580   3.606  73.970  1.00  0.00    -0.124 C  
HETATM   19  C   UNL     1      -8.067   6.047  74.195  1.00  0.00    -0.102 A  
HETATM   20  C   UNL     1      -9.165   6.083  73.297  1.00  0.00    -0.132 A  
HETATM   21  O   UNL     1     -11.372   5.059  73.436  1.00  0.00    -0.329 OA 
HETATM   22  C   UNL     1      -9.970   4.305  71.638  1.00  0.00    -0.250 C  
HETATM   23  C   UNL     1     -10.004   4.805  73.090  1.00  0.00    -0.149 C  
ENDBRANCH  12  13
ENDBRANCH  11  12
ENDBRANCH  10  11
BRANCH  10  24
HETATM   24  C   UNL     1     -10.853   9.779  68.535  1.00  0.00    -0.227 A  
HETATM   25  C   UNL     1      -9.729  10.930  66.217  1.00  0.00    -0.245 A  
HETATM   26  C   UNL     1     -10.301   8.976  67.526  1.00  0.00    -0.328 A  
HETATM   27  C   UNL     1     -10.823  11.178  68.350  1.00  0.00    -0.248 A  
HETATM   28  C   UNL     1      -9.743   9.546  66.379  1.00  0.00    -0.295 A  
HETATM   29  C   UNL     1     -10.282  11.765  67.192  1.00  0.00    -0.236 A  
BRANCH  29  30
HETATM   30  C   UNL     1     -10.246  13.232  67.086  1.00  0.00    -0.246 C  
HETATM   31  C   UNL     1      -9.311  14.019  67.649  1.00  0.00    -0.203 C  
BRANCH  31  32
HETATM   32  C   UNL     1      -9.274  15.483  67.576  1.00  0.00    -0.198 A  
HETATM   33  N   UNL     1      -8.266  16.056  68.277  1.00  0.00    -0.155 NA 
HETATM   34  C   UNL     1      -8.190  17.399  68.324  1.00  0.00    -0.247 A  
HETATM   35  C   UNL     1      -9.132  18.228  67.681  1.00  0.00    -0.267 A  
HETATM   36  C   UNL     1     -10.165  17.617  66.967  1.00  0.00    -0.332 A  
HETATM   37  C   UNL     1      -9.030  19.628  67.772  1.00  0.00    -0.385 A  
HETATM   38  C   UNL     1      -7.999  20.207  68.505  1.00  0.00    -0.031 A  
HETATM   39  C   UNL     1     -10.243  16.230  66.920  1.00  0.00    -0.288 A  
HETATM   40  C   UNL     1      -7.065  19.388  69.132  1.00  0.00    -0.349 A  
HETATM   41  C   UNL     1      -7.164  18.000  69.038  1.00  0.00    -0.216 A  
HETATM   42 CL   UNL     1      -5.787  20.098  70.040  1.00  0.00    -0.347 Cl 
ENDBRANCH  31  32
ENDBRANCH  29  30
ENDBRANCH  10  24
ENDBRANCH   9  10
ENDBRANCH   8   9
ENDBRANCH   5   8
ENDBRANCH   3   5
TORSDOF 10
ENDMDL
MODEL      181
REMARK 921   NORMALIZED FREE ENERGY PREDICTED BY IDOCK:   -3.53 KCAL/MOL
REMARK 922        TOTAL FREE ENERGY PREDICTED BY IDOCK:   -7.25 KCAL/MOL
REMARK 923 INTER-LIGAND FREE ENERGY PREDICTED BY IDOCK:   -4.86 KCAL/MOL
REMARK 924 INTRA-LIGAND FREE ENERGY PREDICTED BY IDOCK:   -2.39 KCAL/MOL
REMARK 927      BINDING AFFINITY PREDICTED BY RF-SCORE:    0.00 PKD
ROOT
HETATM    1  O   UNL     1     -11.142  20.498  65.121  1.00  0.00     0.176 OA 
HETATM    2  C   UNL     1     -10.606  19.744  66.114  1.00  0.00    -0.464 C  
HETATM    3  C   UNL     1      -9.099  19.879  66.204  1.00  0.00    -0.393 C  
HETATM    4  O   UNL     1     -11.304  19.083  66.865  1.00  0.00     0.061 OA 
ENDROOT
BRANCH   3   5
HETATM    5  C   UNL     1      -8.404  18.693  66.874  1.00  0.00    -0.269 C  
HETATM    6  C   UNL     1      -8.611  18.535  68.375  1.00  0.00    -0.355 C  
HETATM    7  C   UNL     1      -7.287  19.019  67.853  1.00  0.00    -0.271 C  
BRANCH   5   8
HETATM    8  C   UNL     1      -8.295  17.485  65.952  1.00  0.00     0.037 C  
BRANCH   8   9
HETATM    9  S   UNL     1      -7.377  16.046  66.535  1.00  0.00     0.321 SA 
BRANCH   9  10
HETATM   10  C   UNL     1      -8.746  15.060  67.312  1.00  0.00    -0.203 C  
BRANCH  10  11
HETATM   11  C   UNL     1      -8.325  14.255  68.565  1.00  0.00    -0.156 C  
BRANCH  11  12
HETATM   12  C   UNL     1      -9.263  14.399  69.783  1.00  0.00     0.727 C  
BRANCH  12  13
HETATM   13  C   UNL     1     -10.479  13.486  69.687  1.00  0.00     0.504 A  
HETATM   14  C   UNL     1     -10.214  12.179  69.206  1.00  0.00     0.286 A  
HETATM   15  C   UNL     1     -12.501  11.536  69.447  1.00  0.00    -0.003 A  
HETATM   16  H   UNL     1     -11.701  16.327  72.181  1.00  0.00     0.000 HD 
HETATM   17  C   UNL     1     -11.210  11.222  69.069  1.00  0.00    -0.321 A  
HETATM   18  C   UNL     1     -13.692  15.286  71.104  1.00  0.00    -0.519 C  
HETATM   19  C   UNL     1     -12.785  12.807  69.951  1.00  0.00     0.345 A  
HETATM   20  C   UNL     1     -11.804  13.823  70.079  1.00  0.00    -0.377 A  
HETATM   21  O   UNL     1     -11.447  15.483  71.828  1.00  0.00    -0.390 OA 
HETATM   22  C   UNL     1     -12.000  16.341  69.654  1.00  0.00     0.102 C  
HETATM   23  C   UNL     1     -12.216  15.194  70.653  1.00  0.00    -0.351 C  
ENDBRANCH  12  13
ENDBRANCH  11  12
ENDBRANCH  10  11
BRANCH  10  24
HETATM   24  C   UNL     1      -9.484  14.249  66.243  1.00  0.00    -0.277 A  
HETATM   25  C   UNL     1     -10.836  12.650  64.353  1.00  0.00    -0.386 A  
HETATM   26  C   UNL     1     -10.488  14.791  65.427  1.00  0.00    -0.401 A  
HETATM   27  C   UNL     1      -9.178  12.880  66.086  1.00  0.00    -0.027 A  
HETATM   28  C   UNL     1     -11.158  13.999  64.492  1.00  0.00    -0.360 A  
HETATM   29  C   UNL     1      -9.831  12.076  65.135  1.00  0.00    -0.223 A  
BRANCH  29  30
HETATM   30  C   UNL     1      -9.491  10.646  65.056  1.00  0.00    -0.293 C  
HETATM   31  C   UNL     1      -8.366  10.154  64.507  1.00  0.00    -0.168 C  
BRANCH  31  32
HETATM   32  C   UNL     1      -8.023   8.732  64.396  1.00  0.00    -0.144 A  
HETATM   33  N   UNL     1      -8.605   7.940  65.328  1.00  0.00    -0.108 NA 
HETATM   34  C   UNL     1      -8.299   6.629  65.348  1.00  0.00    -0.129 A  
HETATM   35  C   UNL     1      -7.382   6.058  64.442  1.00  0.00    -0.068 A  
HETATM   36  C   UNL     1      -6.791   6.894  63.492  1.00  0.00    -0.054 A  
HETATM   37  C   UNL     1      -7.072   4.688  64.509  1.00  0.00    -0.050 A  
HETATM   38  C   UNL     1      -7.666   3.885  65.478  1.00  0.00    -0.085 A  
HETATM   39  C   UNL     1      -7.108   8.247  63.473  1.00  0.00    -0.086 A  
HETATM   40  C   UNL     1      -8.576   4.448  66.366  1.00  0.00    -0.112 A  
HETATM   41  C   UNL     1      -8.887   5.806  66.296  1.00  0.00    -0.140 A  
HETATM   42 CL   UNL     1      -9.314   3.459  67.566  1.00  0.00    -0.236 Cl 
ENDBRANCH  31  32
ENDBRANCH  29  30
ENDBRANCH  10  24
ENDBRANCH   9  10
ENDBRANCH   8   9
ENDBRANCH   5   8
ENDBRANCH   3   5
TORSDOF 10
ENDMDL
MODEL      182
REMARK 921   NORMALIZED FREE ENERGY PREDICTED BY IDOCK:   -3.47 KCAL/MOL
REMARK 922        TOTAL FREE ENERGY PREDICTED BY IDOCK:   -7.16 KCAL/MOL
REMARK 923 INTER-LIGAND FREE ENERGY PREDICTED BY IDOCK:   -5.59 KCAL/MOL
REMARK 924 INTRA-LIGAND FREE ENERGY PREDICTED BY IDOCK:   -1.57 KCAL/MOL
REMARK 927      BINDING AFFINITY PREDICTED BY RF-SCORE:    0.00 PKD
ROOT
HETATM    1  O   UNL     1     -12.402   6.336  70.487  1.00  0.00     0.012 OA 
HETATM    2  C   UNL     1     -11.170   6.739  70.891  1.00  0.00    -0.292 C  
HETATM    3  C   UNL     1     -10.701   7.993  70.181  1.00  0.00    -0.244 C  
HETATM    4  O   UNL     1     -10.563   6.154  71.773  1.00  0.00    -0.211 OA 
ENDROOT
BRANCH   3   5
HETATM    5  C   UNL     1      -9.183   8.168  70.160  1.00  0.00    -0.155 C  
HETATM    6  C   UNL     1      -8.527   8.638  71.451  1.00  0.00    -0.240 C  
HETATM    7  C   UNL     1      -8.656   9.587  70.293  1.00  0.00    -0.258 C  
BRANCH   5   8
HETATM    8  C   UNL     1      -8.495   7.173  69.232  1.00  0.00    -0.133 C  
BRANCH   8   9
HETATM    9  S   UNL     1      -9.338   6.703  67.707  1.00  0.00    -0.117 SA 
BRANCH   9  10
HETATM   10  C   UNL     1      -7.890   6.527  66.558  1.00  0.00    -0.104 C  
BRANCH  10  11
HETATM   11  C   UNL     1      -6.560   6.151  67.255  1.00  0.00    -0.055 C  
BRANCH  11  12
HETATM   12  C   UNL     1      -6.174   4.658  67.168  1.00  0.00    -0.036 C  
BRANCH  12  13
HETATM   13  C   UNL     1      -7.089   3.878  66.232  1.00  0.00    -0.064 A  
HETATM   14  C   UNL     1      -6.855   4.087  64.849  1.00  0.00    -0.049 A  
HETATM   15  C   UNL     1      -8.569   2.540  64.240  1.00  0.00    -0.091 A  
HETATM   16  H   UNL     1      -7.443   1.904  69.662  1.00  0.00     0.000 HD 
HETATM   17  C   UNL     1      -7.594   3.444  63.866  1.00  0.00    -0.071 A  
HETATM   18  C   UNL     1      -9.474   1.490  68.278  1.00  0.00    -0.234 C  
HETATM   19  C   UNL     1      -8.802   2.293  65.595  1.00  0.00    -0.124 A  
HETATM   20  C   UNL     1      -8.091   2.950  66.631  1.00  0.00    -0.081 A  
HETATM   21  O   UNL     1      -7.242   2.116  68.758  1.00  0.00    -0.043 OA 
HETATM   22  C   UNL     1      -8.934   3.816  68.890  1.00  0.00    -0.178 C  
HETATM   23  C   UNL     1      -8.418   2.605  68.099  1.00  0.00    -0.078 C  
ENDBRANCH  12  13
ENDBRANCH  11  12
ENDBRANCH  10  11
BRANCH  10  24
HETATM   24  C   UNL     1      -7.808   7.738  65.625  1.00  0.00    -0.107 A  
HETATM   25  C   UNL     1      -7.567  10.024  63.988  1.00  0.00    -0.139 A  
HETATM   26  C   UNL     1      -7.920   7.642  64.230  1.00  0.00    -0.112 A  
HETATM   27  C   UNL     1      -7.570   9.016  66.177  1.00  0.00    -0.095 A  
HETATM   28  C   UNL     1      -7.799   8.773  63.420  1.00  0.00    -0.148 A  
HETATM   29  C   UNL     1      -7.465  10.166  65.374  1.00  0.00    -0.144 A  
BRANCH  29  30
HETATM   30  C   UNL     1      -7.172  11.458  66.014  1.00  0.00     0.231 C  
HETATM   31  C   UNL     1      -7.667  11.856  67.200  1.00  0.00    -0.163 C  
BRANCH  31  32
HETATM   32  C   UNL     1      -7.407  13.151  67.840  1.00  0.00    -0.131 A  
HETATM   33  N   UNL     1      -7.759  14.227  67.096  1.00  0.00    -0.109 NA 
HETATM   34  C   UNL     1      -7.498  15.458  67.571  1.00  0.00    -0.189 A  
HETATM   35  C   UNL     1      -6.856  15.665  68.810  1.00  0.00    -0.118 A  
HETATM   36  C   UNL     1      -6.498  14.542  69.559  1.00  0.00    -0.134 A  
HETATM   37  C   UNL     1      -6.580  16.968  69.262  1.00  0.00    -0.233 A  
HETATM   38  C   UNL     1      -6.935  18.066  68.485  1.00  0.00    -0.245 A  
HETATM   39  C   UNL     1      -6.769  13.270  69.066  1.00  0.00    -0.107 A  
HETATM   40  C   UNL     1      -7.575  17.861  67.267  1.00  0.00    -0.202 A  
HETATM   41  C   UNL     1      -7.852  16.569  66.821  1.00  0.00    -0.296 A  
HETATM   42 CL   UNL     1      -8.016  19.215  66.301  1.00  0.00    -0.306 Cl 
ENDBRANCH  31  32
ENDBRANCH  29  30
ENDBRANCH  10  24
ENDBRANCH   9  10
ENDBRANCH   8   9
ENDBRANCH   5   8
ENDBRANCH   3   5
TORSDOF 10
ENDMDL
MODEL      183
REMARK 921   NORMALIZED FREE ENERGY PREDICTED BY IDOCK:   -3.26 KCAL/MOL
REMARK 922        TOTAL FREE ENERGY PREDICTED BY IDOCK:   -6.82 KCAL/MOL
REMARK 923 INTER-LIGAND FREE ENERGY PREDICTED BY IDOCK:   -5.84 KCAL/MOL
REMARK 924 INTRA-LIGAND FREE ENERGY PREDICTED BY IDOCK:   -0.98 KCAL/MOL
REMARK 927      BINDING AFFINITY PREDICTED BY RF-SCORE:    0.00 PKD
ROOT
HETATM    1  O   UNL     1     -13.424   7.732  71.006  1.00  0.00    -0.126 OA 
HETATM    2  C   UNL     1     -12.277   7.144  70.580  1.00  0.00    -0.200 C  
HETATM    3  C   UNL     1     -11.532   6.437  71.695  1.00  0.00    -0.354 C  
HETATM    4  O   UNL     1     -11.945   7.161  69.406  1.00  0.00     0.332 OA 
ENDROOT
BRANCH   3   5
HETATM    5  C   UNL     1     -10.037   6.257  71.431  1.00  0.00    -0.222 C  
HETATM    6  C   UNL     1      -9.241   5.492  72.480  1.00  0.00    -0.150 C  
HETATM    7  C   UNL     1      -9.085   6.982  72.370  1.00  0.00    -0.147 C  
BRANCH   5   8
HETATM    8  C   UNL     1      -9.717   6.142  69.946  1.00  0.00    -0.163 C  
BRANCH   8   9
HETATM    9  S   UNL     1      -9.288   7.645  69.045  1.00  0.00    -0.145 SA 
BRANCH   9  10
HETATM   10  C   UNL     1      -8.505   6.920  67.525  1.00  0.00    -0.122 C  
BRANCH  10  11
HETATM   11  C   UNL     1      -7.023   6.510  67.701  1.00  0.00    -0.079 C  
BRANCH  11  12
HETATM   12  C   UNL     1      -6.115   7.588  68.332  1.00  0.00    -0.035 C  
BRANCH  12  13
HETATM   13  C   UNL     1      -5.822   8.732  67.370  1.00  0.00    -0.043 A  
HETATM   14  C   UNL     1      -5.488   8.338  66.049  1.00  0.00    -0.028 A  
HETATM   15  C   UNL     1      -5.283  10.606  65.333  1.00  0.00    -0.133 A  
HETATM   16  H   UNL     1      -7.825  10.528  70.293  1.00  0.00     0.000 HD 
HETATM   17  C   UNL     1      -5.204   9.258  65.048  1.00  0.00    -0.041 A  
HETATM   18  C   UNL     1      -6.420  12.219  69.119  1.00  0.00    -0.100 C  
HETATM   19  C   UNL     1      -5.637  11.024  66.618  1.00  0.00    -0.098 A  
HETATM   20  C   UNL     1      -5.906  10.119  67.676  1.00  0.00    -0.045 A  
HETATM   21  O   UNL     1      -7.586  10.183  69.441  1.00  0.00    -0.103 OA 
HETATM   22  C   UNL     1      -5.296  10.286  70.158  1.00  0.00    -0.042 C  
HETATM   23  C   UNL     1      -6.295  10.679  69.060  1.00  0.00    -0.046 C  
ENDBRANCH  12  13
ENDBRANCH  11  12
ENDBRANCH  10  11
BRANCH  10  24
HETATM   24  C   UNL     1      -8.788   7.810  66.312  1.00  0.00    -0.187 A  
HETATM   25  C   UNL     1      -9.278   9.556  64.151  1.00  0.00    -0.142 A  
HETATM   26  C   UNL     1      -8.484   7.432  64.995  1.00  0.00     0.007 A  
HETATM   27  C   UNL     1      -9.344   9.092  66.514  1.00  0.00    -0.246 A  
HETATM   28  C   UNL     1      -8.726   8.297  63.926  1.00  0.00     0.302 A  
HETATM   29  C   UNL     1      -9.610   9.965  65.445  1.00  0.00    -0.350 A  
BRANCH  29  30
HETATM   30  C   UNL     1     -10.151  11.303  65.734  1.00  0.00    -0.294 C  
HETATM   31  C   UNL     1      -9.713  12.111  66.717  1.00  0.00    -0.215 C  
BRANCH  31  32
HETATM   32  C   UNL     1     -10.257  13.435  67.036  1.00  0.00    -0.249 A  
HETATM   33  N   UNL     1      -9.418  14.466  66.772  1.00  0.00    -0.256 NA 
HETATM   34  C   UNL     1      -9.804  15.715  67.093  1.00  0.00    -0.229 A  
HETATM   35  C   UNL     1     -11.043  15.983  67.709  1.00  0.00    -0.273 A  
HETATM   36  C   UNL     1     -11.890  14.906  67.977  1.00  0.00    -0.296 A  
HETATM   37  C   UNL     1     -11.400  17.301  68.050  1.00  0.00     0.276 A  
HETATM   38  C   UNL     1     -10.527  18.351  67.785  1.00  0.00    -0.433 A  
HETATM   39  C   UNL     1     -11.491  13.617  67.645  1.00  0.00    -0.357 A  
HETATM   40  C   UNL     1      -9.308  18.086  67.169  1.00  0.00    -0.259 A  
HETATM   41  C   UNL     1      -8.956  16.780  66.827  1.00  0.00    -0.265 A  
HETATM   42 CL   UNL     1      -8.224  19.381  66.839  1.00  0.00    -0.288 Cl 
ENDBRANCH  31  32
ENDBRANCH  29  30
ENDBRANCH  10  24
ENDBRANCH   9  10
ENDBRANCH   8   9
ENDBRANCH   5   8
ENDBRANCH   3   5
TORSDOF 10
ENDMDL
MODEL      184
REMARK 921   NORMALIZED FREE ENERGY PREDICTED BY IDOCK:   -3.24 KCAL/MOL
REMARK 922        TOTAL FREE ENERGY PREDICTED BY IDOCK:   -6.78 KCAL/MOL
REMARK 923 INTER-LIGAND FREE ENERGY PREDICTED BY IDOCK:   -7.94 KCAL/MOL
REMARK 924 INTRA-LIGAND FREE ENERGY PREDICTED BY IDOCK:    1.16 KCAL/MOL
REMARK 927      BINDING AFFINITY PREDICTED BY RF-SCORE:    0.00 PKD
ROOT
HETATM    1  O   UNL     1      -8.493  11.671  67.032  1.00  0.00    -0.155 OA 
HETATM    2  C   UNL     1      -9.022  10.559  67.602  1.00  0.00    -0.138 C  
HETATM    3  C   UNL     1      -8.792  10.499  69.098  1.00  0.00    -0.161 C  
HETATM    4  O   UNL     1      -9.655   9.745  66.949  1.00  0.00    -0.166 OA 
ENDROOT
BRANCH   3   5
HETATM    5  C   UNL     1      -8.847   9.089  69.684  1.00  0.00    -0.145 C  
HETATM    6  C   UNL     1      -7.707   8.148  69.317  1.00  0.00    -0.104 C  
HETATM    7  C   UNL     1      -9.064   7.949  68.701  1.00  0.00    -0.136 C  
BRANCH   5   8
HETATM    8  C   UNL     1      -9.497   9.055  71.061  1.00  0.00    -0.274 C  
BRANCH   8   9
HETATM    9  S   UNL     1      -9.026   7.735  72.197  1.00  0.00    -0.149 SA 
BRANCH   9  10
HETATM   10  C   UNL     1     -10.668   7.350  72.974  1.00  0.00    -0.364 C  
BRANCH  10  11
HETATM   11  C   UNL     1     -10.962   5.839  73.137  1.00  0.00    -0.309 C  
BRANCH  11  12
HETATM   12  C   UNL     1     -11.037   5.041  71.817  1.00  0.00     0.089 C  
BRANCH  12  13
HETATM   13  C   UNL     1      -9.741   4.297  71.517  1.00  0.00    -0.244 A  
HETATM   14  C   UNL     1      -9.020   4.774  70.393  1.00  0.00    -0.147 A  
HETATM   15  C   UNL     1      -7.276   3.178  70.730  1.00  0.00    -0.033 A  
HETATM   16  H   UNL     1     -10.466   3.321  75.300  1.00  0.00     0.000 HD 
HETATM   17  C   UNL     1      -7.814   4.214  69.992  1.00  0.00    -0.052 A  
HETATM   18  C   UNL     1      -9.029   1.563  74.272  1.00  0.00    -0.060 C  
HETATM   19  C   UNL     1      -7.951   2.707  71.859  1.00  0.00    -0.053 A  
HETATM   20  C   UNL     1      -9.198   3.231  72.286  1.00  0.00    -0.156 A  
HETATM   21  O   UNL     1     -10.056   3.681  74.522  1.00  0.00    -0.142 OA 
HETATM   22  C   UNL     1     -11.231   2.012  73.257  1.00  0.00    -0.262 C  
HETATM   23  C   UNL     1      -9.863   2.646  73.549  1.00  0.00    -0.101 C  
ENDBRANCH  12  13
ENDBRANCH  11  12
ENDBRANCH  10  11
BRANCH  10  24
HETATM   24  C   UNL     1     -11.776   8.152  72.287  1.00  0.00    -0.439 A  
HETATM   25  C   UNL     1     -13.724   9.696  70.952  1.00  0.00     0.004 A  
HETATM   26  C   UNL     1     -13.017   7.600  71.935  1.00  0.00    -0.299 A  
HETATM   27  C   UNL     1     -11.539   9.502  71.948  1.00  0.00    -0.268 A  
HETATM   28  C   UNL     1     -13.981   8.364  71.273  1.00  0.00    -0.242 A  
HETATM   29  C   UNL     1     -12.507  10.288  71.299  1.00  0.00    -0.514 A  
BRANCH  29  30
HETATM   30  C   UNL     1     -12.175  11.675  70.937  1.00  0.00    -0.401 C  
HETATM   31  C   UNL     1     -12.025  12.125  69.678  1.00  0.00    -0.351 C  
BRANCH  31  32
HETATM   32  C   UNL     1     -11.668  13.497  69.301  1.00  0.00    -0.330 A  
HETATM   33  N   UNL     1     -10.347  13.692  69.071  1.00  0.00    -0.104 NA 
HETATM   34  C   UNL     1      -9.914  14.933  68.783  1.00  0.00    -0.228 A  
HETATM   35  C   UNL     1     -10.787  16.039  68.729  1.00  0.00    -0.302 A  
HETATM   36  C   UNL     1     -12.144  15.817  68.974  1.00  0.00    -0.190 A  
HETATM   37  C   UNL     1     -10.293  17.325  68.448  1.00  0.00    -0.366 A  
HETATM   38  C   UNL     1      -8.932  17.517  68.225  1.00  0.00    -0.267 A  
HETATM   39  C   UNL     1     -12.589  14.534  69.271  1.00  0.00     0.090 A  
HETATM   40  C   UNL     1      -8.074  16.423  68.270  1.00  0.00    -0.171 A  
HETATM   41  C   UNL     1      -8.565  15.147  68.545  1.00  0.00    -0.163 A  
HETATM   42 CL   UNL     1      -6.391  16.654  67.995  1.00  0.00    -0.137 Cl 
ENDBRANCH  31  32
ENDBRANCH  29  30
ENDBRANCH  10  24
ENDBRANCH   9  10
ENDBRANCH   8   9
ENDBRANCH   5   8
ENDBRANCH   3   5
TORSDOF 10
ENDMDL
MODEL      185
REMARK 921   NORMALIZED FREE ENERGY PREDICTED BY IDOCK:   -3.19 KCAL/MOL
REMARK 922        TOTAL FREE ENERGY PREDICTED BY IDOCK:   -6.71 KCAL/MOL
REMARK 923 INTER-LIGAND FREE ENERGY PREDICTED BY IDOCK:   -6.88 KCAL/MOL
REMARK 924 INTRA-LIGAND FREE ENERGY PREDICTED BY IDOCK:    0.17 KCAL/MOL
REMARK 927      BINDING AFFINITY PREDICTED BY RF-SCORE:    0.00 PKD
ROOT
HETATM    1  O   UNL     1     -11.647   9.456  69.361  1.00  0.00     0.111 OA 
HETATM    2  C   UNL     1     -11.289  10.757  69.507  1.00  0.00    -0.289 C  
HETATM    3  C   UNL     1     -12.332  11.717  68.970  1.00  0.00     0.026 C  
HETATM    4  O   UNL     1     -10.253  11.077  70.066  1.00  0.00     0.208 OA 
ENDROOT
BRANCH   3   5
HETATM    5  C   UNL     1     -11.781  13.092  68.595  1.00  0.00    -0.362 C  
HETATM    6  C   UNL     1     -10.935  13.803  69.642  1.00  0.00    -0.017 C  
HETATM    7  C   UNL     1     -12.331  14.282  69.364  1.00  0.00    -0.238 C  
BRANCH   5   8
HETATM    8  C   UNL     1     -11.474  13.210  67.107  1.00  0.00    -0.334 C  
BRANCH   8   9
HETATM    9  S   UNL     1      -9.751  13.117  66.580  1.00  0.00    -0.268 SA 
BRANCH   9  10
HETATM   10  C   UNL     1      -8.888  13.630  68.142  1.00  0.00    -0.189 C  
BRANCH  10  11
HETATM   11  C   UNL     1      -8.555  15.139  68.225  1.00  0.00    -0.164 C  
BRANCH  11  12
HETATM   12  C   UNL     1      -8.860  15.948  66.945  1.00  0.00    -0.264 C  
BRANCH  12  13
HETATM   13  C   UNL     1      -9.089  17.426  67.237  1.00  0.00    -0.239 A  
HETATM   14  C   UNL     1     -10.449  17.827  67.278  1.00  0.00    -0.356 A  
HETATM   15  C   UNL     1      -9.856  20.078  67.810  1.00  0.00    -0.545 A  
HETATM   16  H   UNL     1      -5.370  16.843  68.505  1.00  0.00     0.000 HD 
HETATM   17  C   UNL     1     -10.829  19.136  67.542  1.00  0.00    -0.512 A  
HETATM   18  C   UNL     1      -5.669  19.256  67.960  1.00  0.00    -0.205 C  
HETATM   19  C   UNL     1      -8.510  19.704  67.804  1.00  0.00    -0.358 A  
HETATM   20  C   UNL     1      -8.077  18.386  67.511  1.00  0.00    -0.253 A  
HETATM   21  O   UNL     1      -6.300  17.036  68.490  1.00  0.00    -0.146 OA 
HETATM   22  C   UNL     1      -6.040  17.601  66.170  1.00  0.00    -0.258 C  
HETATM   23  C   UNL     1      -6.567  18.071  67.534  1.00  0.00    -0.180 C  
ENDBRANCH  12  13
ENDBRANCH  11  12
ENDBRANCH  10  11
BRANCH  10  24
HETATM   24  C   UNL     1      -7.710  12.693  68.424  1.00  0.00    -0.133 A  
HETATM   25  C   UNL     1      -5.579  10.893  68.842  1.00  0.00    -0.040 A  
HETATM   26  C   UNL     1      -6.459  13.147  68.868  1.00  0.00    -0.097 A  
HETATM   27  C   UNL     1      -7.862  11.309  68.193  1.00  0.00    -0.127 A  
HETATM   28  C   UNL     1      -5.404  12.255  69.073  1.00  0.00    -0.055 A  
HETATM   29  C   UNL     1      -6.814  10.398  68.414  1.00  0.00    -0.064 A  
BRANCH  29  30
HETATM   30  C   UNL     1      -7.030   8.975  68.111  1.00  0.00    -0.077 C  
HETATM   31  C   UNL     1      -8.236   8.389  67.995  1.00  0.00    -0.127 C  
BRANCH  31  32
HETATM   32  C   UNL     1      -8.470   6.968  67.719  1.00  0.00    -0.120 A  
HETATM   33  N   UNL     1      -8.240   6.599  66.436  1.00  0.00    -0.112 NA 
HETATM   34  C   UNL     1      -8.490   5.328  66.072  1.00  0.00    -0.120 A  
HETATM   35  C   UNL     1      -8.998   4.373  66.976  1.00  0.00    -0.125 A  
HETATM   36  C   UNL     1      -9.233   4.776  68.293  1.00  0.00    -0.159 A  
HETATM   37  C   UNL     1      -9.268   3.060  66.551  1.00  0.00    -0.142 A  
HETATM   38  C   UNL     1      -9.040   2.694  65.228  1.00  0.00    -0.138 A  
HETATM   39  C   UNL     1      -8.973   6.089  68.668  1.00  0.00    -0.118 A  
HETATM   40  C   UNL     1      -8.531   3.634  64.339  1.00  0.00    -0.093 A  
HETATM   41  C   UNL     1      -8.259   4.935  64.762  1.00  0.00    -0.126 A  
HETATM   42 CL   UNL     1      -8.247   3.187  62.701  1.00  0.00    -0.073 Cl 
ENDBRANCH  31  32
ENDBRANCH  29  30
ENDBRANCH  10  24
ENDBRANCH   9  10
ENDBRANCH   8   9
ENDBRANCH   5   8
ENDBRANCH   3   5
TORSDOF 10
ENDMDL
MODEL      186
REMARK 921   NORMALIZED FREE ENERGY PREDICTED BY IDOCK:   -3.01 KCAL/MOL
REMARK 922        TOTAL FREE ENERGY PREDICTED BY IDOCK:   -6.42 KCAL/MOL
REMARK 923 INTER-LIGAND FREE ENERGY PREDICTED BY IDOCK:   -6.00 KCAL/MOL
REMARK 924 INTRA-LIGAND FREE ENERGY PREDICTED BY IDOCK:   -0.42 KCAL/MOL
REMARK 927      BINDING AFFINITY PREDICTED BY RF-SCORE:    0.00 PKD
ROOT
HETATM    1  O   UNL     1     -13.276  14.549  65.243  1.00  0.00    -0.512 OA 
HETATM    2  C   UNL     1     -12.167  13.832  65.559  1.00  0.00    -0.442 C  
HETATM    3  C   UNL     1     -11.455  13.285  64.338  1.00  0.00    -0.416 C  
HETATM    4  O   UNL     1     -11.790  13.710  66.713  1.00  0.00    -0.367 OA 
ENDROOT
BRANCH   3   5
HETATM    5  C   UNL     1     -10.584  12.061  64.619  1.00  0.00    -0.351 C  
HETATM    6  C   UNL     1      -9.194  12.321  65.184  1.00  0.00     0.356 C  
HETATM    7  C   UNL     1      -9.346  11.889  63.753  1.00  0.00     0.100 C  
BRANCH   5   8
HETATM    8  C   UNL     1     -11.404  10.848  65.043  1.00  0.00     0.464 C  
BRANCH   8   9
HETATM    9  S   UNL     1     -11.489  10.447  66.800  1.00  0.00     1.101 SA 
BRANCH   9  10
HETATM   10  C   UNL     1      -9.942   9.438  66.995  1.00  0.00    -0.221 C  
BRANCH  10  11
HETATM   11  C   UNL     1     -10.176   7.999  67.515  1.00  0.00    -0.311 C  
BRANCH  11  12
HETATM   12  C   UNL     1      -9.633   6.876  66.604  1.00  0.00    -0.218 C  
BRANCH  12  13
HETATM   13  C   UNL     1      -9.217   5.642  67.394  1.00  0.00    -0.109 A  
HETATM   14  C   UNL     1      -9.371   5.747  68.800  1.00  0.00    -0.135 A  
HETATM   15  C   UNL     1      -8.595   3.514  69.136  1.00  0.00    -0.113 A  
HETATM   16  H   UNL     1      -9.711   4.214  63.720  1.00  0.00     0.000 HD 
HETATM   17  C   UNL     1      -9.049   4.707  69.662  1.00  0.00    -0.163 A  
HETATM   18  C   UNL     1      -8.153   2.720  64.965  1.00  0.00    -0.083 C  
HETATM   19  C   UNL     1      -8.460   3.372  67.753  1.00  0.00    -0.108 A  
HETATM   20  C   UNL     1      -8.750   4.418  66.840  1.00  0.00    -0.112 A  
HETATM   21  O   UNL     1      -9.820   4.372  64.650  1.00  0.00    -0.156 OA 
HETATM   22  C   UNL     1      -7.528   5.089  64.690  1.00  0.00    -0.075 C  
HETATM   23  C   UNL     1      -8.574   4.163  65.328  1.00  0.00    -0.119 C  
ENDBRANCH  12  13
ENDBRANCH  11  12
ENDBRANCH  10  11
BRANCH  10  24
HETATM   24  C   UNL     1      -8.886  10.237  67.763  1.00  0.00    -0.125 A  
HETATM   25  C   UNL     1      -7.030  11.806  69.196  1.00  0.00    -0.091 A  
HETATM   26  C   UNL     1      -7.937   9.641  68.608  1.00  0.00    -0.089 A  
HETATM   27  C   UNL     1      -8.878  11.645  67.659  1.00  0.00    -0.159 A  
HETATM   28  C   UNL     1      -7.019  10.418  69.317  1.00  0.00    -0.080 A  
HETATM   29  C   UNL     1      -7.948  12.438  68.353  1.00  0.00    -0.149 A  
BRANCH  29  30
HETATM   30  C   UNL     1      -8.027  13.902  68.231  1.00  0.00    -0.148 C  
HETATM   31  C   UNL     1      -8.273  14.564  67.086  1.00  0.00    -0.214 C  
BRANCH  31  32
HETATM   32  C   UNL     1      -8.329  16.023  66.941  1.00  0.00    -0.243 A  
HETATM   33  N   UNL     1      -7.372  16.694  67.627  1.00  0.00    -0.138 NA 
HETATM   34  C   UNL     1      -7.383  18.039  67.608  1.00  0.00    -0.208 A  
HETATM   35  C   UNL     1      -8.366  18.773  66.913  1.00  0.00    -0.277 A  
HETATM   36  C   UNL     1      -9.346  18.062  66.216  1.00  0.00    -0.220 A  
HETATM   37  C   UNL     1      -8.356  20.179  66.936  1.00  0.00    -0.370 A  
HETATM   38  C   UNL     1      -7.376  20.859  67.654  1.00  0.00    -0.277 A  
HETATM   39  C   UNL     1      -9.333  16.672  66.236  1.00  0.00    -0.323 A  
HETATM   40  C   UNL     1      -6.403  20.134  68.333  1.00  0.00    -0.291 A  
HETATM   41  C   UNL     1      -6.410  18.739  68.305  1.00  0.00    -0.224 A  
HETATM   42 CL   UNL     1      -5.189  20.968  69.222  1.00  0.00    -0.389 Cl 
ENDBRANCH  31  32
ENDBRANCH  29  30
ENDBRANCH  10  24
ENDBRANCH   9  10
ENDBRANCH   8   9
ENDBRANCH   5   8
ENDBRANCH   3   5
TORSDOF 10
ENDMDL
MODEL      187
REMARK 921   NORMALIZED FREE ENERGY PREDICTED BY IDOCK:   -2.80 KCAL/MOL
REMARK 922        TOTAL FREE ENERGY PREDICTED BY IDOCK:   -6.10 KCAL/MOL
REMARK 923 INTER-LIGAND FREE ENERGY PREDICTED BY IDOCK:   -4.25 KCAL/MOL
REMARK 924 INTRA-LIGAND FREE ENERGY PREDICTED BY IDOCK:   -1.85 KCAL/MOL
REMARK 927      BINDING AFFINITY PREDICTED BY RF-SCORE:    0.00 PKD
ROOT
HETATM    1  O   UNL     1     -11.194   7.164  68.317  1.00  0.00     0.002 OA 
HETATM    2  C   UNL     1     -10.230   7.076  67.366  1.00  0.00    -0.215 C  
HETATM    3  C   UNL     1      -8.917   7.694  67.803  1.00  0.00    -0.131 C  
HETATM    4  O   UNL     1     -10.426   6.504  66.306  1.00  0.00     0.010 OA 
ENDROOT
BRANCH   3   5
HETATM    5  C   UNL     1      -8.014   8.125  66.647  1.00  0.00    -0.102 C  
HETATM    6  C   UNL     1      -7.668   7.062  65.613  1.00  0.00    -0.102 C  
HETATM    7  C   UNL     1      -6.625   7.508  66.598  1.00  0.00    -0.054 C  
BRANCH   5   8
HETATM    8  C   UNL     1      -8.226   9.582  66.255  1.00  0.00    -0.115 C  
BRANCH   8   9
HETATM    9  S   UNL     1      -6.885  10.751  66.554  1.00  0.00    -0.137 SA 
BRANCH   9  10
HETATM   10  C   UNL     1      -7.514  11.609  68.076  1.00  0.00    -0.100 C  
BRANCH  10  11
HETATM   11  C   UNL     1      -7.639  13.146  67.941  1.00  0.00    -0.147 C  
BRANCH  11  12
HETATM   12  C   UNL     1      -9.062  13.709  68.144  1.00  0.00    -0.195 C  
BRANCH  12  13
HETATM   13  C   UNL     1     -10.100  12.607  68.313  1.00  0.00    -0.233 A  
HETATM   14  C   UNL     1      -9.909  11.769  69.442  1.00  0.00     0.540 A  
HETATM   15  C   UNL     1     -11.877  10.511  68.945  1.00  0.00    -0.136 A  
HETATM   16  H   UNL     1     -11.918  15.165  65.877  1.00  0.00     0.000 HD 
HETATM   17  C   UNL     1     -10.773  10.725  69.745  1.00  0.00    -0.241 A  
HETATM   18  C   UNL     1     -12.916  12.903  65.565  1.00  0.00     0.238 C  
HETATM   19  C   UNL     1     -12.106  11.339  67.843  1.00  0.00     0.136 A  
HETATM   20  C   UNL     1     -11.234  12.397  67.481  1.00  0.00    -0.348 A  
HETATM   21  O   UNL     1     -11.708  14.634  66.636  1.00  0.00    -0.372 OA 
HETATM   22  C   UNL     1     -10.501  13.179  65.154  1.00  0.00    -0.339 C  
HETATM   23  C   UNL     1     -11.576  13.260  66.249  1.00  0.00    -0.346 C  
ENDBRANCH  12  13
ENDBRANCH  11  12
ENDBRANCH  10  11
BRANCH  10  24
HETATM   24  C   UNL     1      -6.739  11.132  69.307  1.00  0.00    -0.103 A  
HETATM   25  C   UNL     1      -5.300  10.133  71.519  1.00  0.00    -0.050 A  
HETATM   26  C   UNL     1      -5.843  11.949  70.014  1.00  0.00    -0.150 A  
HETATM   27  C   UNL     1      -6.891   9.797  69.741  1.00  0.00    -0.074 A  
HETATM   28  C   UNL     1      -5.130  11.454  71.108  1.00  0.00    -0.113 A  
HETATM   29  C   UNL     1      -6.194   9.291  70.853  1.00  0.00    -0.068 A  
BRANCH  29  30
HETATM   30  C   UNL     1      -6.369   7.878  71.221  1.00  0.00    -0.034 C  
HETATM   31  C   UNL     1      -7.209   7.023  70.609  1.00  0.00    -0.068 C  
BRANCH  31  32
HETATM   32  C   UNL     1      -7.416   5.619  70.980  1.00  0.00    -0.090 A  
HETATM   33  N   UNL     1      -8.644   5.345  71.482  1.00  0.00    -0.129 NA 
HETATM   34  C   UNL     1      -8.905   4.097  71.912  1.00  0.00    -0.114 A  
HETATM   35  C   UNL     1      -7.939   3.071  71.872  1.00  0.00    -0.058 A  
HETATM   36  C   UNL     1      -6.678   3.376  71.355  1.00  0.00    -0.030 A  
HETATM   37  C   UNL     1      -8.244   1.784  72.352  1.00  0.00    -0.053 A  
HETATM   38  C   UNL     1      -9.505   1.516  72.877  1.00  0.00    -0.099 A  
HETATM   39  C   UNL     1      -6.410   4.666  70.911  1.00  0.00    -0.019 A  
HETATM   40  C   UNL     1     -10.459   2.527  72.908  1.00  0.00    -0.152 A  
HETATM   41  C   UNL     1     -10.158   3.801  72.428  1.00  0.00    -0.237 A  
HETATM   42 CL   UNL     1     -12.020   2.201  73.556  1.00  0.00    -0.222 Cl 
ENDBRANCH  31  32
ENDBRANCH  29  30
ENDBRANCH  10  24
ENDBRANCH   9  10
ENDBRANCH   8   9
ENDBRANCH   5   8
ENDBRANCH   3   5
TORSDOF 10
ENDMDL
MODEL      188
REMARK 921   NORMALIZED FREE ENERGY PREDICTED BY IDOCK:   -2.72 KCAL/MOL
REMARK 922        TOTAL FREE ENERGY PREDICTED BY IDOCK:   -5.97 KCAL/MOL
REMARK 923 INTER-LIGAND FREE ENERGY PREDICTED BY IDOCK:   -6.83 KCAL/MOL
REMARK 924 INTRA-LIGAND FREE ENERGY PREDICTED BY IDOCK:    0.86 KCAL/MOL
REMARK 927      BINDING AFFINITY PREDICTED BY RF-SCORE:    0.00 PKD
ROOT
HETATM    1  O   UNL     1     -11.658   9.434  69.391  1.00  0.00     0.111 OA 
HETATM    2  C   UNL     1     -11.274  10.733  69.475  1.00  0.00    -0.281 C  
HETATM    3  C   UNL     1     -12.266  11.681  68.831  1.00  0.00    -0.112 C  
HETATM    4  O   UNL     1     -10.256  11.063  70.062  1.00  0.00     0.208 OA 
ENDROOT
BRANCH   3   5
HETATM    5  C   UNL     1     -11.663  13.018  68.400  1.00  0.00    -0.386 C  
HETATM    6  C   UNL     1     -10.900  13.801  69.460  1.00  0.00    -0.003 C  
HETATM    7  C   UNL     1     -12.259  14.270  69.023  1.00  0.00    -0.255 C  
BRANCH   5   8
HETATM    8  C   UNL     1     -11.225  13.015  66.940  1.00  0.00    -0.295 C  
BRANCH   8   9
HETATM    9  S   UNL     1      -9.459  12.938  66.578  1.00  0.00    -0.226 SA 
BRANCH   9  10
HETATM   10  C   UNL     1      -8.757  13.615  68.159  1.00  0.00    -0.177 C  
BRANCH  10  11
HETATM   11  C   UNL     1      -8.545  15.149  68.161  1.00  0.00    -0.158 C  
BRANCH  11  12
HETATM   12  C   UNL     1      -8.851  15.855  66.822  1.00  0.00    -0.294 C  
BRANCH  12  13
HETATM   13  C   UNL     1      -9.159  17.335  67.007  1.00  0.00    -0.247 A  
HETATM   14  C   UNL     1     -10.537  17.672  66.974  1.00  0.00    -0.254 A  
HETATM   15  C   UNL     1     -10.067  19.978  67.376  1.00  0.00    -0.568 A  
HETATM   16  H   UNL     1      -5.467  17.016  68.438  1.00  0.00     0.000 HD 
HETATM   17  C   UNL     1     -10.986  18.975  67.137  1.00  0.00    -0.338 A  
HETATM   18  C   UNL     1      -5.856  19.371  67.724  1.00  0.00    -0.207 C  
HETATM   19  C   UNL     1      -8.706  19.671  67.441  1.00  0.00    -0.364 A  
HETATM   20  C   UNL     1      -8.203  18.359  67.251  1.00  0.00    -0.246 A  
HETATM   21  O   UNL     1      -6.404  17.163  68.379  1.00  0.00    -0.149 OA 
HETATM   22  C   UNL     1      -6.083  17.588  66.037  1.00  0.00    -0.191 C  
HETATM   23  C   UNL     1      -6.682  18.119  67.348  1.00  0.00    -0.194 C  
ENDBRANCH  12  13
ENDBRANCH  11  12
ENDBRANCH  10  11
BRANCH  10  24
HETATM   24  C   UNL     1      -7.537  12.795  68.586  1.00  0.00    -0.085 A  
HETATM   25  C   UNL     1      -5.357  11.173  69.346  1.00  0.00    -0.044 A  
HETATM   26  C   UNL     1      -6.216  13.197  68.334  1.00  0.00    -0.083 A  
HETATM   27  C   UNL     1      -7.733  11.554  69.229  1.00  0.00     0.105 A  
HETATM   28  C   UNL     1      -5.138  12.393  68.710  1.00  0.00    -0.055 A  
HETATM   29  C   UNL     1      -6.656  10.744  69.629  1.00  0.00    -0.114 A  
BRANCH  29  30
HETATM   30  C   UNL     1      -6.937   9.442  70.256  1.00  0.00    -0.087 C  
HETATM   31  C   UNL     1      -8.112   9.096  70.812  1.00  0.00    -0.207 C  
BRANCH  31  32
HETATM   32  C   UNL     1      -8.401   7.813  71.463  1.00  0.00    -0.109 A  
HETATM   33  N   UNL     1      -8.561   6.773  70.610  1.00  0.00    -0.141 NA 
HETATM   34  C   UNL     1      -8.894   5.569  71.110  1.00  0.00    -0.134 A  
HETATM   35  C   UNL     1      -9.097   5.359  72.490  1.00  0.00    -0.142 A  
HETATM   36  C   UNL     1      -8.931   6.446  73.351  1.00  0.00    -0.131 A  
HETATM   37  C   UNL     1      -9.466   4.090  72.971  1.00  0.00    -0.145 A  
HETATM   38  C   UNL     1      -9.640   3.030  72.086  1.00  0.00    -0.210 A  
HETATM   39  C   UNL     1      -8.587   7.689  72.832  1.00  0.00    -0.190 A  
HETATM   40  C   UNL     1      -9.431   3.237  70.726  1.00  0.00    -0.166 A  
HETATM   41  C   UNL     1      -9.061   4.495  70.249  1.00  0.00    -0.159 A  
HETATM   42 CL   UNL     1      -9.645   1.931  69.627  1.00  0.00    -0.107 Cl 
ENDBRANCH  31  32
ENDBRANCH  29  30
ENDBRANCH  10  24
ENDBRANCH   9  10
ENDBRANCH   8   9
ENDBRANCH   5   8
ENDBRANCH   3   5
TORSDOF 10
ENDMDL
MODEL      189
REMARK 921   NORMALIZED FREE ENERGY PREDICTED BY IDOCK:   -2.65 KCAL/MOL
REMARK 922        TOTAL FREE ENERGY PREDICTED BY IDOCK:   -5.86 KCAL/MOL
REMARK 923 INTER-LIGAND FREE ENERGY PREDICTED BY IDOCK:   -6.72 KCAL/MOL
REMARK 924 INTRA-LIGAND FREE ENERGY PREDICTED BY IDOCK:    0.86 KCAL/MOL
REMARK 927      BINDING AFFINITY PREDICTED BY RF-SCORE:    0.00 PKD
ROOT
HETATM    1  O   UNL     1     -12.732  10.945  69.605  1.00  0.00    -0.235 OA 
HETATM    2  C   UNL     1     -12.793   9.881  70.446  1.00  0.00     0.054 C  
HETATM    3  C   UNL     1     -11.504   9.085  70.478  1.00  0.00    -0.248 C  
HETATM    4  O   UNL     1     -13.782   9.657  71.125  1.00  0.00    -0.304 OA 
ENDROOT
BRANCH   3   5
HETATM    5  C   UNL     1     -11.676   7.634  70.928  1.00  0.00    -0.291 C  
HETATM    6  C   UNL     1     -12.932   6.914  70.458  1.00  0.00     0.391 C  
HETATM    7  C   UNL     1     -12.817   7.348  71.891  1.00  0.00    -0.305 C  
BRANCH   5   8
HETATM    8  C   UNL     1     -10.345   6.907  71.071  1.00  0.00    -0.205 C  
BRANCH   8   9
HETATM    9  S   UNL     1      -9.732   5.963  69.661  1.00  0.00    -0.165 SA 
BRANCH   9  10
HETATM   10  C   UNL     1      -8.466   7.142  68.985  1.00  0.00    -0.129 C  
BRANCH  10  11
HETATM   11  C   UNL     1      -7.488   7.708  70.043  1.00  0.00    -0.082 C  
BRANCH  11  12
HETATM   12  C   UNL     1      -8.111   7.987  71.428  1.00  0.00    -0.118 C  
BRANCH  12  13
HETATM   13  C   UNL     1      -7.078   7.942  72.546  1.00  0.00    -0.095 A  
HETATM   14  C   UNL     1      -6.323   9.131  72.716  1.00  0.00     0.203 A  
HETATM   15  C   UNL     1      -5.127   8.206  74.564  1.00  0.00    -0.069 A  
HETATM   16  H   UNL     1      -9.521   4.953  73.483  1.00  0.00     0.000 HD 
HETATM   17  C   UNL     1      -5.348   9.258  73.697  1.00  0.00    -0.095 A  
HETATM   18  C   UNL     1      -7.293   4.528  74.514  1.00  0.00    -0.073 C  
HETATM   19  C   UNL     1      -5.875   7.034  74.439  1.00  0.00    -0.070 A  
HETATM   20  C   UNL     1      -6.859   6.852  73.433  1.00  0.00    -0.074 A  
HETATM   21  O   UNL     1      -9.042   5.772  73.516  1.00  0.00    -0.132 OA 
HETATM   22  C   UNL     1      -7.419   4.761  72.063  1.00  0.00    -0.082 C  
HETATM   23  C   UNL     1      -7.637   5.521  73.380  1.00  0.00    -0.096 C  
ENDBRANCH  12  13
ENDBRANCH  11  12
ENDBRANCH  10  11
BRANCH  10  24
HETATM   24  C   UNL     1      -9.144   8.195  68.105  1.00  0.00    -0.134 A  
HETATM   25  C   UNL     1     -10.308  10.226  66.530  1.00  0.00    -0.276 A  
HETATM   26  C   UNL     1      -9.675   7.911  66.838  1.00  0.00    -0.285 A  
HETATM   27  C   UNL     1      -9.213   9.530  68.560  1.00  0.00    -0.131 A  
HETATM   28  C   UNL     1     -10.249   8.916  66.058  1.00  0.00     0.055 A  
HETATM   29  C   UNL     1      -9.805  10.549  67.793  1.00  0.00    -0.188 A  
BRANCH  29  30
HETATM   30  C   UNL     1      -9.802  11.926  68.311  1.00  0.00    -0.199 C  
HETATM   31  C   UNL     1     -10.470  12.955  67.759  1.00  0.00    -0.225 C  
BRANCH  31  32
HETATM   32  C   UNL     1     -10.457  14.338  68.247  1.00  0.00    -0.247 A  
HETATM   33  N   UNL     1     -10.390  15.278  67.272  1.00  0.00    -0.260 NA 
HETATM   34  C   UNL     1     -10.306  16.574  67.625  1.00  0.00    -0.291 A  
HETATM   35  C   UNL     1     -10.270  16.985  68.973  1.00  0.00    -0.313 A  
HETATM   36  C   UNL     1     -10.335  16.000  69.962  1.00  0.00    -0.204 A  
HETATM   37  C   UNL     1     -10.159  18.348  69.301  1.00  0.00    -0.045 A  
HETATM   38  C   UNL     1     -10.079  19.304  68.293  1.00  0.00    -0.516 A  
HETATM   39  C   UNL     1     -10.422  14.662  69.596  1.00  0.00    -0.076 A  
HETATM   40  C   UNL     1     -10.124  18.898  66.963  1.00  0.00    -0.354 A  
HETATM   41  C   UNL     1     -10.238  17.546  66.639  1.00  0.00    -0.332 A  
HETATM   42 CL   UNL     1     -10.025  20.075  65.712  1.00  0.00    -0.475 Cl 
ENDBRANCH  31  32
ENDBRANCH  29  30
ENDBRANCH  10  24
ENDBRANCH   9  10
ENDBRANCH   8   9
ENDBRANCH   5   8
ENDBRANCH   3   5
TORSDOF 10
ENDMDL
MODEL      190
REMARK 921   NORMALIZED FREE ENERGY PREDICTED BY IDOCK:   -2.59 KCAL/MOL
REMARK 922        TOTAL FREE ENERGY PREDICTED BY IDOCK:   -5.77 KCAL/MOL
REMARK 923 INTER-LIGAND FREE ENERGY PREDICTED BY IDOCK:   -5.51 KCAL/MOL
REMARK 924 INTRA-LIGAND FREE ENERGY PREDICTED BY IDOCK:   -0.26 KCAL/MOL
REMARK 927      BINDING AFFINITY PREDICTED BY RF-SCORE:    0.00 PKD
ROOT
HETATM    1  O   UNL     1     -13.007  11.957  68.711  1.00  0.00     0.909 OA 
HETATM    2  C   UNL     1     -12.585  11.194  69.751  1.00  0.00    -0.063 C  
HETATM    3  C   UNL     1     -11.120  10.817  69.645  1.00  0.00    -0.339 C  
HETATM    4  O   UNL     1     -13.324  10.909  70.679  1.00  0.00    -0.046 OA 
ENDROOT
BRANCH   3   5
HETATM    5  C   UNL     1     -10.741   9.559  70.425  1.00  0.00    -0.341 C  
HETATM    6  C   UNL     1     -11.776   8.443  70.475  1.00  0.00    -0.076 C  
HETATM    7  C   UNL     1     -11.525   9.280  71.697  1.00  0.00    -0.468 C  
BRANCH   5   8
HETATM    8  C   UNL     1      -9.248   9.261  70.358  1.00  0.00    -0.247 C  
BRANCH   8   9
HETATM    9  S   UNL     1      -8.712   7.772  69.491  1.00  0.00    -0.135 SA 
BRANCH   9  10
HETATM   10  C   UNL     1      -7.613   8.512  68.190  1.00  0.00    -0.098 C  
BRANCH  10  11
HETATM   11  C   UNL     1      -6.196   8.889  68.686  1.00  0.00    -0.046 C  
BRANCH  11  12
HETATM   12  C   UNL     1      -5.896   8.519  70.155  1.00  0.00    -0.027 C  
BRANCH  12  13
HETATM   13  C   UNL     1      -5.777   7.014  70.359  1.00  0.00    -0.024 A  
HETATM   14  C   UNL     1      -5.485   6.269  69.188  1.00  0.00    -0.012 A  
HETATM   15  C   UNL     1      -5.435   4.216  70.405  1.00  0.00    -0.012 A  
HETATM   16  H   UNL     1      -5.321   8.442  74.038  1.00  0.00     0.000 HD 
HETATM   17  C   UNL     1      -5.334   4.889  69.204  1.00  0.00    -0.004 A  
HETATM   18  C   UNL     1      -6.127   6.088  74.179  1.00  0.00    -0.064 C  
HETATM   19  C   UNL     1      -5.694   4.927  71.579  1.00  0.00    -0.012 A  
HETATM   20  C   UNL     1      -5.884   6.332  71.603  1.00  0.00    -0.032 A  
HETATM   21  O   UNL     1      -5.151   8.014  73.207  1.00  0.00    -0.040 OA 
HETATM   22  C   UNL     1      -7.526   7.730  72.985  1.00  0.00    -0.131 C  
HETATM   23  C   UNL     1      -6.160   7.028  72.951  1.00  0.00    -0.056 C  
ENDBRANCH  12  13
ENDBRANCH  11  12
ENDBRANCH  10  11
BRANCH  10  24
HETATM   24  C   UNL     1      -8.353   9.628  67.448  1.00  0.00    -0.114 A  
HETATM   25  C   UNL     1      -9.604  11.751  66.072  1.00  0.00    -0.248 A  
HETATM   26  C   UNL     1      -9.404   9.387  66.550  1.00  0.00    -0.222 A  
HETATM   27  C   UNL     1      -7.946  10.967  67.635  1.00  0.00    -0.114 A  
HETATM   28  C   UNL     1     -10.022  10.437  65.868  1.00  0.00    -0.317 A  
HETATM   29  C   UNL     1      -8.572  12.036  66.970  1.00  0.00    -0.185 A  
BRANCH  29  30
HETATM   30  C   UNL     1      -8.066  13.402  67.181  1.00  0.00    -0.096 C  
HETATM   31  C   UNL     1      -8.756  14.525  66.915  1.00  0.00    -0.237 C  
BRANCH  31  32
HETATM   32  C   UNL     1      -8.258  15.893  67.094  1.00  0.00    -0.203 A  
HETATM   33  N   UNL     1      -7.616  16.109  68.267  1.00  0.00    -0.142 NA 
HETATM   34  C   UNL     1      -7.182  17.351  68.550  1.00  0.00    -0.230 A  
HETATM   35  C   UNL     1      -7.386  18.436  67.674  1.00  0.00    -0.219 A  
HETATM   36  C   UNL     1      -8.053  18.193  66.472  1.00  0.00    -0.295 A  
HETATM   37  C   UNL     1      -6.936  19.724  68.016  1.00  0.00    -0.308 A  
HETATM   38  C   UNL     1      -6.289  19.938  69.230  1.00  0.00    -0.365 A  
HETATM   39  C   UNL     1      -8.502  16.909  66.181  1.00  0.00    -0.281 A  
HETATM   40  C   UNL     1      -6.081  18.865  70.089  1.00  0.00    -0.135 A  
HETATM   41  C   UNL     1      -6.523  17.587  69.748  1.00  0.00    -0.064 A  
HETATM   42 CL   UNL     1      -5.281  19.123  71.591  1.00  0.00    -0.368 Cl 
ENDBRANCH  31  32
ENDBRANCH  29  30
ENDBRANCH  10  24
ENDBRANCH   9  10
ENDBRANCH   8   9
ENDBRANCH   5   8
ENDBRANCH   3   5
TORSDOF 10
ENDMDL
MODEL      191
REMARK 921   NORMALIZED FREE ENERGY PREDICTED BY IDOCK:   -2.51 KCAL/MOL
REMARK 922        TOTAL FREE ENERGY PREDICTED BY IDOCK:   -5.64 KCAL/MOL
REMARK 923 INTER-LIGAND FREE ENERGY PREDICTED BY IDOCK:   -5.02 KCAL/MOL
REMARK 924 INTRA-LIGAND FREE ENERGY PREDICTED BY IDOCK:   -0.62 KCAL/MOL
REMARK 927      BINDING AFFINITY PREDICTED BY RF-SCORE:    0.00 PKD
ROOT
HETATM    1  O   UNL     1     -11.121   8.882  67.998  1.00  0.00     0.018 OA 
HETATM    2  C   UNL     1     -10.159   9.243  67.111  1.00  0.00    -0.236 C  
HETATM    3  C   UNL     1      -9.250  10.333  67.642  1.00  0.00    -0.154 C  
HETATM    4  O   UNL     1     -10.041   8.686  66.031  1.00  0.00    -0.189 OA 
ENDROOT
BRANCH   3   5
HETATM    5  C   UNL     1      -8.551  11.149  66.555  1.00  0.00    -0.169 C  
HETATM    6  C   UNL     1      -8.293  10.447  65.229  1.00  0.00    -0.166 C  
HETATM    7  C   UNL     1      -7.149  10.709  66.166  1.00  0.00    -0.138 C  
BRANCH   5   8
HETATM    8  C   UNL     1      -8.906  12.629  66.620  1.00  0.00    -0.126 C  
BRANCH   8   9
HETATM    9  S   UNL     1      -7.630  13.792  67.145  1.00  0.00     0.221 SA 
BRANCH   9  10
HETATM   10  C   UNL     1      -8.012  13.921  68.958  1.00  0.00     0.098 C  
BRANCH  10  11
HETATM   11  C   UNL     1      -8.156  15.371  69.481  1.00  0.00    -0.207 C  
BRANCH  11  12
HETATM   12  C   UNL     1      -9.593  15.937  69.454  1.00  0.00    -0.265 C  
BRANCH  12  13
HETATM   13  C   UNL     1     -10.006  16.398  68.062  1.00  0.00    -0.242 A  
HETATM   14  C   UNL     1     -10.595  15.397  67.247  1.00  0.00    -0.294 A  
HETATM   15  C   UNL     1     -10.933  16.938  65.455  1.00  0.00    -0.029 A  
HETATM   16  H   UNL     1      -9.680  19.815  70.062  1.00  0.00     0.000 HD 
HETATM   17  C   UNL     1     -11.036  15.656  65.956  1.00  0.00    -0.136 A  
HETATM   18  C   UNL     1      -9.388  20.271  67.630  1.00  0.00    -0.481 C  
HETATM   19  C   UNL     1     -10.382  17.950  66.245  1.00  0.00    -0.364 A  
HETATM   20  C   UNL     1      -9.893  17.722  67.557  1.00  0.00    -0.304 A  
HETATM   21  O   UNL     1     -10.041  19.085  69.572  1.00  0.00    -0.146 OA 
HETATM   22  C   UNL     1      -7.830  18.700  68.718  1.00  0.00    -0.319 C  
HETATM   23  C   UNL     1      -9.307  18.907  68.353  1.00  0.00    -0.350 C  
ENDBRANCH  12  13
ENDBRANCH  11  12
ENDBRANCH  10  11
BRANCH  10  24
HETATM   24  C   UNL     1      -7.052  13.039  69.762  1.00  0.00     0.503 A  
HETATM   25  C   UNL     1      -5.292  11.323  71.146  1.00  0.00    -0.064 A  
HETATM   26  C   UNL     1      -6.000  13.555  70.534  1.00  0.00    -0.133 A  
HETATM   27  C   UNL     1      -7.195  11.636  69.703  1.00  0.00     0.211 A  
HETATM   28  C   UNL     1      -5.128  12.705  71.218  1.00  0.00    -0.158 A  
HETATM   29  C   UNL     1      -6.336  10.769  70.401  1.00  0.00    -0.108 A  
BRANCH  29  30
HETATM   30  C   UNL     1      -6.518   9.316  70.258  1.00  0.00    -0.058 C  
HETATM   31  C   UNL     1      -7.548   8.731  69.621  1.00  0.00    -0.076 C  
BRANCH  31  32
HETATM   32  C   UNL     1      -7.758   7.285  69.492  1.00  0.00    -0.113 A  
HETATM   33  N   UNL     1      -7.798   6.834  68.214  1.00  0.00    -0.109 NA 
HETATM   34  C   UNL     1      -8.052   5.532  67.993  1.00  0.00    -0.096 A  
HETATM   35  C   UNL     1      -8.294   4.624  69.045  1.00  0.00    -0.085 A  
HETATM   36  C   UNL     1      -8.253   5.110  70.354  1.00  0.00    -0.098 A  
HETATM   37  C   UNL     1      -8.579   3.274  68.771  1.00  0.00    -0.120 A  
HETATM   38  C   UNL     1      -8.629   2.824  67.456  1.00  0.00    -0.120 A  
HETATM   39  C   UNL     1      -7.990   6.456  70.580  1.00  0.00    -0.112 A  
HETATM   40  C   UNL     1      -8.382   3.718  66.420  1.00  0.00    -0.105 A  
HETATM   41  C   UNL     1      -8.096   5.056  66.691  1.00  0.00    -0.108 A  
HETATM   42 CL   UNL     1      -8.443   3.168  64.790  1.00  0.00    -0.097 Cl 
ENDBRANCH  31  32
ENDBRANCH  29  30
ENDBRANCH  10  24
ENDBRANCH   9  10
ENDBRANCH   8   9
ENDBRANCH   5   8
ENDBRANCH   3   5
TORSDOF 10
ENDMDL
MODEL      192
REMARK 921   NORMALIZED FREE ENERGY PREDICTED BY IDOCK:   -2.35 KCAL/MOL
REMARK 922        TOTAL FREE ENERGY PREDICTED BY IDOCK:   -5.39 KCAL/MOL
REMARK 923 INTER-LIGAND FREE ENERGY PREDICTED BY IDOCK:   -7.32 KCAL/MOL
REMARK 924 INTRA-LIGAND FREE ENERGY PREDICTED BY IDOCK:    1.93 KCAL/MOL
REMARK 927      BINDING AFFINITY PREDICTED BY RF-SCORE:    0.00 PKD
ROOT
HETATM    1  O   UNL     1     -11.533  15.834  71.398  1.00  0.00    -0.377 OA 
HETATM    2  C   UNL     1     -11.460  15.714  70.048  1.00  0.00    -0.344 C  
HETATM    3  C   UNL     1     -10.576  14.565  69.608  1.00  0.00    -0.075 C  
HETATM    4  O   UNL     1     -12.097  16.443  69.305  1.00  0.00    -0.005 OA 
ENDROOT
BRANCH   3   5
HETATM    5  C   UNL     1     -10.014  14.714  68.195  1.00  0.00    -0.224 C  
HETATM    6  C   UNL     1      -8.572  14.275  67.978  1.00  0.00    -0.169 C  
HETATM    7  C   UNL     1      -8.909  15.739  68.002  1.00  0.00    -0.176 C  
BRANCH   5   8
HETATM    8  C   UNL     1     -11.079  14.515  67.122  1.00  0.00    -0.321 C  
BRANCH   8   9
HETATM    9  S   UNL     1     -12.205  13.116  67.285  1.00  0.00    -0.033 SA 
BRANCH   9  10
HETATM   10  C   UNL     1     -11.040  11.810  67.908  1.00  0.00    -0.245 C  
BRANCH  10  11
HETATM   11  C   UNL     1     -10.620  10.766  66.845  1.00  0.00    -0.312 C  
BRANCH  11  12
HETATM   12  C   UNL     1      -9.288  10.039  67.132  1.00  0.00    -0.173 C  
BRANCH  12  13
HETATM   13  C   UNL     1      -8.614   9.543  65.859  1.00  0.00    -0.144 A  
HETATM   14  C   UNL     1      -7.725   8.452  66.034  1.00  0.00    -0.090 A  
HETATM   15  C   UNL     1      -7.253   8.354  63.695  1.00  0.00    -0.095 A  
HETATM   16  H   UNL     1     -11.727  11.587  64.473  1.00  0.00     0.000 HD 
HETATM   17  C   UNL     1      -7.039   7.876  64.973  1.00  0.00    -0.060 A  
HETATM   18  C   UNL     1      -9.969  11.497  62.709  1.00  0.00    -0.105 C  
HETATM   19  C   UNL     1      -8.145   9.409  63.490  1.00  0.00    -0.157 A  
HETATM   20  C   UNL     1      -8.843  10.045  64.548  1.00  0.00    -0.231 A  
HETATM   21  O   UNL     1     -11.131  10.876  64.676  1.00  0.00    -0.110 OA 
HETATM   22  C   UNL     1      -9.396  12.525  64.875  1.00  0.00     0.427 C  
HETATM   23  C   UNL     1      -9.811  11.200  64.218  1.00  0.00    -0.286 C  
ENDBRANCH  12  13
ENDBRANCH  11  12
ENDBRANCH  10  11
BRANCH  10  24
HETATM   24  C   UNL     1     -11.565  11.219  69.219  1.00  0.00    -0.390 A  
HETATM   25  C   UNL     1     -12.419  10.063  71.647  1.00  0.00    -0.513 A  
HETATM   26  C   UNL     1     -12.371  11.937  70.116  1.00  0.00    -0.247 A  
HETATM   27  C   UNL     1     -11.198   9.904  69.576  1.00  0.00    -0.220 A  
HETATM   28  C   UNL     1     -12.792  11.365  71.318  1.00  0.00    -0.481 A  
HETATM   29  C   UNL     1     -11.630   9.309  70.774  1.00  0.00    -0.345 A  
BRANCH  29  30
HETATM   30  C   UNL     1     -11.172   7.949  71.102  1.00  0.00    -0.284 C  
HETATM   31  C   UNL     1     -11.309   7.362  72.305  1.00  0.00    -0.323 C  
BRANCH  31  32
HETATM   32  C   UNL     1     -10.836   6.019  72.656  1.00  0.00    -0.244 A  
HETATM   33  N   UNL     1      -9.777   5.589  71.929  1.00  0.00    -0.159 NA 
HETATM   34  C   UNL     1      -9.313   4.342  72.134  1.00  0.00    -0.130 A  
HETATM   35  C   UNL     1      -9.902   3.465  73.068  1.00  0.00    -0.195 A  
HETATM   36  C   UNL     1     -10.995   3.928  73.804  1.00  0.00    -0.321 A  
HETATM   37  C   UNL     1      -9.402   2.162  73.237  1.00  0.00    -0.094 A  
HETATM   38  C   UNL     1      -8.321   1.725  72.477  1.00  0.00    -0.054 A  
HETATM   39  C   UNL     1     -11.473   5.216  73.591  1.00  0.00     0.121 A  
HETATM   40  C   UNL     1      -7.736   2.593  71.562  1.00  0.00    -0.041 A  
HETATM   41  C   UNL     1      -8.229   3.888  71.397  1.00  0.00    -0.072 A  
HETATM   42 CL   UNL     1      -6.400   2.058  70.618  1.00  0.00    -0.023 Cl 
ENDBRANCH  31  32
ENDBRANCH  29  30
ENDBRANCH  10  24
ENDBRANCH   9  10
ENDBRANCH   8   9
ENDBRANCH   5   8
ENDBRANCH   3   5
TORSDOF 10
ENDMDL
MODEL      193
REMARK 921   NORMALIZED FREE ENERGY PREDICTED BY IDOCK:   -1.72 KCAL/MOL
REMARK 922        TOTAL FREE ENERGY PREDICTED BY IDOCK:   -4.38 KCAL/MOL
REMARK 923 INTER-LIGAND FREE ENERGY PREDICTED BY IDOCK:   -5.44 KCAL/MOL
REMARK 924 INTRA-LIGAND FREE ENERGY PREDICTED BY IDOCK:    1.07 KCAL/MOL
REMARK 927      BINDING AFFINITY PREDICTED BY RF-SCORE:    0.00 PKD
ROOT
HETATM    1  O   UNL     1     -11.138  10.511  69.181  1.00  0.00    -0.219 OA 
HETATM    2  C   UNL     1     -11.325   9.249  69.643  1.00  0.00     0.049 C  
HETATM    3  C   UNL     1     -10.081   8.392  69.530  1.00  0.00    -0.200 C  
HETATM    4  O   UNL     1     -12.384   8.899  70.139  1.00  0.00     0.378 OA 
ENDROOT
BRANCH   3   5
HETATM    5  C   UNL     1     -10.358   6.889  69.493  1.00  0.00    -0.224 C  
HETATM    6  C   UNL     1     -11.528   6.427  68.634  1.00  0.00    -0.034 C  
HETATM    7  C   UNL     1     -11.655   6.417  70.132  1.00  0.00    -0.449 C  
BRANCH   5   8
HETATM    8  C   UNL     1      -9.087   6.059  69.623  1.00  0.00    -0.135 C  
BRANCH   8   9
HETATM    9  S   UNL     1      -8.106   5.761  68.138  1.00  0.00    -0.104 SA 
BRANCH   9  10
HETATM   10  C   UNL     1      -7.033   7.277  68.128  1.00  0.00    -0.076 C  
BRANCH  10  11
HETATM   11  C   UNL     1      -6.345   7.585  69.480  1.00  0.00    -0.032 C  
BRANCH  11  12
HETATM   12  C   UNL     1      -7.223   7.352  70.730  1.00  0.00    -0.068 C  
BRANCH  12  13
HETATM   13  C   UNL     1      -6.477   7.653  72.023  1.00  0.00    -0.043 A  
HETATM   14  C   UNL     1      -6.113   9.011  72.207  1.00  0.00    -0.016 A  
HETATM   15  C   UNL     1      -5.141   8.550  74.338  1.00  0.00    -0.077 A  
HETATM   16  H   UNL     1      -8.196   4.153  72.787  1.00  0.00     0.000 HD 
HETATM   17  C   UNL     1      -5.439   9.453  73.337  1.00  0.00    -0.010 A  
HETATM   18  C   UNL     1      -6.208   4.417  74.266  1.00  0.00    -0.042 C  
HETATM   19  C   UNL     1      -5.513   7.211  74.197  1.00  0.00    -0.050 A  
HETATM   20  C   UNL     1      -6.176   6.712  73.047  1.00  0.00    -0.058 A  
HETATM   21  O   UNL     1      -7.967   5.074  72.823  1.00  0.00    -0.099 OA 
HETATM   22  C   UNL     1      -5.864   4.482  71.826  1.00  0.00    -0.012 C  
HETATM   23  C   UNL     1      -6.549   5.217  72.987  1.00  0.00    -0.066 C  
ENDBRANCH  12  13
ENDBRANCH  11  12
ENDBRANCH  10  11
BRANCH  10  24
HETATM   24  C   UNL     1      -7.791   8.454  67.508  1.00  0.00    -0.099 A  
HETATM   25  C   UNL     1      -9.072  10.683  66.346  1.00  0.00    -0.183 A  
HETATM   26  C   UNL     1      -8.949   8.297  66.731  1.00  0.00    -0.174 A  
HETATM   27  C   UNL     1      -7.292   9.763  67.684  1.00  0.00    -0.090 A  
HETATM   28  C   UNL     1      -9.582   9.400  66.155  1.00  0.00    -0.311 A  
HETATM   29  C   UNL     1      -7.930  10.884  67.126  1.00  0.00    -0.127 A  
BRANCH  29  30
HETATM   30  C   UNL     1      -7.330  12.214  67.314  1.00  0.00    -0.149 C  
HETATM   31  C   UNL     1      -8.025  13.355  67.475  1.00  0.00    -0.186 C  
BRANCH  31  32
HETATM   32  C   UNL     1      -7.444  14.692  67.637  1.00  0.00    -0.186 A  
HETATM   33  N   UNL     1      -8.317  15.711  67.453  1.00  0.00    -0.165 NA 
HETATM   34  C   UNL     1      -7.861  16.976  67.516  1.00  0.00    -0.170 A  
HETATM   35  C   UNL     1      -6.503  17.273  67.752  1.00  0.00    -0.164 A  
HETATM   36  C   UNL     1      -5.619  16.208  67.935  1.00  0.00    -0.142 A  
HETATM   37  C   UNL     1      -6.061  18.608  67.788  1.00  0.00    -0.189 A  
HETATM   38  C   UNL     1      -6.963  19.648  67.585  1.00  0.00    -0.274 A  
HETATM   39  C   UNL     1      -6.092  14.902  67.869  1.00  0.00    -0.169 A  
HETATM   40  C   UNL     1      -8.304  19.353  67.361  1.00  0.00    -0.292 A  
HETATM   41  C   UNL     1      -8.743  18.029  67.329  1.00  0.00    -0.243 A  
HETATM   42 CL   UNL     1      -9.424  20.634  67.109  1.00  0.00    -0.543 Cl 
ENDBRANCH  31  32
ENDBRANCH  29  30
ENDBRANCH  10  24
ENDBRANCH   9  10
ENDBRANCH   8   9
ENDBRANCH   5   8
ENDBRANCH   3   5
TORSDOF 10
ENDMDL
MODEL      194
REMARK 921   NORMALIZED FREE ENERGY PREDICTED BY IDOCK:   -1.48 KCAL/MOL
REMARK 922        TOTAL FREE ENERGY PREDICTED BY IDOCK:   -4.00 KCAL/MOL
REMARK 923 INTER-LIGAND FREE ENERGY PREDICTED BY IDOCK:   -4.70 KCAL/MOL
REMARK 924 INTRA-LIGAND FREE ENERGY PREDICTED BY IDOCK:    0.71 KCAL/MOL
REMARK 927      BINDING AFFINITY PREDICTED BY RF-SCORE:    0.00 PKD
ROOT
HETATM    1  O   UNL     1     -12.828   7.457  70.346  1.00  0.00     0.194 OA 
HETATM    2  C   UNL     1     -11.918   6.530  69.952  1.00  0.00     0.023 C  
HETATM    3  C   UNL     1     -11.183   5.897  71.117  1.00  0.00    -0.281 C  
HETATM    4  O   UNL     1     -11.776   6.229  68.777  1.00  0.00     0.007 OA 
ENDROOT
BRANCH   3   5
HETATM    5  C   UNL     1      -9.823   5.304  70.750  1.00  0.00    -0.261 C  
HETATM    6  C   UNL     1      -9.210   4.325  71.742  1.00  0.00    -0.178 C  
HETATM    7  C   UNL     1      -8.643   5.711  71.617  1.00  0.00    -0.132 C  
BRANCH   5   8
HETATM    8  C   UNL     1      -9.651   5.128  69.246  1.00  0.00    -0.160 C  
BRANCH   8   9
HETATM    9  S   UNL     1      -9.061   6.536  68.283  1.00  0.00    -0.117 SA 
BRANCH   9  10
HETATM   10  C   UNL     1      -8.258   5.660  66.856  1.00  0.00    -0.105 C  
BRANCH  10  11
HETATM   11  C   UNL     1      -6.889   5.017  67.186  1.00  0.00    -0.056 C  
BRANCH  11  12
HETATM   12  C   UNL     1      -5.963   5.870  68.081  1.00  0.00    -0.017 C  
BRANCH  12  13
HETATM   13  C   UNL     1      -5.716   7.257  67.500  1.00  0.00    -0.029 A  
HETATM   14  C   UNL     1      -5.382   7.281  66.122  1.00  0.00    -0.024 A  
HETATM   15  C   UNL     1      -5.256   9.666  66.110  1.00  0.00    -0.039 A  
HETATM   16  H   UNL     1      -7.748   8.040  70.823  1.00  0.00     0.000 HD 
HETATM   17  C   UNL     1      -5.136   8.465  65.439  1.00  0.00    -0.031 A  
HETATM   18  C   UNL     1      -6.408  10.048  70.202  1.00  0.00    -0.093 C  
HETATM   19  C   UNL     1      -5.611   9.673  67.461  1.00  0.00    -0.036 A  
HETATM   20  C   UNL     1      -5.841   8.487  68.203  1.00  0.00    -0.042 A  
HETATM   21  O   UNL     1      -7.506   7.970  69.907  1.00  0.00    -0.075 OA 
HETATM   22  C   UNL     1      -5.214   7.933  70.624  1.00  0.00    -0.023 C  
HETATM   23  C   UNL     1      -6.235   8.599  69.690  1.00  0.00    -0.036 C  
ENDBRANCH  12  13
ENDBRANCH  11  12
ENDBRANCH  10  11
BRANCH  10  24
HETATM   24  C   UNL     1      -8.265   6.559  65.616  1.00  0.00    -0.137 A  
HETATM   25  C   UNL     1      -8.250   8.318  63.410  1.00  0.00    -0.088 A  
HETATM   26  C   UNL     1      -7.796   6.140  64.362  1.00  0.00    -0.114 A  
HETATM   27  C   UNL     1      -8.725   7.888  65.733  1.00  0.00    -0.163 A  
HETATM   28  C   UNL     1      -7.788   7.011  63.271  1.00  0.00    -0.110 A  
HETATM   29  C   UNL     1      -8.740   8.770  64.638  1.00  0.00    -0.103 A  
BRANCH  29  30
HETATM   30  C   UNL     1      -9.193  10.155  64.844  1.00  0.00    -0.281 C  
HETATM   31  C   UNL     1      -9.959  10.567  65.870  1.00  0.00    -0.313 C  
BRANCH  31  32
HETATM   32  C   UNL     1     -10.441  11.937  66.077  1.00  0.00    -0.245 A  
HETATM   33  N   UNL     1     -10.409  12.357  67.365  1.00  0.00    -0.207 NA 
HETATM   34  C   UNL     1     -10.894  13.577  67.662  1.00  0.00    -0.260 A  
HETATM   35  C   UNL     1     -11.447  14.425  66.681  1.00  0.00    -0.372 A  
HETATM   36  C   UNL     1     -11.475  13.971  65.360  1.00  0.00    -0.315 A  
HETATM   37  C   UNL     1     -11.964  15.684  67.035  1.00  0.00     0.611 A  
HETATM   38  C   UNL     1     -11.937  16.101  68.363  1.00  0.00     0.196 A  
HETATM   39  C   UNL     1     -10.974  12.710  65.055  1.00  0.00    -0.323 A  
HETATM   40  C   UNL     1     -11.383  15.267  69.328  1.00  0.00    -0.298 A  
HETATM   41  C   UNL     1     -10.867  14.020  68.976  1.00  0.00    -0.268 A  
HETATM   42 CL   UNL     1     -11.347  15.777  70.971  1.00  0.00    -0.404 Cl 
ENDBRANCH  31  32
ENDBRANCH  29  30
ENDBRANCH  10  24
ENDBRANCH   9  10
ENDBRANCH   8   9
ENDBRANCH   5   8
ENDBRANCH   3   5
TORSDOF 10
ENDMDL
MODEL      195
REMARK 921   NORMALIZED FREE ENERGY PREDICTED BY IDOCK:   -1.36 KCAL/MOL
REMARK 922        TOTAL FREE ENERGY PREDICTED BY IDOCK:   -3.81 KCAL/MOL
REMARK 923 INTER-LIGAND FREE ENERGY PREDICTED BY IDOCK:   -5.16 KCAL/MOL
REMARK 924 INTRA-LIGAND FREE ENERGY PREDICTED BY IDOCK:    1.35 KCAL/MOL
REMARK 927      BINDING AFFINITY PREDICTED BY RF-SCORE:    0.00 PKD
ROOT
HETATM    1  O   UNL     1     -11.086  18.633  68.293  1.00  0.00     0.137 OA 
HETATM    2  C   UNL     1     -10.880  17.656  67.373  1.00  0.00    -0.172 C  
HETATM    3  C   UNL     1     -11.181  16.272  67.910  1.00  0.00    -0.213 C  
HETATM    4  O   UNL     1     -10.540  17.914  66.230  1.00  0.00    -0.335 OA 
ENDROOT
BRANCH   3   5
HETATM    5  C   UNL     1     -10.465  15.144  67.168  1.00  0.00    -0.280 C  
HETATM    6  C   UNL     1      -8.996  15.366  66.834  1.00  0.00    -0.273 C  
HETATM    7  C   UNL     1     -10.025  15.435  65.742  1.00  0.00    -0.393 C  
BRANCH   5   8
HETATM    8  C   UNL     1     -10.998  13.768  67.546  1.00  0.00    -0.272 C  
BRANCH   8   9
HETATM    9  S   UNL     1     -10.352  12.980  69.035  1.00  0.00     0.165 SA 
BRANCH   9  10
HETATM   10  C   UNL     1     -10.783  11.205  68.696  1.00  0.00    -0.198 C  
BRANCH  10  11
HETATM   11  C   UNL     1     -10.526  10.246  69.883  1.00  0.00    -0.304 C  
BRANCH  11  12
HETATM   12  C   UNL     1      -9.752   8.957  69.529  1.00  0.00    -0.173 C  
BRANCH  12  13
HETATM   13  C   UNL     1      -9.475   8.095  70.754  1.00  0.00    -0.180 A  
HETATM   14  C   UNL     1     -10.585   7.352  71.231  1.00  0.00    -0.231 A  
HETATM   15  C   UNL     1      -9.280   6.357  72.965  1.00  0.00    -0.137 A  
HETATM   16  H   UNL     1      -5.836   8.787  69.318  1.00  0.00     0.000 HD 
HETATM   17  C   UNL     1     -10.497   6.510  72.331  1.00  0.00    -0.229 A  
HETATM   18  C   UNL     1      -5.660   8.265  71.748  1.00  0.00    -0.037 C  
HETATM   19  C   UNL     1      -8.163   7.055  72.500  1.00  0.00    -0.116 A  
HETATM   20  C   UNL     1      -8.216   7.947  71.398  1.00  0.00    -0.115 A  
HETATM   21  O   UNL     1      -6.630   8.344  69.590  1.00  0.00    -0.036 OA 
HETATM   22  C   UNL     1      -7.034  10.195  71.066  1.00  0.00     0.448 C  
HETATM   23  C   UNL     1      -6.925   8.667  70.956  1.00  0.00    -0.069 C  
ENDBRANCH  12  13
ENDBRANCH  11  12
ENDBRANCH  10  11
BRANCH  10  24
HETATM   24  C   UNL     1     -10.171  10.760  67.365  1.00  0.00    -0.241 A  
HETATM   25  C   UNL     1      -9.083   9.817  64.939  1.00  0.00    -0.278 A  
HETATM   26  C   UNL     1     -10.205  11.548  66.204  1.00  0.00    -0.272 A  
HETATM   27  C   UNL     1      -9.577   9.483  67.273  1.00  0.00    -0.192 A  
HETATM   28  C   UNL     1      -9.667  11.080  65.003  1.00  0.00    -0.303 A  
HETATM   29  C   UNL     1      -9.014   9.008  66.076  1.00  0.00    -0.227 A  
BRANCH  29  30
HETATM   30  C   UNL     1      -8.450   7.649  66.043  1.00  0.00    -0.149 C  
HETATM   31  C   UNL     1      -7.878   7.030  67.092  1.00  0.00    -0.109 C  
BRANCH  31  32
HETATM   32  C   UNL     1      -7.288   5.687  67.071  1.00  0.00    -0.080 A  
HETATM   33  N   UNL     1      -7.048   5.159  68.295  1.00  0.00    -0.061 NA 
HETATM   34  C   UNL     1      -6.446   3.958  68.376  1.00  0.00    -0.037 A  
HETATM   35  C   UNL     1      -6.044   3.240  67.232  1.00  0.00    -0.028 A  
HETATM   36  C   UNL     1      -6.296   3.805  65.980  1.00  0.00    -0.033 A  
HETATM   37  C   UNL     1      -5.397   1.997  67.359  1.00  0.00    -0.016 A  
HETATM   38  C   UNL     1      -5.145   1.468  68.621  1.00  0.00    -0.008 A  
HETATM   39  C   UNL     1      -6.917   5.046  65.897  1.00  0.00    -0.066 A  
HETATM   40  C   UNL     1      -5.550   2.173  69.749  1.00  0.00    -0.017 A  
HETATM   41  C   UNL     1      -6.195   3.403  69.623  1.00  0.00    -0.028 A  
HETATM   42 CL   UNL     1      -5.241   1.524  71.313  1.00  0.00    -0.004 Cl 
ENDBRANCH  31  32
ENDBRANCH  29  30
ENDBRANCH  10  24
ENDBRANCH   9  10
ENDBRANCH   8   9
ENDBRANCH   5   8
ENDBRANCH   3   5
TORSDOF 10
ENDMDL
MODEL      196
REMARK 921   NORMALIZED FREE ENERGY PREDICTED BY IDOCK:   -1.07 KCAL/MOL
REMARK 922        TOTAL FREE ENERGY PREDICTED BY IDOCK:   -3.35 KCAL/MOL
REMARK 923 INTER-LIGAND FREE ENERGY PREDICTED BY IDOCK:   -2.61 KCAL/MOL
REMARK 924 INTRA-LIGAND FREE ENERGY PREDICTED BY IDOCK:   -0.74 KCAL/MOL
REMARK 927      BINDING AFFINITY PREDICTED BY RF-SCORE:    0.00 PKD
ROOT
HETATM    1  O   UNL     1     -11.907  14.578  68.429  1.00  0.00    -0.323 OA 
HETATM    2  C   UNL     1     -12.277  13.888  69.538  1.00  0.00    -0.306 C  
HETATM    3  C   UNL     1     -11.602  12.535  69.639  1.00  0.00    -0.323 C  
HETATM    4  O   UNL     1     -13.034  14.365  70.367  1.00  0.00    -0.320 OA 
ENDROOT
BRANCH   3   5
HETATM    5  C   UNL     1     -12.358  11.522  70.498  1.00  0.00    -0.432 C  
HETATM    6  C   UNL     1     -13.323  12.084  71.534  1.00  0.00    -0.123 C  
HETATM    7  C   UNL     1     -12.016  11.491  71.979  1.00  0.00     1.821 C  
BRANCH   5   8
HETATM    8  C   UNL     1     -12.657  10.230  69.748  1.00  0.00     0.182 C  
BRANCH   8   9
HETATM    9  S   UNL     1     -11.862   8.711  70.310  1.00  0.00     0.304 SA 
BRANCH   9  10
HETATM   10  C   UNL     1     -10.169   8.920  69.576  1.00  0.00    -0.204 C  
BRANCH  10  11
HETATM   11  C   UNL     1      -9.206   9.788  70.422  1.00  0.00    -0.169 C  
BRANCH  11  12
HETATM   12  C   UNL     1      -7.802   9.183  70.645  1.00  0.00    -0.165 C  
BRANCH  12  13
HETATM   13  C   UNL     1      -7.112   8.828  69.334  1.00  0.00    -0.057 A  
HETATM   14  C   UNL     1      -7.199   7.462  68.959  1.00  0.00    -0.085 A  
HETATM   15  C   UNL     1      -5.991   7.855  66.937  1.00  0.00    -0.052 A  
HETATM   16  H   UNL     1      -7.542  12.768  69.065  1.00  0.00     0.000 HD 
HETATM   17  C   UNL     1      -6.633   6.977  67.788  1.00  0.00    -0.052 A  
HETATM   18  C   UNL     1      -5.655  12.059  67.600  1.00  0.00    -0.087 C  
HETATM   19  C   UNL     1      -5.914   9.210  67.268  1.00  0.00    -0.050 A  
HETATM   20  C   UNL     1      -6.453   9.742  68.467  1.00  0.00    -0.051 A  
HETATM   21  O   UNL     1      -7.623  11.836  68.897  1.00  0.00    -0.121 OA 
HETATM   22  C   UNL     1      -5.513  11.558  70.009  1.00  0.00    -0.094 C  
HETATM   23  C   UNL     1      -6.322  11.255  68.740  1.00  0.00    -0.051 C  
ENDBRANCH  12  13
ENDBRANCH  11  12
ENDBRANCH  10  11
BRANCH  10  24
HETATM   24  C   UNL     1     -10.280   9.329  68.105  1.00  0.00    -0.246 A  
HETATM   25  C   UNL     1     -10.434  10.200  65.426  1.00  0.00    -0.054 A  
HETATM   26  C   UNL     1     -10.083   8.434  67.043  1.00  0.00    -0.354 A  
HETATM   27  C   UNL     1     -10.555  10.676  67.784  1.00  0.00    -0.275 A  
HETATM   28  C   UNL     1     -10.158   8.865  65.717  1.00  0.00     0.199 A  
HETATM   29  C   UNL     1     -10.653  11.120  66.454  1.00  0.00    -0.315 A  
BRANCH  29  30
HETATM   30  C   UNL     1     -10.899  12.548  66.194  1.00  0.00    -0.304 C  
HETATM   31  C   UNL     1     -10.052  13.366  65.544  1.00  0.00    -0.279 C  
BRANCH  31  32
HETATM   32  C   UNL     1     -10.270  14.796  65.299  1.00  0.00    -0.384 A  
HETATM   33  N   UNL     1      -9.683  15.617  66.204  1.00  0.00    -0.292 NA 
HETATM   34  C   UNL     1      -9.881  16.944  66.101  1.00  0.00    -0.297 A  
HETATM   35  C   UNL     1     -10.691  17.506  65.093  1.00  0.00     0.215 A  
HETATM   36  C   UNL     1     -11.291  16.642  64.174  1.00  0.00     0.643 A  
HETATM   37  C   UNL     1     -10.892  18.897  65.032  1.00  0.00     1.242 A  
HETATM   38  C   UNL     1     -10.295  19.730  65.973  1.00  0.00    -0.612 A  
HETATM   39  C   UNL     1     -11.085  15.271  64.282  1.00  0.00     0.053 A  
HETATM   40  C   UNL     1      -9.489  19.175  66.961  1.00  0.00    -0.316 A  
HETATM   41  C   UNL     1      -9.287  17.796  67.019  1.00  0.00    -0.259 A  
HETATM   42 CL   UNL     1      -8.748  20.200  68.128  1.00  0.00    -0.217 Cl 
ENDBRANCH  31  32
ENDBRANCH  29  30
ENDBRANCH  10  24
ENDBRANCH   9  10
ENDBRANCH   8   9
ENDBRANCH   5   8
ENDBRANCH   3   5
TORSDOF 10
ENDMDL
MODEL      197
REMARK 921   NORMALIZED FREE ENERGY PREDICTED BY IDOCK:   -0.93 KCAL/MOL
REMARK 922        TOTAL FREE ENERGY PREDICTED BY IDOCK:   -3.13 KCAL/MOL
REMARK 923 INTER-LIGAND FREE ENERGY PREDICTED BY IDOCK:   -4.65 KCAL/MOL
REMARK 924 INTRA-LIGAND FREE ENERGY PREDICTED BY IDOCK:    1.52 KCAL/MOL
REMARK 927      BINDING AFFINITY PREDICTED BY RF-SCORE:    0.00 PKD
ROOT
HETATM    1  O   UNL     1     -11.620  16.889  71.747  1.00  0.00    -0.096 OA 
HETATM    2  C   UNL     1     -11.119  17.085  70.500  1.00  0.00     0.615 C  
HETATM    3  C   UNL     1     -11.536  16.003  69.524  1.00  0.00    -0.326 C  
HETATM    4  O   UNL     1     -10.452  18.069  70.225  1.00  0.00     0.767 OA 
ENDROOT
BRANCH   3   5
HETATM    5  C   UNL     1     -10.600  15.849  68.326  1.00  0.00    -0.276 C  
HETATM    6  C   UNL     1      -9.570  16.949  68.112  1.00  0.00    -0.255 C  
HETATM    7  C   UNL     1     -10.759  16.857  67.199  1.00  0.00    -0.180 C  
BRANCH   5   8
HETATM    8  C   UNL     1     -10.285  14.390  68.018  1.00  0.00    -0.228 C  
BRANCH   8   9
HETATM    9  S   UNL     1     -10.173  13.231  69.396  1.00  0.00     0.698 SA 
BRANCH   9  10
HETATM   10  C   UNL     1     -10.728  11.663  68.568  1.00  0.00    -0.218 C  
BRANCH  10  11
HETATM   11  C   UNL     1     -11.448  11.872  67.215  1.00  0.00    -0.385 C  
BRANCH  11  12
HETATM   12  C   UNL     1     -10.657  12.691  66.171  1.00  0.00    -0.280 C  
BRANCH  12  13
HETATM   13  C   UNL     1     -10.159  11.829  65.018  1.00  0.00    -0.302 A  
HETATM   14  C   UNL     1     -10.978  11.841  63.860  1.00  0.00    -0.476 A  
HETATM   15  C   UNL     1      -9.488  10.388  62.689  1.00  0.00    -0.324 A  
HETATM   16  H   UNL     1      -6.901  12.295  67.244  1.00  0.00     0.000 HD 
HETATM   17  C   UNL     1     -10.660  11.118  62.718  1.00  0.00     0.244 A  
HETATM   18  C   UNL     1      -6.661  10.220  65.884  1.00  0.00    -0.117 C  
HETATM   19  C   UNL     1      -8.648  10.380  63.805  1.00  0.00    -0.178 A  
HETATM   20  C   UNL     1      -8.950  11.080  65.001  1.00  0.00    -0.137 A  
HETATM   21  O   UNL     1      -7.514  12.336  66.519  1.00  0.00     0.147 OA 
HETATM   22  C   UNL     1      -8.569  10.383  67.437  1.00  0.00    -0.125 C  
HETATM   23  C   UNL     1      -7.955  11.014  66.178  1.00  0.00    -0.129 C  
ENDBRANCH  12  13
ENDBRANCH  11  12
ENDBRANCH  10  11
BRANCH  10  24
HETATM   24  C   UNL     1     -11.479  10.778  69.567  1.00  0.00    -0.365 A  
HETATM   25  C   UNL     1     -12.745   9.116  71.463  1.00  0.00    -0.409 A  
HETATM   26  C   UNL     1     -12.736  11.112  70.093  1.00  0.00    -0.157 A  
HETATM   27  C   UNL     1     -10.873   9.587  70.022  1.00  0.00    -0.286 A  
HETATM   28  C   UNL     1     -13.362  10.289  71.032  1.00  0.00    -0.299 A  
HETATM   29  C   UNL     1     -11.500   8.740  70.952  1.00  0.00    -0.330 A  
BRANCH  29  30
HETATM   30  C   UNL     1     -10.791   7.536  71.413  1.00  0.00    -0.251 C  
HETATM   31  C   UNL     1      -9.738   7.540  72.251  1.00  0.00    -0.203 C  
BRANCH  31  32
HETATM   32  C   UNL     1      -9.003   6.352  72.699  1.00  0.00    -0.132 A  
HETATM   33  N   UNL     1      -8.425   5.639  71.703  1.00  0.00    -0.130 NA 
HETATM   34  C   UNL     1      -7.784   4.496  72.011  1.00  0.00    -0.089 A  
HETATM   35  C   UNL     1      -7.708   4.010  73.332  1.00  0.00    -0.084 A  
HETATM   36  C   UNL     1      -8.315   4.758  74.343  1.00  0.00    -0.101 A  
HETATM   37  C   UNL     1      -7.048   2.799  73.610  1.00  0.00    -0.040 A  
HETATM   38  C   UNL     1      -6.468   2.067  72.578  1.00  0.00    -0.014 A  
HETATM   39  C   UNL     1      -8.976   5.938  74.023  1.00  0.00    -0.126 A  
HETATM   40  C   UNL     1      -6.536   2.553  71.276  1.00  0.00    -0.023 A  
HETATM   41  C   UNL     1      -7.187   3.756  71.001  1.00  0.00    -0.033 A  
HETATM   42 CL   UNL     1      -5.821   1.652  69.996  1.00  0.00    -0.017 Cl 
ENDBRANCH  31  32
ENDBRANCH  29  30
ENDBRANCH  10  24
ENDBRANCH   9  10
ENDBRANCH   8   9
ENDBRANCH   5   8
ENDBRANCH   3   5
TORSDOF 10
ENDMDL
MODEL      198
REMARK 921   NORMALIZED FREE ENERGY PREDICTED BY IDOCK:   -0.84 KCAL/MOL
REMARK 922        TOTAL FREE ENERGY PREDICTED BY IDOCK:   -2.99 KCAL/MOL
REMARK 923 INTER-LIGAND FREE ENERGY PREDICTED BY IDOCK:   -4.13 KCAL/MOL
REMARK 924 INTRA-LIGAND FREE ENERGY PREDICTED BY IDOCK:    1.14 KCAL/MOL
REMARK 927      BINDING AFFINITY PREDICTED BY RF-SCORE:    0.00 PKD
ROOT
HETATM    1  O   UNL     1     -10.851  13.644  67.644  1.00  0.00    -0.252 OA 
HETATM    2  C   UNL     1     -11.541  13.693  68.812  1.00  0.00    -0.324 C  
HETATM    3  C   UNL     1     -11.241  12.518  69.720  1.00  0.00    -0.011 C  
HETATM    4  O   UNL     1     -12.274  14.630  69.084  1.00  0.00    -0.275 OA 
ENDROOT
BRANCH   3   5
HETATM    5  C   UNL     1     -12.342  12.216  70.736  1.00  0.00    -0.391 C  
HETATM    6  C   UNL     1     -13.144  13.403  71.253  1.00  0.00    -0.317 C  
HETATM    7  C   UNL     1     -12.134  12.742  72.147  1.00  0.00     1.494 C  
BRANCH   5   8
HETATM    8  C   UNL     1     -12.988  10.855  70.507  1.00  0.00    -0.136 C  
BRANCH   8   9
HETATM    9  S   UNL     1     -12.210   9.405  71.247  1.00  0.00    -0.359 SA 
BRANCH   9  10
HETATM   10  C   UNL     1     -10.422   9.757  70.889  1.00  0.00    -0.228 C  
BRANCH  10  11
HETATM   11  C   UNL     1     -10.156  10.364  69.490  1.00  0.00    -0.246 C  
BRANCH  11  12
HETATM   12  C   UNL     1      -8.784  11.054  69.326  1.00  0.00     0.085 C  
BRANCH  12  13
HETATM   13  C   UNL     1      -7.658  10.054  69.096  1.00  0.00    -0.096 A  
HETATM   14  C   UNL     1      -6.658  10.031  70.102  1.00  0.00    -0.117 A  
HETATM   15  C   UNL     1      -5.471   8.277  69.000  1.00  0.00    -0.031 A  
HETATM   16  H   UNL     1     -10.540   8.699  66.721  1.00  0.00     0.000 HD 
HETATM   17  C   UNL     1      -5.571   9.170  70.048  1.00  0.00    -0.027 A  
HETATM   18  C   UNL     1      -8.343   7.895  65.864  1.00  0.00    -0.134 C  
HETATM   19  C   UNL     1      -6.456   8.258  68.009  1.00  0.00    -0.057 A  
HETATM   20  C   UNL     1      -7.567   9.139  68.010  1.00  0.00    -0.085 A  
HETATM   21  O   UNL     1      -9.902   8.763  67.421  1.00  0.00    -0.169 OA 
HETATM   22  C   UNL     1      -8.705  10.327  66.047  1.00  0.00    -0.162 C  
HETATM   23  C   UNL     1      -8.605   9.037  66.874  1.00  0.00    -0.123 C  
ENDBRANCH  12  13
ENDBRANCH  11  12
ENDBRANCH  10  11
BRANCH  10  24
HETATM   24  C   UNL     1      -9.566   8.535  71.234  1.00  0.00    -0.264 A  
HETATM   25  C   UNL     1      -7.952   6.278  71.744  1.00  0.00    -0.102 A  
HETATM   26  C   UNL     1      -8.882   8.397  72.452  1.00  0.00    -0.294 A  
HETATM   27  C   UNL     1      -9.416   7.508  70.278  1.00  0.00    -0.165 A  
HETATM   28  C   UNL     1      -8.083   7.280  72.703  1.00  0.00    -0.117 A  
HETATM   29  C   UNL     1      -8.629   6.369  70.525  1.00  0.00    -0.143 A  
BRANCH  29  30
HETATM   30  C   UNL     1      -8.483   5.359  69.465  1.00  0.00    -0.100 C  
HETATM   31  C   UNL     1      -7.496   5.344  68.551  1.00  0.00    -0.076 C  
BRANCH  31  32
HETATM   32  C   UNL     1      -7.349   4.361  67.472  1.00  0.00    -0.069 A  
HETATM   33  N   UNL     1      -8.351   4.374  66.559  1.00  0.00    -0.106 NA 
HETATM   34  C   UNL     1      -8.338   3.464  65.569  1.00  0.00    -0.099 A  
HETATM   35  C   UNL     1      -7.326   2.487  65.459  1.00  0.00    -0.067 A  
HETATM   36  C   UNL     1      -6.306   2.489  66.413  1.00  0.00    -0.024 A  
HETATM   37  C   UNL     1      -7.361   1.538  64.421  1.00  0.00    -0.053 A  
HETATM   38  C   UNL     1      -8.400   1.553  63.496  1.00  0.00    -0.065 A  
HETATM   39  C   UNL     1      -6.321   3.430  67.435  1.00  0.00    -0.036 A  
HETATM   40  C   UNL     1      -9.392   2.521  63.600  1.00  0.00    -0.103 A  
HETATM   41  C   UNL     1      -9.356   3.465  64.627  1.00  0.00    -0.146 A  
HETATM   42 CL   UNL     1     -10.680   2.544  62.459  1.00  0.00    -0.143 Cl 
ENDBRANCH  31  32
ENDBRANCH  29  30
ENDBRANCH  10  24
ENDBRANCH   9  10
ENDBRANCH   8   9
ENDBRANCH   5   8
ENDBRANCH   3   5
TORSDOF 10
ENDMDL
MODEL      199
REMARK 921   NORMALIZED FREE ENERGY PREDICTED BY IDOCK:   -0.55 KCAL/MOL
REMARK 922        TOTAL FREE ENERGY PREDICTED BY IDOCK:   -2.53 KCAL/MOL
REMARK 923 INTER-LIGAND FREE ENERGY PREDICTED BY IDOCK:   -2.95 KCAL/MOL
REMARK 924 INTRA-LIGAND FREE ENERGY PREDICTED BY IDOCK:    0.43 KCAL/MOL
REMARK 927      BINDING AFFINITY PREDICTED BY RF-SCORE:    0.00 PKD
ROOT
HETATM    1  O   UNL     1     -11.740  17.064  72.052  1.00  0.00     0.035 OA 
HETATM    2  C   UNL     1     -11.149  17.313  70.856  1.00  0.00     1.265 C  
HETATM    3  C   UNL     1     -11.476  16.266  69.810  1.00  0.00    -0.205 C  
HETATM    4  O   UNL     1     -10.476  18.314  70.670  1.00  0.00     1.322 OA 
ENDROOT
BRANCH   3   5
HETATM    5  C   UNL     1     -10.450  16.168  68.682  1.00  0.00    -0.269 C  
HETATM    6  C   UNL     1      -9.435  17.298  68.576  1.00  0.00    -0.285 C  
HETATM    7  C   UNL     1     -10.550  17.204  67.574  1.00  0.00    -0.323 C  
BRANCH   5   8
HETATM    8  C   UNL     1     -10.076  14.726  68.359  1.00  0.00    -0.225 C  
BRANCH   8   9
HETATM    9  S   UNL     1      -9.914  13.559  69.726  1.00  0.00     1.625 SA 
BRANCH   9  10
HETATM   10  C   UNL     1     -10.339  11.968  68.869  1.00  0.00    -0.092 C  
BRANCH  10  11
HETATM   11  C   UNL     1     -10.998  12.144  67.479  1.00  0.00    -0.304 C  
BRANCH  11  12
HETATM   12  C   UNL     1     -10.086  12.759  66.395  1.00  0.00    -0.266 C  
BRANCH  12  13
HETATM   13  C   UNL     1      -9.927  11.844  65.188  1.00  0.00    -0.276 A  
HETATM   14  C   UNL     1      -8.793  10.993  65.223  1.00  0.00    -0.139 A  
HETATM   15  C   UNL     1      -9.376   9.990  63.136  1.00  0.00    -0.297 A  
HETATM   16  H   UNL     1     -13.754  12.893  65.001  1.00  0.00     0.000 HD 
HETATM   17  C   UNL     1      -8.509  10.091  64.206  1.00  0.00    -0.179 A  
HETATM   18  C   UNL     1     -12.985  12.233  62.725  1.00  0.00     0.891 C  
HETATM   19  C   UNL     1     -10.516  10.796  63.089  1.00  0.00     0.060 A  
HETATM   20  C   UNL     1     -10.828  11.749  64.091  1.00  0.00    -0.418 A  
HETATM   21  O   UNL     1     -12.962  12.375  65.088  1.00  0.00    -0.607 OA 
HETATM   22  C   UNL     1     -11.829  14.095  63.853  1.00  0.00    -0.211 C  
HETATM   23  C   UNL     1     -12.114  12.589  63.951  1.00  0.00    -0.498 C  
ENDBRANCH  12  13
ENDBRANCH  11  12
ENDBRANCH  10  11
BRANCH  10  24
HETATM   24  C   UNL     1     -11.093  11.040  69.826  1.00  0.00    -0.303 A  
HETATM   25  C   UNL     1     -12.365   9.303  71.648  1.00  0.00    -0.450 A  
HETATM   26  C   UNL     1     -12.384  11.314  70.302  1.00  0.00    -0.389 A  
HETATM   27  C   UNL     1     -10.456   9.869  70.292  1.00  0.00    -0.348 A  
HETATM   28  C   UNL     1     -13.013  10.454  71.205  1.00  0.00    -0.517 A  
HETATM   29  C   UNL     1     -11.086   8.985  71.186  1.00  0.00    -0.371 A  
BRANCH  29  30
HETATM   30  C   UNL     1     -10.345   7.807  71.664  1.00  0.00    -0.236 C  
HETATM   31  C   UNL     1      -9.229   7.853  72.413  1.00  0.00    -0.239 C  
BRANCH  31  32
HETATM   32  C   UNL     1      -8.464   6.690  72.875  1.00  0.00    -0.118 A  
HETATM   33  N   UNL     1      -8.098   5.831  71.893  1.00  0.00    -0.111 NA 
HETATM   34  C   UNL     1      -7.450   4.700  72.228  1.00  0.00    -0.083 A  
HETATM   35  C   UNL     1      -7.154   4.373  73.567  1.00  0.00    -0.070 A  
HETATM   36  C   UNL     1      -7.544   5.270  74.564  1.00  0.00    -0.089 A  
HETATM   37  C   UNL     1      -6.495   3.170  73.878  1.00  0.00    -0.029 A  
HETATM   38  C   UNL     1      -6.134   2.289  72.863  1.00  0.00    -0.009 A  
HETATM   39  C   UNL     1      -8.213   6.438  74.216  1.00  0.00    -0.129 A  
HETATM   40  C   UNL     1      -6.420   2.617  71.542  1.00  0.00    -0.019 A  
HETATM   41  C   UNL     1      -7.070   3.812  71.233  1.00  0.00    -0.033 A  
HETATM   42 CL   UNL     1      -5.977   1.531  70.283  1.00  0.00    -0.018 Cl 
ENDBRANCH  31  32
ENDBRANCH  29  30
ENDBRANCH  10  24
ENDBRANCH   9  10
ENDBRANCH   8   9
ENDBRANCH   5   8
ENDBRANCH   3   5
TORSDOF 10
ENDMDL
MODEL      200
REMARK 921   NORMALIZED FREE ENERGY PREDICTED BY IDOCK:   -0.47 KCAL/MOL
REMARK 922        TOTAL FREE ENERGY PREDICTED BY IDOCK:   -2.39 KCAL/MOL
REMARK 923 INTER-LIGAND FREE ENERGY PREDICTED BY IDOCK:   -3.12 KCAL/MOL
REMARK 924 INTRA-LIGAND FREE ENERGY PREDICTED BY IDOCK:    0.73 KCAL/MOL
REMARK 927      BINDING AFFINITY PREDICTED BY RF-SCORE:    0.00 PKD
ROOT
HETATM    1  O   UNL     1     -11.644   4.969  69.348  1.00  0.00     2.299 OA 
HETATM    2  C   UNL     1     -11.130   6.039  70.005  1.00  0.00    -0.381 C  
HETATM    3  C   UNL     1     -11.519   7.360  69.371  1.00  0.00     0.253 C  
HETATM    4  O   UNL     1     -10.473   5.910  71.026  1.00  0.00    -0.216 OA 
ENDROOT
BRANCH   3   5
HETATM    5  C   UNL     1     -10.565   8.511  69.690  1.00  0.00    -0.221 C  
HETATM    6  C   UNL     1     -11.091   9.606  70.608  1.00  0.00    -0.384 C  
HETATM    7  C   UNL     1     -10.935   9.878  69.138  1.00  0.00    -0.233 C  
BRANCH   5   8
HETATM    8  C   UNL     1      -9.108   8.065  69.733  1.00  0.00    -0.149 C  
BRANCH   8   9
HETATM    9  S   UNL     1      -8.335   7.521  68.197  1.00  0.00    -0.125 SA 
BRANCH   9  10
HETATM   10  C   UNL     1      -6.564   7.972  68.528  1.00  0.00    -0.058 C  
BRANCH  10  11
HETATM   11  C   UNL     1      -6.248   8.280  70.012  1.00  0.00    -0.035 C  
BRANCH  11  12
HETATM   12  C   UNL     1      -7.223   7.655  71.033  1.00  0.00    -0.058 C  
BRANCH  12  13
HETATM   13  C   UNL     1      -6.496   6.913  72.147  1.00  0.00    -0.053 A  
HETATM   14  C   UNL     1      -6.080   7.722  73.237  1.00  0.00    -0.063 A  
HETATM   15  C   UNL     1      -5.177   5.840  74.396  1.00  0.00    -0.028 A  
HETATM   16  H   UNL     1      -8.375   3.990  70.222  1.00  0.00     0.000 HD 
HETATM   17  C   UNL     1      -5.415   7.199  74.337  1.00  0.00    -0.058 A  
HETATM   18  C   UNL     1      -6.412   3.035  71.424  1.00  0.00    -0.019 C  
HETATM   19  C   UNL     1      -5.600   5.016  73.351  1.00  0.00    -0.018 A  
HETATM   20  C   UNL     1      -6.257   5.512  72.196  1.00  0.00    -0.039 A  
HETATM   21  O   UNL     1      -8.108   4.601  70.899  1.00  0.00    -0.078 OA 
HETATM   22  C   UNL     1      -6.009   4.798  69.748  1.00  0.00    -0.018 C  
HETATM   23  C   UNL     1      -6.690   4.520  71.097  1.00  0.00    -0.031 C  
ENDBRANCH  12  13
ENDBRANCH  11  12
ENDBRANCH  10  11
BRANCH  10  24
HETATM   24  C   UNL     1      -6.098   9.041  67.535  1.00  0.00    -0.051 A  
HETATM   25  C   UNL     1      -5.188  11.077  65.807  1.00  0.00    -0.127 A  
HETATM   26  C   UNL     1      -5.654   8.742  66.238  1.00  0.00    -0.038 A  
HETATM   27  C   UNL     1      -6.071  10.392  67.942  1.00  0.00    -0.048 A  
HETATM   28  C   UNL     1      -5.203   9.749  65.384  1.00  0.00    -0.048 A  
HETATM   29  C   UNL     1      -5.637  11.419  67.085  1.00  0.00    -0.087 A  
BRANCH  29  30
HETATM   30  C   UNL     1      -5.594  12.800  67.592  1.00  0.00    -0.129 C  
HETATM   31  C   UNL     1      -6.677  13.552  67.864  1.00  0.00    -0.151 C  
BRANCH  31  32
HETATM   32  C   UNL     1      -6.653  14.938  68.343  1.00  0.00    -0.103 A  
HETATM   33  N   UNL     1      -7.575  15.748  67.769  1.00  0.00    -0.131 NA 
HETATM   34  C   UNL     1      -7.586  17.053  68.097  1.00  0.00    -0.194 A  
HETATM   35  C   UNL     1      -6.661  17.607  69.005  1.00  0.00    -0.250 A  
HETATM   36  C   UNL     1      -5.717  16.755  69.582  1.00  0.00    -0.194 A  
HETATM   37  C   UNL     1      -6.691  18.981  69.305  1.00  0.00    -0.330 A  
HETATM   38  C   UNL     1      -7.635  19.807  68.700  1.00  0.00    -0.319 A  
HETATM   39  C   UNL     1      -5.706  15.407  69.242  1.00  0.00    -0.099 A  
HETATM   40  C   UNL     1      -8.552  19.257  67.811  1.00  0.00    -0.305 A  
HETATM   41  C   UNL     1      -8.524  17.894  67.517  1.00  0.00    -0.232 A  
HETATM   42 CL   UNL     1      -9.720  20.273  67.060  1.00  0.00    -0.573 Cl 
ENDBRANCH  31  32
ENDBRANCH  29  30
ENDBRANCH  10  24
ENDBRANCH   9  10
ENDBRANCH   8   9
ENDBRANCH   5   8
ENDBRANCH   3   5
TORSDOF 10
ENDMDL
MODEL      201
REMARK 921   NORMALIZED FREE ENERGY PREDICTED BY IDOCK:   -0.43 KCAL/MOL
REMARK 922        TOTAL FREE ENERGY PREDICTED BY IDOCK:   -2.33 KCAL/MOL
REMARK 923 INTER-LIGAND FREE ENERGY PREDICTED BY IDOCK:   -1.58 KCAL/MOL
REMARK 924 INTRA-LIGAND FREE ENERGY PREDICTED BY IDOCK:   -0.75 KCAL/MOL
REMARK 927      BINDING AFFINITY PREDICTED BY RF-SCORE:    0.00 PKD
ROOT
HETATM    1  O   UNL     1     -11.355   8.906  67.937  1.00  0.00     0.339 OA 
HETATM    2  C   UNL     1     -10.396   9.302  67.061  1.00  0.00    -0.255 C  
HETATM    3  C   UNL     1      -9.561  10.452  67.586  1.00  0.00    -0.168 C  
HETATM    4  O   UNL     1     -10.224   8.729  65.998  1.00  0.00    -0.157 OA 
ENDROOT
BRANCH   3   5
HETATM    5  C   UNL     1      -8.885  11.282  66.495  1.00  0.00    -0.180 C  
HETATM    6  C   UNL     1      -8.595  10.578  65.177  1.00  0.00    -0.187 C  
HETATM    7  C   UNL     1      -7.466  10.889  66.118  1.00  0.00    -0.107 C  
BRANCH   5   8
HETATM    8  C   UNL     1      -9.292  12.750  66.544  1.00  0.00    -0.221 C  
BRANCH   8   9
HETATM    9  S   UNL     1      -8.099  13.948  67.172  1.00  0.00    -0.002 SA 
BRANCH   9  10
HETATM   10  C   UNL     1      -8.590  14.011  68.963  1.00  0.00     0.162 C  
BRANCH  10  11
HETATM   11  C   UNL     1      -8.913  15.430  69.489  1.00  0.00    -0.229 C  
BRANCH  11  12
HETATM   12  C   UNL     1     -10.367  15.899  69.260  1.00  0.00    -0.249 C  
BRANCH  12  13
HETATM   13  C   UNL     1     -10.609  16.350  67.826  1.00  0.00    -0.321 A  
HETATM   14  C   UNL     1     -11.370  15.453  67.033  1.00  0.00    -0.175 A  
HETATM   15  C   UNL     1     -11.285  16.916  65.148  1.00  0.00     0.157 A  
HETATM   16  H   UNL     1      -9.623  19.733  69.661  1.00  0.00     0.000 HD 
HETATM   17  C   UNL     1     -11.689  15.721  65.708  1.00  0.00     0.522 A  
HETATM   18  C   UNL     1      -9.135  19.962  67.228  1.00  0.00    -0.434 C  
HETATM   19  C   UNL     1     -10.558  17.831  65.913  1.00  0.00    -0.205 A  
HETATM   20  C   UNL     1     -10.187  17.585  67.260  1.00  0.00    -0.335 A  
HETATM   21  O   UNL     1     -10.115  19.070  69.191  1.00  0.00    -0.374 OA 
HETATM   22  C   UNL     1      -8.009  18.161  68.479  1.00  0.00    -0.312 C  
HETATM   23  C   UNL     1      -9.388  18.661  68.024  1.00  0.00    -0.312 C  
ENDBRANCH  12  13
ENDBRANCH  11  12
ENDBRANCH  10  11
BRANCH  10  24
HETATM   24  C   UNL     1      -7.588  13.222  69.811  1.00  0.00     1.040 A  
HETATM   25  C   UNL     1      -5.750  11.670  71.285  1.00  0.00     0.250 A  
HETATM   26  C   UNL     1      -6.529  13.825  70.506  1.00  0.00     0.134 A  
HETATM   27  C   UNL     1      -7.698  11.816  69.874  1.00  0.00     1.288 A  
HETATM   28  C   UNL     1      -5.619  13.057  71.234  1.00  0.00    -0.071 A  
HETATM   29  C   UNL     1      -6.800  11.032  70.619  1.00  0.00     0.830 A  
BRANCH  29  30
HETATM   30  C   UNL     1      -6.950   9.568  70.605  1.00  0.00    -0.121 C  
HETATM   31  C   UNL     1      -8.034   8.912  70.154  1.00  0.00    -0.111 C  
BRANCH  31  32
HETATM   32  C   UNL     1      -8.211   7.456  70.157  1.00  0.00    -0.133 A  
HETATM   33  N   UNL     1      -9.032   6.991  71.129  1.00  0.00    -0.145 NA 
HETATM   34  C   UNL     1      -9.204   5.662  71.252  1.00  0.00    -0.146 A  
HETATM   35  C   UNL     1      -8.545   4.738  70.415  1.00  0.00    -0.117 A  
HETATM   36  C   UNL     1      -7.700   5.239  69.423  1.00  0.00    -0.080 A  
HETATM   37  C   UNL     1      -8.733   3.356  70.591  1.00  0.00    -0.128 A  
HETATM   38  C   UNL     1      -9.570   2.887  71.600  1.00  0.00    -0.222 A  
HETATM   39  C   UNL     1      -7.524   6.612  69.296  1.00  0.00    -0.095 A  
HETATM   40  C   UNL     1     -10.225   3.800  72.419  1.00  0.00    -0.149 A  
HETATM   41  C   UNL     1     -10.042   5.171  72.242  1.00  0.00    -0.243 A  
HETATM   42 CL   UNL     1     -11.260   3.227  73.669  1.00  0.00    -0.315 Cl 
ENDBRANCH  31  32
ENDBRANCH  29  30
ENDBRANCH  10  24
ENDBRANCH   9  10
ENDBRANCH   8   9
ENDBRANCH   5   8
ENDBRANCH   3   5
TORSDOF 10
ENDMDL
MODEL      202
REMARK 921   NORMALIZED FREE ENERGY PREDICTED BY IDOCK:   -0.18 KCAL/MOL
REMARK 922        TOTAL FREE ENERGY PREDICTED BY IDOCK:   -1.95 KCAL/MOL
REMARK 923 INTER-LIGAND FREE ENERGY PREDICTED BY IDOCK:   -2.72 KCAL/MOL
REMARK 924 INTRA-LIGAND FREE ENERGY PREDICTED BY IDOCK:    0.77 KCAL/MOL
REMARK 927      BINDING AFFINITY PREDICTED BY RF-SCORE:    0.00 PKD
ROOT
HETATM    1  O   UNL     1     -10.835   4.028  68.892  1.00  0.00     1.751 OA 
HETATM    2  C   UNL     1     -10.457   5.201  69.462  1.00  0.00    -0.163 C  
HETATM    3  C   UNL     1     -11.107   6.406  68.811  1.00  0.00    -0.404 C  
HETATM    4  O   UNL     1      -9.713   5.233  70.429  1.00  0.00    -0.169 OA 
ENDROOT
BRANCH   3   5
HETATM    5  C   UNL     1     -10.337   7.712  69.004  1.00  0.00    -0.220 C  
HETATM    6  C   UNL     1     -10.897   8.696  70.023  1.00  0.00    -0.226 C  
HETATM    7  C   UNL     1     -11.030   8.988  68.555  1.00  0.00     0.036 C  
BRANCH   5   8
HETATM    8  C   UNL     1      -8.836   7.537  68.804  1.00  0.00    -0.131 C  
BRANCH   8   9
HETATM    9  S   UNL     1      -8.205   7.436  67.117  1.00  0.00    -0.119 SA 
BRANCH   9  10
HETATM   10  C   UNL     1      -6.413   7.836  67.399  1.00  0.00    -0.056 C  
BRANCH  10  11
HETATM   11  C   UNL     1      -6.018   7.993  68.887  1.00  0.00    -0.039 C  
BRANCH  11  12
HETATM   12  C   UNL     1      -7.031   7.416  69.899  1.00  0.00    -0.060 C  
BRANCH  12  13
HETATM   13  C   UNL     1      -6.436   6.289  70.734  1.00  0.00    -0.041 A  
HETATM   14  C   UNL     1      -6.109   5.113  70.011  1.00  0.00    -0.021 A  
HETATM   15  C   UNL     1      -5.265   4.043  71.972  1.00  0.00     0.000 A  
HETATM   16  H   UNL     1      -5.895   9.477  73.041  1.00  0.00     0.000 HD 
HETATM   17  C   UNL     1      -5.549   3.999  70.621  1.00  0.00    -0.012 A  
HETATM   18  C   UNL     1      -5.926   7.439  74.474  1.00  0.00    -0.081 C  
HETATM   19  C   UNL     1      -5.550   5.199  72.703  1.00  0.00    -0.017 A  
HETATM   20  C   UNL     1      -6.149   6.348  72.125  1.00  0.00    -0.038 A  
HETATM   21  O   UNL     1      -5.728   8.720  72.493  1.00  0.00    -0.067 OA 
HETATM   22  C   UNL     1      -7.913   7.929  73.100  1.00  0.00    -0.198 C  
HETATM   23  C   UNL     1      -6.420   7.578  73.015  1.00  0.00    -0.061 C  
ENDBRANCH  12  13
ENDBRANCH  11  12
ENDBRANCH  10  11
BRANCH  10  24
HETATM   24  C   UNL     1      -5.984   8.992  66.492  1.00  0.00    -0.056 A  
HETATM   25  C   UNL     1      -5.132  11.178  64.925  1.00  0.00     0.215 A  
HETATM   26  C   UNL     1      -5.637   8.822  65.143  1.00  0.00    -0.047 A  
HETATM   27  C   UNL     1      -5.889  10.292  67.034  1.00  0.00    -0.050 A  
HETATM   28  C   UNL     1      -5.214   9.904  64.368  1.00  0.00    -0.073 A  
HETATM   29  C   UNL     1      -5.483  11.394  66.260  1.00  0.00    -0.093 A  
BRANCH  29  30
HETATM   30  C   UNL     1      -5.366  12.712  66.903  1.00  0.00     0.392 C  
HETATM   31  C   UNL     1      -6.337  13.305  67.622  1.00  0.00    -0.161 C  
BRANCH  31  32
HETATM   32  C   UNL     1      -6.246  14.629  68.246  1.00  0.00    -0.122 A  
HETATM   33  N   UNL     1      -7.230  15.488  67.888  1.00  0.00    -0.129 NA 
HETATM   34  C   UNL     1      -7.195  16.749  68.358  1.00  0.00    -0.191 A  
HETATM   35  C   UNL     1      -6.160  17.208  69.198  1.00  0.00    -0.204 A  
HETATM   36  C   UNL     1      -5.153  16.307  69.552  1.00  0.00    -0.114 A  
HETATM   37  C   UNL     1      -6.146  18.539  69.651  1.00  0.00    -0.269 A  
HETATM   38  C   UNL     1      -7.155  19.418  69.267  1.00  0.00    -0.358 A  
HETATM   39  C   UNL     1      -5.191  15.005  69.065  1.00  0.00    -0.097 A  
HETATM   40  C   UNL     1      -8.180  18.961  68.445  1.00  0.00    -0.342 A  
HETATM   41  C   UNL     1      -8.195  17.639  68.000  1.00  0.00    -0.242 A  
HETATM   42 CL   UNL     1      -9.430  20.043  67.967  1.00  0.00    -0.443 Cl 
ENDBRANCH  31  32
ENDBRANCH  29  30
ENDBRANCH  10  24
ENDBRANCH   9  10
ENDBRANCH   8   9
ENDBRANCH   5   8
ENDBRANCH   3   5
TORSDOF 10
ENDMDL
MODEL      203
REMARK 921   NORMALIZED FREE ENERGY PREDICTED BY IDOCK:   -0.17 KCAL/MOL
REMARK 922        TOTAL FREE ENERGY PREDICTED BY IDOCK:   -1.92 KCAL/MOL
REMARK 923 INTER-LIGAND FREE ENERGY PREDICTED BY IDOCK:   -0.67 KCAL/MOL
REMARK 924 INTRA-LIGAND FREE ENERGY PREDICTED BY IDOCK:   -1.24 KCAL/MOL
REMARK 927      BINDING AFFINITY PREDICTED BY RF-SCORE:    0.00 PKD
ROOT
HETATM    1  O   UNL     1     -12.011  17.445  67.191  1.00  0.00     1.644 OA 
HETATM    2  C   UNL     1     -11.873  16.418  68.068  1.00  0.00     0.409 C  
HETATM    3  C   UNL     1     -10.704  16.608  69.013  1.00  0.00    -0.343 C  
HETATM    4  O   UNL     1     -12.660  15.486  68.092  1.00  0.00     0.597 OA 
ENDROOT
BRANCH   3   5
HETATM    5  C   UNL     1     -10.164  15.309  69.609  1.00  0.00    -0.253 C  
HETATM    6  C   UNL     1     -10.155  15.201  71.128  1.00  0.00     1.108 C  
HETATM    7  C   UNL     1      -8.862  15.403  70.389  1.00  0.00     1.079 C  
BRANCH   5   8
HETATM    8  C   UNL     1     -10.449  14.101  68.725  1.00  0.00    -0.247 C  
BRANCH   8   9
HETATM    9  S   UNL     1      -9.591  13.979  67.142  1.00  0.00    -0.254 SA 
BRANCH   9  10
HETATM   10  C   UNL     1      -8.204  12.830  67.594  1.00  0.00    -0.175 C  
BRANCH  10  11
HETATM   11  C   UNL     1      -6.799  13.478  67.563  1.00  0.00    -0.156 C  
BRANCH  11  12
HETATM   12  C   UNL     1      -6.770  14.959  67.123  1.00  0.00     0.275 C  
BRANCH  12  13
HETATM   13  C   UNL     1      -6.342  15.888  68.251  1.00  0.00    -0.121 A  
HETATM   14  C   UNL     1      -5.753  15.246  69.370  1.00  0.00    -0.100 A  
HETATM   15  C   UNL     1      -5.389  17.328  70.480  1.00  0.00    -0.253 A  
HETATM   16  H   UNL     1      -6.659  18.351  65.150  1.00  0.00     0.000 HD 
HETATM   17  C   UNL     1      -5.299  15.950  70.477  1.00  0.00    -0.164 A  
HETATM   18  C   UNL     1      -6.928  19.661  67.253  1.00  0.00    -0.233 C  
HETATM   19  C   UNL     1      -5.939  17.990  69.379  1.00  0.00    -0.240 A  
HETATM   20  C   UNL     1      -6.440  17.307  68.242  1.00  0.00    -0.166 A  
HETATM   21  O   UNL     1      -6.299  17.845  65.869  1.00  0.00    -0.234 OA 
HETATM   22  C   UNL     1      -8.506  17.818  66.816  1.00  0.00    -0.269 C  
HETATM   23  C   UNL     1      -7.024  18.128  67.074  1.00  0.00    -0.194 C  
ENDBRANCH  12  13
ENDBRANCH  11  12
ENDBRANCH  10  11
BRANCH  10  24
HETATM   24  C   UNL     1      -8.327  11.522  66.808  1.00  0.00    -0.165 A  
HETATM   25  C   UNL     1      -8.613   9.057  65.465  1.00  0.00    -0.190 A  
HETATM   26  C   UNL     1      -8.580  11.477  65.428  1.00  0.00     0.247 A  
HETATM   27  C   UNL     1      -8.224  10.294  67.496  1.00  0.00    -0.114 A  
HETATM   28  C   UNL     1      -8.722  10.256  64.764  1.00  0.00    -0.201 A  
HETATM   29  C   UNL     1      -8.347   9.058  66.837  1.00  0.00    -0.119 A  
BRANCH  29  30
HETATM   30  C   UNL     1      -8.271   7.818  67.626  1.00  0.00    -0.125 C  
HETATM   31  C   UNL     1      -9.230   6.875  67.667  1.00  0.00    -0.119 C  
BRANCH  31  32
HETATM   32  C   UNL     1      -9.183   5.647  68.467  1.00  0.00    -0.121 A  
HETATM   33  N   UNL     1      -9.839   5.721  69.650  1.00  0.00    -0.166 NA 
HETATM   34  C   UNL     1      -9.796   4.665  70.483  1.00  0.00    -0.231 A  
HETATM   35  C   UNL     1      -9.079   3.492  70.173  1.00  0.00    -0.202 A  
HETATM   36  C   UNL     1      -8.406   3.438  68.950  1.00  0.00    -0.081 A  
HETATM   37  C   UNL     1      -9.040   2.418  71.081  1.00  0.00    -0.171 A  
HETATM   38  C   UNL     1      -9.707   2.509  72.298  1.00  0.00    -0.205 A  
HETATM   39  C   UNL     1      -8.451   4.530  68.091  1.00  0.00    -0.099 A  
HETATM   40  C   UNL     1     -10.421   3.664  72.600  1.00  0.00    -0.109 A  
HETATM   41  C   UNL     1     -10.463   4.727  71.698  1.00  0.00    -0.163 A  
HETATM   42 CL   UNL     1     -11.248   3.782  74.104  1.00  0.00    -0.052 Cl 
ENDBRANCH  31  32
ENDBRANCH  29  30
ENDBRANCH  10  24
ENDBRANCH   9  10
ENDBRANCH   8   9
ENDBRANCH   5   8
ENDBRANCH   3   5
TORSDOF 10
ENDMDL
MODEL      204
REMARK 921   NORMALIZED FREE ENERGY PREDICTED BY IDOCK:    0.31 KCAL/MOL
REMARK 922        TOTAL FREE ENERGY PREDICTED BY IDOCK:   -1.17 KCAL/MOL
REMARK 923 INTER-LIGAND FREE ENERGY PREDICTED BY IDOCK:   -6.45 KCAL/MOL
REMARK 924 INTRA-LIGAND FREE ENERGY PREDICTED BY IDOCK:    5.27 KCAL/MOL
REMARK 927      BINDING AFFINITY PREDICTED BY RF-SCORE:    0.00 PKD
ROOT
HETATM    1  O   UNL     1     -11.110   8.928  69.525  1.00  0.00    -0.146 OA 
HETATM    2  C   UNL     1     -10.917  10.271  69.560  1.00  0.00    -0.258 C  
HETATM    3  C   UNL     1     -12.053  11.044  68.920  1.00  0.00    -0.239 C  
HETATM    4  O   UNL     1      -9.944  10.764  70.106  1.00  0.00     0.251 OA 
ENDROOT
BRANCH   3   5
HETATM    5  C   UNL     1     -11.663  12.438  68.431  1.00  0.00    -0.386 C  
HETATM    6  C   UNL     1     -10.906  13.323  69.413  1.00  0.00     0.012 C  
HETATM    7  C   UNL     1     -12.348  13.616  69.106  1.00  0.00    -0.115 C  
BRANCH   5   8
HETATM    8  C   UNL     1     -11.367  12.470  66.937  1.00  0.00    -0.326 C  
BRANCH   8   9
HETATM    9  S   UNL     1      -9.749  13.058  66.398  1.00  0.00    -0.256 SA 
BRANCH   9  10
HETATM   10  C   UNL     1      -9.026  13.603  68.020  1.00  0.00    -0.188 C  
BRANCH  10  11
HETATM   11  C   UNL     1      -9.014  15.136  68.234  1.00  0.00    -0.175 C  
BRANCH  11  12
HETATM   12  C   UNL     1      -7.857  15.667  69.108  1.00  0.00    -0.220 C  
BRANCH  12  13
HETATM   13  C   UNL     1      -7.743  17.185  69.056  1.00  0.00    -0.164 A  
HETATM   14  C   UNL     1      -6.528  17.715  69.562  1.00  0.00    -0.193 A  
HETATM   15  C   UNL     1      -7.194  19.950  69.050  1.00  0.00    -0.281 A  
HETATM   16  H   UNL     1     -10.639  16.428  66.445  1.00  0.00     0.000 HD 
HETATM   17  C   UNL     1      -6.262  19.077  69.577  1.00  0.00    -0.293 A  
HETATM   18  C   UNL     1     -10.890  18.763  67.276  1.00  0.00    -0.408 C  
HETATM   19  C   UNL     1      -8.387  19.454  68.520  1.00  0.00    -0.399 A  
HETATM   20  C   UNL     1      -8.711  18.073  68.512  1.00  0.00    -0.304 A  
HETATM   21  O   UNL     1      -9.813  16.704  66.823  1.00  0.00    -0.252 OA 
HETATM   22  C   UNL     1     -10.965  16.927  68.918  1.00  0.00    -0.207 C  
HETATM   23  C   UNL     1     -10.052  17.623  67.898  1.00  0.00    -0.345 C  
ENDBRANCH  12  13
ENDBRANCH  11  12
ENDBRANCH  10  11
BRANCH  10  24
HETATM   24  C   UNL     1      -7.683  12.909  68.257  1.00  0.00    -0.137 A  
HETATM   25  C   UNL     1      -5.266  11.513  68.671  1.00  0.00    -0.043 A  
HETATM   26  C   UNL     1      -6.454  13.461  67.864  1.00  0.00    -0.151 A  
HETATM   27  C   UNL     1      -7.665  11.634  68.862  1.00  0.00    -0.065 A  
HETATM   28  C   UNL     1      -5.258  12.769  68.068  1.00  0.00    -0.090 A  
HETATM   29  C   UNL     1      -6.466  10.935  69.091  1.00  0.00    -0.063 A  
BRANCH  29  30
HETATM   30  C   UNL     1      -6.527   9.591  69.687  1.00  0.00    -0.041 C  
HETATM   31  C   UNL     1      -7.613   9.063  70.281  1.00  0.00    -0.087 C  
BRANCH  31  32
HETATM   32  C   UNL     1      -7.683   7.737  70.903  1.00  0.00    -0.087 A  
HETATM   33  N   UNL     1      -7.594   6.702  70.033  1.00  0.00    -0.098 NA 
HETATM   34  C   UNL     1      -7.715   5.447  70.503  1.00  0.00    -0.084 A  
HETATM   35  C   UNL     1      -7.947   5.174  71.867  1.00  0.00    -0.112 A  
HETATM   36  C   UNL     1      -8.040   6.256  72.746  1.00  0.00    -0.105 A  
HETATM   37  C   UNL     1      -8.090   3.849  72.316  1.00  0.00    -0.085 A  
HETATM   38  C   UNL     1      -8.009   2.793  71.412  1.00  0.00    -0.051 A  
HETATM   39  C   UNL     1      -7.915   7.551  72.259  1.00  0.00    -0.115 A  
HETATM   40  C   UNL     1      -7.771   3.063  70.069  1.00  0.00    -0.043 A  
HETATM   41  C   UNL     1      -7.625   4.377  69.625  1.00  0.00    -0.054 A  
HETATM   42 CL   UNL     1      -7.670   1.762  68.947  1.00  0.00    -0.046 Cl 
ENDBRANCH  31  32
ENDBRANCH  29  30
ENDBRANCH  10  24
ENDBRANCH   9  10
ENDBRANCH   8   9
ENDBRANCH   5   8
ENDBRANCH   3   5
TORSDOF 10
ENDMDL
MODEL      205
REMARK 921   NORMALIZED FREE ENERGY PREDICTED BY IDOCK:    1.29 KCAL/MOL
REMARK 922        TOTAL FREE ENERGY PREDICTED BY IDOCK:    0.40 KCAL/MOL
REMARK 923 INTER-LIGAND FREE ENERGY PREDICTED BY IDOCK:   -3.58 KCAL/MOL
REMARK 924 INTRA-LIGAND FREE ENERGY PREDICTED BY IDOCK:    3.98 KCAL/MOL
REMARK 927      BINDING AFFINITY PREDICTED BY RF-SCORE:    0.00 PKD
ROOT
HETATM    1  O   UNL     1     -11.740  14.291  63.303  1.00  0.00     0.307 OA 
HETATM    2  C   UNL     1     -11.041  13.972  64.422  1.00  0.00    -0.286 C  
HETATM    3  C   UNL     1     -10.089  12.813  64.208  1.00  0.00    -0.277 C  
HETATM    4  O   UNL     1     -11.159  14.611  65.455  1.00  0.00    -0.320 OA 
ENDROOT
BRANCH   3   5
HETATM    5  C   UNL     1      -9.715  12.066  65.489  1.00  0.00    -0.221 C  
HETATM    6  C   UNL     1      -8.869  12.823  66.503  1.00  0.00    -0.046 C  
HETATM    7  C   UNL     1      -8.245  11.732  65.681  1.00  0.00     0.570 C  
BRANCH   5   8
HETATM    8  C   UNL     1     -10.794  11.083  65.925  1.00  0.00    -0.115 C  
BRANCH   8   9
HETATM    9  S   UNL     1     -12.217  11.722  66.831  1.00  0.00     1.297 SA 
BRANCH   9  10
HETATM   10  C   UNL     1     -11.390  12.331  68.379  1.00  0.00    -0.292 C  
BRANCH  10  11
HETATM   11  C   UNL     1      -9.847  12.419  68.289  1.00  0.00    -0.224 C  
BRANCH  11  12
HETATM   12  C   UNL     1      -9.173  13.258  69.397  1.00  0.00     1.086 C  
BRANCH  12  13
HETATM   13  C   UNL     1      -9.799  14.639  69.537  1.00  0.00     0.072 A  
HETATM   14  C   UNL     1     -11.044  14.670  70.215  1.00  0.00    -0.139 A  
HETATM   15  C   UNL     1     -11.189  17.045  70.015  1.00  0.00     0.549 A  
HETATM   16  H   UNL     1      -5.990  15.468  68.767  1.00  0.00     0.000 HD 
HETATM   17  C   UNL     1     -11.740  15.851  70.436  1.00  0.00    -0.371 A  
HETATM   18  C   UNL     1      -7.392  17.416  68.098  1.00  0.00    -0.205 C  
HETATM   19  C   UNL     1      -9.950  17.048  69.369  1.00  0.00    -0.090 A  
HETATM   20  C   UNL     1      -9.220  15.862  69.098  1.00  0.00    -0.253 A  
HETATM   21  O   UNL     1      -6.829  15.402  69.207  1.00  0.00    -0.132 OA 
HETATM   22  C   UNL     1      -7.838  15.237  67.034  1.00  0.00    -0.224 C  
HETATM   23  C   UNL     1      -7.857  15.969  68.384  1.00  0.00    -0.149 C  
ENDBRANCH  12  13
ENDBRANCH  11  12
ENDBRANCH  10  11
BRANCH  10  24
HETATM   24  C   UNL     1     -11.922  11.568  69.595  1.00  0.00    -0.407 A  
HETATM   25  C   UNL     1     -12.782  10.109  71.852  1.00  0.00    -0.493 A  
HETATM   26  C   UNL     1     -12.879  12.097  70.474  1.00  0.00     0.065 A  
HETATM   27  C   UNL     1     -11.407  10.285  69.881  1.00  0.00    -0.354 A  
HETATM   28  C   UNL     1     -13.303  11.375  71.592  1.00  0.00    -0.288 A  
HETATM   29  C   UNL     1     -11.839   9.540  70.992  1.00  0.00    -0.408 A  
BRANCH  29  30
HETATM   30  C   UNL     1     -11.226   8.228  71.253  1.00  0.00    -0.302 C  
HETATM   31  C   UNL     1     -11.383   7.519  72.386  1.00  0.00    -0.360 C  
BRANCH  31  32
HETATM   32  C   UNL     1     -10.759   6.223  72.674  1.00  0.00    -0.232 A  
HETATM   33  N   UNL     1     -10.183   5.626  71.602  1.00  0.00    -0.201 NA 
HETATM   34  C   UNL     1      -9.642   4.404  71.753  1.00  0.00    -0.158 A  
HETATM   35  C   UNL     1      -9.670   3.717  72.985  1.00  0.00    -0.175 A  
HETATM   36  C   UNL     1     -10.273   4.348  74.075  1.00  0.00    -0.247 A  
HETATM   37  C   UNL     1      -9.113   2.430  73.096  1.00  0.00    -0.085 A  
HETATM   38  C   UNL     1      -8.534   1.821  71.987  1.00  0.00    -0.060 A  
HETATM   39  C   UNL     1     -10.831   5.611  73.917  1.00  0.00    -0.132 A  
HETATM   40  C   UNL     1      -8.500   2.503  70.776  1.00  0.00    -0.054 A  
HETATM   41  C   UNL     1      -9.048   3.781  70.666  1.00  0.00    -0.181 A  
HETATM   42 CL   UNL     1      -7.786   1.755  69.400  1.00  0.00    -0.045 Cl 
ENDBRANCH  31  32
ENDBRANCH  29  30
ENDBRANCH  10  24
ENDBRANCH   9  10
ENDBRANCH   8   9
ENDBRANCH   5   8
ENDBRANCH   3   5
TORSDOF 10
ENDMDL
MODEL      206
REMARK 921   NORMALIZED FREE ENERGY PREDICTED BY IDOCK:    1.64 KCAL/MOL
REMARK 922        TOTAL FREE ENERGY PREDICTED BY IDOCK:    0.94 KCAL/MOL
REMARK 923 INTER-LIGAND FREE ENERGY PREDICTED BY IDOCK:    0.20 KCAL/MOL
REMARK 924 INTRA-LIGAND FREE ENERGY PREDICTED BY IDOCK:    0.75 KCAL/MOL
REMARK 927      BINDING AFFINITY PREDICTED BY RF-SCORE:    0.00 PKD
ROOT
HETATM    1  O   UNL     1     -12.673  16.094  67.493  1.00  0.00     1.912 OA 
HETATM    2  C   UNL     1     -12.726  15.012  66.676  1.00  0.00     1.158 C  
HETATM    3  C   UNL     1     -11.465  14.174  66.730  1.00  0.00    -0.383 C  
HETATM    4  O   UNL     1     -13.724  14.749  66.025  1.00  0.00     1.136 OA 
ENDROOT
BRANCH   3   5
HETATM    5  C   UNL     1     -11.231  13.316  65.486  1.00  0.00    -0.307 C  
HETATM    6  C   UNL     1     -11.230  14.037  64.145  1.00  0.00    -0.114 C  
HETATM    7  C   UNL     1     -12.399  13.173  64.524  1.00  0.00    -0.447 C  
BRANCH   5   8
HETATM    8  C   UNL     1     -10.307  12.136  65.759  1.00  0.00    -0.258 C  
BRANCH   8   9
HETATM    9  S   UNL     1      -8.619  12.479  66.296  1.00  0.00     0.363 SA 
BRANCH   9  10
HETATM   10  C   UNL     1      -8.932  13.157  67.996  1.00  0.00    -0.195 C  
BRANCH  10  11
HETATM   11  C   UNL     1      -7.652  13.482  68.803  1.00  0.00    -0.066 C  
BRANCH  11  12
HETATM   12  C   UNL     1      -7.616  14.890  69.436  1.00  0.00    -0.162 C  
BRANCH  12  13
HETATM   13  C   UNL     1      -8.998  15.365  69.869  1.00  0.00     0.114 A  
HETATM   14  C   UNL     1      -9.543  14.688  70.990  1.00  0.00     2.589 A  
HETATM   15  C   UNL     1     -11.509  16.042  70.956  1.00  0.00    -0.460 A  
HETATM   16  H   UNL     1      -7.671  18.396  67.670  1.00  0.00     0.000 HD 
HETATM   17  C   UNL     1     -10.787  15.007  71.516  1.00  0.00     0.218 A  
HETATM   18  C   UNL     1     -10.162  18.445  67.695  1.00  0.00    -0.399 C  
HETATM   19  C   UNL     1     -10.984  16.745  69.869  1.00  0.00    -0.063 A  
HETATM   20  C   UNL     1      -9.731  16.433  69.282  1.00  0.00    -0.221 A  
HETATM   21  O   UNL     1      -7.976  17.880  68.407  1.00  0.00    -0.279 OA 
HETATM   22  C   UNL     1      -9.043  16.432  66.815  1.00  0.00    -0.259 C  
HETATM   23  C   UNL     1      -9.235  17.272  68.087  1.00  0.00    -0.267 C  
ENDBRANCH  12  13
ENDBRANCH  11  12
ENDBRANCH  10  11
BRANCH  10  24
HETATM   24  C   UNL     1      -9.952  12.283  68.731  1.00  0.00    -0.048 A  
HETATM   25  C   UNL     1     -11.731  10.602  70.135  1.00  0.00    -0.417 A  
HETATM   26  C   UNL     1     -11.145  12.786  69.272  1.00  0.00    -0.193 A  
HETATM   27  C   UNL     1      -9.676  10.911  68.917  1.00  0.00    -0.198 A  
HETATM   28  C   UNL     1     -12.025  11.954  69.968  1.00  0.00    -0.409 A  
HETATM   29  C   UNL     1     -10.561  10.058  69.598  1.00  0.00    -0.278 A  
BRANCH  29  30
HETATM   30  C   UNL     1     -10.187   8.648  69.792  1.00  0.00    -0.206 C  
HETATM   31  C   UNL     1     -10.821   7.602  69.231  1.00  0.00    -0.111 C  
BRANCH  31  32
HETATM   32  C   UNL     1     -10.478   6.191  69.434  1.00  0.00    -0.256 A  
HETATM   33  N   UNL     1     -10.111   5.877  70.700  1.00  0.00    -0.188 NA 
HETATM   34  C   UNL     1      -9.715   4.619  70.968  1.00  0.00    -0.188 A  
HETATM   35  C   UNL     1      -9.654   3.623  69.973  1.00  0.00    -0.244 A  
HETATM   36  C   UNL     1     -10.032   3.968  68.673  1.00  0.00     0.092 A  
HETATM   37  C   UNL     1      -9.213   2.325  70.289  1.00  0.00    -0.193 A  
HETATM   38  C   UNL     1      -8.827   2.016  71.589  1.00  0.00    -0.113 A  
HETATM   39  C   UNL     1     -10.441   5.268  68.398  1.00  0.00    -0.143 A  
HETATM   40  C   UNL     1      -8.895   2.998  72.572  1.00  0.00    -0.083 A  
HETATM   41  C   UNL     1      -9.337   4.284  72.259  1.00  0.00    -0.168 A  
HETATM   42 CL   UNL     1      -8.419   2.622  74.182  1.00  0.00    -0.071 Cl 
ENDBRANCH  31  32
ENDBRANCH  29  30
ENDBRANCH  10  24
ENDBRANCH   9  10
ENDBRANCH   8   9
ENDBRANCH   5   8
ENDBRANCH   3   5
TORSDOF 10
ENDMDL
MODEL      207
REMARK 921   NORMALIZED FREE ENERGY PREDICTED BY IDOCK:    1.69 KCAL/MOL
REMARK 922        TOTAL FREE ENERGY PREDICTED BY IDOCK:    1.03 KCAL/MOL
REMARK 923 INTER-LIGAND FREE ENERGY PREDICTED BY IDOCK:   -6.12 KCAL/MOL
REMARK 924 INTRA-LIGAND FREE ENERGY PREDICTED BY IDOCK:    7.15 KCAL/MOL
REMARK 927      BINDING AFFINITY PREDICTED BY RF-SCORE:    0.00 PKD
ROOT
HETATM    1  O   UNL     1     -12.604  10.755  68.494  1.00  0.00    -0.041 OA 
HETATM    2  C   UNL     1     -12.063  12.000  68.520  1.00  0.00    -0.056 C  
HETATM    3  C   UNL     1     -11.757  12.477  69.926  1.00  0.00    -0.327 C  
HETATM    4  O   UNL     1     -11.817  12.613  67.494  1.00  0.00    -0.366 OA 
ENDROOT
BRANCH   3   5
HETATM    5  C   UNL     1     -11.690  13.997  70.069  1.00  0.00    -0.349 C  
HETATM    6  C   UNL     1     -11.837  14.562  71.475  1.00  0.00    -0.283 C  
HETATM    7  C   UNL     1     -12.969  14.700  70.496  1.00  0.00    -0.319 C  
BRANCH   5   8
HETATM    8  C   UNL     1     -10.762  14.638  69.044  1.00  0.00    -0.249 C  
BRANCH   8   9
HETATM    9  S   UNL     1      -9.263  15.448  69.638  1.00  0.00    -0.075 SA 
BRANCH   9  10
HETATM   10  C   UNL     1      -7.990  14.658  68.540  1.00  0.00    -0.136 C  
BRANCH  10  11
HETATM   11  C   UNL     1      -6.685  15.474  68.382  1.00  0.00    -0.116 C  
BRANCH  11  12
HETATM   12  C   UNL     1      -6.823  16.989  68.648  1.00  0.00    -0.187 C  
BRANCH  12  13
HETATM   13  C   UNL     1      -8.143  17.549  68.133  1.00  0.00    -0.249 A  
HETATM   14  C   UNL     1      -9.299  17.082  68.809  1.00  0.00    -0.257 A  
HETATM   15  C   UNL     1     -10.734  18.435  67.463  1.00  0.00    -0.399 A  
HETATM   16  H   UNL     1      -5.478  20.139  66.728  1.00  0.00     0.000 HD 
HETATM   17  C   UNL     1     -10.578  17.503  68.470  1.00  0.00    -0.312 A  
HETATM   18  C   UNL     1      -7.517  20.222  65.299  1.00  0.00     0.030 C  
HETATM   19  C   UNL     1      -9.611  18.933  66.799  1.00  0.00    -0.354 A  
HETATM   20  C   UNL     1      -8.290  18.509  67.094  1.00  0.00    -0.253 A  
HETATM   21  O   UNL     1      -6.202  19.761  67.213  1.00  0.00    -0.185 OA 
HETATM   22  C   UNL     1      -6.326  18.074  65.508  1.00  0.00    -0.203 C  
HETATM   23  C   UNL     1      -7.113  19.122  66.308  1.00  0.00    -0.239 C  
ENDBRANCH  12  13
ENDBRANCH  11  12
ENDBRANCH  10  11
BRANCH  10  24
HETATM   24  C   UNL     1      -8.634  14.212  67.225  1.00  0.00    -0.231 A  
HETATM   25  C   UNL     1      -9.826  13.266  64.849  1.00  0.00    -0.044 A  
HETATM   26  C   UNL     1      -9.537  15.008  66.504  1.00  0.00    -0.299 A  
HETATM   27  C   UNL     1      -8.347  12.925  66.720  1.00  0.00     0.033 A  
HETATM   28  C   UNL     1     -10.128  14.539  65.329  1.00  0.00    -0.389 A  
HETATM   29  C   UNL     1      -8.920  12.448  65.528  1.00  0.00     0.466 A  
BRANCH  29  30
HETATM   30  C   UNL     1      -8.608  11.080  65.085  1.00  0.00    -0.015 C  
HETATM   31  C   UNL     1      -7.505  10.393  65.433  1.00  0.00    -0.127 C  
BRANCH  31  32
HETATM   32  C   UNL     1      -7.166   9.039  64.980  1.00  0.00    -0.092 A  
HETATM   33  N   UNL     1      -7.269   8.084  65.936  1.00  0.00    -0.064 NA 
HETATM   34  C   UNL     1      -6.915   6.822  65.632  1.00  0.00    -0.063 A  
HETATM   35  C   UNL     1      -6.427   6.465  64.359  1.00  0.00    -0.034 A  
HETATM   36  C   UNL     1      -6.325   7.465  63.390  1.00  0.00    -0.053 A  
HETATM   37  C   UNL     1      -6.046   5.138  64.087  1.00  0.00    -0.022 A  
HETATM   38  C   UNL     1      -6.144   4.167  65.079  1.00  0.00    -0.023 A  
HETATM   39  C   UNL     1      -6.691   8.769  63.705  1.00  0.00    -0.088 A  
HETATM   40  C   UNL     1      -6.634   4.519  66.332  1.00  0.00    -0.046 A  
HETATM   41  C   UNL     1      -7.015   5.834  66.600  1.00  0.00    -0.064 A  
HETATM   42 CL   UNL     1      -6.757   3.322  67.562  1.00  0.00    -0.044 Cl 
ENDBRANCH  31  32
ENDBRANCH  29  30
ENDBRANCH  10  24
ENDBRANCH   9  10
ENDBRANCH   8   9
ENDBRANCH   5   8
ENDBRANCH   3   5
TORSDOF 10
ENDMDL
MODEL      208
REMARK 921   NORMALIZED FREE ENERGY PREDICTED BY IDOCK:    1.85 KCAL/MOL
REMARK 922        TOTAL FREE ENERGY PREDICTED BY IDOCK:    1.27 KCAL/MOL
REMARK 923 INTER-LIGAND FREE ENERGY PREDICTED BY IDOCK:   -3.70 KCAL/MOL
REMARK 924 INTRA-LIGAND FREE ENERGY PREDICTED BY IDOCK:    4.98 KCAL/MOL
REMARK 927      BINDING AFFINITY PREDICTED BY RF-SCORE:    0.00 PKD
ROOT
HETATM    1  O   UNL     1     -10.805   9.263  69.193  1.00  0.00    -0.213 OA 
HETATM    2  C   UNL     1     -10.817  10.594  69.459  1.00  0.00    -0.259 C  
HETATM    3  C   UNL     1     -12.028  11.297  68.879  1.00  0.00    -0.378 C  
HETATM    4  O   UNL     1      -9.953  11.118  70.143  1.00  0.00     0.735 OA 
ENDROOT
BRANCH   3   5
HETATM    5  C   UNL     1     -11.831  12.796  68.653  1.00  0.00    -0.341 C  
HETATM    6  C   UNL     1     -11.043  13.553  69.713  1.00  0.00     0.037 C  
HETATM    7  C   UNL     1     -12.532  13.732  69.623  1.00  0.00    -0.176 C  
BRANCH   5   8
HETATM    8  C   UNL     1     -11.727  13.152  67.175  1.00  0.00    -0.377 C  
BRANCH   8   9
HETATM    9  S   UNL     1     -10.230  13.978  66.598  1.00  0.00    -0.280 SA 
BRANCH   9  10
HETATM   10  C   UNL     1      -9.147  13.807  68.097  1.00  0.00    -0.194 C  
BRANCH  10  11
HETATM   11  C   UNL     1      -9.005  15.100  68.936  1.00  0.00    -0.206 C  
BRANCH  11  12
HETATM   12  C   UNL     1      -7.585  15.378  69.476  1.00  0.00    -0.212 C  
BRANCH  12  13
HETATM   13  C   UNL     1      -7.303  16.868  69.618  1.00  0.00     0.300 A  
HETATM   14  C   UNL     1      -6.027  17.191  70.147  1.00  0.00    -0.114 A  
HETATM   15  C   UNL     1      -6.447  19.534  69.953  1.00  0.00    -0.294 A  
HETATM   16  H   UNL     1     -10.315  16.784  67.029  1.00  0.00     0.000 HD 
HETATM   17  C   UNL     1      -5.609  18.503  70.330  1.00  0.00    -0.212 A  
HETATM   18  C   UNL     1     -10.287  19.002  68.165  1.00  0.00    -0.446 C  
HETATM   19  C   UNL     1      -7.698  19.245  69.403  1.00  0.00    -0.080 A  
HETATM   20  C   UNL     1      -8.175  17.921  69.226  1.00  0.00     0.248 A  
HETATM   21  O   UNL     1      -9.456  16.917  67.412  1.00  0.00    -0.234 OA 
HETATM   22  C   UNL     1     -10.535  16.982  69.556  1.00  0.00    -0.182 C  
HETATM   23  C   UNL     1      -9.570  17.705  68.605  1.00  0.00    -0.307 C  
ENDBRANCH  12  13
ENDBRANCH  11  12
ENDBRANCH  10  11
BRANCH  10  24
HETATM   24  C   UNL     1      -7.824  13.137  67.717  1.00  0.00    -0.152 A  
HETATM   25  C   UNL     1      -5.455  11.802  66.963  1.00  0.00    -0.127 A  
HETATM   26  C   UNL     1      -6.693  13.855  67.299  1.00  0.00     0.214 A  
HETATM   27  C   UNL     1      -7.733  11.728  67.744  1.00  0.00    -0.133 A  
HETATM   28  C   UNL     1      -5.521  13.193  66.925  1.00  0.00     0.966 A  
HETATM   29  C   UNL     1      -6.554  11.051  67.389  1.00  0.00    -0.069 A  
BRANCH  29  30
HETATM   30  C   UNL     1      -6.545   9.579  67.400  1.00  0.00    -0.070 C  
HETATM   31  C   UNL     1      -7.397   8.812  68.104  1.00  0.00    -0.087 C  
BRANCH  31  32
HETATM   32  C   UNL     1      -7.386   7.346  68.147  1.00  0.00    -0.100 A  
HETATM   33  N   UNL     1      -7.930   6.748  67.060  1.00  0.00    -0.108 NA 
HETATM   34  C   UNL     1      -8.025   5.406  67.038  1.00  0.00    -0.101 A  
HETATM   35  C   UNL     1      -7.592   4.604  68.114  1.00  0.00    -0.077 A  
HETATM   36  C   UNL     1      -7.039   5.241  69.227  1.00  0.00    -0.057 A  
HETATM   37  C   UNL     1      -7.730   3.205  68.062  1.00  0.00    -0.059 A  
HETATM   38  C   UNL     1      -8.300   2.601  66.946  1.00  0.00    -0.095 A  
HETATM   39  C   UNL     1      -6.942   6.628  69.248  1.00  0.00    -0.074 A  
HETATM   40  C   UNL     1      -8.719   3.392  65.882  1.00  0.00    -0.124 A  
HETATM   41  C   UNL     1      -8.579   4.779  65.932  1.00  0.00    -0.119 A  
HETATM   42 CL   UNL     1      -9.426   2.650  64.499  1.00  0.00    -0.146 Cl 
ENDBRANCH  31  32
ENDBRANCH  29  30
ENDBRANCH  10  24
ENDBRANCH   9  10
ENDBRANCH   8   9
ENDBRANCH   5   8
ENDBRANCH   3   5
TORSDOF 10
ENDMDL
MODEL      209
REMARK 921   NORMALIZED FREE ENERGY PREDICTED BY IDOCK:    2.56 KCAL/MOL
REMARK 922        TOTAL FREE ENERGY PREDICTED BY IDOCK:    2.40 KCAL/MOL
REMARK 923 INTER-LIGAND FREE ENERGY PREDICTED BY IDOCK:   -0.38 KCAL/MOL
REMARK 924 INTRA-LIGAND FREE ENERGY PREDICTED BY IDOCK:    2.78 KCAL/MOL
REMARK 927      BINDING AFFINITY PREDICTED BY RF-SCORE:    0.00 PKD
ROOT
HETATM    1  O   UNL     1     -11.978  16.776  72.383  1.00  0.00    -0.334 OA 
HETATM    2  C   UNL     1     -11.474  17.122  71.171  1.00  0.00     1.270 C  
HETATM    3  C   UNL     1     -11.712  16.064  70.113  1.00  0.00    -0.290 C  
HETATM    4  O   UNL     1     -10.939  18.204  70.985  1.00  0.00     1.746 OA 
ENDROOT
BRANCH   3   5
HETATM    5  C   UNL     1     -10.730  16.119  68.942  1.00  0.00    -0.280 C  
HETATM    6  C   UNL     1      -9.875  17.374  68.821  1.00  0.00    -0.311 C  
HETATM    7  C   UNL     1     -11.011  17.151  67.862  1.00  0.00    -0.208 C  
BRANCH   5   8
HETATM    8  C   UNL     1     -10.186  14.744  68.574  1.00  0.00    -0.232 C  
BRANCH   8   9
HETATM    9  S   UNL     1     -10.123  13.478  69.858  1.00  0.00     1.796 SA 
BRANCH   9  10
HETATM   10  C   UNL     1     -10.336  11.943  68.835  1.00  0.00    -0.107 C  
BRANCH  10  11
HETATM   11  C   UNL     1     -10.798  12.201  67.381  1.00  0.00    -0.286 C  
BRANCH  11  12
HETATM   12  C   UNL     1      -9.671  12.559  66.388  1.00  0.00    -0.253 C  
BRANCH  12  13
HETATM   13  C   UNL     1      -9.721  14.020  65.959  1.00  0.00    -0.280 A  
HETATM   14  C   UNL     1      -8.616  14.807  66.373  1.00  0.00     0.042 A  
HETATM   15  C   UNL     1      -9.480  16.745  65.279  1.00  0.00     0.924 A  
HETATM   16  H   UNL     1     -12.300  12.284  63.485  1.00  0.00     0.000 HD 
HETATM   17  C   UNL     1      -8.504  16.154  66.055  1.00  0.00    -0.155 A  
HETATM   18  C   UNL     1     -12.872  14.702  63.683  1.00  0.00     1.125 C  
HETATM   19  C   UNL     1     -10.566  15.987  64.834  1.00  0.00    -0.242 A  
HETATM   20  C   UNL     1     -10.734  14.617  65.160  1.00  0.00    -0.430 A  
HETATM   21  O   UNL     1     -11.542  12.748  63.821  1.00  0.00    -0.411 OA 
HETATM   22  C   UNL     1     -12.874  13.331  65.732  1.00  0.00    -0.135 C  
HETATM   23  C   UNL     1     -11.965  13.864  64.615  1.00  0.00    -0.419 C  
ENDBRANCH  12  13
ENDBRANCH  11  12
ENDBRANCH  10  11
BRANCH  10  24
HETATM   24  C   UNL     1     -11.166  10.911  69.602  1.00  0.00    -0.348 A  
HETATM   25  C   UNL     1     -12.591   8.984  71.091  1.00  0.00    -0.263 A  
HETATM   26  C   UNL     1     -12.534  11.072  69.870  1.00  0.00    -0.286 A  
HETATM   27  C   UNL     1     -10.532   9.754  70.105  1.00  0.00    -0.338 A  
HETATM   28  C   UNL     1     -13.239  10.119  70.608  1.00  0.00    -0.197 A  
HETATM   29  C   UNL     1     -11.233   8.777  70.833  1.00  0.00    -0.320 A  
BRANCH  29  30
HETATM   30  C   UNL     1     -10.498   7.618  71.364  1.00  0.00    -0.230 C  
HETATM   31  C   UNL     1      -9.425   7.695  72.172  1.00  0.00    -0.201 C  
BRANCH  31  32
HETATM   32  C   UNL     1      -8.665   6.552  72.689  1.00  0.00    -0.124 A  
HETATM   33  N   UNL     1      -8.203   5.707  71.736  1.00  0.00    -0.118 NA 
HETATM   34  C   UNL     1      -7.551   4.593  72.118  1.00  0.00    -0.083 A  
HETATM   35  C   UNL     1      -7.346   4.270  73.475  1.00  0.00    -0.076 A  
HETATM   36  C   UNL     1      -7.833   5.154  74.441  1.00  0.00    -0.096 A  
HETATM   37  C   UNL     1      -6.679   3.085  73.834  1.00  0.00    -0.034 A  
HETATM   38  C   UNL     1      -6.219   2.217  72.848  1.00  0.00    -0.009 A  
HETATM   39  C   UNL     1      -8.507   6.303  74.045  1.00  0.00    -0.118 A  
HETATM   40  C   UNL     1      -6.415   2.541  71.509  1.00  0.00    -0.019 A  
HETATM   41  C   UNL     1      -7.073   3.718  71.154  1.00  0.00    -0.033 A  
HETATM   42 CL   UNL     1      -5.849   1.471  70.286  1.00  0.00    -0.017 Cl 
ENDBRANCH  31  32
ENDBRANCH  29  30
ENDBRANCH  10  24
ENDBRANCH   9  10
ENDBRANCH   8   9
ENDBRANCH   5   8
ENDBRANCH   3   5
TORSDOF 10
ENDMDL
MODEL      210
REMARK 921   NORMALIZED FREE ENERGY PREDICTED BY IDOCK:    2.97 KCAL/MOL
REMARK 922        TOTAL FREE ENERGY PREDICTED BY IDOCK:    3.05 KCAL/MOL
REMARK 923 INTER-LIGAND FREE ENERGY PREDICTED BY IDOCK:   -4.64 KCAL/MOL
REMARK 924 INTRA-LIGAND FREE ENERGY PREDICTED BY IDOCK:    7.69 KCAL/MOL
REMARK 927      BINDING AFFINITY PREDICTED BY RF-SCORE:    0.00 PKD
ROOT
HETATM    1  O   UNL     1      -5.956   6.495  66.840  1.00  0.00    -0.023 OA 
HETATM    2  C   UNL     1      -6.008   5.197  67.234  1.00  0.00    -0.026 C  
HETATM    3  C   UNL     1      -7.176   4.446  66.626  1.00  0.00    -0.079 C  
HETATM    4  O   UNL     1      -5.154   4.713  67.959  1.00  0.00    -0.003 OA 
ENDROOT
BRANCH   3   5
HETATM    5  C   UNL     1      -7.611   3.217  67.424  1.00  0.00    -0.069 C  
HETATM    6  C   UNL     1      -7.722   1.905  66.658  1.00  0.00    -0.066 C  
HETATM    7  C   UNL     1      -8.970   2.626  67.082  1.00  0.00    -0.178 C  
BRANCH   5   8
HETATM    8  C   UNL     1      -7.128   3.259  68.868  1.00  0.00    -0.049 C  
BRANCH   8   9
HETATM    9  S   UNL     1      -7.659   4.636  69.906  1.00  0.00    -0.055 SA 
BRANCH   9  10
HETATM   10  C   UNL     1      -9.505   4.474  69.771  1.00  0.00    -0.177 C  
BRANCH  10  11
HETATM   11  C   UNL     1     -10.063   4.680  68.343  1.00  0.00    -0.071 C  
BRANCH  11  12
HETATM   12  C   UNL     1     -10.723   6.053  68.088  1.00  0.00    -0.353 C  
BRANCH  12  13
HETATM   13  C   UNL     1     -10.036   6.825  66.969  1.00  0.00    -0.264 A  
HETATM   14  C   UNL     1      -9.594   8.127  67.319  1.00  0.00    -0.211 A  
HETATM   15  C   UNL     1      -8.677   8.491  65.145  1.00  0.00    -0.156 A  
HETATM   16  H   UNL     1      -9.818   3.064  65.709  1.00  0.00     0.000 HD 
HETATM   17  C   UNL     1      -8.941   8.956  66.418  1.00  0.00    -0.193 A  
HETATM   18  C   UNL     1      -9.677   4.585  63.741  1.00  0.00     0.086 C  
HETATM   19  C   UNL     1      -9.076   7.203  64.781  1.00  0.00     0.892 A  
HETATM   20  C   UNL     1      -9.772   6.334  65.661  1.00  0.00     0.419 A  
HETATM   21  O   UNL     1      -9.576   3.931  66.014  1.00  0.00    -0.178 OA 
HETATM   22  C   UNL     1     -11.685   4.705  65.166  1.00  0.00     1.446 C  
HETATM   23  C   UNL     1     -10.165   4.927  65.167  1.00  0.00     0.160 C  
ENDBRANCH  12  13
ENDBRANCH  11  12
ENDBRANCH  10  11
BRANCH  10  24
HETATM   24  C   UNL     1     -10.187   5.311  70.857  1.00  0.00    -0.304 A  
HETATM   25  C   UNL     1     -11.512   6.915  72.762  1.00  0.00    -0.183 A  
HETATM   26  C   UNL     1     -10.535   4.798  72.116  1.00  0.00    -0.243 A  
HETATM   27  C   UNL     1     -10.525   6.653  70.580  1.00  0.00    -0.240 A  
HETATM   28  C   UNL     1     -11.192   5.592  73.058  1.00  0.00    -0.346 A  
HETATM   29  C   UNL     1     -11.169   7.469  71.526  1.00  0.00    -0.271 A  
BRANCH  29  30
HETATM   30  C   UNL     1     -11.530   8.846  71.152  1.00  0.00    -0.364 C  
HETATM   31  C   UNL     1     -11.038   9.507  70.088  1.00  0.00    -0.294 C  
BRANCH  31  32
HETATM   32  C   UNL     1     -11.366  10.887  69.717  1.00  0.00    -0.301 A  
HETATM   33  N   UNL     1     -11.076  11.208  68.432  1.00  0.00    -0.225 NA 
HETATM   34  C   UNL     1     -11.280  12.471  68.017  1.00  0.00    -0.270 A  
HETATM   35  C   UNL     1     -11.771  13.475  68.877  1.00  0.00    -0.379 A  
HETATM   36  C   UNL     1     -12.060  13.124  70.198  1.00  0.00    -0.392 A  
HETATM   37  C   UNL     1     -11.950  14.789  68.411  1.00  0.00    -0.270 A  
HETATM   38  C   UNL     1     -11.638  15.112  67.094  1.00  0.00    -0.206 A  
HETATM   39  C   UNL     1     -11.848  11.818  70.626  1.00  0.00    -0.185 A  
HETATM   40  C   UNL     1     -11.162  14.119  66.244  1.00  0.00    -0.329 A  
HETATM   41  C   UNL     1     -10.988  12.814  66.706  1.00  0.00    -0.301 A  
HETATM   42 CL   UNL     1     -10.774  14.511  64.614  1.00  0.00    -0.393 Cl 
ENDBRANCH  31  32
ENDBRANCH  29  30
ENDBRANCH  10  24
ENDBRANCH   9  10
ENDBRANCH   8   9
ENDBRANCH   5   8
ENDBRANCH   3   5
TORSDOF 10
ENDMDL
MODEL      211
REMARK 921   NORMALIZED FREE ENERGY PREDICTED BY IDOCK:    3.66 KCAL/MOL
REMARK 922        TOTAL FREE ENERGY PREDICTED BY IDOCK:    4.14 KCAL/MOL
REMARK 923 INTER-LIGAND FREE ENERGY PREDICTED BY IDOCK:    2.92 KCAL/MOL
REMARK 924 INTRA-LIGAND FREE ENERGY PREDICTED BY IDOCK:    1.22 KCAL/MOL
REMARK 927      BINDING AFFINITY PREDICTED BY RF-SCORE:    0.00 PKD
ROOT
HETATM    1  O   UNL     1     -12.782  16.179  67.759  1.00  0.00     1.659 OA 
HETATM    2  C   UNL     1     -12.978  15.132  66.918  1.00  0.00     2.314 C  
HETATM    3  C   UNL     1     -11.724  14.308  66.706  1.00  0.00    -0.424 C  
HETATM    4  O   UNL     1     -14.076  14.886  66.446  1.00  0.00     3.700 OA 
ENDROOT
BRANCH   3   5
HETATM    5  C   UNL     1     -11.715  13.508  65.404  1.00  0.00    -0.351 C  
HETATM    6  C   UNL     1     -12.026  14.273  64.125  1.00  0.00    -0.401 C  
HETATM    7  C   UNL     1     -13.050  13.334  64.698  1.00  0.00     0.113 C  
BRANCH   5   8
HETATM    8  C   UNL     1     -10.700  12.371  65.427  1.00  0.00    -0.282 C  
BRANCH   8   9
HETATM    9  S   UNL     1      -8.956  12.786  65.630  1.00  0.00     0.799 SA 
BRANCH   9  10
HETATM   10  C   UNL     1      -8.886  13.075  67.463  1.00  0.00    -0.195 C  
BRANCH  10  11
HETATM   11  C   UNL     1      -7.494  13.499  67.992  1.00  0.00    -0.140 C  
BRANCH  11  12
HETATM   12  C   UNL     1      -7.436  14.903  68.632  1.00  0.00    -0.124 C  
BRANCH  12  13
HETATM   13  C   UNL     1      -8.808  15.392  69.079  1.00  0.00    -0.231 A  
HETATM   14  C   UNL     1      -9.434  14.599  70.074  1.00  0.00     0.648 A  
HETATM   15  C   UNL     1     -11.324  16.056  70.163  1.00  0.00    -0.369 A  
HETATM   16  H   UNL     1      -7.234  18.617  67.373  1.00  0.00     0.000 HD 
HETATM   17  C   UNL     1     -10.682  14.914  70.597  1.00  0.00     0.031 A  
HETATM   18  C   UNL     1      -9.718  18.804  67.318  1.00  0.00    -0.335 C  
HETATM   19  C   UNL     1     -10.718  16.871  69.204  1.00  0.00    -0.298 A  
HETATM   20  C   UNL     1      -9.460  16.571  68.623  1.00  0.00    -0.243 A  
HETATM   21  O   UNL     1      -7.597  18.022  68.019  1.00  0.00    -0.231 OA 
HETATM   22  C   UNL     1      -8.669  16.871  66.204  1.00  0.00    -0.280 C  
HETATM   23  C   UNL     1      -8.870  17.537  67.574  1.00  0.00    -0.229 C  
ENDBRANCH  12  13
ENDBRANCH  11  12
ENDBRANCH  10  11
BRANCH  10  24
HETATM   24  C   UNL     1      -9.527  11.900  68.206  1.00  0.00    -0.197 A  
HETATM   25  C   UNL     1     -10.592   9.669  69.566  1.00  0.00    -0.247 A  
HETATM   26  C   UNL     1     -10.465  12.064  69.236  1.00  0.00     0.090 A  
HETATM   27  C   UNL     1      -9.136  10.584  67.878  1.00  0.00    -0.136 A  
HETATM   28  C   UNL     1     -10.991  10.959  69.910  1.00  0.00    -0.266 A  
HETATM   29  C   UNL     1      -9.672   9.462  68.535  1.00  0.00    -0.160 A  
BRANCH  29  30
HETATM   30  C   UNL     1      -9.186   8.122  68.170  1.00  0.00    -0.136 C  
HETATM   31  C   UNL     1      -9.929   7.173  67.571  1.00  0.00    -0.214 C  
BRANCH  31  32
HETATM   32  C   UNL     1      -9.469   5.824  67.224  1.00  0.00    -0.114 A  
HETATM   33  N   UNL     1      -8.657   5.253  68.147  1.00  0.00    -0.100 NA 
HETATM   34  C   UNL     1      -8.132   4.042  67.887  1.00  0.00    -0.089 A  
HETATM   35  C   UNL     1      -8.384   3.356  66.681  1.00  0.00    -0.101 A  
HETATM   36  C   UNL     1      -9.219   3.965  65.742  1.00  0.00    -0.154 A  
HETATM   37  C   UNL     1      -7.797   2.101  66.437  1.00  0.00    -0.075 A  
HETATM   38  C   UNL     1      -6.956   1.528  67.386  1.00  0.00    -0.035 A  
HETATM   39  C   UNL     1      -9.761   5.216  66.012  1.00  0.00    -0.182 A  
HETATM   40  C   UNL     1      -6.715   2.201  68.578  1.00  0.00    -0.029 A  
HETATM   41  C   UNL     1      -7.300   3.444  68.822  1.00  0.00    -0.050 A  
HETATM   42 CL   UNL     1      -5.675   1.497  69.755  1.00  0.00    -0.017 Cl 
ENDBRANCH  31  32
ENDBRANCH  29  30
ENDBRANCH  10  24
ENDBRANCH   9  10
ENDBRANCH   8   9
ENDBRANCH   5   8
ENDBRANCH   3   5
TORSDOF 10
ENDMDL
MODEL      212
REMARK 921   NORMALIZED FREE ENERGY PREDICTED BY IDOCK:    4.02 KCAL/MOL
REMARK 922        TOTAL FREE ENERGY PREDICTED BY IDOCK:    4.72 KCAL/MOL
REMARK 923 INTER-LIGAND FREE ENERGY PREDICTED BY IDOCK:    4.58 KCAL/MOL
REMARK 924 INTRA-LIGAND FREE ENERGY PREDICTED BY IDOCK:    0.14 KCAL/MOL
REMARK 927      BINDING AFFINITY PREDICTED BY RF-SCORE:    0.00 PKD
ROOT
HETATM    1  O   UNL     1     -13.432  16.759  68.437  1.00  0.00     3.610 OA 
HETATM    2  C   UNL     1     -12.851  15.667  68.996  1.00  0.00     0.963 C  
HETATM    3  C   UNL     1     -11.787  16.024  70.014  1.00  0.00    -0.241 C  
HETATM    4  O   UNL     1     -13.214  14.535  68.718  1.00  0.00     1.523 OA 
ENDROOT
BRANCH   3   5
HETATM    5  C   UNL     1     -10.750  14.926  70.246  1.00  0.00    -0.082 C  
HETATM    6  C   UNL     1     -10.064  14.904  71.605  1.00  0.00     2.285 C  
HETATM    7  C   UNL     1      -9.304  15.371  70.396  1.00  0.00     0.778 C  
BRANCH   5   8
HETATM    8  C   UNL     1     -11.089  13.639  69.503  1.00  0.00    -0.072 C  
BRANCH   8   9
HETATM    9  S   UNL     1     -10.735  13.555  67.735  1.00  0.00    -0.256 SA 
BRANCH   9  10
HETATM   10  C   UNL     1      -9.123  12.632  67.754  1.00  0.00    -0.192 C  
BRANCH  10  11
HETATM   11  C   UNL     1      -7.886  13.509  68.061  1.00  0.00    -0.147 C  
BRANCH  11  12
HETATM   12  C   UNL     1      -7.672  14.701  67.103  1.00  0.00    -0.121 C  
BRANCH  12  13
HETATM   13  C   UNL     1      -7.039  15.898  67.801  1.00  0.00    -0.168 A  
HETATM   14  C   UNL     1      -5.897  15.601  68.588  1.00  0.00    -0.101 A  
HETATM   15  C   UNL     1      -5.601  17.896  69.174  1.00  0.00    -0.197 A  
HETATM   16  H   UNL     1      -9.218  17.593  64.944  1.00  0.00     0.000 HD 
HETATM   17  C   UNL     1      -5.197  16.580  69.280  1.00  0.00    -0.132 A  
HETATM   18  C   UNL     1      -8.870  19.241  66.781  1.00  0.00    -0.344 C  
HETATM   19  C   UNL     1      -6.706  18.221  68.384  1.00  0.00    -0.229 A  
HETATM   20  C   UNL     1      -7.465  17.249  67.685  1.00  0.00    -0.187 A  
HETATM   21  O   UNL     1      -8.479  17.309  65.469  1.00  0.00    -0.250 OA 
HETATM   22  C   UNL     1      -9.997  17.116  67.319  1.00  0.00    -0.274 C  
HETATM   23  C   UNL     1      -8.667  17.709  66.833  1.00  0.00    -0.246 C  
ENDBRANCH  12  13
ENDBRANCH  11  12
ENDBRANCH  10  11
BRANCH  10  24
HETATM   24  C   UNL     1      -9.001  11.763  66.499  1.00  0.00    -0.196 A  
HETATM   25  C   UNL     1      -8.818  10.057  64.259  1.00  0.00    -0.245 A  
HETATM   26  C   UNL     1      -9.292  12.232  65.209  1.00  0.00     0.169 A  
HETATM   27  C   UNL     1      -8.617  10.411  66.634  1.00  0.00    -0.128 A  
HETATM   28  C   UNL     1      -9.202  11.388  64.101  1.00  0.00     0.008 A  
HETATM   29  C   UNL     1      -8.504   9.555  65.524  1.00  0.00    -0.150 A  
BRANCH  29  30
HETATM   30  C   UNL     1      -8.141   8.146  65.744  1.00  0.00    -0.115 C  
HETATM   31  C   UNL     1      -8.539   7.121  64.969  1.00  0.00     0.105 C  
BRANCH  31  32
HETATM   32  C   UNL     1      -8.208   5.709  65.189  1.00  0.00    -0.136 A  
HETATM   33  N   UNL     1      -8.043   5.365  66.489  1.00  0.00    -0.105 NA 
HETATM   34  C   UNL     1      -7.673   4.106  66.786  1.00  0.00    -0.089 A  
HETATM   35  C   UNL     1      -7.437   3.138  65.789  1.00  0.00    -0.073 A  
HETATM   36  C   UNL     1      -7.608   3.514  64.455  1.00  0.00    -0.076 A  
HETATM   37  C   UNL     1      -7.029   1.838  66.139  1.00  0.00    -0.042 A  
HETATM   38  C   UNL     1      -6.851   1.499  67.477  1.00  0.00    -0.032 A  
HETATM   39  C   UNL     1      -7.990   4.815  64.150  1.00  0.00    -0.101 A  
HETATM   40  C   UNL     1      -7.093   2.452  68.460  1.00  0.00    -0.044 A  
HETATM   41  C   UNL     1      -7.501   3.740  68.113  1.00  0.00    -0.062 A  
HETATM   42 CL   UNL     1      -6.874   2.039  70.116  1.00  0.00    -0.033 Cl 
ENDBRANCH  31  32
ENDBRANCH  29  30
ENDBRANCH  10  24
ENDBRANCH   9  10
ENDBRANCH   8   9
ENDBRANCH   5   8
ENDBRANCH   3   5
TORSDOF 10
ENDMDL
MODEL      213
REMARK 921   NORMALIZED FREE ENERGY PREDICTED BY IDOCK:    4.41 KCAL/MOL
REMARK 922        TOTAL FREE ENERGY PREDICTED BY IDOCK:    5.33 KCAL/MOL
REMARK 923 INTER-LIGAND FREE ENERGY PREDICTED BY IDOCK:    4.05 KCAL/MOL
REMARK 924 INTRA-LIGAND FREE ENERGY PREDICTED BY IDOCK:    1.27 KCAL/MOL
REMARK 927      BINDING AFFINITY PREDICTED BY RF-SCORE:    0.00 PKD
ROOT
HETATM    1  O   UNL     1     -12.789  16.183  67.763  1.00  0.00     1.995 OA 
HETATM    2  C   UNL     1     -12.990  15.142  66.915  1.00  0.00     2.314 C  
HETATM    3  C   UNL     1     -11.734  14.328  66.678  1.00  0.00    -0.417 C  
HETATM    4  O   UNL     1     -14.093  14.893  66.457  1.00  0.00     4.217 OA 
ENDROOT
BRANCH   3   5
HETATM    5  C   UNL     1     -11.739  13.540  65.368  1.00  0.00    -0.351 C  
HETATM    6  C   UNL     1     -12.087  14.312  64.102  1.00  0.00    -0.423 C  
HETATM    7  C   UNL     1     -13.085  13.353  64.687  1.00  0.00     0.173 C  
BRANCH   5   8
HETATM    8  C   UNL     1     -10.707  12.418  65.360  1.00  0.00    -0.282 C  
BRANCH   8   9
HETATM    9  S   UNL     1      -8.966  12.857  65.535  1.00  0.00     1.040 SA 
BRANCH   9  10
HETATM   10  C   UNL     1      -8.863  13.121  67.370  1.00  0.00    -0.204 C  
BRANCH  10  11
HETATM   11  C   UNL     1      -7.471  13.573  67.876  1.00  0.00    -0.153 C  
BRANCH  11  12
HETATM   12  C   UNL     1      -7.438  14.963  68.549  1.00  0.00    -0.118 C  
BRANCH  12  13
HETATM   13  C   UNL     1      -8.812  15.400  69.041  1.00  0.00    -0.231 A  
HETATM   14  C   UNL     1      -9.392  14.563  70.028  1.00  0.00     0.880 A  
HETATM   15  C   UNL     1     -11.320  15.961  70.201  1.00  0.00    -0.369 A  
HETATM   16  H   UNL     1      -7.371  18.713  67.388  1.00  0.00     0.000 HD 
HETATM   17  C   UNL     1     -10.635  14.827  70.588  1.00  0.00     0.256 A  
HETATM   18  C   UNL     1      -9.861  18.830  67.396  1.00  0.00    -0.357 C  
HETATM   19  C   UNL     1     -10.760  16.818  69.250  1.00  0.00    -0.324 A  
HETATM   20  C   UNL     1      -9.508  16.571  68.632  1.00  0.00    -0.243 A  
HETATM   21  O   UNL     1      -7.701  18.091  68.026  1.00  0.00    -0.236 OA 
HETATM   22  C   UNL     1      -8.785  16.959  66.206  1.00  0.00    -0.321 C  
HETATM   23  C   UNL     1      -8.971  17.581  67.597  1.00  0.00    -0.231 C  
ENDBRANCH  12  13
ENDBRANCH  11  12
ENDBRANCH  10  11
BRANCH  10  24
HETATM   24  C   UNL     1      -9.457  11.918  68.109  1.00  0.00    -0.195 A  
HETATM   25  C   UNL     1     -10.434   9.640  69.455  1.00  0.00    -0.240 A  
HETATM   26  C   UNL     1     -10.374  12.042  69.163  1.00  0.00     0.055 A  
HETATM   27  C   UNL     1      -9.042  10.617  67.749  1.00  0.00    -0.144 A  
HETATM   28  C   UNL     1     -10.856  10.914  69.831  1.00  0.00    -0.205 A  
HETATM   29  C   UNL     1      -9.534   9.473  68.400  1.00  0.00    -0.144 A  
BRANCH  29  30
HETATM   30  C   UNL     1      -9.025   8.151  68.001  1.00  0.00    -0.134 C  
HETATM   31  C   UNL     1      -9.758   7.194  67.404  1.00  0.00    -0.186 C  
BRANCH  31  32
HETATM   32  C   UNL     1      -9.273   5.863  67.024  1.00  0.00    -0.119 A  
HETATM   33  N   UNL     1      -9.869   5.340  65.925  1.00  0.00    -0.126 NA 
HETATM   34  C   UNL     1      -9.537   4.095  65.537  1.00  0.00    -0.188 A  
HETATM   35  C   UNL     1      -8.604   3.311  66.246  1.00  0.00    -0.121 A  
HETATM   36  C   UNL     1      -8.005   3.867  67.379  1.00  0.00    -0.091 A  
HETATM   37  C   UNL     1      -8.301   2.005  65.822  1.00  0.00    -0.094 A  
HETATM   38  C   UNL     1      -8.927   1.472  64.699  1.00  0.00    -0.110 A  
HETATM   39  C   UNL     1      -8.349   5.154  67.777  1.00  0.00    -0.105 A  
HETATM   40  C   UNL     1      -9.841   2.249  63.996  1.00  0.00    -0.124 A  
HETATM   41  C   UNL     1     -10.138   3.546  64.414  1.00  0.00    -0.182 A  
HETATM   42 CL   UNL     1     -10.619   1.597  62.607  1.00  0.00    -0.106 Cl 
ENDBRANCH  31  32
ENDBRANCH  29  30
ENDBRANCH  10  24
ENDBRANCH   9  10
ENDBRANCH   8   9
ENDBRANCH   5   8
ENDBRANCH   3   5
TORSDOF 10
ENDMDL
MODEL      214
REMARK 921   NORMALIZED FREE ENERGY PREDICTED BY IDOCK:    4.44 KCAL/MOL
REMARK 922        TOTAL FREE ENERGY PREDICTED BY IDOCK:    5.39 KCAL/MOL
REMARK 923 INTER-LIGAND FREE ENERGY PREDICTED BY IDOCK:    2.65 KCAL/MOL
REMARK 924 INTRA-LIGAND FREE ENERGY PREDICTED BY IDOCK:    2.74 KCAL/MOL
REMARK 927      BINDING AFFINITY PREDICTED BY RF-SCORE:    0.00 PKD
ROOT
HETATM    1  O   UNL     1     -12.265  18.442  69.536  1.00  0.00     6.501 OA 
HETATM    2  C   UNL     1     -11.822  17.445  68.729  1.00  0.00     1.945 C  
HETATM    3  C   UNL     1     -12.114  16.066  69.286  1.00  0.00    -0.088 C  
HETATM    4  O   UNL     1     -11.296  17.677  67.652  1.00  0.00     0.076 OA 
ENDROOT
BRANCH   3   5
HETATM    5  C   UNL     1     -11.193  14.969  68.755  1.00  0.00    -0.288 C  
HETATM    6  C   UNL     1      -9.695  15.199  68.902  1.00  0.00    -0.224 C  
HETATM    7  C   UNL     1     -10.336  15.319  67.549  1.00  0.00    -0.244 C  
BRANCH   5   8
HETATM    8  C   UNL     1     -11.804  13.579  68.890  1.00  0.00    -0.345 C  
BRANCH   8   9
HETATM    9  S   UNL     1     -11.434  12.624  70.376  1.00  0.00     0.652 SA 
BRANCH   9  10
HETATM   10  C   UNL     1     -11.763  10.901  69.764  1.00  0.00    -0.338 C  
BRANCH  10  11
HETATM   11  C   UNL     1     -11.588   9.797  70.834  1.00  0.00    -0.441 C  
BRANCH  11  12
HETATM   12  C   UNL     1     -10.147   9.266  70.999  1.00  0.00    -0.373 C  
BRANCH  12  13
HETATM   13  C   UNL     1     -10.007   8.338  72.198  1.00  0.00    -0.343 A  
HETATM   14  C   UNL     1      -8.827   8.519  72.965  1.00  0.00    -0.124 A  
HETATM   15  C   UNL     1      -9.473   6.820  74.513  1.00  0.00    -0.258 A  
HETATM   16  H   UNL     1     -13.890   8.146  71.382  1.00  0.00     0.000 HD 
HETATM   17  C   UNL     1      -8.553   7.761  74.096  1.00  0.00    -0.307 A  
HETATM   18  C   UNL     1     -13.217   6.079  72.600  1.00  0.00     0.748 C  
HETATM   19  C   UNL     1     -10.656   6.639  73.793  1.00  0.00    -0.302 A  
HETATM   20  C   UNL     1     -10.962   7.371  72.618  1.00  0.00    -0.363 A  
HETATM   21  O   UNL     1     -13.067   8.311  71.827  1.00  0.00    -0.329 OA 
HETATM   22  C   UNL     1     -12.102   6.588  70.461  1.00  0.00    -0.226 C  
HETATM   23  C   UNL     1     -12.298   7.103  71.895  1.00  0.00    -0.317 C  
ENDBRANCH  12  13
ENDBRANCH  11  12
ENDBRANCH  10  11
BRANCH  10  24
HETATM   24  C   UNL     1     -11.008  10.655  68.455  1.00  0.00    -0.303 A  
HETATM   25  C   UNL     1      -9.649  10.073  66.052  1.00  0.00    -0.279 A  
HETATM   26  C   UNL     1     -10.994  11.572  67.393  1.00  0.00    -0.317 A  
HETATM   27  C   UNL     1     -10.322   9.435  68.276  1.00  0.00    -0.251 A  
HETATM   28  C   UNL     1     -10.322  11.283  66.204  1.00  0.00    -0.300 A  
HETATM   29  C   UNL     1      -9.625   9.139  67.091  1.00  0.00    -0.215 A  
BRANCH  29  30
HETATM   30  C   UNL     1      -8.968   7.829  66.958  1.00  0.00    -0.145 C  
HETATM   31  C   UNL     1      -8.340   7.180  67.956  1.00  0.00    -0.119 C  
BRANCH  31  32
HETATM   32  C   UNL     1      -7.658   5.887  67.834  1.00  0.00    -0.086 A  
HETATM   33  N   UNL     1      -7.432   5.258  69.012  1.00  0.00    -0.069 NA 
HETATM   34  C   UNL     1      -6.753   4.096  69.008  1.00  0.00    -0.046 A  
HETATM   35  C   UNL     1      -6.256   3.521  67.820  1.00  0.00    -0.032 A  
HETATM   36  C   UNL     1      -6.495   4.189  66.617  1.00  0.00    -0.041 A  
HETATM   37  C   UNL     1      -5.531   2.317  67.860  1.00  0.00    -0.017 A  
HETATM   38  C   UNL     1      -5.294   1.684  69.076  1.00  0.00    -0.012 A  
HETATM   39  C   UNL     1      -7.197   5.389  66.624  1.00  0.00    -0.074 A  
HETATM   40  C   UNL     1      -5.793   2.247  70.246  1.00  0.00    -0.018 A  
HETATM   41  C   UNL     1      -6.515   3.440  70.206  1.00  0.00    -0.032 A  
HETATM   42 CL   UNL     1      -5.503   1.470  71.753  1.00  0.00    -0.004 Cl 
ENDBRANCH  31  32
ENDBRANCH  29  30
ENDBRANCH  10  24
ENDBRANCH   9  10
ENDBRANCH   8   9
ENDBRANCH   5   8
ENDBRANCH   3   5
TORSDOF 10
ENDMDL
MODEL      215
REMARK 921   NORMALIZED FREE ENERGY PREDICTED BY IDOCK:    4.46 KCAL/MOL
REMARK 922        TOTAL FREE ENERGY PREDICTED BY IDOCK:    5.42 KCAL/MOL
REMARK 923 INTER-LIGAND FREE ENERGY PREDICTED BY IDOCK:    1.51 KCAL/MOL
REMARK 924 INTRA-LIGAND FREE ENERGY PREDICTED BY IDOCK:    3.90 KCAL/MOL
REMARK 927      BINDING AFFINITY PREDICTED BY RF-SCORE:    0.00 PKD
ROOT
HETATM    1  O   UNL     1     -11.957   8.696  67.013  1.00  0.00     3.341 OA 
HETATM    2  C   UNL     1     -10.807   9.078  66.399  1.00  0.00     0.556 C  
HETATM    3  C   UNL     1     -10.016  10.084  67.210  1.00  0.00    -0.245 C  
HETATM    4  O   UNL     1     -10.460   8.596  65.333  1.00  0.00     1.408 OA 
ENDROOT
BRANCH   3   5
HETATM    5  C   UNL     1      -9.063  10.944  66.380  1.00  0.00    -0.188 C  
HETATM    6  C   UNL     1      -8.290  10.241  65.273  1.00  0.00    -0.165 C  
HETATM    7  C   UNL     1      -7.578  10.658  66.528  1.00  0.00    -0.134 C  
BRANCH   5   8
HETATM    8  C   UNL     1      -9.561  12.376  66.219  1.00  0.00    -0.241 C  
BRANCH   8   9
HETATM    9  S   UNL     1      -8.445  13.723  66.658  1.00  0.00     0.320 SA 
BRANCH   9  10
HETATM   10  C   UNL     1      -8.204  13.390  68.470  1.00  0.00    -0.093 C  
BRANCH  10  11
HETATM   11  C   UNL     1      -7.964  14.656  69.327  1.00  0.00    -0.055 C  
BRANCH  11  12
HETATM   12  C   UNL     1      -9.156  15.636  69.397  1.00  0.00    -0.278 C  
BRANCH  12  13
HETATM   13  C   UNL     1      -9.529  16.191  68.028  1.00  0.00    -0.211 A  
HETATM   14  C   UNL     1     -10.858  15.924  67.612  1.00  0.00    -0.312 A  
HETATM   15  C   UNL     1     -10.551  17.129  65.574  1.00  0.00    -0.160 A  
HETATM   16  H   UNL     1      -6.320  18.321  69.001  1.00  0.00     0.000 HD 
HETATM   17  C   UNL     1     -11.359  16.369  66.396  1.00  0.00     0.519 A  
HETATM   18  C   UNL     1      -6.558  18.305  66.521  1.00  0.00    -0.236 C  
HETATM   19  C   UNL     1      -9.246  17.431  65.971  1.00  0.00    -0.093 A  
HETATM   20  C   UNL     1      -8.686  16.972  67.190  1.00  0.00    -0.226 A  
HETATM   21  O   UNL     1      -7.212  18.080  68.785  1.00  0.00    -0.267 OA 
HETATM   22  C   UNL     1      -6.312  16.145  67.683  1.00  0.00    -0.181 C  
HETATM   23  C   UNL     1      -7.236  17.364  67.543  1.00  0.00    -0.167 C  
ENDBRANCH  12  13
ENDBRANCH  11  12
ENDBRANCH  10  11
BRANCH  10  24
HETATM   24  C   UNL     1      -7.174  12.274  68.667  1.00  0.00    -0.105 A  
HETATM   25  C   UNL     1      -5.377  10.135  69.060  1.00  0.00    -0.035 A  
HETATM   26  C   UNL     1      -6.018  12.149  67.882  1.00  0.00    -0.072 A  
HETATM   27  C   UNL     1      -7.405  11.293  69.655  1.00  0.00     0.096 A  
HETATM   28  C   UNL     1      -5.129  11.090  68.076  1.00  0.00    -0.036 A  
HETATM   29  C   UNL     1      -6.509  10.232  69.874  1.00  0.00    -0.096 A  
BRANCH  29  30
HETATM   30  C   UNL     1      -6.835   9.221  70.892  1.00  0.00    -0.103 C  
HETATM   31  C   UNL     1      -6.732   7.891  70.714  1.00  0.00    -0.037 C  
BRANCH  31  32
HETATM   32  C   UNL     1      -7.077   6.870  71.709  1.00  0.00    -0.074 A  
HETATM   33  N   UNL     1      -8.368   6.458  71.667  1.00  0.00    -0.124 NA 
HETATM   34  C   UNL     1      -8.796   5.571  72.583  1.00  0.00    -0.123 A  
HETATM   35  C   UNL     1      -7.951   5.068  73.594  1.00  0.00    -0.106 A  
HETATM   36  C   UNL     1      -6.626   5.509  73.622  1.00  0.00    -0.077 A  
HETATM   37  C   UNL     1      -8.443   4.159  74.548  1.00  0.00    -0.092 A  
HETATM   38  C   UNL     1      -9.773   3.752  74.504  1.00  0.00    -0.160 A  
HETATM   39  C   UNL     1      -6.186   6.426  72.674  1.00  0.00    -0.054 A  
HETATM   40  C   UNL     1     -10.603   4.242  73.501  1.00  0.00    -0.217 A  
HETATM   41  C   UNL     1     -10.114   5.141  72.553  1.00  0.00    -0.226 A  
HETATM   42 CL   UNL     1     -12.248   3.742  73.442  1.00  0.00     0.263 Cl 
ENDBRANCH  31  32
ENDBRANCH  29  30
ENDBRANCH  10  24
ENDBRANCH   9  10
ENDBRANCH   8   9
ENDBRANCH   5   8
ENDBRANCH   3   5
TORSDOF 10
ENDMDL
MODEL      216
REMARK 921   NORMALIZED FREE ENERGY PREDICTED BY IDOCK:    4.49 KCAL/MOL
REMARK 922        TOTAL FREE ENERGY PREDICTED BY IDOCK:    5.45 KCAL/MOL
REMARK 923 INTER-LIGAND FREE ENERGY PREDICTED BY IDOCK:    2.63 KCAL/MOL
REMARK 924 INTRA-LIGAND FREE ENERGY PREDICTED BY IDOCK:    2.82 KCAL/MOL
REMARK 927      BINDING AFFINITY PREDICTED BY RF-SCORE:    0.00 PKD
ROOT
HETATM    1  O   UNL     1     -12.265  18.442  69.536  1.00  0.00     6.501 OA 
HETATM    2  C   UNL     1     -11.822  17.445  68.729  1.00  0.00     1.945 C  
HETATM    3  C   UNL     1     -12.114  16.066  69.286  1.00  0.00    -0.088 C  
HETATM    4  O   UNL     1     -11.296  17.677  67.652  1.00  0.00     0.076 OA 
ENDROOT
BRANCH   3   5
HETATM    5  C   UNL     1     -11.193  14.969  68.755  1.00  0.00    -0.288 C  
HETATM    6  C   UNL     1      -9.695  15.199  68.902  1.00  0.00    -0.224 C  
HETATM    7  C   UNL     1     -10.336  15.319  67.549  1.00  0.00    -0.244 C  
BRANCH   5   8
HETATM    8  C   UNL     1     -11.804  13.579  68.890  1.00  0.00    -0.345 C  
BRANCH   8   9
HETATM    9  S   UNL     1     -11.434  12.624  70.376  1.00  0.00     0.652 SA 
BRANCH   9  10
HETATM   10  C   UNL     1     -11.763  10.901  69.764  1.00  0.00    -0.338 C  
BRANCH  10  11
HETATM   11  C   UNL     1     -11.588   9.797  70.834  1.00  0.00    -0.441 C  
BRANCH  11  12
HETATM   12  C   UNL     1     -10.147   9.266  70.999  1.00  0.00    -0.373 C  
BRANCH  12  13
HETATM   13  C   UNL     1     -10.007   8.338  72.198  1.00  0.00    -0.343 A  
HETATM   14  C   UNL     1      -8.827   8.519  72.965  1.00  0.00    -0.124 A  
HETATM   15  C   UNL     1      -9.473   6.820  74.513  1.00  0.00    -0.258 A  
HETATM   16  H   UNL     1     -13.890   8.146  71.382  1.00  0.00     0.000 HD 
HETATM   17  C   UNL     1      -8.553   7.761  74.096  1.00  0.00    -0.307 A  
HETATM   18  C   UNL     1     -13.217   6.079  72.600  1.00  0.00     0.748 C  
HETATM   19  C   UNL     1     -10.656   6.639  73.793  1.00  0.00    -0.302 A  
HETATM   20  C   UNL     1     -10.962   7.371  72.618  1.00  0.00    -0.363 A  
HETATM   21  O   UNL     1     -13.067   8.311  71.827  1.00  0.00    -0.329 OA 
HETATM   22  C   UNL     1     -12.102   6.588  70.461  1.00  0.00    -0.226 C  
HETATM   23  C   UNL     1     -12.298   7.103  71.895  1.00  0.00    -0.317 C  
ENDBRANCH  12  13
ENDBRANCH  11  12
ENDBRANCH  10  11
BRANCH  10  24
HETATM   24  C   UNL     1     -11.008  10.655  68.455  1.00  0.00    -0.303 A  
HETATM   25  C   UNL     1      -9.649  10.073  66.052  1.00  0.00    -0.279 A  
HETATM   26  C   UNL     1     -10.994  11.572  67.393  1.00  0.00    -0.317 A  
HETATM   27  C   UNL     1     -10.322   9.435  68.276  1.00  0.00    -0.251 A  
HETATM   28  C   UNL     1     -10.322  11.283  66.204  1.00  0.00    -0.300 A  
HETATM   29  C   UNL     1      -9.625   9.139  67.091  1.00  0.00    -0.215 A  
BRANCH  29  30
HETATM   30  C   UNL     1      -8.968   7.829  66.958  1.00  0.00    -0.145 C  
HETATM   31  C   UNL     1      -8.340   7.180  67.956  1.00  0.00    -0.119 C  
BRANCH  31  32
HETATM   32  C   UNL     1      -7.658   5.887  67.834  1.00  0.00    -0.086 A  
HETATM   33  N   UNL     1      -7.298   5.558  66.570  1.00  0.00    -0.081 NA 
HETATM   34  C   UNL     1      -6.726   4.360  66.350  1.00  0.00    -0.050 A  
HETATM   35  C   UNL     1      -6.502   3.432  67.387  1.00  0.00    -0.037 A  
HETATM   36  C   UNL     1      -6.885   3.790  68.682  1.00  0.00    -0.046 A  
HETATM   37  C   UNL     1      -5.922   2.181  67.112  1.00  0.00    -0.020 A  
HETATM   38  C   UNL     1      -5.567   1.847  65.809  1.00  0.00    -0.013 A  
HETATM   39  C   UNL     1      -7.476   5.027  68.908  1.00  0.00    -0.069 A  
HETATM   40  C   UNL     1      -5.780   2.767  64.788  1.00  0.00    -0.014 A  
HETATM   41  C   UNL     1      -6.352   4.009  65.061  1.00  0.00    -0.028 A  
HETATM   42 CL   UNL     1      -5.343   2.360  63.174  1.00  0.00    -0.007 Cl 
ENDBRANCH  31  32
ENDBRANCH  29  30
ENDBRANCH  10  24
ENDBRANCH   9  10
ENDBRANCH   8   9
ENDBRANCH   5   8
ENDBRANCH   3   5
TORSDOF 10
ENDMDL
MODEL      217
REMARK 921   NORMALIZED FREE ENERGY PREDICTED BY IDOCK:    4.57 KCAL/MOL
REMARK 922        TOTAL FREE ENERGY PREDICTED BY IDOCK:    5.58 KCAL/MOL
REMARK 923 INTER-LIGAND FREE ENERGY PREDICTED BY IDOCK:    0.54 KCAL/MOL
REMARK 924 INTRA-LIGAND FREE ENERGY PREDICTED BY IDOCK:    5.04 KCAL/MOL
REMARK 927      BINDING AFFINITY PREDICTED BY RF-SCORE:    0.00 PKD
ROOT
HETATM    1  O   UNL     1     -11.475   9.809  67.624  1.00  0.00    -0.004 OA 
HETATM    2  C   UNL     1     -11.840  11.108  67.484  1.00  0.00     0.158 C  
HETATM    3  C   UNL     1     -10.973  11.857  66.492  1.00  0.00    -0.337 C  
HETATM    4  O   UNL     1     -12.805  11.570  68.072  1.00  0.00     1.190 OA 
ENDROOT
BRANCH   3   5
HETATM    5  C   UNL     1     -10.953  13.372  66.699  1.00  0.00    -0.297 C  
HETATM    6  C   UNL     1     -10.401  13.877  68.025  1.00  0.00    -0.245 C  
HETATM    7  C   UNL     1     -11.880  13.929  67.767  1.00  0.00    -0.415 C  
BRANCH   5   8
HETATM    8  C   UNL     1     -10.727  14.133  65.398  1.00  0.00    -0.342 C  
BRANCH   8   9
HETATM    9  S   UNL     1      -9.865  15.716  65.473  1.00  0.00    -0.225 SA 
BRANCH   9  10
HETATM   10  C   UNL     1      -9.223  15.673  67.216  1.00  0.00    -0.204 C  
BRANCH  10  11
HETATM   11  C   UNL     1      -9.392  17.000  67.994  1.00  0.00    -0.245 C  
BRANCH  11  12
HETATM   12  C   UNL     1      -8.781  17.010  69.413  1.00  0.00     0.285 C  
BRANCH  12  13
HETATM   13  C   UNL     1      -7.753  18.120  69.591  1.00  0.00     0.624 A  
HETATM   14  C   UNL     1      -6.782  17.884  70.597  1.00  0.00     1.754 A  
HETATM   15  C   UNL     1      -5.678  19.950  70.132  1.00  0.00    -0.320 A  
HETATM   16  H   UNL     1      -9.223  18.851  65.973  1.00  0.00     0.000 HD 
HETATM   17  C   UNL     1      -5.769  18.792  70.878  1.00  0.00    -0.056 A  
HETATM   18  C   UNL     1      -8.284  20.963  66.906  1.00  0.00    -0.028 C  
HETATM   19  C   UNL     1      -6.605  20.195  69.116  1.00  0.00    -0.311 A  
HETATM   20  C   UNL     1      -7.671  19.309  68.816  1.00  0.00    -0.397 A  
HETATM   21  O   UNL     1      -8.626  18.631  66.679  1.00  0.00    -0.279 OA 
HETATM   22  C   UNL     1     -10.089  19.837  68.153  1.00  0.00    -0.574 C  
HETATM   23  C   UNL     1      -8.640  19.666  67.670  1.00  0.00    -0.320 C  
ENDBRANCH  12  13
ENDBRANCH  11  12
ENDBRANCH  10  11
BRANCH  10  24
HETATM   24  C   UNL     1      -7.809  15.087  67.241  1.00  0.00    -0.241 A  
HETATM   25  C   UNL     1      -5.256  13.887  67.265  1.00  0.00     0.556 A  
HETATM   26  C   UNL     1      -6.689  15.762  66.733  1.00  0.00     0.344 A  
HETATM   27  C   UNL     1      -7.612  13.789  67.761  1.00  0.00    -0.173 A  
HETATM   28  C   UNL     1      -5.426  15.168  66.744  1.00  0.00     1.658 A  
HETATM   29  C   UNL     1      -6.342  13.186  67.796  1.00  0.00    -0.156 A  
BRANCH  29  30
HETATM   30  C   UNL     1      -6.218  11.814  68.312  1.00  0.00    -0.050 C  
HETATM   31  C   UNL     1      -7.240  11.075  68.782  1.00  0.00    -0.091 C  
BRANCH  31  32
HETATM   32  C   UNL     1      -7.131   9.717  69.324  1.00  0.00    -0.063 A  
HETATM   33  N   UNL     1      -6.927   8.754  68.392  1.00  0.00    -0.065 NA 
HETATM   34  C   UNL     1      -6.880   7.469  68.787  1.00  0.00    -0.065 A  
HETATM   35  C   UNL     1      -7.050   7.090  70.135  1.00  0.00    -0.067 A  
HETATM   36  C   UNL     1      -7.263   8.098  71.078  1.00  0.00    -0.057 A  
HETATM   37  C   UNL     1      -7.016   5.733  70.504  1.00  0.00    -0.058 A  
HETATM   38  C   UNL     1      -6.818   4.751  69.538  1.00  0.00    -0.049 A  
HETATM   39  C   UNL     1      -7.312   9.425  70.668  1.00  0.00    -0.140 A  
HETATM   40  C   UNL     1      -6.642   5.127  68.211  1.00  0.00    -0.049 A  
HETATM   41  C   UNL     1      -6.671   6.472  67.845  1.00  0.00    -0.068 A  
HETATM   42 CL   UNL     1      -6.397   3.917  67.012  1.00  0.00    -0.039 Cl 
ENDBRANCH  31  32
ENDBRANCH  29  30
ENDBRANCH  10  24
ENDBRANCH   9  10
ENDBRANCH   8   9
ENDBRANCH   5   8
ENDBRANCH   3   5
TORSDOF 10
ENDMDL
MODEL      218
REMARK 921   NORMALIZED FREE ENERGY PREDICTED BY IDOCK:    4.73 KCAL/MOL
REMARK 922        TOTAL FREE ENERGY PREDICTED BY IDOCK:    5.84 KCAL/MOL
REMARK 923 INTER-LIGAND FREE ENERGY PREDICTED BY IDOCK:    1.28 KCAL/MOL
REMARK 924 INTRA-LIGAND FREE ENERGY PREDICTED BY IDOCK:    4.56 KCAL/MOL
REMARK 927      BINDING AFFINITY PREDICTED BY RF-SCORE:    0.00 PKD
ROOT
HETATM    1  O   UNL     1     -11.981   8.694  67.006  1.00  0.00     3.341 OA 
HETATM    2  C   UNL     1     -10.825   9.092  66.415  1.00  0.00     0.470 C  
HETATM    3  C   UNL     1     -10.055  10.095  67.250  1.00  0.00    -0.254 C  
HETATM    4  O   UNL     1     -10.457   8.626  65.348  1.00  0.00     1.408 OA 
ENDROOT
BRANCH   3   5
HETATM    5  C   UNL     1      -9.096  10.973  66.445  1.00  0.00    -0.191 C  
HETATM    6  C   UNL     1      -8.295  10.287  65.346  1.00  0.00    -0.164 C  
HETATM    7  C   UNL     1      -7.611  10.701  66.618  1.00  0.00    -0.129 C  
BRANCH   5   8
HETATM    8  C   UNL     1      -9.607  12.400  66.289  1.00  0.00    -0.241 C  
BRANCH   8   9
HETATM    9  S   UNL     1      -8.465  13.757  66.620  1.00  0.00     0.320 SA 
BRANCH   9  10
HETATM   10  C   UNL     1      -8.090  13.457  68.415  1.00  0.00    -0.138 C  
BRANCH  10  11
HETATM   11  C   UNL     1      -7.742  14.733  69.219  1.00  0.00    -0.129 C  
BRANCH  11  12
HETATM   12  C   UNL     1      -8.915  15.716  69.428  1.00  0.00    -0.265 C  
BRANCH  12  13
HETATM   13  C   UNL     1      -8.645  17.079  68.802  1.00  0.00    -0.238 A  
HETATM   14  C   UNL     1      -7.608  17.828  69.415  1.00  0.00     0.193 A  
HETATM   15  C   UNL     1      -7.859  19.613  67.849  1.00  0.00    -0.333 A  
HETATM   16  H   UNL     1     -10.623  15.167  65.936  1.00  0.00     0.000 HD 
HETATM   17  C   UNL     1      -7.231  19.084  68.959  1.00  0.00    -0.351 A  
HETATM   18  C   UNL     1     -10.899  17.622  65.609  1.00  0.00     0.035 C  
HETATM   19  C   UNL     1      -8.864  18.885  67.208  1.00  0.00    -0.297 A  
HETATM   20  C   UNL     1      -9.300  17.613  67.658  1.00  0.00    -0.246 A  
HETATM   21  O   UNL     1      -9.937  15.615  66.416  1.00  0.00    -0.253 OA 
HETATM   22  C   UNL     1     -11.666  16.635  67.734  1.00  0.00     0.559 C  
HETATM   23  C   UNL     1     -10.415  16.885  66.879  1.00  0.00    -0.271 C  
ENDBRANCH  12  13
ENDBRANCH  11  12
ENDBRANCH  10  11
BRANCH  10  24
HETATM   24  C   UNL     1      -7.085  12.311  68.558  1.00  0.00    -0.099 A  
HETATM   25  C   UNL     1      -5.333  10.121  68.860  1.00  0.00    -0.035 A  
HETATM   26  C   UNL     1      -5.992  12.137  67.696  1.00  0.00    -0.106 A  
HETATM   27  C   UNL     1      -7.276  11.352  69.576  1.00  0.00     0.022 A  
HETATM   28  C   UNL     1      -5.126  11.052  67.845  1.00  0.00    -0.039 A  
HETATM   29  C   UNL     1      -6.400  10.266  69.750  1.00  0.00    -0.071 A  
BRANCH  29  30
HETATM   30  C   UNL     1      -6.685   9.282  70.806  1.00  0.00    -0.094 C  
HETATM   31  C   UNL     1      -6.416   7.966  70.721  1.00  0.00    -0.037 C  
BRANCH  31  32
HETATM   32  C   UNL     1      -6.717   6.967  71.752  1.00  0.00    -0.053 A  
HETATM   33  N   UNL     1      -7.524   5.960  71.341  1.00  0.00    -0.094 NA 
HETATM   34  C   UNL     1      -7.910   5.031  72.235  1.00  0.00    -0.100 A  
HETATM   35  C   UNL     1      -7.515   5.081  73.587  1.00  0.00    -0.091 A  
HETATM   36  C   UNL     1      -6.687   6.130  73.992  1.00  0.00    -0.079 A  
HETATM   37  C   UNL     1      -7.958   4.103  74.496  1.00  0.00    -0.087 A  
HETATM   38  C   UNL     1      -8.797   3.079  74.066  1.00  0.00    -0.076 A  
HETATM   39  C   UNL     1      -6.289   7.089  73.067  1.00  0.00    -0.057 A  
HETATM   40  C   UNL     1      -9.179   3.026  72.730  1.00  0.00    -0.088 A  
HETATM   41  C   UNL     1      -8.736   3.994  71.828  1.00  0.00    -0.132 A  
HETATM   42 CL   UNL     1     -10.216   1.763  72.193  1.00  0.00    -0.227 Cl 
ENDBRANCH  31  32
ENDBRANCH  29  30
ENDBRANCH  10  24
ENDBRANCH   9  10
ENDBRANCH   8   9
ENDBRANCH   5   8
ENDBRANCH   3   5
TORSDOF 10
ENDMDL
MODEL      219
REMARK 921   NORMALIZED FREE ENERGY PREDICTED BY IDOCK:    5.40 KCAL/MOL
REMARK 922        TOTAL FREE ENERGY PREDICTED BY IDOCK:    6.91 KCAL/MOL
REMARK 923 INTER-LIGAND FREE ENERGY PREDICTED BY IDOCK:   -0.27 KCAL/MOL
REMARK 924 INTRA-LIGAND FREE ENERGY PREDICTED BY IDOCK:    7.18 KCAL/MOL
REMARK 927      BINDING AFFINITY PREDICTED BY RF-SCORE:    0.00 PKD
ROOT
HETATM    1  O   UNL     1     -12.959  11.949  63.601  1.00  0.00    -0.692 OA 
HETATM    2  C   UNL     1     -11.610  12.097  63.647  1.00  0.00    -0.486 C  
HETATM    3  C   UNL     1     -10.986  11.417  64.848  1.00  0.00    -0.284 C  
HETATM    4  O   UNL     1     -11.000  12.679  62.765  1.00  0.00     0.414 OA 
ENDROOT
BRANCH   3   5
HETATM    5  C   UNL     1      -9.630  11.992  65.257  1.00  0.00    -0.117 C  
HETATM    6  C   UNL     1      -8.402  11.417  64.564  1.00  0.00     0.709 C  
HETATM    7  C   UNL     1      -8.685  11.058  65.995  1.00  0.00    -0.192 C  
BRANCH   5   8
HETATM    8  C   UNL     1      -9.715  13.465  65.640  1.00  0.00    -0.082 C  
BRANCH   8   9
HETATM    9  S   UNL     1      -8.390  14.164  66.646  1.00  0.00     0.415 SA 
BRANCH   9  10
HETATM   10  C   UNL     1      -9.194  14.161  68.320  1.00  0.00    -0.198 C  
BRANCH  10  11
HETATM   11  C   UNL     1      -8.228  14.438  69.496  1.00  0.00     0.309 C  
BRANCH  11  12
HETATM   12  C   UNL     1      -7.333  15.686  69.329  1.00  0.00    -0.207 C  
BRANCH  12  13
HETATM   13  C   UNL     1      -8.147  16.956  69.117  1.00  0.00    -0.082 A  
HETATM   14  C   UNL     1      -7.475  17.992  68.417  1.00  0.00    -0.281 A  
HETATM   15  C   UNL     1      -9.392  19.412  68.510  1.00  0.00    -0.446 A  
HETATM   16  H   UNL     1     -10.937  14.243  69.914  1.00  0.00     0.000 HD 
HETATM   17  C   UNL     1      -8.080  19.209  68.133  1.00  0.00    -0.351 A  
HETATM   18  C   UNL     1     -11.825  16.504  70.473  1.00  0.00     0.360 C  
HETATM   19  C   UNL     1     -10.087  18.399  69.176  1.00  0.00    -0.174 A  
HETATM   20  C   UNL     1      -9.499  17.153  69.511  1.00  0.00     0.309 A  
HETATM   21  O   UNL     1     -10.412  14.894  69.463  1.00  0.00    -0.237 OA 
HETATM   22  C   UNL     1      -9.785  15.733  71.624  1.00  0.00     3.509 C  
HETATM   23  C   UNL     1     -10.351  16.096  70.243  1.00  0.00     0.085 C  
ENDBRANCH  12  13
ENDBRANCH  11  12
ENDBRANCH  10  11
BRANCH  10  24
HETATM   24  C   UNL     1     -10.065  12.911  68.482  1.00  0.00    -0.193 A  
HETATM   25  C   UNL     1     -11.589  10.571  68.881  1.00  0.00    -0.266 A  
HETATM   26  C   UNL     1     -11.456  12.917  68.300  1.00  0.00    -0.348 A  
HETATM   27  C   UNL     1      -9.460  11.698  68.873  1.00  0.00     0.014 A  
HETATM   28  C   UNL     1     -12.210  11.758  68.498  1.00  0.00     0.086 A  
HETATM   29  C   UNL     1     -10.204  10.520  69.058  1.00  0.00    -0.233 A  
BRANCH  29  30
HETATM   30  C   UNL     1      -9.513   9.301  69.509  1.00  0.00    -0.178 C  
HETATM   31  C   UNL     1     -10.124   8.215  70.015  1.00  0.00    -0.196 C  
BRANCH  31  32
HETATM   32  C   UNL     1      -9.448   7.003  70.492  1.00  0.00    -0.166 A  
HETATM   33  N   UNL     1     -10.282   6.035  70.942  1.00  0.00    -0.199 NA 
HETATM   34  C   UNL     1      -9.753   4.912  71.462  1.00  0.00    -0.172 A  
HETATM   35  C   UNL     1      -8.360   4.718  71.568  1.00  0.00    -0.109 A  
HETATM   36  C   UNL     1      -7.519   5.730  71.103  1.00  0.00    -0.091 A  
HETATM   37  C   UNL     1      -7.846   3.539  72.138  1.00  0.00    -0.059 A  
HETATM   38  C   UNL     1      -8.711   2.556  72.608  1.00  0.00    -0.084 A  
HETATM   39  C   UNL     1      -8.067   6.889  70.566  1.00  0.00    -0.115 A  
HETATM   40  C   UNL     1     -10.084   2.745  72.495  1.00  0.00    -0.165 A  
HETATM   41  C   UNL     1     -10.594   3.912  71.926  1.00  0.00     0.169 A  
HETATM   42 CL   UNL     1     -11.159   1.533  73.075  1.00  0.00    -0.246 Cl 
ENDBRANCH  31  32
ENDBRANCH  29  30
ENDBRANCH  10  24
ENDBRANCH   9  10
ENDBRANCH   8   9
ENDBRANCH   5   8
ENDBRANCH   3   5
TORSDOF 10
ENDMDL
MODEL      220
REMARK 921   NORMALIZED FREE ENERGY PREDICTED BY IDOCK:    5.99 KCAL/MOL
REMARK 922        TOTAL FREE ENERGY PREDICTED BY IDOCK:    7.83 KCAL/MOL
REMARK 923 INTER-LIGAND FREE ENERGY PREDICTED BY IDOCK:    6.95 KCAL/MOL
REMARK 924 INTRA-LIGAND FREE ENERGY PREDICTED BY IDOCK:    0.88 KCAL/MOL
REMARK 927      BINDING AFFINITY PREDICTED BY RF-SCORE:    0.00 PKD
ROOT
HETATM    1  O   UNL     1     -13.954  17.411  68.126  1.00  0.00     6.245 OA 
HETATM    2  C   UNL     1     -12.763  16.876  68.497  1.00  0.00     3.443 C  
HETATM    3  C   UNL     1     -11.665  17.913  68.614  1.00  0.00     2.315 C  
HETATM    4  O   UNL     1     -12.646  15.688  68.751  1.00  0.00     0.200 OA 
ENDROOT
BRANCH   3   5
HETATM    5  C   UNL     1     -10.252  17.347  68.470  1.00  0.00    -0.369 C  
HETATM    6  C   UNL     1      -9.100  18.274  68.835  1.00  0.00    -0.165 C  
HETATM    7  C   UNL     1      -9.376  17.963  67.391  1.00  0.00    -0.257 C  
BRANCH   5   8
HETATM    8  C   UNL     1     -10.193  15.851  68.753  1.00  0.00    -0.220 C  
BRANCH   8   9
HETATM    9  S   UNL     1      -9.010  14.853  67.827  1.00  0.00    -0.182 SA 
BRANCH   9  10
HETATM   10  C   UNL     1      -7.722  14.554  69.132  1.00  0.00    -0.082 C  
BRANCH  10  11
HETATM   11  C   UNL     1      -6.927  15.815  69.549  1.00  0.00    -0.191 C  
BRANCH  11  12
HETATM   12  C   UNL     1      -5.893  16.310  68.514  1.00  0.00    -0.109 C  
BRANCH  12  13
HETATM   13  C   UNL     1      -5.704  17.820  68.564  1.00  0.00    -0.168 A  
HETATM   14  C   UNL     1      -5.365  18.343  69.838  1.00  0.00    -0.216 A  
HETATM   15  C   UNL     1      -5.227  20.568  68.981  1.00  0.00    -0.303 A  
HETATM   16  H   UNL     1      -5.353  17.013  64.690  1.00  0.00     0.000 HD 
HETATM   17  C   UNL     1      -5.147  19.698  70.051  1.00  0.00    -0.203 A  
HETATM   18  C   UNL     1      -6.046  19.391  64.960  1.00  0.00    -0.305 C  
HETATM   19  C   UNL     1      -5.532  20.077  67.709  1.00  0.00    -0.208 A  
HETATM   20  C   UNL     1      -5.790  18.706  67.454  1.00  0.00    -0.159 A  
HETATM   21  O   UNL     1      -5.154  17.287  65.577  1.00  0.00    -0.204 OA 
HETATM   22  C   UNL     1      -7.510  17.637  65.886  1.00  0.00    -0.185 C  
HETATM   23  C   UNL     1      -6.112  18.261  66.013  1.00  0.00    -0.212 C  
ENDBRANCH  12  13
ENDBRANCH  11  12
ENDBRANCH  10  11
BRANCH  10  24
HETATM   24  C   UNL     1      -6.861  13.345  68.754  1.00  0.00    -0.101 A  
HETATM   25  C   UNL     1      -5.379  11.041  68.079  1.00  0.00    -0.042 A  
HETATM   26  C   UNL     1      -5.878  13.387  67.753  1.00  0.00    -0.128 A  
HETATM   27  C   UNL     1      -7.081  12.113  69.405  1.00  0.00     0.112 A  
HETATM   28  C   UNL     1      -5.146  12.246  67.419  1.00  0.00    -0.095 A  
HETATM   29  C   UNL     1      -6.338  10.961  69.092  1.00  0.00    -0.058 A  
BRANCH  29  30
HETATM   30  C   UNL     1      -6.653   9.700  69.782  1.00  0.00    -0.055 C  
HETATM   31  C   UNL     1      -6.299   8.477  69.345  1.00  0.00    -0.037 C  
BRANCH  31  32
HETATM   32  C   UNL     1      -6.626   7.209  70.005  1.00  0.00    -0.050 A  
HETATM   33  N   UNL     1      -7.904   7.118  70.446  1.00  0.00    -0.099 NA 
HETATM   34  C   UNL     1      -8.279   6.018  71.124  1.00  0.00    -0.123 A  
HETATM   35  C   UNL     1      -7.384   4.965  71.403  1.00  0.00    -0.073 A  
HETATM   36  C   UNL     1      -6.070   5.082  70.944  1.00  0.00    -0.018 A  
HETATM   37  C   UNL     1      -7.809   3.842  72.134  1.00  0.00    -0.068 A  
HETATM   38  C   UNL     1      -9.121   3.763  72.593  1.00  0.00    -0.130 A  
HETATM   39  C   UNL     1      -5.684   6.219  70.244  1.00  0.00    -0.018 A  
HETATM   40  C   UNL     1     -10.005   4.798  72.309  1.00  0.00    -0.178 A  
HETATM   41  C   UNL     1      -9.584   5.910  71.581  1.00  0.00    -0.173 A  
HETATM   42 CL   UNL     1     -11.628   4.706  72.874  1.00  0.00    -0.183 Cl 
ENDBRANCH  31  32
ENDBRANCH  29  30
ENDBRANCH  10  24
ENDBRANCH   9  10
ENDBRANCH   8   9
ENDBRANCH   5   8
ENDBRANCH   3   5
TORSDOF 10
ENDMDL
MODEL      221
REMARK 921   NORMALIZED FREE ENERGY PREDICTED BY IDOCK:    6.78 KCAL/MOL
REMARK 922        TOTAL FREE ENERGY PREDICTED BY IDOCK:    9.08 KCAL/MOL
REMARK 923 INTER-LIGAND FREE ENERGY PREDICTED BY IDOCK:   -6.97 KCAL/MOL
REMARK 924 INTRA-LIGAND FREE ENERGY PREDICTED BY IDOCK:   16.05 KCAL/MOL
REMARK 927      BINDING AFFINITY PREDICTED BY RF-SCORE:    0.00 PKD
ROOT
HETATM    1  O   UNL     1     -13.672   8.914  72.452  1.00  0.00    -0.438 OA 
HETATM    2  C   UNL     1     -12.375   8.698  72.117  1.00  0.00    -0.386 C  
HETATM    3  C   UNL     1     -12.145   7.326  71.514  1.00  0.00    -0.365 C  
HETATM    4  O   UNL     1     -11.525   9.563  72.254  1.00  0.00     0.003 OA 
ENDROOT
BRANCH   3   5
HETATM    5  C   UNL     1     -10.708   6.821  71.640  1.00  0.00    -0.252 C  
HETATM    6  C   UNL     1     -10.324   6.162  72.958  1.00  0.00    -0.223 C  
HETATM    7  C   UNL     1      -9.815   7.540  72.639  1.00  0.00    -0.242 C  
BRANCH   5   8
HETATM    8  C   UNL     1     -10.144   6.336  70.310  1.00  0.00    -0.184 C  
BRANCH   8   9
HETATM    9  S   UNL     1      -8.395   5.900  70.232  1.00  0.00    -0.124 SA 
BRANCH   9  10
HETATM   10  C   UNL     1      -7.755   7.251  69.129  1.00  0.00    -0.108 C  
BRANCH  10  11
HETATM   11  C   UNL     1      -6.649   8.128  69.765  1.00  0.00    -0.037 C  
BRANCH  11  12
HETATM   12  C   UNL     1      -5.927   9.081  68.788  1.00  0.00    -0.044 C  
BRANCH  12  13
HETATM   13  C   UNL     1      -6.626   9.163  67.438  1.00  0.00    -0.065 A  
HETATM   14  C   UNL     1      -6.941  10.476  67.002  1.00  0.00    -0.089 A  
HETATM   15  C   UNL     1      -7.867   9.664  64.956  1.00  0.00    -0.118 A  
HETATM   16  H   UNL     1      -4.998   5.540  67.370  1.00  0.00     0.000 HD 
HETATM   17  C   UNL     1      -7.569  10.725  65.789  1.00  0.00    -0.079 A  
HETATM   18  C   UNL     1      -6.935   5.585  65.803  1.00  0.00    -0.066 C  
HETATM   19  C   UNL     1      -7.543   8.363  65.347  1.00  0.00    -0.092 A  
HETATM   20  C   UNL     1      -6.928   8.062  66.590  1.00  0.00    -0.072 A  
HETATM   21  O   UNL     1      -5.197   6.445  67.162  1.00  0.00    -0.007 OA 
HETATM   22  C   UNL     1      -7.345   6.097  68.179  1.00  0.00    -0.085 C  
HETATM   23  C   UNL     1      -6.604   6.593  66.928  1.00  0.00    -0.048 C  
ENDBRANCH  12  13
ENDBRANCH  11  12
ENDBRANCH  10  11
BRANCH  10  24
HETATM   24  C   UNL     1      -8.924   8.030  68.520  1.00  0.00    -0.133 A  
HETATM   25  C   UNL     1     -10.992   9.558  67.357  1.00  0.00    -0.103 A  
HETATM   26  C   UNL     1     -10.032   7.409  67.924  1.00  0.00    -0.201 A  
HETATM   27  C   UNL     1      -8.882   9.441  68.515  1.00  0.00    -0.128 A  
HETATM   28  C   UNL     1     -11.054   8.165  67.347  1.00  0.00     0.312 A  
HETATM   29  C   UNL     1      -9.914  10.215  67.955  1.00  0.00    -0.173 A  
BRANCH  29  30
HETATM   30  C   UNL     1      -9.782  11.681  67.947  1.00  0.00    -0.181 C  
HETATM   31  C   UNL     1     -10.808  12.542  67.822  1.00  0.00    -0.254 C  
BRANCH  31  32
HETATM   32  C   UNL     1     -10.692  14.004  67.785  1.00  0.00    -0.243 A  
HETATM   33  N   UNL     1      -9.659  14.468  67.041  1.00  0.00    -0.237 NA 
HETATM   34  C   UNL     1      -9.432  15.794  67.001  1.00  0.00    -0.223 A  
HETATM   35  C   UNL     1     -10.223  16.713  67.719  1.00  0.00    -0.292 A  
HETATM   36  C   UNL     1     -11.279  16.214  68.484  1.00  0.00    -0.365 A  
HETATM   37  C   UNL     1      -9.940  18.090  67.669  1.00  0.00    -0.332 A  
HETATM   38  C   UNL     1      -8.869  18.556  66.911  1.00  0.00    -0.283 A  
HETATM   39  C   UNL     1     -11.512  14.844  68.525  1.00  0.00    -0.336 A  
HETATM   40  C   UNL     1      -8.095  17.648  66.196  1.00  0.00    -0.193 A  
HETATM   41  C   UNL     1      -8.379  16.283  66.242  1.00  0.00    -0.343 A  
HETATM   42 CL   UNL     1      -6.770  18.217  65.257  1.00  0.00    -0.142 Cl 
ENDBRANCH  31  32
ENDBRANCH  29  30
ENDBRANCH  10  24
ENDBRANCH   9  10
ENDBRANCH   8   9
ENDBRANCH   5   8
ENDBRANCH   3   5
TORSDOF 10
ENDMDL
MODEL      222
REMARK 921   NORMALIZED FREE ENERGY PREDICTED BY IDOCK:    6.81 KCAL/MOL
REMARK 922        TOTAL FREE ENERGY PREDICTED BY IDOCK:    9.14 KCAL/MOL
REMARK 923 INTER-LIGAND FREE ENERGY PREDICTED BY IDOCK:    6.55 KCAL/MOL
REMARK 924 INTRA-LIGAND FREE ENERGY PREDICTED BY IDOCK:    2.59 KCAL/MOL
REMARK 927      BINDING AFFINITY PREDICTED BY RF-SCORE:    0.00 PKD
ROOT
HETATM    1  O   UNL     1     -12.196   4.366  70.726  1.00  0.00     6.199 OA 
HETATM    2  C   UNL     1     -11.647   5.607  70.768  1.00  0.00     0.457 C  
HETATM    3  C   UNL     1     -12.575   6.678  70.231  1.00  0.00     0.512 C  
HETATM    4  O   UNL     1     -10.541   5.802  71.245  1.00  0.00    -0.237 OA 
ENDROOT
BRANCH   3   5
HETATM    5  C   UNL     1     -11.860   7.935  69.737  1.00  0.00     0.622 C  
HETATM    6  C   UNL     1     -11.506   8.981  70.785  1.00  0.00    -0.331 C  
HETATM    7  C   UNL     1     -12.632   9.241  69.825  1.00  0.00     1.368 C  
BRANCH   5   8
HETATM    8  C   UNL     1     -10.947   7.656  68.549  1.00  0.00     0.158 C  
BRANCH   8   9
HETATM    9  S   UNL     1     -10.895   8.864  67.210  1.00  0.00     0.144 SA 
BRANCH   9  10
HETATM   10  C   UNL     1      -9.599  10.029  67.852  1.00  0.00    -0.145 C  
BRANCH  10  11
HETATM   11  C   UNL     1      -8.562   9.377  68.798  1.00  0.00    -0.127 C  
BRANCH  11  12
HETATM   12  C   UNL     1      -7.876   8.109  68.243  1.00  0.00    -0.122 C  
BRANCH  12  13
HETATM   13  C   UNL     1      -7.591   7.083  69.331  1.00  0.00    -0.099 A  
HETATM   14  C   UNL     1      -7.836   5.734  68.966  1.00  0.00    -0.094 A  
HETATM   15  C   UNL     1      -7.108   4.938  71.096  1.00  0.00    -0.052 A  
HETATM   16  H   UNL     1      -5.557  10.265  70.564  1.00  0.00     0.000 HD 
HETATM   17  C   UNL     1      -7.616   4.677  69.839  1.00  0.00    -0.054 A  
HETATM   18  C   UNL     1      -6.070   8.823  72.530  1.00  0.00    -0.065 C  
HETATM   19  C   UNL     1      -6.831   6.254  71.473  1.00  0.00    -0.071 A  
HETATM   20  C   UNL     1      -7.068   7.365  70.623  1.00  0.00    -0.060 A  
HETATM   21  O   UNL     1      -5.769   9.393  70.252  1.00  0.00    -0.033 OA 
HETATM   22  C   UNL     1      -7.954   9.698  71.202  1.00  0.00     0.442 C  
HETATM   23  C   UNL     1      -6.723   8.781  71.129  1.00  0.00    -0.075 C  
ENDBRANCH  12  13
ENDBRANCH  11  12
ENDBRANCH  10  11
BRANCH  10  24
HETATM   24  C   UNL     1     -10.258  11.300  68.397  1.00  0.00    -0.205 A  
HETATM   25  C   UNL     1     -11.449  13.699  69.283  1.00  0.00    -0.344 A  
HETATM   26  C   UNL     1     -11.345  11.281  69.283  1.00  0.00    -0.354 A  
HETATM   27  C   UNL     1      -9.785  12.558  67.965  1.00  0.00    -0.215 A  
HETATM   28  C   UNL     1     -11.935  12.468  69.721  1.00  0.00    -0.359 A  
HETATM   29  C   UNL     1     -10.358  13.762  68.413  1.00  0.00    -0.247 A  
BRANCH  29  30
HETATM   30  C   UNL     1      -9.842  15.036  67.887  1.00  0.00    -0.217 C  
HETATM   31  C   UNL     1     -10.586  15.965  67.260  1.00  0.00    -0.314 C  
BRANCH  31  32
HETATM   32  C   UNL     1     -10.084  17.227  66.707  1.00  0.00    -0.302 A  
HETATM   33  N   UNL     1      -8.922  17.658  67.254  1.00  0.00    -0.237 NA 
HETATM   34  C   UNL     1      -8.418  18.841  66.858  1.00  0.00    -0.279 A  
HETATM   35  C   UNL     1      -9.066  19.653  65.905  1.00  0.00    -0.140 A  
HETATM   36  C   UNL     1     -10.265  19.192  65.356  1.00  0.00     0.426 A  
HETATM   37  C   UNL     1      -8.518  20.894  65.533  1.00  0.00     1.249 A  
HETATM   38  C   UNL     1      -7.330  21.333  66.110  1.00  0.00     0.623 A  
HETATM   39  C   UNL     1     -10.785  17.970  65.767  1.00  0.00    -0.091 A  
HETATM   40  C   UNL     1      -6.687  20.527  67.044  1.00  0.00    -0.266 A  
HETATM   41  C   UNL     1      -7.229  19.295  67.409  1.00  0.00    -0.234 A  
HETATM   42 CL   UNL     1      -5.218  21.065  67.760  1.00  0.00    -0.284 Cl 
ENDBRANCH  31  32
ENDBRANCH  29  30
ENDBRANCH  10  24
ENDBRANCH   9  10
ENDBRANCH   8   9
ENDBRANCH   5   8
ENDBRANCH   3   5
TORSDOF 10
ENDMDL
MODEL      223
REMARK 921   NORMALIZED FREE ENERGY PREDICTED BY IDOCK:    7.27 KCAL/MOL
REMARK 922        TOTAL FREE ENERGY PREDICTED BY IDOCK:    9.86 KCAL/MOL
REMARK 923 INTER-LIGAND FREE ENERGY PREDICTED BY IDOCK:    7.60 KCAL/MOL
REMARK 924 INTRA-LIGAND FREE ENERGY PREDICTED BY IDOCK:    2.26 KCAL/MOL
REMARK 927      BINDING AFFINITY PREDICTED BY RF-SCORE:    0.00 PKD
ROOT
HETATM    1  O   UNL     1      -5.502  12.900  73.297  1.00  0.00    -0.222 OA 
HETATM    2  C   UNL     1      -6.341  13.803  72.729  1.00  0.00     1.792 C  
HETATM    3  C   UNL     1      -5.911  14.205  71.333  1.00  0.00    -0.119 C  
HETATM    4  O   UNL     1      -7.352  14.184  73.297  1.00  0.00     2.923 OA 
ENDROOT
BRANCH   3   5
HETATM    5  C   UNL     1      -6.445  15.565  70.882  1.00  0.00     0.651 C  
HETATM    6  C   UNL     1      -5.489  16.745  70.980  1.00  0.00     0.055 C  
HETATM    7  C   UNL     1      -6.621  16.622  71.959  1.00  0.00     4.694 C  
BRANCH   5   8
HETATM    8  C   UNL     1      -7.453  15.446  69.745  1.00  0.00    -0.108 C  
BRANCH   8   9
HETATM    9  S   UNL     1      -9.142  14.957  70.148  1.00  0.00     0.970 SA 
BRANCH   9  10
HETATM   10  C   UNL     1      -9.507  13.799  68.742  1.00  0.00    -0.012 C  
BRANCH  10  11
HETATM   11  C   UNL     1     -10.131  14.477  67.499  1.00  0.00    -0.228 C  
BRANCH  11  12
HETATM   12  C   UNL     1      -9.137  14.807  66.364  1.00  0.00    -0.267 C  
BRANCH  12  13
HETATM   13  C   UNL     1      -7.768  15.214  66.894  1.00  0.00    -0.051 A  
HETATM   14  C   UNL     1      -6.874  14.140  67.138  1.00  0.00     0.424 A  
HETATM   15  C   UNL     1      -5.139  15.631  67.822  1.00  0.00    -0.116 A  
HETATM   16  H   UNL     1      -9.143  18.591  65.317  1.00  0.00     0.000 HD 
HETATM   17  C   UNL     1      -5.585  14.341  67.613  1.00  0.00     0.041 A  
HETATM   18  C   UNL     1      -7.440  19.143  67.050  1.00  0.00    -0.228 C  
HETATM   19  C   UNL     1      -5.989  16.709  67.564  1.00  0.00    -0.178 A  
HETATM   20  C   UNL     1      -7.322  16.547  67.107  1.00  0.00    -0.220 A  
HETATM   21  O   UNL     1      -8.614  17.819  65.478  1.00  0.00    -0.167 OA 
HETATM   22  C   UNL     1      -9.430  17.859  67.736  1.00  0.00    -0.263 C  
HETATM   23  C   UNL     1      -8.180  17.801  66.845  1.00  0.00    -0.232 C  
ENDBRANCH  12  13
ENDBRANCH  11  12
ENDBRANCH  10  11
BRANCH  10  24
HETATM   24  C   UNL     1     -10.264  12.571  69.255  1.00  0.00     0.373 A  
HETATM   25  C   UNL     1     -11.553  10.235  70.171  1.00  0.00    -0.376 A  
HETATM   26  C   UNL     1     -11.151  12.615  70.341  1.00  0.00     1.126 A  
HETATM   27  C   UNL     1     -10.040  11.319  68.641  1.00  0.00    -0.216 A  
HETATM   28  C   UNL     1     -11.788  11.458  70.795  1.00  0.00    -0.232 A  
HETATM   29  C   UNL     1     -10.690  10.150  69.076  1.00  0.00    -0.249 A  
BRANCH  29  30
HETATM   30  C   UNL     1     -10.375   8.873  68.417  1.00  0.00    -0.237 C  
HETATM   31  C   UNL     1     -10.107   7.723  69.062  1.00  0.00    -0.198 C  
BRANCH  31  32
HETATM   32  C   UNL     1      -9.766   6.447  68.422  1.00  0.00    -0.131 A  
HETATM   33  N   UNL     1      -9.330   6.558  67.144  1.00  0.00    -0.123 NA 
HETATM   34  C   UNL     1      -9.056   5.437  66.452  1.00  0.00    -0.141 A  
HETATM   35  C   UNL     1      -9.222   4.152  67.009  1.00  0.00    -0.173 A  
HETATM   36  C   UNL     1      -9.677   4.060  68.326  1.00  0.00    -0.133 A  
HETATM   37  C   UNL     1      -8.947   3.003  66.245  1.00  0.00    -0.154 A  
HETATM   38  C   UNL     1      -8.511   3.127  64.929  1.00  0.00    -0.096 A  
HETATM   39  C   UNL     1      -9.959   5.220  69.039  1.00  0.00    -0.260 A  
HETATM   40  C   UNL     1      -8.340   4.395  64.385  1.00  0.00    -0.109 A  
HETATM   41  C   UNL     1      -8.609   5.534  65.143  1.00  0.00    -0.141 A  
HETATM   42 CL   UNL     1      -7.802   4.555  62.758  1.00  0.00    -0.065 Cl 
ENDBRANCH  31  32
ENDBRANCH  29  30
ENDBRANCH  10  24
ENDBRANCH   9  10
ENDBRANCH   8   9
ENDBRANCH   5   8
ENDBRANCH   3   5
TORSDOF 10
ENDMDL
MODEL      224
REMARK 921   NORMALIZED FREE ENERGY PREDICTED BY IDOCK:    9.12 KCAL/MOL
REMARK 922        TOTAL FREE ENERGY PREDICTED BY IDOCK:   12.79 KCAL/MOL
REMARK 923 INTER-LIGAND FREE ENERGY PREDICTED BY IDOCK:   11.68 KCAL/MOL
REMARK 924 INTRA-LIGAND FREE ENERGY PREDICTED BY IDOCK:    1.11 KCAL/MOL
REMARK 927      BINDING AFFINITY PREDICTED BY RF-SCORE:    0.00 PKD
ROOT
HETATM    1  O   UNL     1     -14.057  18.044  67.951  1.00  0.00     7.164 OA 
HETATM    2  C   UNL     1     -12.962  17.416  68.448  1.00  0.00     5.982 C  
HETATM    3  C   UNL     1     -11.769  18.340  68.590  1.00  0.00     2.841 C  
HETATM    4  O   UNL     1     -12.992  16.242  68.782  1.00  0.00     1.195 OA 
ENDROOT
BRANCH   3   5
HETATM    5  C   UNL     1     -10.419  17.623  68.595  1.00  0.00    -0.317 C  
HETATM    6  C   UNL     1      -9.227  18.407  69.128  1.00  0.00     0.010 C  
HETATM    7  C   UNL     1      -9.356  18.161  67.651  1.00  0.00    -0.260 C  
BRANCH   5   8
HETATM    8  C   UNL     1     -10.558  16.124  68.828  1.00  0.00    -0.279 C  
BRANCH   8   9
HETATM    9  S   UNL     1      -9.510  15.010  67.870  1.00  0.00    -0.197 SA 
BRANCH   9  10
HETATM   10  C   UNL     1      -8.110  14.750  69.062  1.00  0.00    -0.145 C  
BRANCH  10  11
HETATM   11  C   UNL     1      -7.386  16.048  69.494  1.00  0.00    -0.146 C  
BRANCH  11  12
HETATM   12  C   UNL     1      -6.055  16.330  68.764  1.00  0.00    -0.116 C  
BRANCH  12  13
HETATM   13  C   UNL     1      -5.784  17.822  68.613  1.00  0.00    -0.173 A  
HETATM   14  C   UNL     1      -5.476  18.503  69.818  1.00  0.00    -0.212 A  
HETATM   15  C   UNL     1      -5.174  20.574  68.669  1.00  0.00    -0.286 A  
HETATM   16  H   UNL     1      -5.298  16.456  64.914  1.00  0.00     0.000 HD 
HETATM   17  C   UNL     1      -5.193  19.862  69.852  1.00  0.00    -0.229 A  
HETATM   18  C   UNL     1      -5.868  18.880  64.812  1.00  0.00    -0.309 C  
HETATM   19  C   UNL     1      -5.446  19.923  67.463  1.00  0.00    -0.180 A  
HETATM   20  C   UNL     1      -5.768  18.544  67.387  1.00  0.00    -0.153 A  
HETATM   21  O   UNL     1      -5.126  16.843  65.764  1.00  0.00    -0.111 OA 
HETATM   22  C   UNL     1      -7.470  17.348  65.892  1.00  0.00    -0.121 C  
HETATM   23  C   UNL     1      -6.047  17.915  66.007  1.00  0.00    -0.230 C  
ENDBRANCH  12  13
ENDBRANCH  11  12
ENDBRANCH  10  11
BRANCH  10  24
HETATM   24  C   UNL     1      -7.188  13.637  68.556  1.00  0.00    -0.109 A  
HETATM   25  C   UNL     1      -5.598  11.518  67.584  1.00  0.00    -0.054 A  
HETATM   26  C   UNL     1      -5.938  13.883  67.969  1.00  0.00    -0.140 A  
HETATM   27  C   UNL     1      -7.620  12.295  68.639  1.00  0.00    -0.089 A  
HETATM   28  C   UNL     1      -5.152  12.834  67.488  1.00  0.00    -0.060 A  
HETATM   29  C   UNL     1      -6.831  11.228  68.176  1.00  0.00    -0.067 A  
BRANCH  29  30
HETATM   30  C   UNL     1      -7.364   9.859  68.255  1.00  0.00    -0.079 C  
HETATM   31  C   UNL     1      -8.401   9.483  69.026  1.00  0.00    -0.126 C  
BRANCH  31  32
HETATM   32  C   UNL     1      -8.928   8.119  69.137  1.00  0.00    -0.144 A  
HETATM   33  N   UNL     1      -8.004   7.143  68.966  1.00  0.00    -0.118 NA 
HETATM   34  C   UNL     1      -8.405   5.859  68.985  1.00  0.00    -0.106 A  
HETATM   35  C   UNL     1      -9.756   5.496  69.161  1.00  0.00    -0.208 A  
HETATM   36  C   UNL     1     -10.693   6.518  69.331  1.00  0.00    -0.328 A  
HETATM   37  C   UNL     1     -10.139   4.143  69.152  1.00  0.00     0.172 A  
HETATM   38  C   UNL     1      -9.184   3.148  68.963  1.00  0.00    -0.225 A  
HETATM   39  C   UNL     1     -10.277   7.844  69.311  1.00  0.00    -0.216 A  
HETATM   40  C   UNL     1      -7.850   3.507  68.798  1.00  0.00    -0.055 A  
HETATM   41  C   UNL     1      -7.470   4.849  68.811  1.00  0.00    -0.065 A  
HETATM   42 CL   UNL     1      -6.665   2.282  68.564  1.00  0.00    -0.029 Cl 
ENDBRANCH  31  32
ENDBRANCH  29  30
ENDBRANCH  10  24
ENDBRANCH   9  10
ENDBRANCH   8   9
ENDBRANCH   5   8
ENDBRANCH   3   5
TORSDOF 10
ENDMDL
MODEL      225
REMARK 921   NORMALIZED FREE ENERGY PREDICTED BY IDOCK:    9.24 KCAL/MOL
REMARK 922        TOTAL FREE ENERGY PREDICTED BY IDOCK:   12.99 KCAL/MOL
REMARK 923 INTER-LIGAND FREE ENERGY PREDICTED BY IDOCK:   -5.49 KCAL/MOL
REMARK 924 INTRA-LIGAND FREE ENERGY PREDICTED BY IDOCK:   18.48 KCAL/MOL
REMARK 927      BINDING AFFINITY PREDICTED BY RF-SCORE:    0.00 PKD
ROOT
HETATM    1  O   UNL     1     -13.678   8.916  72.450  1.00  0.00    -0.438 OA 
HETATM    2  C   UNL     1     -12.391   8.723  72.065  1.00  0.00    -0.377 C  
HETATM    3  C   UNL     1     -12.161   7.356  71.452  1.00  0.00    -0.357 C  
HETATM    4  O   UNL     1     -11.551   9.603  72.171  1.00  0.00    -0.096 OA 
ENDROOT
BRANCH   3   5
HETATM    5  C   UNL     1     -10.711   6.876  71.521  1.00  0.00    -0.248 C  
HETATM    6  C   UNL     1     -10.310   6.076  72.753  1.00  0.00    -0.223 C  
HETATM    7  C   UNL     1      -9.837   7.494  72.601  1.00  0.00    -0.242 C  
BRANCH   5   8
HETATM    8  C   UNL     1     -10.135   6.565  70.145  1.00  0.00    -0.174 C  
BRANCH   8   9
HETATM    9  S   UNL     1      -8.364   6.246  70.013  1.00  0.00    -0.131 SA 
BRANCH   9  10
HETATM   10  C   UNL     1      -7.826   7.718  69.016  1.00  0.00    -0.118 C  
BRANCH  10  11
HETATM   11  C   UNL     1      -6.781   8.620  69.716  1.00  0.00    -0.042 C  
BRANCH  11  12
HETATM   12  C   UNL     1      -6.226   9.773  68.852  1.00  0.00    -0.041 C  
BRANCH  12  13
HETATM   13  C   UNL     1      -7.083  10.037  67.621  1.00  0.00    -0.087 A  
HETATM   14  C   UNL     1      -7.602   8.878  66.989  1.00  0.00    -0.094 A  
HETATM   15  C   UNL     1      -8.754  10.183  65.355  1.00  0.00    -0.176 A  
HETATM   16  H   UNL     1      -7.089  13.552  69.471  1.00  0.00     0.000 HD 
HETATM   17  C   UNL     1      -8.411   8.946  65.862  1.00  0.00    -0.132 A  
HETATM   18  C   UNL     1      -7.553  13.913  67.049  1.00  0.00     0.220 C  
HETATM   19  C   UNL     1      -8.279  11.342  65.973  1.00  0.00     0.017 A  
HETATM   20  C   UNL     1      -7.428  11.317  67.107  1.00  0.00    -0.130 A  
HETATM   21  O   UNL     1      -7.376  12.730  69.093  1.00  0.00    -0.006 OA 
HETATM   22  C   UNL     1      -5.435  12.821  67.681  1.00  0.00    -0.121 C  
HETATM   23  C   UNL     1      -6.961  12.653  67.722  1.00  0.00    -0.125 C  
ENDBRANCH  12  13
ENDBRANCH  11  12
ENDBRANCH  10  11
BRANCH  10  24
HETATM   24  C   UNL     1      -9.050   8.457  68.467  1.00  0.00    -0.136 A  
HETATM   25  C   UNL     1     -11.224   9.917  67.417  1.00  0.00     0.071 A  
HETATM   26  C   UNL     1     -10.133   7.803  67.861  1.00  0.00    -0.232 A  
HETATM   27  C   UNL     1      -9.087   9.867  68.529  1.00  0.00    -0.125 A  
HETATM   28  C   UNL     1     -11.208   8.526  67.341  1.00  0.00     0.691 A  
HETATM   29  C   UNL     1     -10.172  10.606  68.026  1.00  0.00    -0.202 A  
BRANCH  29  30
HETATM   30  C   UNL     1     -10.123  12.076  68.086  1.00  0.00    -0.200 C  
HETATM   31  C   UNL     1     -11.198  12.882  68.022  1.00  0.00    -0.305 C  
BRANCH  31  32
HETATM   32  C   UNL     1     -11.165  14.348  68.054  1.00  0.00    -0.280 A  
HETATM   33  N   UNL     1     -10.020  14.896  67.578  1.00  0.00    -0.219 NA 
HETATM   34  C   UNL     1      -9.871  16.232  67.628  1.00  0.00    -0.238 A  
HETATM   35  C   UNL     1     -10.858  17.079  68.172  1.00  0.00    -0.338 A  
HETATM   36  C   UNL     1     -12.028  16.494  68.661  1.00  0.00     0.466 A  
HETATM   37  C   UNL     1     -10.654  18.470  68.227  1.00  0.00    -0.223 A  
HETATM   38  C   UNL     1      -9.470  19.021  67.747  1.00  0.00    -0.353 A  
HETATM   39  C   UNL     1     -12.181  15.113  68.609  1.00  0.00    -0.067 A  
HETATM   40  C   UNL     1      -8.501  18.185  67.202  1.00  0.00    -0.243 A  
HETATM   41  C   UNL     1      -8.705  16.807  67.145  1.00  0.00    -0.218 A  
HETATM   42 CL   UNL     1      -7.034  18.861  66.608  1.00  0.00    -0.216 Cl 
ENDBRANCH  31  32
ENDBRANCH  29  30
ENDBRANCH  10  24
ENDBRANCH   9  10
ENDBRANCH   8   9
ENDBRANCH   5   8
ENDBRANCH   3   5
TORSDOF 10
ENDMDL
MODEL      226
REMARK 921   NORMALIZED FREE ENERGY PREDICTED BY IDOCK:   12.25 KCAL/MOL
REMARK 922        TOTAL FREE ENERGY PREDICTED BY IDOCK:   17.76 KCAL/MOL
REMARK 923 INTER-LIGAND FREE ENERGY PREDICTED BY IDOCK:   -3.77 KCAL/MOL
REMARK 924 INTRA-LIGAND FREE ENERGY PREDICTED BY IDOCK:   21.54 KCAL/MOL
REMARK 927      BINDING AFFINITY PREDICTED BY RF-SCORE:    0.00 PKD
ROOT
HETATM    1  O   UNL     1     -11.724  14.294  63.313  1.00  0.00     0.307 OA 
HETATM    2  C   UNL     1     -10.954  13.987  64.388  1.00  0.00    -0.265 C  
HETATM    3  C   UNL     1      -9.996  12.844  64.116  1.00  0.00    -0.087 C  
HETATM    4  O   UNL     1     -11.021  14.624  65.426  1.00  0.00    -0.316 OA 
ENDROOT
BRANCH   3   5
HETATM    5  C   UNL     1      -9.535  12.105  65.372  1.00  0.00    -0.035 C  
HETATM    6  C   UNL     1      -8.607  12.861  66.313  1.00  0.00     0.362 C  
HETATM    7  C   UNL     1      -8.057  11.756  65.455  1.00  0.00     0.805 C  
BRANCH   5   8
HETATM    8  C   UNL     1     -10.588  11.136  65.897  1.00  0.00    -0.234 C  
BRANCH   8   9
HETATM    9  S   UNL     1     -11.869  11.779  66.992  1.00  0.00     0.141 SA 
BRANCH   9  10
HETATM   10  C   UNL     1     -10.846  12.268  68.464  1.00  0.00    -0.237 C  
BRANCH  10  11
HETATM   11  C   UNL     1      -9.321  12.296  68.203  1.00  0.00    -0.205 C  
BRANCH  11  12
HETATM   12  C   UNL     1      -8.795  11.184  67.269  1.00  0.00    -0.144 C  
BRANCH  12  13
HETATM   13  C   UNL     1      -9.272   9.800  67.691  1.00  0.00    -0.143 A  
HETATM   14  C   UNL     1     -10.615   9.496  67.351  1.00  0.00    -0.337 A  
HETATM   15  C   UNL     1     -10.441   7.303  68.279  1.00  0.00    -0.239 A  
HETATM   16  H   UNL     1      -5.317   9.443  67.799  1.00  0.00     0.000 HD 
HETATM   17  C   UNL     1     -11.199   8.274  67.655  1.00  0.00     0.617 A  
HETATM   18  C   UNL     1      -6.323   7.742  69.316  1.00  0.00    -0.035 C  
HETATM   19  C   UNL     1      -9.107   7.565  68.601  1.00  0.00    -0.134 A  
HETATM   20  C   UNL     1      -8.480   8.809  68.334  1.00  0.00    -0.130 A  
HETATM   21  O   UNL     1      -6.228   9.326  67.559  1.00  0.00    -0.057 OA 
HETATM   22  C   UNL     1      -6.799  10.121  69.752  1.00  0.00    -0.105 C  
HETATM   23  C   UNL     1      -7.000   8.999  68.723  1.00  0.00    -0.062 C  
ENDBRANCH  12  13
ENDBRANCH  11  12
ENDBRANCH  10  11
BRANCH  10  24
HETATM   24  C   UNL     1     -11.275  11.464  69.694  1.00  0.00    -0.301 A  
HETATM   25  C   UNL     1     -11.947   9.925  71.961  1.00  0.00    -0.006 A  
HETATM   26  C   UNL     1     -12.107  11.983  70.698  1.00  0.00    -0.369 A  
HETATM   27  C   UNL     1     -10.788  10.150  69.860  1.00  0.00    -0.347 A  
HETATM   28  C   UNL     1     -12.438  11.221  71.820  1.00  0.00    -0.125 A  
HETATM   29  C   UNL     1     -11.129   9.365  70.976  1.00  0.00    -0.414 A  
BRANCH  29  30
HETATM   30  C   UNL     1     -10.548   8.019  71.105  1.00  0.00    -0.235 C  
HETATM   31  C   UNL     1     -10.612   7.259  72.214  1.00  0.00    -0.257 C  
BRANCH  31  32
HETATM   32  C   UNL     1     -10.017   5.928  72.369  1.00  0.00    -0.171 A  
HETATM   33  N   UNL     1      -9.586   5.366  71.214  1.00  0.00    -0.153 NA 
HETATM   34  C   UNL     1      -9.085   4.118  71.247  1.00  0.00    -0.124 A  
HETATM   35  C   UNL     1      -9.010   3.369  72.439  1.00  0.00    -0.123 A  
HETATM   36  C   UNL     1      -9.465   3.965  73.618  1.00  0.00    -0.122 A  
HETATM   37  C   UNL     1      -8.501   2.058  72.428  1.00  0.00    -0.058 A  
HETATM   38  C   UNL     1      -8.071   1.486  71.234  1.00  0.00    -0.047 A  
HETATM   39  C   UNL     1      -9.981   5.255  73.582  1.00  0.00    -0.194 A  
HETATM   40  C   UNL     1      -8.138   2.229  70.060  1.00  0.00    -0.041 A  
HETATM   41  C   UNL     1      -8.639   3.531  70.072  1.00  0.00    -0.107 A  
HETATM   42 CL   UNL     1      -7.608   1.527  68.581  1.00  0.00    -0.046 Cl 
ENDBRANCH  31  32
ENDBRANCH  29  30
ENDBRANCH  10  24
ENDBRANCH   9  10
ENDBRANCH   8   9
ENDBRANCH   5   8
ENDBRANCH   3   5
TORSDOF 10
ENDMDL
MODEL      227
REMARK 921   NORMALIZED FREE ENERGY PREDICTED BY IDOCK:   19.92 KCAL/MOL
REMARK 922        TOTAL FREE ENERGY PREDICTED BY IDOCK:   29.92 KCAL/MOL
REMARK 923 INTER-LIGAND FREE ENERGY PREDICTED BY IDOCK:   18.33 KCAL/MOL
REMARK 924 INTRA-LIGAND FREE ENERGY PREDICTED BY IDOCK:   11.59 KCAL/MOL
REMARK 927      BINDING AFFINITY PREDICTED BY RF-SCORE:    0.00 PKD
ROOT
HETATM    1  O   UNL     1     -12.398  16.377  67.882  1.00  0.00     0.896 OA 
HETATM    2  C   UNL     1     -11.968  15.415  67.027  1.00  0.00     0.362 C  
HETATM    3  C   UNL     1     -10.476  15.480  66.771  1.00  0.00    -0.295 C  
HETATM    4  O   UNL     1     -12.728  14.572  66.577  1.00  0.00    -0.094 OA 
ENDROOT
BRANCH   3   5
HETATM    5  C   UNL     1     -10.039  14.837  65.456  1.00  0.00    -0.409 C  
HETATM    6  C   UNL     1     -11.072  14.788  64.338  1.00  0.00    -0.133 C  
HETATM    7  C   UNL     1     -10.714  13.529  65.076  1.00  0.00    -0.366 C  
BRANCH   5   8
HETATM    8  C   UNL     1      -8.559  15.055  65.165  1.00  0.00     3.423 C  
BRANCH   8   9
HETATM    9  S   UNL     1      -7.989  16.737  64.847  1.00  0.00     6.027 SA 
BRANCH   9  10
HETATM   10  C   UNL     1      -8.851  17.653  66.214  1.00  0.00    -0.179 C  
BRANCH  10  11
HETATM   11  C   UNL     1      -8.283  19.065  66.497  1.00  0.00    -0.312 C  
BRANCH  11  12
HETATM   12  C   UNL     1      -8.600  19.630  67.898  1.00  0.00    -0.360 C  
BRANCH  12  13
HETATM   13  C   UNL     1      -7.571  19.208  68.939  1.00  0.00    -0.371 A  
HETATM   14  C   UNL     1      -6.377  18.652  68.412  1.00  0.00    -0.221 A  
HETATM   15  C   UNL     1      -5.443  18.380  70.593  1.00  0.00    -0.225 A  
HETATM   16  H   UNL     1      -9.903  21.703  70.967  1.00  0.00     0.000 HD 
HETATM   17  C   UNL     1      -5.335  18.227  69.226  1.00  0.00    -0.196 A  
HETATM   18  C   UNL     1      -8.781  20.161  72.571  1.00  0.00     2.944 C  
HETATM   19  C   UNL     1      -6.597  18.951  71.138  1.00  0.00     1.452 A  
HETATM   20  C   UNL     1      -7.696  19.371  70.346  1.00  0.00     1.212 A  
HETATM   21  O   UNL     1      -9.147  21.319  70.539  1.00  0.00     2.882 OA 
HETATM   22  C   UNL     1     -10.207  19.182  70.814  1.00  0.00     1.918 C  
HETATM   23  C   UNL     1      -8.923  19.995  71.041  1.00  0.00     2.120 C  
ENDBRANCH  12  13
ENDBRANCH  11  12
ENDBRANCH  10  11
BRANCH  10  24
HETATM   24  C   UNL     1      -8.987  16.754  67.446  1.00  0.00    -0.211 A  
HETATM   25  C   UNL     1      -9.109  15.065  69.702  1.00  0.00     0.005 A  
HETATM   26  C   UNL     1      -9.790  17.081  68.549  1.00  0.00    -0.290 A  
HETATM   27  C   UNL     1      -8.244  15.555  67.507  1.00  0.00    -0.182 A  
HETATM   28  C   UNL     1      -9.849  16.245  69.666  1.00  0.00    -0.086 A  
HETATM   29  C   UNL     1      -8.310  14.695  68.617  1.00  0.00    -0.165 A  
BRANCH  29  30
HETATM   30  C   UNL     1      -7.475  13.483  68.631  1.00  0.00    -0.108 C  
HETATM   31  C   UNL     1      -7.949  12.225  68.596  1.00  0.00    -0.050 C  
BRANCH  31  32
HETATM   32  C   UNL     1      -7.133  11.006  68.635  1.00  0.00    -0.080 A  
HETATM   33  N   UNL     1      -7.650   9.961  67.945  1.00  0.00    -0.089 NA 
HETATM   34  C   UNL     1      -7.005   8.780  67.977  1.00  0.00    -0.078 A  
HETATM   35  C   UNL     1      -5.821   8.591  68.718  1.00  0.00    -0.044 A  
HETATM   36  C   UNL     1      -5.308   9.680  69.426  1.00  0.00    -0.035 A  
HETATM   37  C   UNL     1      -5.189   7.334  68.744  1.00  0.00    -0.017 A  
HETATM   38  C   UNL     1      -5.734   6.264  68.042  1.00  0.00    -0.012 A  
HETATM   39  C   UNL     1      -5.975  10.899  69.391  1.00  0.00    -0.048 A  
HETATM   40  C   UNL     1      -6.898   6.454  67.305  1.00  0.00    -0.069 A  
HETATM   41  C   UNL     1      -7.522   7.701  67.275  1.00  0.00    -0.100 A  
HETATM   42 CL   UNL     1      -7.576   5.134  66.434  1.00  0.00    -0.087 Cl 
ENDBRANCH  31  32
ENDBRANCH  29  30
ENDBRANCH  10  24
ENDBRANCH   9  10
ENDBRANCH   8   9
ENDBRANCH   5   8
ENDBRANCH   3   5
TORSDOF 10
ENDMDL
MODEL      228
REMARK 921   NORMALIZED FREE ENERGY PREDICTED BY IDOCK:   21.47 KCAL/MOL
REMARK 922        TOTAL FREE ENERGY PREDICTED BY IDOCK:   32.36 KCAL/MOL
REMARK 923 INTER-LIGAND FREE ENERGY PREDICTED BY IDOCK:   31.63 KCAL/MOL
REMARK 924 INTRA-LIGAND FREE ENERGY PREDICTED BY IDOCK:    0.73 KCAL/MOL
REMARK 927      BINDING AFFINITY PREDICTED BY RF-SCORE:    0.00 PKD
ROOT
HETATM    1  O   UNL     1     -13.236  17.701  72.580  1.00  0.00     5.487 OA 
HETATM    2  C   UNL     1     -12.461  18.085  71.534  1.00  0.00    10.334 C  
HETATM    3  C   UNL     1     -11.863  16.910  70.786  1.00  0.00     1.286 C  
HETATM    4  O   UNL     1     -12.329  19.259  71.231  1.00  0.00    12.556 OA 
ENDROOT
BRANCH   3   5
HETATM    5  C   UNL     1     -10.594  17.248  70.004  1.00  0.00     0.434 C  
HETATM    6  C   UNL     1      -9.987  18.625  70.240  1.00  0.00     1.437 C  
HETATM    7  C   UNL     1     -10.709  18.340  68.953  1.00  0.00     0.355 C  
BRANCH   5   8
HETATM    8  C   UNL     1      -9.721  16.024  69.753  1.00  0.00    -0.064 C  
BRANCH   8   9
HETATM    9  S   UNL     1     -10.128  14.493  70.617  1.00  0.00     1.716 SA 
BRANCH   9  10
HETATM   10  C   UNL     1      -9.429  13.240  69.438  1.00  0.00     1.025 C  
BRANCH  10  11
HETATM   11  C   UNL     1      -8.960  13.825  68.084  1.00  0.00    -0.190 C  
BRANCH  11  12
HETATM   12  C   UNL     1      -7.982  12.933  67.289  1.00  0.00    -0.151 C  
BRANCH  12  13
HETATM   13  C   UNL     1      -8.576  11.569  66.964  1.00  0.00    -0.161 A  
HETATM   14  C   UNL     1      -7.951  10.471  67.610  1.00  0.00    -0.106 A  
HETATM   15  C   UNL     1      -9.472   8.918  66.623  1.00  0.00    -0.261 A  
HETATM   16  H   UNL     1     -11.476  14.069  65.907  1.00  0.00     0.000 HD 
HETATM   17  C   UNL     1      -8.378   9.163  67.429  1.00  0.00    -0.115 A  
HETATM   18  C   UNL     1     -11.743  11.940  64.640  1.00  0.00    -0.306 C  
HETATM   19  C   UNL     1     -10.125   9.982  65.997  1.00  0.00    -0.318 A  
HETATM   20  C   UNL     1      -9.703  11.330  66.131  1.00  0.00    -0.251 A  
HETATM   21  O   UNL     1     -10.989  13.388  66.355  1.00  0.00    -0.287 OA 
HETATM   22  C   UNL     1      -9.638  13.198  64.378  1.00  0.00     0.536 C  
HETATM   23  C   UNL     1     -10.493  12.437  65.403  1.00  0.00    -0.277 C  
ENDBRANCH  12  13
ENDBRANCH  11  12
ENDBRANCH  10  11
BRANCH  10  24
HETATM   24  C   UNL     1     -10.372  12.038  69.329  1.00  0.00     0.163 A  
HETATM   25  C   UNL     1     -12.059   9.778  69.243  1.00  0.00     0.643 A  
HETATM   26  C   UNL     1     -11.665  12.123  68.793  1.00  0.00    -0.374 A  
HETATM   27  C   UNL     1      -9.948  10.785  69.824  1.00  0.00     0.111 A  
HETATM   28  C   UNL     1     -12.500  11.005  68.751  1.00  0.00     0.439 A  
HETATM   29  C   UNL     1     -10.772   9.647  69.771  1.00  0.00    -0.269 A  
BRANCH  29  30
HETATM   30  C   UNL     1     -10.281   8.384  70.345  1.00  0.00    -0.212 C  
HETATM   31  C   UNL     1      -9.718   8.262  71.561  1.00  0.00    -0.251 C  
BRANCH  31  32
HETATM   32  C   UNL     1      -9.200   7.016  72.138  1.00  0.00    -0.130 A  
HETATM   33  N   UNL     1     -10.150   6.099  72.441  1.00  0.00    -0.177 NA 
HETATM   34  C   UNL     1      -9.777   4.951  73.035  1.00  0.00    -0.143 A  
HETATM   35  C   UNL     1      -8.435   4.679  73.369  1.00  0.00    -0.102 A  
HETATM   36  C   UNL     1      -7.472   5.640  73.053  1.00  0.00    -0.092 A  
HETATM   37  C   UNL     1      -8.088   3.476  74.011  1.00  0.00    -0.075 A  
HETATM   38  C   UNL     1      -9.073   2.545  74.327  1.00  0.00    -0.086 A  
HETATM   39  C   UNL     1      -7.859   6.826  72.438  1.00  0.00    -0.094 A  
HETATM   40  C   UNL     1     -10.396   2.811  73.991  1.00  0.00    -0.147 A  
HETATM   41  C   UNL     1     -10.738   4.002  73.350  1.00  0.00    -0.299 A  
HETATM   42 CL   UNL     1     -11.617   1.664  74.380  1.00  0.00     0.041 Cl 
ENDBRANCH  31  32
ENDBRANCH  29  30
ENDBRANCH  10  24
ENDBRANCH   9  10
ENDBRANCH   8   9
ENDBRANCH   5   8
ENDBRANCH   3   5
TORSDOF 10
ENDMDL
MODEL      229
REMARK 921   NORMALIZED FREE ENERGY PREDICTED BY IDOCK:   26.47 KCAL/MOL
REMARK 922        TOTAL FREE ENERGY PREDICTED BY IDOCK:   40.30 KCAL/MOL
REMARK 923 INTER-LIGAND FREE ENERGY PREDICTED BY IDOCK:   25.42 KCAL/MOL
REMARK 924 INTRA-LIGAND FREE ENERGY PREDICTED BY IDOCK:   14.88 KCAL/MOL
REMARK 927      BINDING AFFINITY PREDICTED BY RF-SCORE:    0.00 PKD
ROOT
HETATM    1  O   UNL     1     -12.938   3.777  70.382  1.00  0.00    16.791 OA 
HETATM    2  C   UNL     1     -12.052   4.788  70.568  1.00  0.00     6.297 C  
HETATM    3  C   UNL     1     -12.447   6.056  69.838  1.00  0.00     2.556 C  
HETATM    4  O   UNL     1     -11.082   4.664  71.297  1.00  0.00     0.390 OA 
ENDROOT
BRANCH   3   5
HETATM    5  C   UNL     1     -11.280   6.998  69.544  1.00  0.00    -0.185 C  
HETATM    6  C   UNL     1     -11.010   8.096  70.563  1.00  0.00    -0.248 C  
HETATM    7  C   UNL     1     -11.629   8.446  69.239  1.00  0.00     0.824 C  
BRANCH   5   8
HETATM    8  C   UNL     1     -10.146   6.304  68.799  1.00  0.00    -0.161 C  
BRANCH   8   9
HETATM    9  S   UNL     1      -9.046   7.313  67.785  1.00  0.00    -0.123 SA 
BRANCH   9  10
HETATM   10  C   UNL     1      -8.124   8.242  69.102  1.00  0.00    -0.120 C  
BRANCH  10  11
HETATM   11  C   UNL     1      -7.574   7.355  70.246  1.00  0.00    -0.088 C  
BRANCH  11  12
HETATM   12  C   UNL     1      -7.343   5.874  69.874  1.00  0.00    -0.075 C  
BRANCH  12  13
HETATM   13  C   UNL     1      -7.785   4.925  70.980  1.00  0.00    -0.082 A  
HETATM   14  C   UNL     1      -8.028   3.590  70.566  1.00  0.00    -0.057 A  
HETATM   15  C   UNL     1      -8.558   2.908  72.792  1.00  0.00    -0.078 A  
HETATM   16  H   UNL     1      -6.136   7.924  72.997  1.00  0.00     0.000 HD 
HETATM   17  C   UNL     1      -8.427   2.599  71.453  1.00  0.00    -0.091 A  
HETATM   18  C   UNL     1      -7.755   6.746  74.481  1.00  0.00    -0.125 C  
HETATM   19  C   UNL     1      -8.297   4.208  73.233  1.00  0.00    -0.090 A  
HETATM   20  C   UNL     1      -7.917   5.256  72.357  1.00  0.00    -0.103 A  
HETATM   21  O   UNL     1      -6.303   7.061  72.637  1.00  0.00    -0.052 OA 
HETATM   22  C   UNL     1      -8.597   7.726  72.381  1.00  0.00    -0.176 C  
HETATM   23  C   UNL     1      -7.645   6.658  72.941  1.00  0.00    -0.095 C  
ENDBRANCH  12  13
ENDBRANCH  11  12
ENDBRANCH  10  11
BRANCH  10  24
HETATM   24  C   UNL     1      -8.940   9.453  69.562  1.00  0.00    -0.167 A  
HETATM   25  C   UNL     1     -10.416  11.744  70.292  1.00  0.00     1.790 A  
HETATM   26  C   UNL     1     -10.112   9.343  70.326  1.00  0.00    -0.288 A  
HETATM   27  C   UNL     1      -8.531  10.746  69.171  1.00  0.00    -0.105 A  
HETATM   28  C   UNL     1     -10.842  10.478  70.687  1.00  0.00     0.063 A  
HETATM   29  C   UNL     1      -9.246  11.898  69.543  1.00  0.00     1.206 A  
BRANCH  29  30
HETATM   30  C   UNL     1      -8.785  13.210  69.064  1.00  0.00     0.458 C  
HETATM   31  C   UNL     1      -7.664  13.415  68.349  1.00  0.00    -0.138 C  
BRANCH  31  32
HETATM   32  C   UNL     1      -7.175  14.719  67.886  1.00  0.00    -0.156 A  
HETATM   33  N   UNL     1      -8.150  15.620  67.613  1.00  0.00    -0.142 NA 
HETATM   34  C   UNL     1      -7.802  16.822  67.119  1.00  0.00    -0.177 A  
HETATM   35  C   UNL     1      -6.459  17.169  66.862  1.00  0.00    -0.239 A  
HETATM   36  C   UNL     1      -5.471  16.223  67.146  1.00  0.00    -0.053 A  
HETATM   37  C   UNL     1      -6.138  18.428  66.324  1.00  0.00    -0.207 A  
HETATM   38  C   UNL     1      -7.147  19.342  66.036  1.00  0.00    -0.291 A  
HETATM   39  C   UNL     1      -5.832  14.982  67.656  1.00  0.00    -0.065 A  
HETATM   40  C   UNL     1      -8.470  19.002  66.299  1.00  0.00    -0.280 A  
HETATM   41  C   UNL     1      -8.788  17.755  66.836  1.00  0.00    -0.260 A  
HETATM   42 CL   UNL     1      -9.722  20.129  65.945  1.00  0.00    -0.437 Cl 
ENDBRANCH  31  32
ENDBRANCH  29  30
ENDBRANCH  10  24
ENDBRANCH   9  10
ENDBRANCH   8   9
ENDBRANCH   5   8
ENDBRANCH   3   5
TORSDOF 10
ENDMDL
MODEL      230
REMARK 921   NORMALIZED FREE ENERGY PREDICTED BY IDOCK:   29.22 KCAL/MOL
REMARK 922        TOTAL FREE ENERGY PREDICTED BY IDOCK:   44.64 KCAL/MOL
REMARK 923 INTER-LIGAND FREE ENERGY PREDICTED BY IDOCK:   40.92 KCAL/MOL
REMARK 924 INTRA-LIGAND FREE ENERGY PREDICTED BY IDOCK:    3.72 KCAL/MOL
REMARK 927      BINDING AFFINITY PREDICTED BY RF-SCORE:    0.00 PKD
ROOT
HETATM    1  O   UNL     1     -13.375  17.792  72.577  1.00  0.00     6.684 OA 
HETATM    2  C   UNL     1     -12.670  18.210  71.495  1.00  0.00    13.524 C  
HETATM    3  C   UNL     1     -12.020  17.066  70.742  1.00  0.00     2.113 C  
HETATM    4  O   UNL     1     -12.634  19.385  71.168  1.00  0.00    15.479 OA 
ENDROOT
BRANCH   3   5
HETATM    5  C   UNL     1     -10.810  17.478  69.904  1.00  0.00     0.826 C  
HETATM    6  C   UNL     1     -10.311  18.907  70.073  1.00  0.00     1.106 C  
HETATM    7  C   UNL     1     -11.050  18.520  68.823  1.00  0.00     1.175 C  
BRANCH   5   8
HETATM    8  C   UNL     1      -9.849  16.321  69.661  1.00  0.00    -0.086 C  
BRANCH   8   9
HETATM    9  S   UNL     1     -10.130  14.777  70.551  1.00  0.00     0.983 SA 
BRANCH   9  10
HETATM   10  C   UNL     1      -9.296  13.570  69.412  1.00  0.00     0.928 C  
BRANCH  10  11
HETATM   11  C   UNL     1      -8.779  14.188  68.090  1.00  0.00    -0.181 C  
BRANCH  11  12
HETATM   12  C   UNL     1      -7.732  13.340  67.336  1.00  0.00    -0.148 C  
BRANCH  12  13
HETATM   13  C   UNL     1      -8.225  11.927  67.056  1.00  0.00    -0.170 A  
HETATM   14  C   UNL     1      -9.102  11.803  65.948  1.00  0.00    -0.128 A  
HETATM   15  C   UNL     1      -9.270   9.439  66.237  1.00  0.00    -0.229 A  
HETATM   16  H   UNL     1      -5.014  11.310  69.312  1.00  0.00     0.000 HD 
HETATM   17  C   UNL     1      -9.632  10.582  65.553  1.00  0.00    -0.282 A  
HETATM   18  C   UNL     1      -6.530   9.342  69.510  1.00  0.00    -0.043 C  
HETATM   19  C   UNL     1      -8.386   9.527  67.315  1.00  0.00    -0.125 A  
HETATM   20  C   UNL     1      -7.844  10.757  67.769  1.00  0.00    -0.109 A  
HETATM   21  O   UNL     1      -5.613  11.315  68.575  1.00  0.00    -0.043 OA 
HETATM   22  C   UNL     1      -7.400  11.555  70.162  1.00  0.00     1.136 C  
HETATM   23  C   UNL     1      -6.871  10.749  68.966  1.00  0.00    -0.075 C  
ENDBRANCH  12  13
ENDBRANCH  11  12
ENDBRANCH  10  11
BRANCH  10  24
HETATM   24  C   UNL     1     -10.164  12.320  69.242  1.00  0.00     0.321 A  
HETATM   25  C   UNL     1     -11.719   9.974  69.048  1.00  0.00     0.100 A  
HETATM   26  C   UNL     1     -11.428  12.341  68.634  1.00  0.00    -0.355 A  
HETATM   27  C   UNL     1      -9.702  11.088  69.753  1.00  0.00     0.518 A  
HETATM   28  C   UNL     1     -12.198  11.180  68.539  1.00  0.00     0.064 A  
HETATM   29  C   UNL     1     -10.459   9.907  69.647  1.00  0.00    -0.273 A  
BRANCH  29  30
HETATM   30  C   UNL     1      -9.934   8.667  70.240  1.00  0.00    -0.204 C  
HETATM   31  C   UNL     1     -10.586   7.491  70.262  1.00  0.00    -0.235 C  
BRANCH  31  32
HETATM   32  C   UNL     1     -10.089   6.253  70.872  1.00  0.00    -0.189 A  
HETATM   33  N   UNL     1      -9.029   5.698  70.236  1.00  0.00    -0.138 NA 
HETATM   34  C   UNL     1      -8.544   4.525  70.683  1.00  0.00    -0.094 A  
HETATM   35  C   UNL     1      -9.113   3.847  71.781  1.00  0.00    -0.169 A  
HETATM   36  C   UNL     1     -10.208   4.434  72.419  1.00  0.00    -0.255 A  
HETATM   37  C   UNL     1      -8.592   2.611  72.204  1.00  0.00    -0.084 A  
HETATM   38  C   UNL     1      -7.510   2.045  71.537  1.00  0.00    -0.036 A  
HETATM   39  C   UNL     1     -10.707   5.646  71.956  1.00  0.00    -0.291 A  
HETATM   40  C   UNL     1      -6.945   2.719  70.460  1.00  0.00    -0.033 A  
HETATM   41  C   UNL     1      -7.459   3.946  70.042  1.00  0.00    -0.045 A  
HETATM   42 CL   UNL     1      -5.608   2.023  69.630  1.00  0.00    -0.016 Cl 
ENDBRANCH  31  32
ENDBRANCH  29  30
ENDBRANCH  10  24
ENDBRANCH   9  10
ENDBRANCH   8   9
ENDBRANCH   5   8
ENDBRANCH   3   5
TORSDOF 10
ENDMDL
MODEL      231
REMARK 921   NORMALIZED FREE ENERGY PREDICTED BY IDOCK:   52.90 KCAL/MOL
REMARK 922        TOTAL FREE ENERGY PREDICTED BY IDOCK:   82.17 KCAL/MOL
REMARK 923 INTER-LIGAND FREE ENERGY PREDICTED BY IDOCK:   46.35 KCAL/MOL
REMARK 924 INTRA-LIGAND FREE ENERGY PREDICTED BY IDOCK:   35.82 KCAL/MOL
REMARK 927      BINDING AFFINITY PREDICTED BY RF-SCORE:    0.00 PKD
ROOT
HETATM    1  O   UNL     1     -13.475   3.318  70.045  1.00  0.00    22.193 OA 
HETATM    2  C   UNL     1     -12.588   4.287  70.386  1.00  0.00    13.784 C  
HETATM    3  C   UNL     1     -12.876   5.611  69.707  1.00  0.00     6.926 C  
HETATM    4  O   UNL     1     -11.699   4.086  71.198  1.00  0.00     3.561 OA 
ENDROOT
BRANCH   3   5
HETATM    5  C   UNL     1     -11.661   6.533  69.594  1.00  0.00    -0.231 C  
HETATM    6  C   UNL     1     -11.192   7.210  70.875  1.00  0.00    -0.305 C  
HETATM    7  C   UNL     1     -11.904   8.016  69.826  1.00  0.00     0.663 C  
BRANCH   5   8
HETATM    8  C   UNL     1     -10.676   6.069  68.529  1.00  0.00    -0.286 C  
BRANCH   8   9
HETATM    9  S   UNL     1      -9.551   7.287  67.818  1.00  0.00    -0.141 SA 
BRANCH   9  10
HETATM   10  C   UNL     1      -9.046   8.218  69.344  1.00  0.00    -0.154 C  
BRANCH  10  11
HETATM   11  C   UNL     1      -8.546   7.324  70.504  1.00  0.00    -0.143 C  
BRANCH  11  12
HETATM   12  C   UNL     1      -7.836   6.023  70.069  1.00  0.00    -0.105 C  
BRANCH  12  13
HETATM   13  C   UNL     1      -7.765   4.999  71.195  1.00  0.00    -0.091 A  
HETATM   14  C   UNL     1      -6.726   4.042  71.074  1.00  0.00    -0.031 A  
HETATM   15  C   UNL     1      -7.326   3.006  73.140  1.00  0.00    -0.046 A  
HETATM   16  H   UNL     1      -9.926   7.925  72.795  1.00  0.00     0.000 HD 
HETATM   17  C   UNL     1      -6.518   3.048  72.021  1.00  0.00    -0.015 A  
HETATM   18  C   UNL     1     -10.449   5.794  73.977  1.00  0.00    -0.286 C  
HETATM   19  C   UNL     1      -8.340   3.953  73.299  1.00  0.00    -0.088 A  
HETATM   20  C   UNL     1      -8.605   4.967  72.343  1.00  0.00    -0.123 A  
HETATM   21  O   UNL     1      -9.224   7.307  72.629  1.00  0.00    -0.135 OA 
HETATM   22  C   UNL     1     -10.850   5.909  71.548  1.00  0.00    -0.325 C  
HETATM   23  C   UNL     1      -9.744   5.971  72.612  1.00  0.00    -0.156 C  
ENDBRANCH  12  13
ENDBRANCH  11  12
ENDBRANCH  10  11
BRANCH  10  24
HETATM   24  C   UNL     1     -10.134   9.225  69.729  1.00  0.00    -0.218 A  
HETATM   25  C   UNL     1     -12.117  11.141  70.323  1.00  0.00    -0.462 A  
HETATM   26  C   UNL     1     -11.283   8.873  70.454  1.00  0.00    -0.259 A  
HETATM   27  C   UNL     1     -10.009  10.566  69.309  1.00  0.00    -0.233 A  
HETATM   28  C   UNL     1     -12.265   9.822  70.747  1.00  0.00    -0.342 A  
HETATM   29  C   UNL     1     -10.981  11.536  69.613  1.00  0.00    -0.129 A  
BRANCH  29  30
HETATM   30  C   UNL     1     -10.806  12.906  69.105  1.00  0.00    -0.126 C  
HETATM   31  C   UNL     1     -10.028  13.243  68.060  1.00  0.00    -0.233 C  
BRANCH  31  32
HETATM   32  C   UNL     1      -9.822  14.605  67.557  1.00  0.00    -0.218 A  
HETATM   33  N   UNL     1     -10.743  15.506  67.978  1.00  0.00    -0.274 NA 
HETATM   34  C   UNL     1     -10.674  16.768  67.516  1.00  0.00    -0.275 A  
HETATM   35  C   UNL     1      -9.687  17.179  66.597  1.00  0.00    -0.285 A  
HETATM   36  C   UNL     1      -8.750  16.234  66.173  1.00  0.00    -0.353 A  
HETATM   37  C   UNL     1      -9.663  18.502  66.120  1.00  0.00    -0.241 A  
HETATM   38  C   UNL     1     -10.620  19.416  66.549  1.00  0.00    -0.554 A  
HETATM   39  C   UNL     1      -8.822  14.931  66.651  1.00  0.00    -0.287 A  
HETATM   40  C   UNL     1     -11.589  19.011  67.461  1.00  0.00     1.120 A  
HETATM   41  C   UNL     1     -11.610  17.700  67.938  1.00  0.00     1.015 A  
HETATM   42 CL   UNL     1     -12.776  20.137  67.995  1.00  0.00     4.245 Cl 
ENDBRANCH  31  32
ENDBRANCH  29  30
ENDBRANCH  10  24
ENDBRANCH   9  10
ENDBRANCH   8   9
ENDBRANCH   5   8
ENDBRANCH   3   5
TORSDOF 10
ENDMDL
MODEL      232
REMARK 921   NORMALIZED FREE ENERGY PREDICTED BY IDOCK:   77.04 KCAL/MOL
REMARK 922        TOTAL FREE ENERGY PREDICTED BY IDOCK:  120.43 KCAL/MOL
REMARK 923 INTER-LIGAND FREE ENERGY PREDICTED BY IDOCK:  116.23 KCAL/MOL
REMARK 924 INTRA-LIGAND FREE ENERGY PREDICTED BY IDOCK:    4.20 KCAL/MOL
REMARK 927      BINDING AFFINITY PREDICTED BY RF-SCORE:    0.00 PKD
ROOT
HETATM    1  O   UNL     1      -5.736  12.054  72.966  1.00  0.00     0.698 OA 
HETATM    2  C   UNL     1      -6.900  12.731  72.800  1.00  0.00     6.928 C  
HETATM    3  C   UNL     1      -6.739  13.975  71.948  1.00  0.00     2.089 C  
HETATM    4  O   UNL     1      -7.952  12.319  73.260  1.00  0.00    15.348 OA 
ENDROOT
BRANCH   3   5
HETATM    5  C   UNL     1      -7.814  15.036  72.182  1.00  0.00     5.373 C  
HETATM    6  C   UNL     1      -7.360  16.347  72.809  1.00  0.00    11.378 C  
HETATM    7  C   UNL     1      -8.148  15.364  73.628  1.00  0.00    11.536 C  
BRANCH   5   8
HETATM    8  C   UNL     1      -8.913  14.993  71.127  1.00  0.00     3.091 C  
BRANCH   8   9
HETATM    9  S   UNL     1     -10.369  13.979  71.449  1.00  0.00     4.844 SA 
BRANCH   9  10
HETATM   10  C   UNL     1     -10.544  13.104  69.821  1.00  0.00     0.765 C  
BRANCH  10  11
HETATM   11  C   UNL     1     -11.103  13.984  68.677  1.00  0.00    -0.286 C  
BRANCH  11  12
HETATM   12  C   UNL     1     -10.063  14.432  67.626  1.00  0.00    -0.222 C  
BRANCH  12  13
HETATM   13  C   UNL     1      -8.730  14.811  68.257  1.00  0.00    -0.170 A  
HETATM   14  C   UNL     1      -7.991  13.729  68.801  1.00  0.00    -0.041 A  
HETATM   15  C   UNL     1      -6.198  15.167  69.444  1.00  0.00    -0.116 A  
HETATM   16  H   UNL     1      -9.539  17.944  65.952  1.00  0.00     0.000 HD 
HETATM   17  C   UNL     1      -6.752  13.903  69.402  1.00  0.00    -0.095 A  
HETATM   18  C   UNL     1      -8.000  18.659  67.777  1.00  0.00    -0.267 C  
HETATM   19  C   UNL     1      -6.890  16.247  68.892  1.00  0.00    -0.165 A  
HETATM   20  C   UNL     1      -8.170  16.118  68.295  1.00  0.00    -0.162 A  
HETATM   21  O   UNL     1      -9.119  17.172  66.313  1.00  0.00    -0.317 OA 
HETATM   22  C   UNL     1     -10.183  17.698  68.400  1.00  0.00    -0.381 C  
HETATM   23  C   UNL     1      -8.852  17.371  67.708  1.00  0.00    -0.232 C  
ENDBRANCH  12  13
ENDBRANCH  11  12
ENDBRANCH  10  11
BRANCH  10  24
HETATM   24  C   UNL     1     -11.264  11.767  70.016  1.00  0.00    -0.004 A  
HETATM   25  C   UNL     1     -12.492   9.244  70.314  1.00  0.00     0.413 A  
HETATM   26  C   UNL     1     -12.005  11.456  71.167  1.00  0.00    -0.031 A  
HETATM   27  C   UNL     1     -11.155  10.774  69.019  1.00  0.00    -0.308 A  
HETATM   28  C   UNL     1     -12.611  10.207  71.314  1.00  0.00    -0.508 A  
HETATM   29  C   UNL     1     -11.776   9.520  69.146  1.00  0.00     0.479 A  
BRANCH  29  30
HETATM   30  C   UNL     1     -11.583   8.518  68.085  1.00  0.00     1.599 C  
HETATM   31  C   UNL     1     -11.634   8.777  66.766  1.00  0.00     3.091 C  
BRANCH  31  32
HETATM   32  C   UNL     1     -11.471   7.786  65.697  1.00  0.00     6.828 A  
HETATM   33  N   UNL     1     -10.958   6.599  66.103  1.00  0.00     0.773 NA 
HETATM   34  C   UNL     1     -10.710   5.650  65.182  1.00  0.00     1.734 A  
HETATM   35  C   UNL     1     -10.951   5.856  63.808  1.00  0.00     6.179 A  
HETATM   36  C   UNL     1     -11.474   7.088  63.410  1.00  0.00    18.355 A  
HETATM   37  C   UNL     1     -10.657   4.847  62.873  1.00  0.00     0.945 A  
HETATM   38  C   UNL     1     -10.119   3.636  63.299  1.00  0.00    -0.177 A  
HETATM   39  C   UNL     1     -11.730   8.067  64.363  1.00  0.00    17.779 A  
HETATM   40  C   UNL     1      -9.891   3.431  64.656  1.00  0.00    -0.146 A  
HETATM   41  C   UNL     1     -10.186   4.431  65.583  1.00  0.00    -0.259 A  
HETATM   42 CL   UNL     1      -9.226   1.936  65.189  1.00  0.00    -0.111 Cl 
ENDBRANCH  31  32
ENDBRANCH  29  30
ENDBRANCH  10  24
ENDBRANCH   9  10
ENDBRANCH   8   9
ENDBRANCH   5   8
ENDBRANCH   3   5
TORSDOF 10
ENDMDL
