MODEL        1
REMARK 921   NORMALIZED FREE ENERGY PREDICTED BY IDOCK:   -5.96 KCAL/MOL
REMARK 922        TOTAL FREE ENERGY PREDICTED BY IDOCK:   -6.85 KCAL/MOL
REMARK 923 INTER-LIGAND FREE ENERGY PREDICTED BY IDOCK:   -6.66 KCAL/MOL
REMARK 924 INTRA-LIGAND FREE ENERGY PREDICTED BY IDOCK:   -0.19 KCAL/MOL
REMARK 927      BINDING AFFINITY PREDICTED BY RF-SCORE:    0.00 PKD
ROOT
HETATM    1  C   UNL     1     -12.286  14.966  64.364  1.00  0.00    -0.381 C  
HETATM    2  C   UNL     1     -11.052  14.987  65.274  1.00  0.00    -0.386 C  
HETATM    3  N   UNL     1     -11.072  13.907  66.292  1.00  0.00    -0.302 N  
HETATM    4  O   UNL     1     -12.414  13.706  63.698  1.00  0.00    -0.728 OA 
HETATM    5  C   UNL     1     -11.340  12.617  65.608  1.00  0.00    -0.322 C  
HETATM    6  C   UNL     1     -12.553  12.666  64.671  1.00  0.00    -0.440 C  
ENDROOT
BRANCH   3   7
HETATM    7  S   UNL     1      -9.858  13.887  67.460  1.00  0.00    -0.241 SA 
BRANCH   7   8
HETATM    8  C   UNL     1     -10.720  14.287  68.944  1.00  0.00    -0.257 A  
HETATM    9  N   UNL     1     -11.584  13.478  69.516  1.00  0.00    -0.293 NA 
HETATM   10  C   UNL     1     -12.078  14.067  70.668  1.00  0.00    -0.354 A  
HETATM   11  C   UNL     1     -13.014  13.495  71.555  1.00  0.00    -0.440 A  
HETATM   12  C   UNL     1     -13.423  14.204  72.689  1.00  0.00    -0.634 A  
HETATM   13  C   UNL     1     -12.918  15.472  72.950  1.00  0.00    -0.583 A  
HETATM   14  C   UNL     1     -11.991  16.065  72.086  1.00  0.00    -0.629 A  
HETATM   15  C   UNL     1     -11.583  15.341  70.953  1.00  0.00    -0.343 A  
HETATM   16  S   UNL     1     -10.459  15.788  69.730  1.00  0.00    -0.328 SA 
ENDBRANCH   7   8
ENDBRANCH   3   7
TORSDOF 2
ENDMDL
MODEL        2
REMARK 921   NORMALIZED FREE ENERGY PREDICTED BY IDOCK:   -5.91 KCAL/MOL
REMARK 922        TOTAL FREE ENERGY PREDICTED BY IDOCK:   -6.79 KCAL/MOL
REMARK 923 INTER-LIGAND FREE ENERGY PREDICTED BY IDOCK:   -6.60 KCAL/MOL
REMARK 924 INTRA-LIGAND FREE ENERGY PREDICTED BY IDOCK:   -0.19 KCAL/MOL
REMARK 927      BINDING AFFINITY PREDICTED BY RF-SCORE:    0.00 PKD
ROOT
HETATM    1  C   UNL     1     -12.357  14.585  64.333  1.00  0.00    -0.413 C  
HETATM    2  C   UNL     1     -11.250  14.355  65.369  1.00  0.00    -0.335 C  
HETATM    3  N   UNL     1     -11.305  13.002  65.975  1.00  0.00    -0.300 N  
HETATM    4  O   UNL     1     -12.298  13.608  63.289  1.00  0.00    -0.743 OA 
HETATM    5  C   UNL     1     -11.379  11.997  64.885  1.00  0.00    -0.310 C  
HETATM    6  C   UNL     1     -12.468  12.304  63.849  1.00  0.00    -0.485 C  
ENDROOT
BRANCH   3   7
HETATM    7  S   UNL     1     -10.246  12.648  67.237  1.00  0.00    -0.225 SA 
BRANCH   7   8
HETATM    8  C   UNL     1     -11.183  13.050  68.675  1.00  0.00    -0.277 A  
HETATM    9  N   UNL     1     -11.547  14.277  68.978  1.00  0.00    -0.285 NA 
HETATM   10  C   UNL     1     -12.281  14.266  70.152  1.00  0.00    -0.345 A  
HETATM   11  C   UNL     1     -12.853  15.390  70.782  1.00  0.00    -0.524 A  
HETATM   12  C   UNL     1     -13.578  15.233  71.967  1.00  0.00    -0.571 A  
HETATM   13  C   UNL     1     -13.736  13.974  72.536  1.00  0.00    -0.651 A  
HETATM   14  C   UNL     1     -13.177  12.841  71.934  1.00  0.00    -0.511 A  
HETATM   15  C   UNL     1     -12.457  13.011  70.741  1.00  0.00    -0.302 A  
HETATM   16  S   UNL     1     -11.677  11.826  69.768  1.00  0.00    -0.325 SA 
ENDBRANCH   7   8
ENDBRANCH   3   7
TORSDOF 2
ENDMDL
MODEL        3
REMARK 921   NORMALIZED FREE ENERGY PREDICTED BY IDOCK:   -5.86 KCAL/MOL
REMARK 922        TOTAL FREE ENERGY PREDICTED BY IDOCK:   -6.73 KCAL/MOL
REMARK 923 INTER-LIGAND FREE ENERGY PREDICTED BY IDOCK:   -6.58 KCAL/MOL
REMARK 924 INTRA-LIGAND FREE ENERGY PREDICTED BY IDOCK:   -0.15 KCAL/MOL
REMARK 927      BINDING AFFINITY PREDICTED BY RF-SCORE:    0.00 PKD
ROOT
HETATM    1  C   UNL     1     -12.864  12.580  64.687  1.00  0.00    -0.236 C  
HETATM    2  C   UNL     1     -12.574  13.830  65.526  1.00  0.00    -0.512 C  
HETATM    3  N   UNL     1     -11.138  13.965  65.876  1.00  0.00    -0.290 N  
HETATM    4  O   UNL     1     -12.093  12.577  63.482  1.00  0.00    -0.493 OA 
HETATM    5  C   UNL     1     -10.335  13.827  64.636  1.00  0.00    -0.368 C  
HETATM    6  C   UNL     1     -10.701  12.589  63.808  1.00  0.00    -0.445 C  
ENDROOT
BRANCH   3   7
HETATM    7  S   UNL     1     -10.683  15.208  66.917  1.00  0.00    -0.311 SA 
BRANCH   7   8
HETATM    8  C   UNL     1     -11.459  14.765  68.437  1.00  0.00    -0.314 A  
HETATM    9  N   UNL     1     -12.014  15.641  69.245  1.00  0.00    -0.360 NA 
HETATM   10  C   UNL     1     -12.549  14.986  70.342  1.00  0.00    -0.350 A  
HETATM   11  C   UNL     1     -13.237  15.592  71.413  1.00  0.00    -0.587 A  
HETATM   12  C   UNL     1     -13.732  14.805  72.458  1.00  0.00    -0.572 A  
HETATM   13  C   UNL     1     -13.547  13.427  72.453  1.00  0.00    -0.708 A  
HETATM   14  C   UNL     1     -12.865  12.800  71.405  1.00  0.00    -0.371 A  
HETATM   15  C   UNL     1     -12.379  13.600  70.358  1.00  0.00    -0.345 A  
HETATM   16  S   UNL     1     -11.528  13.128  68.939  1.00  0.00    -0.317 SA 
ENDBRANCH   7   8
ENDBRANCH   3   7
TORSDOF 2
ENDMDL
MODEL        4
REMARK 921   NORMALIZED FREE ENERGY PREDICTED BY IDOCK:   -5.79 KCAL/MOL
REMARK 922        TOTAL FREE ENERGY PREDICTED BY IDOCK:   -6.66 KCAL/MOL
REMARK 923 INTER-LIGAND FREE ENERGY PREDICTED BY IDOCK:   -6.47 KCAL/MOL
REMARK 924 INTRA-LIGAND FREE ENERGY PREDICTED BY IDOCK:   -0.19 KCAL/MOL
REMARK 927      BINDING AFFINITY PREDICTED BY RF-SCORE:    0.00 PKD
ROOT
HETATM    1  C   UNL     1      -9.559  19.402  68.721  1.00  0.00    -0.432 C  
HETATM    2  C   UNL     1      -9.382  17.912  68.408  1.00  0.00    -0.288 C  
HETATM    3  N   UNL     1     -10.422  17.392  67.486  1.00  0.00    -0.354 N  
HETATM    4  O   UNL     1      -9.547  20.186  67.524  1.00  0.00    -0.370 OA 
HETATM    5  C   UNL     1     -10.498  18.289  66.305  1.00  0.00    -0.376 C  
HETATM    6  C   UNL     1     -10.621  19.772  66.675  1.00  0.00    -0.462 C  
ENDROOT
BRANCH   3   7
HETATM    7  S   UNL     1     -10.450  15.739  67.162  1.00  0.00    -0.311 SA 
BRANCH   7   8
HETATM    8  C   UNL     1     -11.300  15.071  68.554  1.00  0.00    -0.303 A  
HETATM    9  N   UNL     1     -12.030  15.798  69.370  1.00  0.00    -0.356 NA 
HETATM   10  C   UNL     1     -12.579  14.987  70.350  1.00  0.00    -0.350 A  
HETATM   11  C   UNL     1     -13.430  15.407  71.392  1.00  0.00    -0.607 A  
HETATM   12  C   UNL     1     -13.918  14.475  72.313  1.00  0.00    -0.600 A  
HETATM   13  C   UNL     1     -13.565  13.134  72.214  1.00  0.00    -0.677 A  
HETATM   14  C   UNL     1     -12.719  12.690  71.193  1.00  0.00    -0.347 A  
HETATM   15  C   UNL     1     -12.241  13.634  70.269  1.00  0.00    -0.353 A  
HETATM   16  S   UNL     1     -11.213  13.396  68.911  1.00  0.00    -0.285 SA 
ENDBRANCH   7   8
ENDBRANCH   3   7
TORSDOF 2
ENDMDL
MODEL        5
REMARK 921   NORMALIZED FREE ENERGY PREDICTED BY IDOCK:   -5.76 KCAL/MOL
REMARK 922        TOTAL FREE ENERGY PREDICTED BY IDOCK:   -6.63 KCAL/MOL
REMARK 923 INTER-LIGAND FREE ENERGY PREDICTED BY IDOCK:   -6.43 KCAL/MOL
REMARK 924 INTRA-LIGAND FREE ENERGY PREDICTED BY IDOCK:   -0.20 KCAL/MOL
REMARK 927      BINDING AFFINITY PREDICTED BY RF-SCORE:    0.00 PKD
ROOT
HETATM    1  C   UNL     1     -13.258  12.562  71.600  1.00  0.00    -0.284 C  
HETATM    2  C   UNL     1     -12.180  13.302  70.800  1.00  0.00    -0.308 C  
HETATM    3  N   UNL     1     -12.682  14.557  70.185  1.00  0.00    -0.285 N  
HETATM    4  O   UNL     1     -13.799  13.396  72.630  1.00  0.00    -0.726 OA 
HETATM    5  C   UNL     1     -13.362  15.357  71.234  1.00  0.00    -0.520 C  
HETATM    6  C   UNL     1     -14.392  14.555  72.039  1.00  0.00    -0.558 C  
ENDROOT
BRANCH   3   7
HETATM    7  S   UNL     1     -11.658  15.406  69.153  1.00  0.00    -0.357 SA 
BRANCH   7   8
HETATM    8  C   UNL     1     -11.475  14.317  67.779  1.00  0.00    -0.329 A  
HETATM    9  N   UNL     1     -12.351  14.236  66.803  1.00  0.00    -0.363 NA 
HETATM   10  C   UNL     1     -11.921  13.308  65.870  1.00  0.00    -0.419 A  
HETATM   11  C   UNL     1     -12.589  12.960  64.678  1.00  0.00    -0.459 A  
HETATM   12  C   UNL     1     -12.035  12.005  63.820  1.00  0.00    -0.588 A  
HETATM   13  C   UNL     1     -10.829  11.388  64.135  1.00  0.00    -0.431 A  
HETATM   14  C   UNL     1     -10.146  11.711  65.313  1.00  0.00    -0.305 A  
HETATM   15  C   UNL     1     -10.709  12.677  66.162  1.00  0.00    -0.267 A  
HETATM   16  S   UNL     1     -10.108  13.291  67.653  1.00  0.00    -0.233 SA 
ENDBRANCH   7   8
ENDBRANCH   3   7
TORSDOF 2
ENDMDL
MODEL        6
REMARK 921   NORMALIZED FREE ENERGY PREDICTED BY IDOCK:   -5.66 KCAL/MOL
REMARK 922        TOTAL FREE ENERGY PREDICTED BY IDOCK:   -6.52 KCAL/MOL
REMARK 923 INTER-LIGAND FREE ENERGY PREDICTED BY IDOCK:   -6.34 KCAL/MOL
REMARK 924 INTRA-LIGAND FREE ENERGY PREDICTED BY IDOCK:   -0.17 KCAL/MOL
REMARK 927      BINDING AFFINITY PREDICTED BY RF-SCORE:    0.00 PKD
ROOT
HETATM    1  C   UNL     1     -11.778  12.680  68.375  1.00  0.00    -0.333 C  
HETATM    2  C   UNL     1     -11.795  13.646  67.186  1.00  0.00    -0.396 C  
HETATM    3  N   UNL     1     -10.810  13.283  66.137  1.00  0.00    -0.279 N  
HETATM    4  O   UNL     1     -12.029  11.336  67.952  1.00  0.00    -0.630 OA 
HETATM    5  C   UNL     1     -10.988  11.849  65.798  1.00  0.00    -0.311 C  
HETATM    6  C   UNL     1     -11.016  10.932  67.027  1.00  0.00    -0.247 C  
ENDROOT
BRANCH   3   7
HETATM    7  S   UNL     1     -10.606  14.331  64.834  1.00  0.00    -0.410 SA 
BRANCH   7   8
HETATM    8  C   UNL     1     -10.177  15.856  65.607  1.00  0.00    -0.379 A  
HETATM    9  N   UNL     1     -10.762  16.998  65.322  1.00  0.00    -0.617 NA 
HETATM   10  C   UNL     1     -10.219  18.005  66.102  1.00  0.00    -0.363 A  
HETATM   11  C   UNL     1     -10.602  19.362  66.088  1.00  0.00    -0.571 A  
HETATM   12  C   UNL     1      -9.969  20.275  66.938  1.00  0.00    -0.592 A  
HETATM   13  C   UNL     1      -8.959  19.856  67.796  1.00  0.00    -0.402 A  
HETATM   14  C   UNL     1      -8.556  18.517  67.828  1.00  0.00    -0.286 A  
HETATM   15  C   UNL     1      -9.203  17.609  66.975  1.00  0.00    -0.250 A  
HETATM   16  S   UNL     1      -8.947  15.917  66.800  1.00  0.00    -0.278 SA 
ENDBRANCH   7   8
ENDBRANCH   3   7
TORSDOF 2
ENDMDL
MODEL        7
REMARK 921   NORMALIZED FREE ENERGY PREDICTED BY IDOCK:   -5.59 KCAL/MOL
REMARK 922        TOTAL FREE ENERGY PREDICTED BY IDOCK:   -6.43 KCAL/MOL
REMARK 923 INTER-LIGAND FREE ENERGY PREDICTED BY IDOCK:   -6.24 KCAL/MOL
REMARK 924 INTRA-LIGAND FREE ENERGY PREDICTED BY IDOCK:   -0.19 KCAL/MOL
REMARK 927      BINDING AFFINITY PREDICTED BY RF-SCORE:    0.00 PKD
ROOT
HETATM    1  C   UNL     1      -7.602  17.551  66.466  1.00  0.00    -0.276 C  
HETATM    2  C   UNL     1      -8.517  16.328  66.332  1.00  0.00    -0.330 C  
HETATM    3  N   UNL     1      -9.866  16.556  66.909  1.00  0.00    -0.248 N  
HETATM    4  O   UNL     1      -8.183  18.701  65.843  1.00  0.00    -0.488 OA 
HETATM    5  C   UNL     1     -10.408  17.823  66.359  1.00  0.00    -0.351 C  
HETATM    6  C   UNL     1      -9.433  19.001  66.471  1.00  0.00    -0.345 C  
ENDROOT
BRANCH   3   7
HETATM    7  S   UNL     1     -10.938  15.258  66.971  1.00  0.00    -0.302 SA 
BRANCH   7   8
HETATM    8  C   UNL     1     -11.417  15.210  68.667  1.00  0.00    -0.325 A  
HETATM    9  N   UNL     1     -12.209  14.288  69.166  1.00  0.00    -0.289 NA 
HETATM   10  C   UNL     1     -12.385  14.512  70.521  1.00  0.00    -0.337 A  
HETATM   11  C   UNL     1     -13.156  13.722  71.398  1.00  0.00    -0.413 A  
HETATM   12  C   UNL     1     -13.241  14.063  72.752  1.00  0.00    -0.580 A  
HETATM   13  C   UNL     1     -12.574  15.180  73.242  1.00  0.00    -0.615 A  
HETATM   14  C   UNL     1     -11.805  15.984  72.394  1.00  0.00    -0.639 A  
HETATM   15  C   UNL     1     -11.721  15.627  71.038  1.00  0.00    -0.403 A  
HETATM   16  S   UNL     1     -10.851  16.396  69.768  1.00  0.00    -0.298 SA 
ENDBRANCH   7   8
ENDBRANCH   3   7
TORSDOF 2
ENDMDL
MODEL        8
REMARK 921   NORMALIZED FREE ENERGY PREDICTED BY IDOCK:   -5.56 KCAL/MOL
REMARK 922        TOTAL FREE ENERGY PREDICTED BY IDOCK:   -6.40 KCAL/MOL
REMARK 923 INTER-LIGAND FREE ENERGY PREDICTED BY IDOCK:   -6.20 KCAL/MOL
REMARK 924 INTRA-LIGAND FREE ENERGY PREDICTED BY IDOCK:   -0.20 KCAL/MOL
REMARK 927      BINDING AFFINITY PREDICTED BY RF-SCORE:    0.00 PKD
ROOT
HETATM    1  C   UNL     1     -10.893  17.041  65.095  1.00  0.00    -0.049 C  
HETATM    2  C   UNL     1     -10.125  15.982  65.895  1.00  0.00    -0.353 C  
HETATM    3  N   UNL     1     -10.962  14.807  66.242  1.00  0.00    -0.325 N  
HETATM    4  O   UNL     1     -11.432  16.486  63.891  1.00  0.00    -1.145 OA 
HETATM    5  C   UNL     1     -11.626  14.318  65.008  1.00  0.00    -0.367 C  
HETATM    6  C   UNL     1     -12.334  15.426  64.219  1.00  0.00    -0.061 C  
ENDROOT
BRANCH   3   7
HETATM    7  S   UNL     1     -10.303  13.625  67.246  1.00  0.00    -0.250 SA 
BRANCH   7   8
HETATM    8  C   UNL     1     -11.067  13.946  68.802  1.00  0.00    -0.265 A  
HETATM    9  N   UNL     1     -10.943  15.087  69.443  1.00  0.00    -0.255 NA 
HETATM   10  C   UNL     1     -11.668  15.037  70.622  1.00  0.00    -0.308 A  
HETATM   11  C   UNL     1     -11.788  16.078  71.566  1.00  0.00    -0.554 A  
HETATM   12  C   UNL     1     -12.561  15.892  72.716  1.00  0.00    -0.567 A  
HETATM   13  C   UNL     1     -13.211  14.684  72.942  1.00  0.00    -0.609 A  
HETATM   14  C   UNL     1     -13.107  13.633  72.024  1.00  0.00    -0.484 A  
HETATM   15  C   UNL     1     -12.333  13.834  70.870  1.00  0.00    -0.380 A  
HETATM   16  S   UNL     1     -12.032  12.753  69.566  1.00  0.00    -0.233 SA 
ENDBRANCH   7   8
ENDBRANCH   3   7
TORSDOF 2
ENDMDL
MODEL        9
REMARK 921   NORMALIZED FREE ENERGY PREDICTED BY IDOCK:   -5.54 KCAL/MOL
REMARK 922        TOTAL FREE ENERGY PREDICTED BY IDOCK:   -6.38 KCAL/MOL
REMARK 923 INTER-LIGAND FREE ENERGY PREDICTED BY IDOCK:   -6.39 KCAL/MOL
REMARK 924 INTRA-LIGAND FREE ENERGY PREDICTED BY IDOCK:    0.01 KCAL/MOL
REMARK 927      BINDING AFFINITY PREDICTED BY RF-SCORE:    0.00 PKD
ROOT
HETATM    1  C   UNL     1     -12.003  12.167  64.366  1.00  0.00    -0.361 C  
HETATM    2  C   UNL     1     -11.267  12.152  65.711  1.00  0.00    -0.339 C  
HETATM    3  N   UNL     1     -10.634  13.455  66.032  1.00  0.00    -0.283 N  
HETATM    4  O   UNL     1     -13.005  13.187  64.337  1.00  0.00    -0.665 OA 
HETATM    5  C   UNL     1     -11.647  14.527  65.870  1.00  0.00    -0.349 C  
HETATM    6  C   UNL     1     -12.389  14.464  64.529  1.00  0.00    -0.418 C  
ENDROOT
BRANCH   3   7
HETATM    7  S   UNL     1      -9.665  13.556  67.407  1.00  0.00    -0.235 SA 
BRANCH   7   8
HETATM    8  C   UNL     1     -10.828  13.848  68.699  1.00  0.00    -0.262 A  
HETATM    9  N   UNL     1     -11.343  12.888  69.435  1.00  0.00    -0.233 NA 
HETATM   10  C   UNL     1     -12.207  13.434  70.370  1.00  0.00    -0.345 A  
HETATM   11  C   UNL     1     -12.934  12.718  71.343  1.00  0.00    -0.359 A  
HETATM   12  C   UNL     1     -13.770  13.402  72.232  1.00  0.00    -0.705 A  
HETATM   13  C   UNL     1     -13.895  14.785  72.162  1.00  0.00    -0.578 A  
HETATM   14  C   UNL     1     -13.188  15.520  71.204  1.00  0.00    -0.576 A  
HETATM   15  C   UNL     1     -12.347  14.823  70.322  1.00  0.00    -0.345 A  
HETATM   16  S   UNL     1     -11.348  15.440  69.064  1.00  0.00    -0.340 SA 
ENDBRANCH   7   8
ENDBRANCH   3   7
TORSDOF 2
ENDMDL
MODEL       10
REMARK 921   NORMALIZED FREE ENERGY PREDICTED BY IDOCK:   -5.53 KCAL/MOL
REMARK 922        TOTAL FREE ENERGY PREDICTED BY IDOCK:   -6.37 KCAL/MOL
REMARK 923 INTER-LIGAND FREE ENERGY PREDICTED BY IDOCK:   -6.18 KCAL/MOL
REMARK 924 INTRA-LIGAND FREE ENERGY PREDICTED BY IDOCK:   -0.20 KCAL/MOL
REMARK 927      BINDING AFFINITY PREDICTED BY RF-SCORE:    0.00 PKD
ROOT
HETATM    1  C   UNL     1     -10.228  12.150  64.135  1.00  0.00    -0.343 C  
HETATM    2  C   UNL     1     -10.322  12.307  65.657  1.00  0.00    -0.257 C  
HETATM    3  N   UNL     1     -11.104  13.501  66.063  1.00  0.00    -0.292 N  
HETATM    4  O   UNL     1     -11.528  12.072  63.543  1.00  0.00    -0.425 OA 
HETATM    5  C   UNL     1     -12.401  13.484  65.341  1.00  0.00    -0.478 C  
HETATM    6  C   UNL     1     -12.253  13.272  63.829  1.00  0.00    -0.439 C  
ENDROOT
BRANCH   3   7
HETATM    7  S   UNL     1     -11.174  13.893  67.699  1.00  0.00    -0.309 SA 
BRANCH   7   8
HETATM    8  C   UNL     1     -10.789  15.613  67.719  1.00  0.00    -0.307 A  
HETATM    9  N   UNL     1     -10.734  16.352  66.633  1.00  0.00    -0.233 NA 
HETATM   10  C   UNL     1     -10.425  17.658  66.975  1.00  0.00    -0.305 A  
HETATM   11  C   UNL     1     -10.295  18.740  66.080  1.00  0.00    -0.494 A  
HETATM   12  C   UNL     1      -9.984  20.014  66.567  1.00  0.00    -0.603 A  
HETATM   13  C   UNL     1      -9.796  20.223  67.928  1.00  0.00    -0.492 A  
HETATM   14  C   UNL     1      -9.916  19.167  68.838  1.00  0.00    -0.481 A  
HETATM   15  C   UNL     1     -10.235  17.894  68.339  1.00  0.00    -0.394 A  
HETATM   16  S   UNL     1     -10.465  16.420  69.196  1.00  0.00    -0.323 SA 
ENDBRANCH   7   8
ENDBRANCH   3   7
TORSDOF 2
ENDMDL
MODEL       11
REMARK 921   NORMALIZED FREE ENERGY PREDICTED BY IDOCK:   -5.53 KCAL/MOL
REMARK 922        TOTAL FREE ENERGY PREDICTED BY IDOCK:   -6.37 KCAL/MOL
REMARK 923 INTER-LIGAND FREE ENERGY PREDICTED BY IDOCK:   -6.17 KCAL/MOL
REMARK 924 INTRA-LIGAND FREE ENERGY PREDICTED BY IDOCK:   -0.20 KCAL/MOL
REMARK 927      BINDING AFFINITY PREDICTED BY RF-SCORE:    0.00 PKD
ROOT
HETATM    1  C   UNL     1     -14.226  15.396  72.102  1.00  0.00    -0.565 C  
HETATM    2  C   UNL     1     -13.231  14.778  71.113  1.00  0.00    -0.393 C  
HETATM    3  N   UNL     1     -11.917  15.469  71.114  1.00  0.00    -0.343 N  
HETATM    4  O   UNL     1     -13.702  15.389  73.433  1.00  0.00    -0.348 OA 
HETATM    5  C   UNL     1     -11.442  15.578  72.516  1.00  0.00    -0.335 C  
HETATM    6  C   UNL     1     -12.493  16.153  73.472  1.00  0.00    -0.564 C  
ENDROOT
BRANCH   3   7
HETATM    7  S   UNL     1     -10.767  15.000  69.977  1.00  0.00    -0.145 SA 
BRANCH   7   8
HETATM    8  C   UNL     1     -10.598  16.430  68.960  1.00  0.00    -0.308 A  
HETATM    9  N   UNL     1     -10.335  17.626  69.438  1.00  0.00    -0.165 NA 
HETATM   10  C   UNL     1     -10.249  18.533  68.395  1.00  0.00    -0.372 A  
HETATM   11  C   UNL     1      -9.965  19.909  68.515  1.00  0.00    -0.507 A  
HETATM   12  C   UNL     1      -9.903  20.711  67.370  1.00  0.00    -0.527 A  
HETATM   13  C   UNL     1     -10.124  20.164  66.112  1.00  0.00    -0.532 A  
HETATM   14  C   UNL     1     -10.411  18.803  65.964  1.00  0.00    -0.483 A  
HETATM   15  C   UNL     1     -10.464  18.006  67.119  1.00  0.00    -0.367 A  
HETATM   16  S   UNL     1     -10.772  16.319  67.259  1.00  0.00    -0.215 SA 
ENDBRANCH   7   8
ENDBRANCH   3   7
TORSDOF 2
ENDMDL
MODEL       12
REMARK 921   NORMALIZED FREE ENERGY PREDICTED BY IDOCK:   -5.43 KCAL/MOL
REMARK 922        TOTAL FREE ENERGY PREDICTED BY IDOCK:   -6.26 KCAL/MOL
REMARK 923 INTER-LIGAND FREE ENERGY PREDICTED BY IDOCK:   -6.05 KCAL/MOL
REMARK 924 INTRA-LIGAND FREE ENERGY PREDICTED BY IDOCK:   -0.21 KCAL/MOL
REMARK 927      BINDING AFFINITY PREDICTED BY RF-SCORE:    0.00 PKD
ROOT
HETATM    1  C   UNL     1     -10.574  17.025  65.411  1.00  0.00    -0.134 C  
HETATM    2  C   UNL     1      -9.757  15.833  65.924  1.00  0.00    -0.354 C  
HETATM    3  N   UNL     1     -10.571  14.601  66.070  1.00  0.00    -0.298 N  
HETATM    4  O   UNL     1     -11.190  16.727  64.155  1.00  0.00    -1.155 OA 
HETATM    5  C   UNL     1     -11.313  14.371  64.805  1.00  0.00    -0.388 C  
HETATM    6  C   UNL     1     -12.070  15.610  64.310  1.00  0.00    -0.063 C  
ENDROOT
BRANCH   3   7
HETATM    7  S   UNL     1      -9.851  13.245  66.761  1.00  0.00    -0.270 SA 
BRANCH   7   8
HETATM    8  C   UNL     1     -10.814  12.972  68.212  1.00  0.00    -0.246 A  
HETATM    9  N   UNL     1     -11.122  11.774  68.658  1.00  0.00    -0.220 NA 
HETATM   10  C   UNL     1     -11.870  11.889  69.818  1.00  0.00    -0.340 A  
HETATM   11  C   UNL     1     -12.369  10.821  70.591  1.00  0.00    -0.465 A  
HETATM   12  C   UNL     1     -13.108  11.083  71.749  1.00  0.00    -0.554 A  
HETATM   13  C   UNL     1     -13.362  12.392  72.143  1.00  0.00    -0.508 A  
HETATM   14  C   UNL     1     -12.882  13.471  71.393  1.00  0.00    -0.440 A  
HETATM   15  C   UNL     1     -12.135  13.195  70.237  1.00  0.00    -0.328 A  
HETATM   16  S   UNL     1     -11.405  14.293  69.131  1.00  0.00    -0.292 SA 
ENDBRANCH   7   8
ENDBRANCH   3   7
TORSDOF 2
ENDMDL
MODEL       13
REMARK 921   NORMALIZED FREE ENERGY PREDICTED BY IDOCK:   -5.37 KCAL/MOL
REMARK 922        TOTAL FREE ENERGY PREDICTED BY IDOCK:   -6.19 KCAL/MOL
REMARK 923 INTER-LIGAND FREE ENERGY PREDICTED BY IDOCK:   -6.00 KCAL/MOL
REMARK 924 INTRA-LIGAND FREE ENERGY PREDICTED BY IDOCK:   -0.19 KCAL/MOL
REMARK 927      BINDING AFFINITY PREDICTED BY RF-SCORE:    0.00 PKD
ROOT
HETATM    1  C   UNL     1     -12.286  14.469  64.357  1.00  0.00    -0.458 C  
HETATM    2  C   UNL     1     -11.028  14.137  65.169  1.00  0.00    -0.356 C  
HETATM    3  N   UNL     1     -10.980  12.717  65.597  1.00  0.00    -0.269 N  
HETATM    4  O   UNL     1     -12.387  13.634  63.200  1.00  0.00    -0.729 OA 
HETATM    5  C   UNL     1     -11.220  11.858  64.411  1.00  0.00    -0.336 C  
HETATM    6  C   UNL     1     -12.460  12.265  63.606  1.00  0.00    -0.541 C  
ENDROOT
BRANCH   3   7
HETATM    7  S   UNL     1      -9.733  12.233  66.621  1.00  0.00    -0.226 SA 
BRANCH   7   8
HETATM    8  C   UNL     1     -10.584  11.720  68.077  1.00  0.00    -0.206 A  
HETATM    9  N   UNL     1     -11.245  12.548  68.855  1.00  0.00    -0.265 NA 
HETATM   10  C   UNL     1     -11.814  11.845  69.904  1.00  0.00    -0.343 A  
HETATM   11  C   UNL     1     -12.610  12.390  70.932  1.00  0.00    -0.337 A  
HETATM   12  C   UNL     1     -13.127  11.558  71.930  1.00  0.00    -0.492 A  
HETATM   13  C   UNL     1     -12.859  10.194  71.921  1.00  0.00    -0.526 A  
HETATM   14  C   UNL     1     -12.070   9.627  70.915  1.00  0.00    -0.383 A  
HETATM   15  C   UNL     1     -11.562  10.471  69.915  1.00  0.00    -0.307 A  
HETATM   16  S   UNL     1     -10.588  10.073  68.553  1.00  0.00    -0.226 SA 
ENDBRANCH   7   8
ENDBRANCH   3   7
TORSDOF 2
ENDMDL
MODEL       14
REMARK 921   NORMALIZED FREE ENERGY PREDICTED BY IDOCK:   -5.37 KCAL/MOL
REMARK 922        TOTAL FREE ENERGY PREDICTED BY IDOCK:   -6.19 KCAL/MOL
REMARK 923 INTER-LIGAND FREE ENERGY PREDICTED BY IDOCK:   -5.97 KCAL/MOL
REMARK 924 INTRA-LIGAND FREE ENERGY PREDICTED BY IDOCK:   -0.22 KCAL/MOL
REMARK 927      BINDING AFFINITY PREDICTED BY RF-SCORE:    0.00 PKD
ROOT
HETATM    1  C   UNL     1     -12.125  14.636  64.364  1.00  0.00    -0.462 C  
HETATM    2  C   UNL     1     -10.803  14.265  65.048  1.00  0.00    -0.403 C  
HETATM    3  N   UNL     1     -10.796  12.875  65.568  1.00  0.00    -0.271 N  
HETATM    4  O   UNL     1     -12.418  13.739  63.289  1.00  0.00    -0.819 OA 
HETATM    5  C   UNL     1     -11.232  11.962  64.483  1.00  0.00    -0.319 C  
HETATM    6  C   UNL     1     -12.531  12.407  63.798  1.00  0.00    -0.492 C  
ENDROOT
BRANCH   3   7
HETATM    7  S   UNL     1      -9.470  12.368  66.474  1.00  0.00    -0.238 SA 
BRANCH   7   8
HETATM    8  C   UNL     1     -10.211  11.602  67.879  1.00  0.00    -0.189 A  
HETATM    9  N   UNL     1      -9.624  10.654  68.576  1.00  0.00    -0.168 NA 
HETATM   10  C   UNL     1     -10.447  10.269  69.620  1.00  0.00    -0.253 A  
HETATM   11  C   UNL     1     -10.152   9.290  70.590  1.00  0.00    -0.339 A  
HETATM   12  C   UNL     1     -11.078   9.004  71.599  1.00  0.00    -0.433 A  
HETATM   13  C   UNL     1     -12.295   9.676  71.650  1.00  0.00    -0.489 A  
HETATM   14  C   UNL     1     -12.615  10.650  70.699  1.00  0.00    -0.454 A  
HETATM   15  C   UNL     1     -11.674  10.933  69.696  1.00  0.00    -0.331 A  
HETATM   16  S   UNL     1     -11.769  12.075  68.413  1.00  0.00    -0.312 SA 
ENDBRANCH   7   8
ENDBRANCH   3   7
TORSDOF 2
ENDMDL
MODEL       15
REMARK 921   NORMALIZED FREE ENERGY PREDICTED BY IDOCK:   -5.33 KCAL/MOL
REMARK 922        TOTAL FREE ENERGY PREDICTED BY IDOCK:   -6.14 KCAL/MOL
REMARK 923 INTER-LIGAND FREE ENERGY PREDICTED BY IDOCK:   -5.93 KCAL/MOL
REMARK 924 INTRA-LIGAND FREE ENERGY PREDICTED BY IDOCK:   -0.21 KCAL/MOL
REMARK 927      BINDING AFFINITY PREDICTED BY RF-SCORE:    0.00 PKD
ROOT
HETATM    1  C   UNL     1     -10.296  12.075  63.765  1.00  0.00    -0.426 C  
HETATM    2  C   UNL     1     -10.143  12.314  65.272  1.00  0.00    -0.271 C  
HETATM    3  N   UNL     1     -11.113  13.308  65.796  1.00  0.00    -0.279 N  
HETATM    4  O   UNL     1     -11.621  11.641  63.444  1.00  0.00    -0.395 OA 
HETATM    5  C   UNL     1     -12.473  12.924  65.345  1.00  0.00    -0.454 C  
HETATM    6  C   UNL     1     -12.559  12.646  63.839  1.00  0.00    -0.337 C  
ENDROOT
BRANCH   3   7
HETATM    7  S   UNL     1     -10.974  13.787  67.405  1.00  0.00    -0.289 SA 
BRANCH   7   8
HETATM    8  C   UNL     1     -10.758  15.533  67.288  1.00  0.00    -0.308 A  
HETATM    9  N   UNL     1     -10.616  16.313  68.337  1.00  0.00    -0.285 NA 
HETATM   10  C   UNL     1     -10.452  17.624  67.921  1.00  0.00    -0.392 A  
HETATM   11  C   UNL     1     -10.256  18.740  68.759  1.00  0.00    -0.318 A  
HETATM   12  C   UNL     1     -10.097  20.013  68.201  1.00  0.00    -0.547 A  
HETATM   13  C   UNL     1     -10.137  20.188  66.822  1.00  0.00    -0.591 A  
HETATM   14  C   UNL     1     -10.334  19.099  65.967  1.00  0.00    -0.538 A  
HETATM   15  C   UNL     1     -10.484  17.825  66.539  1.00  0.00    -0.297 A  
HETATM   16  S   UNL     1     -10.720  16.309  65.761  1.00  0.00    -0.202 SA 
ENDBRANCH   7   8
ENDBRANCH   3   7
TORSDOF 2
ENDMDL
MODEL       16
REMARK 921   NORMALIZED FREE ENERGY PREDICTED BY IDOCK:   -5.33 KCAL/MOL
REMARK 922        TOTAL FREE ENERGY PREDICTED BY IDOCK:   -6.14 KCAL/MOL
REMARK 923 INTER-LIGAND FREE ENERGY PREDICTED BY IDOCK:   -5.96 KCAL/MOL
REMARK 924 INTRA-LIGAND FREE ENERGY PREDICTED BY IDOCK:   -0.17 KCAL/MOL
REMARK 927      BINDING AFFINITY PREDICTED BY RF-SCORE:    0.00 PKD
ROOT
HETATM    1  C   UNL     1     -13.666  14.931  71.551  1.00  0.00    -0.450 C  
HETATM    2  C   UNL     1     -13.100  13.509  71.458  1.00  0.00    -0.344 C  
HETATM    3  N   UNL     1     -12.257  13.305  70.254  1.00  0.00    -0.340 N  
HETATM    4  O   UNL     1     -12.617  15.904  71.552  1.00  0.00    -0.444 OA 
HETATM    5  C   UNL     1     -11.254  14.397  70.188  1.00  0.00    -0.099 C  
HETATM    6  C   UNL     1     -11.867  15.795  70.339  1.00  0.00    -0.368 C  
ENDROOT
BRANCH   3   7
HETATM    7  S   UNL     1     -11.683  11.754  69.933  1.00  0.00    -0.298 SA 
BRANCH   7   8
HETATM    8  C   UNL     1     -11.473  11.756  68.183  1.00  0.00    -0.316 A  
HETATM    9  N   UNL     1     -12.154  12.539  67.376  1.00  0.00    -0.455 NA 
HETATM   10  C   UNL     1     -11.754  12.318  66.069  1.00  0.00    -0.388 A  
HETATM   11  C   UNL     1     -12.249  12.982  64.928  1.00  0.00    -0.490 A  
HETATM   12  C   UNL     1     -11.748  12.662  63.662  1.00  0.00    -0.597 A  
HETATM   13  C   UNL     1     -10.768  11.687  63.516  1.00  0.00    -0.495 A  
HETATM   14  C   UNL     1     -10.261  11.010  64.631  1.00  0.00    -0.392 A  
HETATM   15  C   UNL     1     -10.767  11.345  65.897  1.00  0.00    -0.255 A  
HETATM   16  S   UNL     1     -10.337  10.710  67.437  1.00  0.00    -0.234 SA 
ENDBRANCH   7   8
ENDBRANCH   3   7
TORSDOF 2
ENDMDL
MODEL       17
REMARK 921   NORMALIZED FREE ENERGY PREDICTED BY IDOCK:   -5.26 KCAL/MOL
REMARK 922        TOTAL FREE ENERGY PREDICTED BY IDOCK:   -6.07 KCAL/MOL
REMARK 923 INTER-LIGAND FREE ENERGY PREDICTED BY IDOCK:   -5.90 KCAL/MOL
REMARK 924 INTRA-LIGAND FREE ENERGY PREDICTED BY IDOCK:   -0.17 KCAL/MOL
REMARK 927      BINDING AFFINITY PREDICTED BY RF-SCORE:    0.00 PKD
ROOT
HETATM    1  C   UNL     1     -11.784   6.273  71.845  1.00  0.00    -0.316 C  
HETATM    2  C   UNL     1     -11.517   7.151  70.617  1.00  0.00    -0.308 C  
HETATM    3  N   UNL     1     -11.249   8.567  70.973  1.00  0.00    -0.260 N  
HETATM    4  O   UNL     1     -10.686   6.320  72.761  1.00  0.00    -0.220 OA 
HETATM    5  C   UNL     1     -10.202   8.602  72.023  1.00  0.00    -0.337 C  
HETATM    6  C   UNL     1     -10.493   7.666  73.203  1.00  0.00    -0.374 C  
ENDROOT
BRANCH   3   7
HETATM    7  S   UNL     1     -11.083   9.687  69.725  1.00  0.00    -0.183 SA 
BRANCH   7   8
HETATM    8  C   UNL     1     -11.833  11.139  70.383  1.00  0.00    -0.369 A  
HETATM    9  N   UNL     1     -11.589  12.347  69.925  1.00  0.00    -0.236 NA 
HETATM   10  C   UNL     1     -12.338  13.272  70.634  1.00  0.00    -0.339 A  
HETATM   11  C   UNL     1     -12.353  14.665  70.418  1.00  0.00    -0.399 A  
HETATM   12  C   UNL     1     -13.165  15.485  71.209  1.00  0.00    -0.588 A  
HETATM   13  C   UNL     1     -13.957  14.937  72.213  1.00  0.00    -0.602 A  
HETATM   14  C   UNL     1     -13.958  13.559  72.451  1.00  0.00    -0.638 A  
HETATM   15  C   UNL     1     -13.144  12.745  71.646  1.00  0.00    -0.331 A  
HETATM   16  S   UNL     1     -12.946  11.037  71.683  1.00  0.00    -0.397 SA 
ENDBRANCH   7   8
ENDBRANCH   3   7
TORSDOF 2
ENDMDL
MODEL       18
REMARK 921   NORMALIZED FREE ENERGY PREDICTED BY IDOCK:   -5.25 KCAL/MOL
REMARK 922        TOTAL FREE ENERGY PREDICTED BY IDOCK:   -6.05 KCAL/MOL
REMARK 923 INTER-LIGAND FREE ENERGY PREDICTED BY IDOCK:   -5.85 KCAL/MOL
REMARK 924 INTRA-LIGAND FREE ENERGY PREDICTED BY IDOCK:   -0.20 KCAL/MOL
REMARK 927      BINDING AFFINITY PREDICTED BY RF-SCORE:    0.00 PKD
ROOT
HETATM    1  C   UNL     1     -11.006  11.593  64.767  1.00  0.00    -0.289 C  
HETATM    2  C   UNL     1     -11.202  12.139  66.186  1.00  0.00    -0.338 C  
HETATM    3  N   UNL     1     -11.365  13.614  66.215  1.00  0.00    -0.306 N  
HETATM    4  O   UNL     1     -12.101  11.953  63.920  1.00  0.00    -0.420 OA 
HETATM    5  C   UNL     1     -12.411  13.994  65.233  1.00  0.00    -0.475 C  
HETATM    6  C   UNL     1     -12.195  13.379  63.845  1.00  0.00    -0.415 C  
ENDROOT
BRANCH   3   7
HETATM    7  S   UNL     1     -11.443  14.381  67.713  1.00  0.00    -0.353 SA 
BRANCH   7   8
HETATM    8  C   UNL     1     -10.633  15.919  67.422  1.00  0.00    -0.315 A  
HETATM    9  N   UNL     1     -11.161  17.081  67.736  1.00  0.00    -0.193 NA 
HETATM   10  C   UNL     1     -10.281  18.096  67.399  1.00  0.00    -0.372 A  
HETATM   11  C   UNL     1     -10.492  19.476  67.599  1.00  0.00    -0.593 A  
HETATM   12  C   UNL     1      -9.510  20.395  67.214  1.00  0.00    -0.568 A  
HETATM   13  C   UNL     1      -8.326  19.960  66.629  1.00  0.00    -0.369 A  
HETATM   14  C   UNL     1      -8.092  18.597  66.415  1.00  0.00    -0.300 A  
HETATM   15  C   UNL     1      -9.082  17.684  66.812  1.00  0.00    -0.260 A  
HETATM   16  S   UNL     1      -9.080  15.967  66.700  1.00  0.00    -0.280 SA 
ENDBRANCH   7   8
ENDBRANCH   3   7
TORSDOF 2
ENDMDL
MODEL       19
REMARK 921   NORMALIZED FREE ENERGY PREDICTED BY IDOCK:   -5.23 KCAL/MOL
REMARK 922        TOTAL FREE ENERGY PREDICTED BY IDOCK:   -6.03 KCAL/MOL
REMARK 923 INTER-LIGAND FREE ENERGY PREDICTED BY IDOCK:   -6.05 KCAL/MOL
REMARK 924 INTRA-LIGAND FREE ENERGY PREDICTED BY IDOCK:    0.02 KCAL/MOL
REMARK 927      BINDING AFFINITY PREDICTED BY RF-SCORE:    0.00 PKD
ROOT
HETATM    1  C   UNL     1     -10.207  19.838  68.071  1.00  0.00    -0.451 C  
HETATM    2  C   UNL     1     -10.093  18.468  68.749  1.00  0.00    -0.356 C  
HETATM    3  N   UNL     1     -10.738  17.384  67.966  1.00  0.00    -0.390 N  
HETATM    4  O   UNL     1      -9.637  19.814  66.759  1.00  0.00    -0.339 OA 
HETATM    5  C   UNL     1     -10.241  17.450  66.569  1.00  0.00    -0.329 C  
HETATM    6  C   UNL     1     -10.330  18.854  65.957  1.00  0.00    -0.429 C  
ENDROOT
BRANCH   3   7
HETATM    7  S   UNL     1     -10.825  15.847  68.648  1.00  0.00    -0.310 SA 
BRANCH   7   8
HETATM    8  C   UNL     1     -10.952  14.789  67.244  1.00  0.00    -0.318 A  
HETATM    9  N   UNL     1     -12.099  14.437  66.709  1.00  0.00    -0.412 NA 
HETATM   10  C   UNL     1     -11.869  13.617  65.616  1.00  0.00    -0.364 A  
HETATM   11  C   UNL     1     -12.855  13.055  64.780  1.00  0.00    -0.336 A  
HETATM   12  C   UNL     1     -12.479  12.246  63.703  1.00  0.00    -0.647 A  
HETATM   13  C   UNL     1     -11.136  11.986  63.451  1.00  0.00    -0.476 A  
HETATM   14  C   UNL     1     -10.137  12.528  64.267  1.00  0.00    -0.298 A  
HETATM   15  C   UNL     1     -10.527  13.344  65.341  1.00  0.00    -0.302 A  
HETATM   16  S   UNL     1      -9.545  14.158  66.495  1.00  0.00    -0.292 SA 
ENDBRANCH   7   8
ENDBRANCH   3   7
TORSDOF 2
ENDMDL
MODEL       20
REMARK 921   NORMALIZED FREE ENERGY PREDICTED BY IDOCK:   -5.22 KCAL/MOL
REMARK 922        TOTAL FREE ENERGY PREDICTED BY IDOCK:   -6.02 KCAL/MOL
REMARK 923 INTER-LIGAND FREE ENERGY PREDICTED BY IDOCK:   -5.80 KCAL/MOL
REMARK 924 INTRA-LIGAND FREE ENERGY PREDICTED BY IDOCK:   -0.22 KCAL/MOL
REMARK 927      BINDING AFFINITY PREDICTED BY RF-SCORE:    0.00 PKD
ROOT
HETATM    1  C   UNL     1      -9.878   7.306  71.905  1.00  0.00    -0.162 C  
HETATM    2  C   UNL     1     -11.023   8.040  72.612  1.00  0.00    -0.382 C  
HETATM    3  N   UNL     1     -12.148   8.363  71.699  1.00  0.00    -0.297 N  
HETATM    4  O   UNL     1     -10.339   6.097  71.296  1.00  0.00    -0.205 OA 
HETATM    5  C   UNL     1     -12.533   7.130  70.969  1.00  0.00    -0.316 C  
HETATM    6  C   UNL     1     -11.343   6.407  70.326  1.00  0.00    -0.403 C  
ENDROOT
BRANCH   3   7
HETATM    7  S   UNL     1     -13.416   9.299  72.293  1.00  0.00    -0.467 SA 
BRANCH   7   8
HETATM    8  C   UNL     1     -13.057  10.908  71.669  1.00  0.00    -0.433 A  
HETATM    9  N   UNL     1     -13.533  12.010  72.204  1.00  0.00    -0.396 NA 
HETATM   10  C   UNL     1     -13.061  13.107  71.502  1.00  0.00    -0.315 A  
HETATM   11  C   UNL     1     -13.343  14.459  71.789  1.00  0.00    -0.446 A  
HETATM   12  C   UNL     1     -12.791  15.470  70.996  1.00  0.00    -0.543 A  
HETATM   13  C   UNL     1     -11.969  15.155  69.921  1.00  0.00    -0.372 A  
HETATM   14  C   UNL     1     -11.676  13.823  69.610  1.00  0.00    -0.379 A  
HETATM   15  C   UNL     1     -12.229  12.816  70.418  1.00  0.00    -0.293 A  
HETATM   16  S   UNL     1     -12.042  11.110  70.302  1.00  0.00    -0.391 SA 
ENDBRANCH   7   8
ENDBRANCH   3   7
TORSDOF 2
ENDMDL
MODEL       21
REMARK 921   NORMALIZED FREE ENERGY PREDICTED BY IDOCK:   -5.19 KCAL/MOL
REMARK 922        TOTAL FREE ENERGY PREDICTED BY IDOCK:   -5.98 KCAL/MOL
REMARK 923 INTER-LIGAND FREE ENERGY PREDICTED BY IDOCK:   -5.75 KCAL/MOL
REMARK 924 INTRA-LIGAND FREE ENERGY PREDICTED BY IDOCK:   -0.23 KCAL/MOL
REMARK 927      BINDING AFFINITY PREDICTED BY RF-SCORE:    0.00 PKD
ROOT
HETATM    1  C   UNL     1     -10.287  18.583  66.565  1.00  0.00    -0.414 C  
HETATM    2  C   UNL     1     -10.438  17.220  67.249  1.00  0.00    -0.319 C  
HETATM    3  N   UNL     1      -9.138  16.645  67.676  1.00  0.00    -0.206 N  
HETATM    4  O   UNL     1      -9.627  19.520  67.422  1.00  0.00    -0.313 OA 
HETATM    5  C   UNL     1      -8.399  17.671  68.453  1.00  0.00    -0.290 C  
HETATM    6  C   UNL     1      -8.322  19.030  67.746  1.00  0.00    -0.288 C  
ENDROOT
BRANCH   3   7
HETATM    7  S   UNL     1      -9.124  15.085  68.311  1.00  0.00    -0.188 SA 
BRANCH   7   8
HETATM    8  C   UNL     1     -10.449  15.110  69.473  1.00  0.00    -0.260 A  
HETATM    9  N   UNL     1     -10.425  15.822  70.578  1.00  0.00    -0.170 NA 
HETATM   10  C   UNL     1     -11.611  15.645  71.270  1.00  0.00    -0.428 A  
HETATM   11  C   UNL     1     -11.957  16.259  72.491  1.00  0.00    -0.648 A  
HETATM   12  C   UNL     1     -13.198  15.992  73.079  1.00  0.00    -0.590 A  
HETATM   13  C   UNL     1     -14.095  15.121  72.471  1.00  0.00    -0.535 A  
HETATM   14  C   UNL     1     -13.776  14.495  71.261  1.00  0.00    -0.407 A  
HETATM   15  C   UNL     1     -12.530  14.776  70.677  1.00  0.00    -0.345 A  
HETATM   16  S   UNL     1     -11.867  14.185  69.204  1.00  0.00    -0.351 SA 
ENDBRANCH   7   8
ENDBRANCH   3   7
TORSDOF 2
ENDMDL
MODEL       22
REMARK 921   NORMALIZED FREE ENERGY PREDICTED BY IDOCK:   -5.13 KCAL/MOL
REMARK 922        TOTAL FREE ENERGY PREDICTED BY IDOCK:   -5.92 KCAL/MOL
REMARK 923 INTER-LIGAND FREE ENERGY PREDICTED BY IDOCK:   -5.70 KCAL/MOL
REMARK 924 INTRA-LIGAND FREE ENERGY PREDICTED BY IDOCK:   -0.22 KCAL/MOL
REMARK 927      BINDING AFFINITY PREDICTED BY RF-SCORE:    0.00 PKD
ROOT
HETATM    1  C   UNL     1     -12.236  15.385  73.003  1.00  0.00    -0.432 C  
HETATM    2  C   UNL     1     -11.571  15.271  71.627  1.00  0.00    -0.408 C  
HETATM    3  N   UNL     1     -12.422  14.567  70.635  1.00  0.00    -0.323 N  
HETATM    4  O   UNL     1     -13.495  16.059  72.914  1.00  0.00    -0.533 OA 
HETATM    5  C   UNL     1     -13.770  15.187  70.645  1.00  0.00    -0.042 C  
HETATM    6  C   UNL     1     -14.367  15.324  72.051  1.00  0.00    -0.589 C  
ENDROOT
BRANCH   3   7
HETATM    7  S   UNL     1     -11.772  14.233  69.118  1.00  0.00    -0.341 SA 
BRANCH   7   8
HETATM    8  C   UNL     1     -10.785  15.654  68.780  1.00  0.00    -0.250 A  
HETATM    9  N   UNL     1     -11.285  16.796  68.364  1.00  0.00    -0.271 NA 
HETATM   10  C   UNL     1     -10.265  17.719  68.204  1.00  0.00    -0.382 A  
HETATM   11  C   UNL     1     -10.415  19.057  67.785  1.00  0.00    -0.499 A  
HETATM   12  C   UNL     1      -9.293  19.883  67.672  1.00  0.00    -0.464 A  
HETATM   13  C   UNL     1      -8.024  19.395  67.965  1.00  0.00    -0.340 A  
HETATM   14  C   UNL     1      -7.845  18.070  68.378  1.00  0.00    -0.300 A  
HETATM   15  C   UNL     1      -8.980  17.252  68.495  1.00  0.00    -0.273 A  
HETATM   16  S   UNL     1      -9.084  15.608  68.990  1.00  0.00    -0.257 SA 
ENDBRANCH   7   8
ENDBRANCH   3   7
TORSDOF 2
ENDMDL
MODEL       23
REMARK 921   NORMALIZED FREE ENERGY PREDICTED BY IDOCK:   -5.12 KCAL/MOL
REMARK 922        TOTAL FREE ENERGY PREDICTED BY IDOCK:   -5.91 KCAL/MOL
REMARK 923 INTER-LIGAND FREE ENERGY PREDICTED BY IDOCK:   -5.85 KCAL/MOL
REMARK 924 INTRA-LIGAND FREE ENERGY PREDICTED BY IDOCK:   -0.06 KCAL/MOL
REMARK 927      BINDING AFFINITY PREDICTED BY RF-SCORE:    0.00 PKD
ROOT
HETATM    1  C   UNL     1     -11.326   8.485  71.227  1.00  0.00    -0.271 C  
HETATM    2  C   UNL     1     -10.920   9.927  70.897  1.00  0.00    -0.322 C  
HETATM    3  N   UNL     1     -12.069  10.761  70.463  1.00  0.00    -0.334 N  
HETATM    4  O   UNL     1     -12.331   8.453  72.245  1.00  0.00    -0.349 OA 
HETATM    5  C   UNL     1     -13.161  10.616  71.458  1.00  0.00    -0.424 C  
HETATM    6  C   UNL     1     -13.491   9.155  71.790  1.00  0.00    -0.416 C  
ENDROOT
BRANCH   3   7
HETATM    7  S   UNL     1     -11.761  12.327  69.925  1.00  0.00    -0.217 SA 
BRANCH   7   8
HETATM    8  C   UNL     1     -11.474  12.111  68.199  1.00  0.00    -0.317 A  
HETATM    9  N   UNL     1     -12.188  12.709  67.271  1.00  0.00    -0.386 NA 
HETATM   10  C   UNL     1     -11.712  12.352  66.020  1.00  0.00    -0.410 A  
HETATM   11  C   UNL     1     -12.214  12.805  64.782  1.00  0.00    -0.517 A  
HETATM   12  C   UNL     1     -11.630  12.366  63.590  1.00  0.00    -0.580 A  
HETATM   13  C   UNL     1     -10.559  11.480  63.612  1.00  0.00    -0.491 A  
HETATM   14  C   UNL     1     -10.043  11.011  64.825  1.00  0.00    -0.367 A  
HETATM   15  C   UNL     1     -10.633  11.465  66.016  1.00  0.00    -0.266 A  
HETATM   16  S   UNL     1     -10.216  11.089  67.642  1.00  0.00    -0.189 SA 
ENDBRANCH   7   8
ENDBRANCH   3   7
TORSDOF 2
ENDMDL
MODEL       24
REMARK 921   NORMALIZED FREE ENERGY PREDICTED BY IDOCK:   -5.08 KCAL/MOL
REMARK 922        TOTAL FREE ENERGY PREDICTED BY IDOCK:   -5.87 KCAL/MOL
REMARK 923 INTER-LIGAND FREE ENERGY PREDICTED BY IDOCK:   -5.70 KCAL/MOL
REMARK 924 INTRA-LIGAND FREE ENERGY PREDICTED BY IDOCK:   -0.16 KCAL/MOL
REMARK 927      BINDING AFFINITY PREDICTED BY RF-SCORE:    0.00 PKD
ROOT
HETATM    1  C   UNL     1      -7.823  18.339  68.794  1.00  0.00    -0.260 C  
HETATM    2  C   UNL     1      -8.319  17.202  67.893  1.00  0.00    -0.207 C  
HETATM    3  N   UNL     1      -9.784  16.985  67.997  1.00  0.00    -0.253 N  
HETATM    4  O   UNL     1      -8.494  19.566  68.492  1.00  0.00    -0.346 OA 
HETATM    5  C   UNL     1     -10.469  18.289  67.816  1.00  0.00    -0.410 C  
HETATM    6  C   UNL     1      -9.900  19.403  68.703  1.00  0.00    -0.443 C  
ENDROOT
BRANCH   3   7
HETATM    7  S   UNL     1     -10.458  15.675  67.180  1.00  0.00    -0.306 SA 
BRANCH   7   8
HETATM    8  C   UNL     1     -11.205  14.736  68.471  1.00  0.00    -0.276 A  
HETATM    9  N   UNL     1     -11.188  13.422  68.508  1.00  0.00    -0.266 NA 
HETATM   10  C   UNL     1     -11.841  12.982  69.648  1.00  0.00    -0.319 A  
HETATM   11  C   UNL     1     -12.012  11.638  70.038  1.00  0.00    -0.429 A  
HETATM   12  C   UNL     1     -12.691  11.336  71.223  1.00  0.00    -0.510 A  
HETATM   13  C   UNL     1     -13.206  12.352  72.019  1.00  0.00    -0.514 A  
HETATM   14  C   UNL     1     -13.055  13.694  71.654  1.00  0.00    -0.455 A  
HETATM   15  C   UNL     1     -12.365  13.985  70.467  1.00  0.00    -0.367 A  
HETATM   16  S   UNL     1     -12.006  15.517  69.770  1.00  0.00    -0.343 SA 
ENDBRANCH   7   8
ENDBRANCH   3   7
TORSDOF 2
ENDMDL
MODEL       25
REMARK 921   NORMALIZED FREE ENERGY PREDICTED BY IDOCK:   -5.08 KCAL/MOL
REMARK 922        TOTAL FREE ENERGY PREDICTED BY IDOCK:   -5.87 KCAL/MOL
REMARK 923 INTER-LIGAND FREE ENERGY PREDICTED BY IDOCK:   -5.68 KCAL/MOL
REMARK 924 INTRA-LIGAND FREE ENERGY PREDICTED BY IDOCK:   -0.19 KCAL/MOL
REMARK 927      BINDING AFFINITY PREDICTED BY RF-SCORE:    0.00 PKD
ROOT
HETATM    1  C   UNL     1      -9.006   8.023  73.315  1.00  0.00    -0.272 C  
HETATM    2  C   UNL     1     -10.462   7.991  72.835  1.00  0.00    -0.332 C  
HETATM    3  N   UNL     1     -10.719   8.937  71.720  1.00  0.00    -0.341 N  
HETATM    4  O   UNL     1      -8.104   7.731  72.244  1.00  0.00    -0.100 OA 
HETATM    5  C   UNL     1      -9.695   8.718  70.669  1.00  0.00    -0.197 C  
HETATM    6  C   UNL     1      -8.260   8.707  71.211  1.00  0.00    -0.154 C  
ENDROOT
BRANCH   3   7
HETATM    7  S   UNL     1     -12.304   9.124  71.181  1.00  0.00    -0.230 SA 
BRANCH   7   8
HETATM    8  C   UNL     1     -12.517  10.874  71.156  1.00  0.00    -0.405 A  
HETATM    9  N   UNL     1     -13.225  11.526  72.051  1.00  0.00    -0.462 NA 
HETATM   10  C   UNL     1     -13.190  12.883  71.772  1.00  0.00    -0.384 A  
HETATM   11  C   UNL     1     -13.819  13.899  72.519  1.00  0.00    -0.620 A  
HETATM   12  C   UNL     1     -13.694  15.235  72.123  1.00  0.00    -0.598 A  
HETATM   13  C   UNL     1     -12.958  15.570  70.993  1.00  0.00    -0.550 A  
HETATM   14  C   UNL     1     -12.327  14.582  70.230  1.00  0.00    -0.408 A  
HETATM   15  C   UNL     1     -12.453  13.245  70.642  1.00  0.00    -0.298 A  
HETATM   16  S   UNL     1     -11.787  11.827  69.932  1.00  0.00    -0.327 SA 
ENDBRANCH   7   8
ENDBRANCH   3   7
TORSDOF 2
ENDMDL
MODEL       26
REMARK 921   NORMALIZED FREE ENERGY PREDICTED BY IDOCK:   -5.06 KCAL/MOL
REMARK 922        TOTAL FREE ENERGY PREDICTED BY IDOCK:   -5.84 KCAL/MOL
REMARK 923 INTER-LIGAND FREE ENERGY PREDICTED BY IDOCK:   -5.63 KCAL/MOL
REMARK 924 INTRA-LIGAND FREE ENERGY PREDICTED BY IDOCK:   -0.21 KCAL/MOL
REMARK 927      BINDING AFFINITY PREDICTED BY RF-SCORE:    0.00 PKD
ROOT
HETATM    1  C   UNL     1      -8.198  19.774  67.170  1.00  0.00    -0.298 C  
HETATM    2  C   UNL     1      -8.250  18.328  67.678  1.00  0.00    -0.250 C  
HETATM    3  N   UNL     1      -9.581  17.960  68.223  1.00  0.00    -0.299 N  
HETATM    4  O   UNL     1      -9.188  20.002  66.163  1.00  0.00    -0.375 OA 
HETATM    5  C   UNL     1     -10.617  18.325  67.225  1.00  0.00    -0.381 C  
HETATM    6  C   UNL     1     -10.487  19.764  66.711  1.00  0.00    -0.489 C  
ENDROOT
BRANCH   3   7
HETATM    7  S   UNL     1      -9.756  16.452  68.954  1.00  0.00    -0.266 SA 
BRANCH   7   8
HETATM    8  C   UNL     1     -10.252  15.412  67.620  1.00  0.00    -0.246 A  
HETATM    9  N   UNL     1     -11.490  15.008  67.443  1.00  0.00    -0.339 NA 
HETATM   10  C   UNL     1     -11.563  14.221  66.306  1.00  0.00    -0.372 A  
HETATM   11  C   UNL     1     -12.729  13.620  65.788  1.00  0.00    -0.470 A  
HETATM   12  C   UNL     1     -12.658  12.851  64.622  1.00  0.00    -0.459 A  
HETATM   13  C   UNL     1     -11.444  12.667  63.970  1.00  0.00    -0.475 A  
HETATM   14  C   UNL     1     -10.271  13.247  64.464  1.00  0.00    -0.332 A  
HETATM   15  C   UNL     1     -10.356  14.024  65.631  1.00  0.00    -0.329 A  
HETATM   16  S   UNL     1      -9.110  14.870  66.462  1.00  0.00    -0.254 SA 
ENDBRANCH   7   8
ENDBRANCH   3   7
TORSDOF 2
ENDMDL
MODEL       27
REMARK 921   NORMALIZED FREE ENERGY PREDICTED BY IDOCK:   -5.04 KCAL/MOL
REMARK 922        TOTAL FREE ENERGY PREDICTED BY IDOCK:   -5.82 KCAL/MOL
REMARK 923 INTER-LIGAND FREE ENERGY PREDICTED BY IDOCK:   -5.61 KCAL/MOL
REMARK 924 INTRA-LIGAND FREE ENERGY PREDICTED BY IDOCK:   -0.21 KCAL/MOL
REMARK 927      BINDING AFFINITY PREDICTED BY RF-SCORE:    0.00 PKD
ROOT
HETATM    1  C   UNL     1     -10.025  20.045  66.508  1.00  0.00    -0.479 C  
HETATM    2  C   UNL     1     -10.773  19.095  67.451  1.00  0.00    -0.481 C  
HETATM    3  N   UNL     1      -9.900  18.027  68.000  1.00  0.00    -0.307 N  
HETATM    4  O   UNL     1      -8.910  20.653  67.167  1.00  0.00    -0.321 OA 
HETATM    5  C   UNL     1      -8.681  18.658  68.564  1.00  0.00    -0.332 C  
HETATM    6  C   UNL     1      -8.001  19.637  67.599  1.00  0.00    -0.285 C  
ENDROOT
BRANCH   3   7
HETATM    7  S   UNL     1     -10.609  16.819  68.936  1.00  0.00    -0.349 SA 
BRANCH   7   8
HETATM    8  C   UNL     1     -10.882  15.519  67.777  1.00  0.00    -0.309 A  
HETATM    9  N   UNL     1     -10.502  15.583  66.520  1.00  0.00    -0.294 NA 
HETATM   10  C   UNL     1     -10.843  14.408  65.872  1.00  0.00    -0.304 A  
HETATM   11  C   UNL     1     -10.584  14.101  64.521  1.00  0.00    -0.285 A  
HETATM   12  C   UNL     1     -10.981  12.867  63.996  1.00  0.00    -0.447 A  
HETATM   13  C   UNL     1     -11.637  11.938  64.796  1.00  0.00    -0.302 A  
HETATM   14  C   UNL     1     -11.910  12.217  66.140  1.00  0.00    -0.398 A  
HETATM   15  C   UNL     1     -11.500  13.457  66.657  1.00  0.00    -0.344 A  
HETATM   16  S   UNL     1     -11.674  14.076  68.252  1.00  0.00    -0.370 SA 
ENDBRANCH   7   8
ENDBRANCH   3   7
TORSDOF 2
ENDMDL
MODEL       28
REMARK 921   NORMALIZED FREE ENERGY PREDICTED BY IDOCK:   -5.03 KCAL/MOL
REMARK 922        TOTAL FREE ENERGY PREDICTED BY IDOCK:   -5.81 KCAL/MOL
REMARK 923 INTER-LIGAND FREE ENERGY PREDICTED BY IDOCK:   -5.61 KCAL/MOL
REMARK 924 INTRA-LIGAND FREE ENERGY PREDICTED BY IDOCK:   -0.20 KCAL/MOL
REMARK 927      BINDING AFFINITY PREDICTED BY RF-SCORE:    0.00 PKD
ROOT
HETATM    1  C   UNL     1     -10.243  10.724  65.865  1.00  0.00    -0.259 C  
HETATM    2  C   UNL     1     -10.780  12.151  65.711  1.00  0.00    -0.267 C  
HETATM    3  N   UNL     1     -10.349  13.048  66.812  1.00  0.00    -0.252 N  
HETATM    4  O   UNL     1      -8.814  10.715  65.935  1.00  0.00    -0.162 OA 
HETATM    5  C   UNL     1      -8.878  12.932  66.968  1.00  0.00    -0.208 C  
HETATM    6  C   UNL     1      -8.389  11.482  67.065  1.00  0.00    -0.165 C  
ENDROOT
BRANCH   3   7
HETATM    7  S   UNL     1     -10.978  14.610  66.864  1.00  0.00    -0.331 SA 
BRANCH   7   8
HETATM    8  C   UNL     1     -11.460  14.796  68.549  1.00  0.00    -0.308 A  
HETATM    9  N   UNL     1     -12.209  13.923  69.185  1.00  0.00    -0.332 NA 
HETATM   10  C   UNL     1     -12.399  14.340  70.492  1.00  0.00    -0.360 A  
HETATM   11  C   UNL     1     -13.135  13.655  71.481  1.00  0.00    -0.431 A  
HETATM   12  C   UNL     1     -13.240  14.192  72.769  1.00  0.00    -0.604 A  
HETATM   13  C   UNL     1     -12.628  15.400  73.082  1.00  0.00    -0.580 A  
HETATM   14  C   UNL     1     -11.895  16.102  72.120  1.00  0.00    -0.626 A  
HETATM   15  C   UNL     1     -11.791  15.550  70.833  1.00  0.00    -0.371 A  
HETATM   16  S   UNL     1     -10.955  16.159  69.458  1.00  0.00    -0.355 SA 
ENDBRANCH   7   8
ENDBRANCH   3   7
TORSDOF 2
ENDMDL
MODEL       29
REMARK 921   NORMALIZED FREE ENERGY PREDICTED BY IDOCK:   -5.00 KCAL/MOL
REMARK 922        TOTAL FREE ENERGY PREDICTED BY IDOCK:   -5.77 KCAL/MOL
REMARK 923 INTER-LIGAND FREE ENERGY PREDICTED BY IDOCK:   -5.66 KCAL/MOL
REMARK 924 INTRA-LIGAND FREE ENERGY PREDICTED BY IDOCK:   -0.12 KCAL/MOL
REMARK 927      BINDING AFFINITY PREDICTED BY RF-SCORE:    0.00 PKD
ROOT
HETATM    1  C   UNL     1     -11.406  11.494  67.193  1.00  0.00    -0.284 C  
HETATM    2  C   UNL     1     -11.666  12.369  68.425  1.00  0.00    -0.336 C  
HETATM    3  N   UNL     1     -11.287  13.788  68.210  1.00  0.00    -0.268 N  
HETATM    4  O   UNL     1     -12.107  11.991  66.050  1.00  0.00    -0.561 OA 
HETATM    5  C   UNL     1     -11.911  14.258  66.949  1.00  0.00    -0.438 C  
HETATM    6  C   UNL     1     -11.664  13.320  65.761  1.00  0.00    -0.359 C  
ENDROOT
BRANCH   3   7
HETATM    7  S   UNL     1     -11.376  14.845  69.519  1.00  0.00    -0.298 SA 
BRANCH   7   8
HETATM    8  C   UNL     1     -10.609  16.310  68.906  1.00  0.00    -0.284 A  
HETATM    9  N   UNL     1     -11.273  17.277  68.315  1.00  0.00    -0.062 NA 
HETATM   10  C   UNL     1     -10.399  18.292  67.963  1.00  0.00    -0.391 A  
HETATM   11  C   UNL     1     -10.745  19.500  67.324  1.00  0.00    -0.604 A  
HETATM   12  C   UNL     1      -9.756  20.444  67.031  1.00  0.00    -0.588 A  
HETATM   13  C   UNL     1      -8.427  20.200  67.361  1.00  0.00    -0.398 A  
HETATM   14  C   UNL     1      -8.054  19.008  67.992  1.00  0.00    -0.328 A  
HETATM   15  C   UNL     1      -9.058  18.071  68.287  1.00  0.00    -0.278 A  
HETATM   16  S   UNL     1      -8.918  16.543  69.064  1.00  0.00    -0.179 SA 
ENDBRANCH   7   8
ENDBRANCH   3   7
TORSDOF 2
ENDMDL
MODEL       30
REMARK 921   NORMALIZED FREE ENERGY PREDICTED BY IDOCK:   -4.98 KCAL/MOL
REMARK 922        TOTAL FREE ENERGY PREDICTED BY IDOCK:   -5.75 KCAL/MOL
REMARK 923 INTER-LIGAND FREE ENERGY PREDICTED BY IDOCK:   -5.56 KCAL/MOL
REMARK 924 INTRA-LIGAND FREE ENERGY PREDICTED BY IDOCK:   -0.19 KCAL/MOL
REMARK 927      BINDING AFFINITY PREDICTED BY RF-SCORE:    0.00 PKD
ROOT
HETATM    1  C   UNL     1     -13.117  12.598  71.535  1.00  0.00    -0.278 C  
HETATM    2  C   UNL     1     -12.038  13.331  70.729  1.00  0.00    -0.226 C  
HETATM    3  N   UNL     1     -12.522  14.612  70.155  1.00  0.00    -0.333 N  
HETATM    4  O   UNL     1     -13.615  13.420  72.595  1.00  0.00    -0.635 OA 
HETATM    5  C   UNL     1     -13.159  15.403  71.237  1.00  0.00    -0.493 C  
HETATM    6  C   UNL     1     -14.192  14.608  72.045  1.00  0.00    -0.537 C  
ENDROOT
BRANCH   3   7
HETATM    7  S   UNL     1     -11.499  15.461  69.121  1.00  0.00    -0.357 SA 
BRANCH   7   8
HETATM    8  C   UNL     1     -11.238  14.331  67.794  1.00  0.00    -0.291 A  
HETATM    9  N   UNL     1     -10.189  13.542  67.716  1.00  0.00    -0.238 NA 
HETATM   10  C   UNL     1     -10.278  12.765  66.573  1.00  0.00    -0.253 A  
HETATM   11  C   UNL     1      -9.346  11.791  66.159  1.00  0.00    -0.236 A  
HETATM   12  C   UNL     1      -9.566  11.073  64.979  1.00  0.00    -0.291 A  
HETATM   13  C   UNL     1     -10.694  11.315  64.204  1.00  0.00    -0.436 A  
HETATM   14  C   UNL     1     -11.633  12.278  64.589  1.00  0.00    -0.404 A  
HETATM   15  C   UNL     1     -11.406  12.988  65.779  1.00  0.00    -0.301 A  
HETATM   16  S   UNL     1     -12.373  14.205  66.515  1.00  0.00    -0.250 SA 
ENDBRANCH   7   8
ENDBRANCH   3   7
TORSDOF 2
ENDMDL
MODEL       31
REMARK 921   NORMALIZED FREE ENERGY PREDICTED BY IDOCK:   -4.90 KCAL/MOL
REMARK 922        TOTAL FREE ENERGY PREDICTED BY IDOCK:   -5.67 KCAL/MOL
REMARK 923 INTER-LIGAND FREE ENERGY PREDICTED BY IDOCK:   -5.46 KCAL/MOL
REMARK 924 INTRA-LIGAND FREE ENERGY PREDICTED BY IDOCK:   -0.21 KCAL/MOL
REMARK 927      BINDING AFFINITY PREDICTED BY RF-SCORE:    0.00 PKD
ROOT
HETATM    1  C   UNL     1     -11.811  13.915  64.947  1.00  0.00    -0.387 C  
HETATM    2  C   UNL     1     -12.411  14.206  66.328  1.00  0.00    -0.422 C  
HETATM    3  N   UNL     1     -11.377  14.502  67.351  1.00  0.00    -0.340 N  
HETATM    4  O   UNL     1     -11.010  15.009  64.492  1.00  0.00    -0.321 OA 
HETATM    5  C   UNL     1     -10.468  15.546  66.816  1.00  0.00    -0.295 C  
HETATM    6  C   UNL     1      -9.938  15.229  65.412  1.00  0.00    -0.329 C  
ENDROOT
BRANCH   3   7
HETATM    7  S   UNL     1     -11.869  14.699  68.950  1.00  0.00    -0.291 SA 
BRANCH   7   8
HETATM    8  C   UNL     1     -11.823  13.057  69.591  1.00  0.00    -0.319 A  
HETATM    9  N   UNL     1     -12.552  12.661  70.610  1.00  0.00    -0.218 NA 
HETATM   10  C   UNL     1     -12.306  11.321  70.864  1.00  0.00    -0.388 A  
HETATM   11  C   UNL     1     -12.914  10.544  71.871  1.00  0.00    -0.553 A  
HETATM   12  C   UNL     1     -12.574   9.194  72.010  1.00  0.00    -0.463 A  
HETATM   13  C   UNL     1     -11.635   8.612  71.167  1.00  0.00    -0.330 A  
HETATM   14  C   UNL     1     -11.014   9.360  70.161  1.00  0.00    -0.282 A  
HETATM   15  C   UNL     1     -11.369  10.712  70.026  1.00  0.00    -0.324 A  
HETATM   16  S   UNL     1     -10.801  11.873  68.890  1.00  0.00    -0.198 SA 
ENDBRANCH   7   8
ENDBRANCH   3   7
TORSDOF 2
ENDMDL
MODEL       32
REMARK 921   NORMALIZED FREE ENERGY PREDICTED BY IDOCK:   -4.89 KCAL/MOL
REMARK 922        TOTAL FREE ENERGY PREDICTED BY IDOCK:   -5.65 KCAL/MOL
REMARK 923 INTER-LIGAND FREE ENERGY PREDICTED BY IDOCK:   -5.46 KCAL/MOL
REMARK 924 INTRA-LIGAND FREE ENERGY PREDICTED BY IDOCK:   -0.20 KCAL/MOL
REMARK 927      BINDING AFFINITY PREDICTED BY RF-SCORE:    0.00 PKD
ROOT
HETATM    1  C   UNL     1      -6.090  19.387  66.905  1.00  0.00    -0.169 C  
HETATM    2  C   UNL     1      -7.474  19.547  66.265  1.00  0.00    -0.280 C  
HETATM    3  N   UNL     1      -8.557  18.946  67.082  1.00  0.00    -0.276 N  
HETATM    4  O   UNL     1      -6.057  19.965  68.213  1.00  0.00    -0.230 OA 
HETATM    5  C   UNL     1      -8.434  19.448  68.473  1.00  0.00    -0.362 C  
HETATM    6  C   UNL     1      -7.018  19.311  69.046  1.00  0.00    -0.346 C  
ENDROOT
BRANCH   3   7
HETATM    7  S   UNL     1     -10.116  18.911  66.444  1.00  0.00    -0.429 SA 
BRANCH   7   8
HETATM    8  C   UNL     1     -10.487  17.189  66.380  1.00  0.00    -0.255 A  
HETATM    9  N   UNL     1     -10.483  16.492  65.265  1.00  0.00    -0.637 NA 
HETATM   10  C   UNL     1     -10.798  15.172  65.543  1.00  0.00    -0.364 A  
HETATM   11  C   UNL     1     -10.876  14.124  64.603  1.00  0.00    -0.401 A  
HETATM   12  C   UNL     1     -11.201  12.831  65.025  1.00  0.00    -0.333 A  
HETATM   13  C   UNL     1     -11.453  12.569  66.367  1.00  0.00    -0.418 A  
HETATM   14  C   UNL     1     -11.386  13.590  67.321  1.00  0.00    -0.339 A  
HETATM   15  C   UNL     1     -11.053  14.883  66.886  1.00  0.00    -0.337 A  
HETATM   16  S   UNL     1     -10.877  16.325  67.808  1.00  0.00    -0.281 SA 
ENDBRANCH   7   8
ENDBRANCH   3   7
TORSDOF 2
ENDMDL
MODEL       33
REMARK 921   NORMALIZED FREE ENERGY PREDICTED BY IDOCK:   -4.86 KCAL/MOL
REMARK 922        TOTAL FREE ENERGY PREDICTED BY IDOCK:   -5.62 KCAL/MOL
REMARK 923 INTER-LIGAND FREE ENERGY PREDICTED BY IDOCK:   -5.61 KCAL/MOL
REMARK 924 INTRA-LIGAND FREE ENERGY PREDICTED BY IDOCK:   -0.01 KCAL/MOL
REMARK 927      BINDING AFFINITY PREDICTED BY RF-SCORE:    0.00 PKD
ROOT
HETATM    1  C   UNL     1     -11.361   8.872  70.836  1.00  0.00    -0.283 C  
HETATM    2  C   UNL     1     -10.922  10.304  70.511  1.00  0.00    -0.270 C  
HETATM    3  N   UNL     1     -12.069  11.234  70.355  1.00  0.00    -0.360 N  
HETATM    4  O   UNL     1     -12.152   8.833  72.028  1.00  0.00    -0.331 OA 
HETATM    5  C   UNL     1     -12.958  11.090  71.535  1.00  0.00    -0.448 C  
HETATM    6  C   UNL     1     -13.323   9.633  71.847  1.00  0.00    -0.438 C  
ENDROOT
BRANCH   3   7
HETATM    7  S   UNL     1     -11.757  12.811  69.852  1.00  0.00    -0.191 SA 
BRANCH   7   8
HETATM    8  C   UNL     1     -11.561  12.646  68.108  1.00  0.00    -0.338 A  
HETATM    9  N   UNL     1     -10.990  11.606  67.542  1.00  0.00    -0.242 NA 
HETATM   10  C   UNL     1     -11.001  11.763  66.166  1.00  0.00    -0.307 A  
HETATM   11  C   UNL     1     -10.491  10.846  65.224  1.00  0.00    -0.299 A  
HETATM   12  C   UNL     1     -10.574  11.132  63.857  1.00  0.00    -0.431 A  
HETATM   13  C   UNL     1     -11.152  12.317  63.417  1.00  0.00    -0.487 A  
HETATM   14  C   UNL     1     -11.662  13.246  64.330  1.00  0.00    -0.454 A  
HETATM   15  C   UNL     1     -11.579  12.946  65.699  1.00  0.00    -0.361 A  
HETATM   16  S   UNL     1     -12.126  13.867  67.045  1.00  0.00    -0.366 SA 
ENDBRANCH   7   8
ENDBRANCH   3   7
TORSDOF 2
ENDMDL
MODEL       34
REMARK 921   NORMALIZED FREE ENERGY PREDICTED BY IDOCK:   -4.83 KCAL/MOL
REMARK 922        TOTAL FREE ENERGY PREDICTED BY IDOCK:   -5.58 KCAL/MOL
REMARK 923 INTER-LIGAND FREE ENERGY PREDICTED BY IDOCK:   -5.39 KCAL/MOL
REMARK 924 INTRA-LIGAND FREE ENERGY PREDICTED BY IDOCK:   -0.19 KCAL/MOL
REMARK 927      BINDING AFFINITY PREDICTED BY RF-SCORE:    0.00 PKD
ROOT
HETATM    1  C   UNL     1     -11.849   7.410  71.160  1.00  0.00    -0.301 C  
HETATM    2  C   UNL     1     -11.690   8.860  71.631  1.00  0.00    -0.341 C  
HETATM    3  N   UNL     1     -12.911   9.674  71.403  1.00  0.00    -0.356 N  
HETATM    4  O   UNL     1     -12.955   6.775  71.809  1.00  0.00    -0.349 OA 
HETATM    5  C   UNL     1     -14.076   8.945  71.962  1.00  0.00    -0.411 C  
HETATM    6  C   UNL     1     -14.158   7.485  71.500  1.00  0.00    -0.427 C  
ENDROOT
BRANCH   3   7
HETATM    7  S   UNL     1     -12.843  11.325  71.733  1.00  0.00    -0.263 SA 
BRANCH   7   8
HETATM    8  C   UNL     1     -12.384  12.027  70.182  1.00  0.00    -0.155 A  
HETATM    9  N   UNL     1     -12.111  11.306  69.118  1.00  0.00    -0.392 NA 
HETATM   10  C   UNL     1     -11.800  12.143  68.059  1.00  0.00    -0.285 A  
HETATM   11  C   UNL     1     -11.468  11.735  66.750  1.00  0.00    -0.352 A  
HETATM   12  C   UNL     1     -11.181  12.692  65.772  1.00  0.00    -0.347 A  
HETATM   13  C   UNL     1     -11.215  14.048  66.080  1.00  0.00    -0.318 A  
HETATM   14  C   UNL     1     -11.537  14.481  67.371  1.00  0.00    -0.406 A  
HETATM   15  C   UNL     1     -11.830  13.510  68.342  1.00  0.00    -0.373 A  
HETATM   16  S   UNL     1     -12.273  13.727  69.991  1.00  0.00    -0.319 SA 
ENDBRANCH   7   8
ENDBRANCH   3   7
TORSDOF 2
ENDMDL
MODEL       35
REMARK 921   NORMALIZED FREE ENERGY PREDICTED BY IDOCK:   -4.81 KCAL/MOL
REMARK 922        TOTAL FREE ENERGY PREDICTED BY IDOCK:   -5.56 KCAL/MOL
REMARK 923 INTER-LIGAND FREE ENERGY PREDICTED BY IDOCK:   -5.50 KCAL/MOL
REMARK 924 INTRA-LIGAND FREE ENERGY PREDICTED BY IDOCK:   -0.07 KCAL/MOL
REMARK 927      BINDING AFFINITY PREDICTED BY RF-SCORE:    0.00 PKD
ROOT
HETATM    1  C   UNL     1     -11.975  16.201  72.476  1.00  0.00    -0.561 C  
HETATM    2  C   UNL     1     -11.761  15.677  71.052  1.00  0.00    -0.403 C  
HETATM    3  N   UNL     1     -12.307  14.311  70.855  1.00  0.00    -0.335 N  
HETATM    4  O   UNL     1     -13.364  16.206  72.821  1.00  0.00    -0.449 OA 
HETATM    5  C   UNL     1     -13.709  14.288  71.340  1.00  0.00    -0.311 C  
HETATM    6  C   UNL     1     -13.875  14.872  72.749  1.00  0.00    -0.337 C  
ENDROOT
BRANCH   3   7
HETATM    7  S   UNL     1     -12.020  13.539  69.386  1.00  0.00    -0.309 SA 
BRANCH   7   8
HETATM    8  C   UNL     1     -11.763  11.859  69.856  1.00  0.00    -0.308 A  
HETATM    9  N   UNL     1     -12.444  11.267  70.812  1.00  0.00    -0.373 NA 
HETATM   10  C   UNL     1     -12.024   9.952  70.933  1.00  0.00    -0.345 A  
HETATM   11  C   UNL     1     -12.533   9.000  71.840  1.00  0.00    -0.454 A  
HETATM   12  C   UNL     1     -12.017   7.700  71.850  1.00  0.00    -0.331 A  
HETATM   13  C   UNL     1     -11.000   7.338  70.975  1.00  0.00    -0.272 A  
HETATM   14  C   UNL     1     -10.473   8.263  70.067  1.00  0.00    -0.231 A  
HETATM   15  C   UNL     1     -11.004   9.563  70.061  1.00  0.00    -0.251 A  
HETATM   16  S   UNL     1     -10.583  10.900  69.064  1.00  0.00    -0.225 SA 
ENDBRANCH   7   8
ENDBRANCH   3   7
TORSDOF 2
ENDMDL
MODEL       36
REMARK 921   NORMALIZED FREE ENERGY PREDICTED BY IDOCK:   -4.79 KCAL/MOL
REMARK 922        TOTAL FREE ENERGY PREDICTED BY IDOCK:   -5.54 KCAL/MOL
REMARK 923 INTER-LIGAND FREE ENERGY PREDICTED BY IDOCK:   -5.34 KCAL/MOL
REMARK 924 INTRA-LIGAND FREE ENERGY PREDICTED BY IDOCK:   -0.20 KCAL/MOL
REMARK 927      BINDING AFFINITY PREDICTED BY RF-SCORE:    0.00 PKD
ROOT
HETATM    1  C   UNL     1      -7.984  17.268  68.749  1.00  0.00    -0.250 C  
HETATM    2  C   UNL     1      -8.697  16.295  67.803  1.00  0.00    -0.179 C  
HETATM    3  N   UNL     1     -10.176  16.400  67.879  1.00  0.00    -0.260 N  
HETATM    4  O   UNL     1      -8.366  18.621  68.481  1.00  0.00    -0.327 OA 
HETATM    5  C   UNL     1     -10.556  17.827  67.734  1.00  0.00    -0.386 C  
HETATM    6  C   UNL     1      -9.777  18.763  68.667  1.00  0.00    -0.390 C  
ENDROOT
BRANCH   3   7
HETATM    7  S   UNL     1     -11.101  15.295  67.008  1.00  0.00    -0.267 SA 
BRANCH   7   8
HETATM    8  C   UNL     1     -11.554  14.102  68.223  1.00  0.00    -0.321 A  
HETATM    9  N   UNL     1     -12.021  14.423  69.409  1.00  0.00    -0.319 NA 
HETATM   10  C   UNL     1     -12.298  13.271  70.127  1.00  0.00    -0.236 A  
HETATM   11  C   UNL     1     -12.826  13.215  71.433  1.00  0.00    -0.401 A  
HETATM   12  C   UNL     1     -13.063  11.976  72.037  1.00  0.00    -0.456 A  
HETATM   13  C   UNL     1     -12.776  10.795  71.362  1.00  0.00    -0.544 A  
HETATM   14  C   UNL     1     -12.248  10.821  70.067  1.00  0.00    -0.409 A  
HETATM   15  C   UNL     1     -12.021  12.070  69.468  1.00  0.00    -0.283 A  
HETATM   16  S   UNL     1     -11.406  12.425  67.901  1.00  0.00    -0.311 SA 
ENDBRANCH   7   8
ENDBRANCH   3   7
TORSDOF 2
ENDMDL
MODEL       37
REMARK 921   NORMALIZED FREE ENERGY PREDICTED BY IDOCK:   -4.79 KCAL/MOL
REMARK 922        TOTAL FREE ENERGY PREDICTED BY IDOCK:   -5.54 KCAL/MOL
REMARK 923 INTER-LIGAND FREE ENERGY PREDICTED BY IDOCK:   -5.39 KCAL/MOL
REMARK 924 INTRA-LIGAND FREE ENERGY PREDICTED BY IDOCK:   -0.14 KCAL/MOL
REMARK 927      BINDING AFFINITY PREDICTED BY RF-SCORE:    0.00 PKD
ROOT
HETATM    1  C   UNL     1     -12.297   7.523  71.335  1.00  0.00    -0.345 C  
HETATM    2  C   UNL     1     -10.971   8.169  70.916  1.00  0.00    -0.242 C  
HETATM    3  N   UNL     1     -11.151   9.522  70.331  1.00  0.00    -0.259 N  
HETATM    4  O   UNL     1     -12.996   8.344  72.276  1.00  0.00    -0.336 OA 
HETATM    5  C   UNL     1     -11.992  10.327  71.252  1.00  0.00    -0.363 C  
HETATM    6  C   UNL     1     -13.280   9.613  71.680  1.00  0.00    -0.411 C  
ENDROOT
BRANCH   3   7
HETATM    7  S   UNL     1      -9.803  10.300  69.689  1.00  0.00    -0.151 SA 
BRANCH   7   8
HETATM    8  C   UNL     1     -10.385  10.898  68.136  1.00  0.00    -0.178 A  
HETATM    9  N   UNL     1      -9.943  10.453  66.981  1.00  0.00    -0.198 NA 
HETATM   10  C   UNL     1     -10.601  11.104  65.950  1.00  0.00    -0.234 A  
HETATM   11  C   UNL     1     -10.405  10.882  64.572  1.00  0.00    -0.417 A  
HETATM   12  C   UNL     1     -11.146  11.610  63.635  1.00  0.00    -0.506 A  
HETATM   13  C   UNL     1     -12.074  12.558  64.052  1.00  0.00    -0.557 A  
HETATM   14  C   UNL     1     -12.286  12.802  65.413  1.00  0.00    -0.532 A  
HETATM   15  C   UNL     1     -11.541  12.059  66.344  1.00  0.00    -0.313 A  
HETATM   16  S   UNL     1     -11.588  12.117  68.063  1.00  0.00    -0.349 SA 
ENDBRANCH   7   8
ENDBRANCH   3   7
TORSDOF 2
ENDMDL
MODEL       38
REMARK 921   NORMALIZED FREE ENERGY PREDICTED BY IDOCK:   -4.78 KCAL/MOL
REMARK 922        TOTAL FREE ENERGY PREDICTED BY IDOCK:   -5.53 KCAL/MOL
REMARK 923 INTER-LIGAND FREE ENERGY PREDICTED BY IDOCK:   -5.42 KCAL/MOL
REMARK 924 INTRA-LIGAND FREE ENERGY PREDICTED BY IDOCK:   -0.11 KCAL/MOL
REMARK 927      BINDING AFFINITY PREDICTED BY RF-SCORE:    0.00 PKD
ROOT
HETATM    1  C   UNL     1      -7.521  17.553  66.481  1.00  0.00    -0.274 C  
HETATM    2  C   UNL     1      -8.528  16.429  66.753  1.00  0.00    -0.244 C  
HETATM    3  N   UNL     1      -9.759  16.912  67.427  1.00  0.00    -0.243 N  
HETATM    4  O   UNL     1      -8.107  18.588  65.686  1.00  0.00    -0.445 OA 
HETATM    5  C   UNL     1     -10.287  18.074  66.670  1.00  0.00    -0.371 C  
HETATM    6  C   UNL     1      -9.228  19.144  66.380  1.00  0.00    -0.343 C  
ENDROOT
BRANCH   3   7
HETATM    7  S   UNL     1     -10.897  15.774  67.925  1.00  0.00    -0.319 SA 
BRANCH   7   8
HETATM    8  C   UNL     1     -10.721  14.482  66.739  1.00  0.00    -0.291 A  
HETATM    9  N   UNL     1     -10.305  13.274  67.046  1.00  0.00    -0.245 NA 
HETATM   10  C   UNL     1     -10.288  12.485  65.907  1.00  0.00    -0.263 A  
HETATM   11  C   UNL     1      -9.914  11.127  65.845  1.00  0.00    -0.285 A  
HETATM   12  C   UNL     1      -9.949  10.449  64.623  1.00  0.00    -0.408 A  
HETATM   13  C   UNL     1     -10.346  11.105  63.463  1.00  0.00    -0.446 A  
HETATM   14  C   UNL     1     -10.719  12.453  63.495  1.00  0.00    -0.473 A  
HETATM   15  C   UNL     1     -10.686  13.121  64.729  1.00  0.00    -0.364 A  
HETATM   16  S   UNL     1     -11.098  14.752  65.089  1.00  0.00    -0.406 SA 
ENDBRANCH   7   8
ENDBRANCH   3   7
TORSDOF 2
ENDMDL
MODEL       39
REMARK 921   NORMALIZED FREE ENERGY PREDICTED BY IDOCK:   -4.75 KCAL/MOL
REMARK 922        TOTAL FREE ENERGY PREDICTED BY IDOCK:   -5.49 KCAL/MOL
REMARK 923 INTER-LIGAND FREE ENERGY PREDICTED BY IDOCK:   -5.30 KCAL/MOL
REMARK 924 INTRA-LIGAND FREE ENERGY PREDICTED BY IDOCK:   -0.19 KCAL/MOL
REMARK 927      BINDING AFFINITY PREDICTED BY RF-SCORE:    0.00 PKD
ROOT
HETATM    1  C   UNL     1     -12.640  13.150  65.401  1.00  0.00    -0.454 C  
HETATM    2  C   UNL     1     -11.249  12.685  65.846  1.00  0.00    -0.314 C  
HETATM    3  N   UNL     1     -10.827  11.425  65.185  1.00  0.00    -0.269 N  
HETATM    4  O   UNL     1     -12.695  13.331  63.983  1.00  0.00    -0.659 OA 
HETATM    5  C   UNL     1     -11.013  11.573  63.721  1.00  0.00    -0.409 C  
HETATM    6  C   UNL     1     -12.404  12.090  63.333  1.00  0.00    -0.523 C  
ENDROOT
BRANCH   3   7
HETATM    7  S   UNL     1      -9.385  10.708  65.679  1.00  0.00    -0.215 SA 
BRANCH   7   8
HETATM    8  C   UNL     1      -9.891   9.644  66.991  1.00  0.00    -0.195 A  
HETATM    9  N   UNL     1     -10.179   8.374  66.817  1.00  0.00    -0.303 NA 
HETATM   10  C   UNL     1     -10.526   7.807  68.032  1.00  0.00    -0.185 A  
HETATM   11  C   UNL     1     -10.883   6.460  68.246  1.00  0.00    -0.384 A  
HETATM   12  C   UNL     1     -11.207   6.020  69.534  1.00  0.00    -0.416 A  
HETATM   13  C   UNL     1     -11.186   6.902  70.607  1.00  0.00    -0.346 A  
HETATM   14  C   UNL     1     -10.840   8.245  70.424  1.00  0.00    -0.241 A  
HETATM   15  C   UNL     1     -10.509   8.674  69.128  1.00  0.00    -0.211 A  
HETATM   16  S   UNL     1     -10.031  10.237  68.593  1.00  0.00    -0.182 SA 
ENDBRANCH   7   8
ENDBRANCH   3   7
TORSDOF 2
ENDMDL
MODEL       40
REMARK 921   NORMALIZED FREE ENERGY PREDICTED BY IDOCK:   -4.73 KCAL/MOL
REMARK 922        TOTAL FREE ENERGY PREDICTED BY IDOCK:   -5.48 KCAL/MOL
REMARK 923 INTER-LIGAND FREE ENERGY PREDICTED BY IDOCK:   -5.38 KCAL/MOL
REMARK 924 INTRA-LIGAND FREE ENERGY PREDICTED BY IDOCK:   -0.10 KCAL/MOL
REMARK 927      BINDING AFFINITY PREDICTED BY RF-SCORE:    0.00 PKD
ROOT
HETATM    1  C   UNL     1     -12.903  11.053  71.447  1.00  0.00    -0.443 C  
HETATM    2  C   UNL     1     -12.269  10.817  70.071  1.00  0.00    -0.334 C  
HETATM    3  N   UNL     1     -11.158   9.834  70.112  1.00  0.00    -0.267 N  
HETATM    4  O   UNL     1     -13.389   9.830  72.007  1.00  0.00    -0.419 OA 
HETATM    5  C   UNL     1     -11.630   8.616  70.816  1.00  0.00    -0.242 C  
HETATM    6  C   UNL     1     -12.302   8.913  72.162  1.00  0.00    -0.378 C  
ENDROOT
BRANCH   3   7
HETATM    7  S   UNL     1     -10.265   9.578  68.707  1.00  0.00    -0.205 SA 
BRANCH   7   8
HETATM    8  C   UNL     1     -10.574  11.034  67.762  1.00  0.00    -0.211 A  
HETATM    9  N   UNL     1     -11.519  11.116  66.853  1.00  0.00    -0.399 NA 
HETATM   10  C   UNL     1     -11.521  12.385  66.298  1.00  0.00    -0.371 A  
HETATM   11  C   UNL     1     -12.402  12.852  65.301  1.00  0.00    -0.544 A  
HETATM   12  C   UNL     1     -12.293  14.166  64.835  1.00  0.00    -0.446 A  
HETATM   13  C   UNL     1     -11.318  15.017  65.342  1.00  0.00    -0.328 A  
HETATM   14  C   UNL     1     -10.428  14.579  66.328  1.00  0.00    -0.303 A  
HETATM   15  C   UNL     1     -10.551  13.260  66.794  1.00  0.00    -0.276 A  
HETATM   16  S   UNL     1      -9.630  12.446  67.997  1.00  0.00    -0.214 SA 
ENDBRANCH   7   8
ENDBRANCH   3   7
TORSDOF 2
ENDMDL
MODEL       41
REMARK 921   NORMALIZED FREE ENERGY PREDICTED BY IDOCK:   -4.70 KCAL/MOL
REMARK 922        TOTAL FREE ENERGY PREDICTED BY IDOCK:   -5.44 KCAL/MOL
REMARK 923 INTER-LIGAND FREE ENERGY PREDICTED BY IDOCK:   -5.26 KCAL/MOL
REMARK 924 INTRA-LIGAND FREE ENERGY PREDICTED BY IDOCK:   -0.18 KCAL/MOL
REMARK 927      BINDING AFFINITY PREDICTED BY RF-SCORE:    0.00 PKD
ROOT
HETATM    1  C   UNL     1      -9.306  10.875  63.308  1.00  0.00    -0.309 C  
HETATM    2  C   UNL     1     -10.292  12.033  63.497  1.00  0.00    -0.461 C  
HETATM    3  N   UNL     1     -11.327  11.744  64.521  1.00  0.00    -0.307 N  
HETATM    4  O   UNL     1      -8.656  10.544  64.539  1.00  0.00    -0.179 OA 
HETATM    5  C   UNL     1     -10.651  11.272  65.755  1.00  0.00    -0.248 C  
HETATM    6  C   UNL     1      -9.637  10.149  65.502  1.00  0.00    -0.250 C  
ENDROOT
BRANCH   3   7
HETATM    7  S   UNL     1     -12.570  12.859  64.739  1.00  0.00    -0.377 SA 
BRANCH   7   8
HETATM    8  C   UNL     1     -11.878  14.017  65.874  1.00  0.00    -0.383 A  
HETATM    9  N   UNL     1     -12.118  13.990  67.166  1.00  0.00    -0.429 NA 
HETATM   10  C   UNL     1     -11.423  15.014  67.789  1.00  0.00    -0.334 A  
HETATM   11  C   UNL     1     -11.420  15.293  69.171  1.00  0.00    -0.330 A  
HETATM   12  C   UNL     1     -10.663  16.360  69.665  1.00  0.00    -0.337 A  
HETATM   13  C   UNL     1      -9.915  17.154  68.804  1.00  0.00    -0.315 A  
HETATM   14  C   UNL     1      -9.903  16.903  67.428  1.00  0.00    -0.261 A  
HETATM   15  C   UNL     1     -10.661  15.825  66.944  1.00  0.00    -0.317 A  
HETATM   16  S   UNL     1     -10.832  15.260  65.328  1.00  0.00    -0.427 SA 
ENDBRANCH   7   8
ENDBRANCH   3   7
TORSDOF 2
ENDMDL
MODEL       42
REMARK 921   NORMALIZED FREE ENERGY PREDICTED BY IDOCK:   -4.68 KCAL/MOL
REMARK 922        TOTAL FREE ENERGY PREDICTED BY IDOCK:   -5.42 KCAL/MOL
REMARK 923 INTER-LIGAND FREE ENERGY PREDICTED BY IDOCK:   -5.21 KCAL/MOL
REMARK 924 INTRA-LIGAND FREE ENERGY PREDICTED BY IDOCK:   -0.21 KCAL/MOL
REMARK 927      BINDING AFFINITY PREDICTED BY RF-SCORE:    0.00 PKD
ROOT
HETATM    1  C   UNL     1      -7.921  18.273  68.611  1.00  0.00    -0.289 C  
HETATM    2  C   UNL     1      -8.379  17.485  67.378  1.00  0.00    -0.211 C  
HETATM    3  N   UNL     1      -9.854  17.480  67.216  1.00  0.00    -0.285 N  
HETATM    4  O   UNL     1      -8.385  19.625  68.561  1.00  0.00    -0.339 OA 
HETATM    5  C   UNL     1     -10.344  18.878  67.300  1.00  0.00    -0.418 C  
HETATM    6  C   UNL     1      -9.815  19.636  68.524  1.00  0.00    -0.424 C  
ENDROOT
BRANCH   3   7
HETATM    7  S   UNL     1     -10.521  16.534  65.991  1.00  0.00    -0.274 SA 
BRANCH   7   8
HETATM    8  C   UNL     1     -10.839  14.998  66.796  1.00  0.00    -0.318 A  
HETATM    9  N   UNL     1     -10.649  13.831  66.221  1.00  0.00    -0.286 NA 
HETATM   10  C   UNL     1     -10.972  12.819  67.109  1.00  0.00    -0.263 A  
HETATM   11  C   UNL     1     -10.882  11.435  66.856  1.00  0.00    -0.335 A  
HETATM   12  C   UNL     1     -11.238  10.519  67.852  1.00  0.00    -0.358 A  
HETATM   13  C   UNL     1     -11.686  10.962  69.091  1.00  0.00    -0.397 A  
HETATM   14  C   UNL     1     -11.789  12.329  69.368  1.00  0.00    -0.370 A  
HETATM   15  C   UNL     1     -11.422  13.239  68.363  1.00  0.00    -0.314 A  
HETATM   16  S   UNL     1     -11.422  14.959  68.407  1.00  0.00    -0.331 SA 
ENDBRANCH   7   8
ENDBRANCH   3   7
TORSDOF 2
ENDMDL
MODEL       43
REMARK 921   NORMALIZED FREE ENERGY PREDICTED BY IDOCK:   -4.67 KCAL/MOL
REMARK 922        TOTAL FREE ENERGY PREDICTED BY IDOCK:   -5.41 KCAL/MOL
REMARK 923 INTER-LIGAND FREE ENERGY PREDICTED BY IDOCK:   -5.24 KCAL/MOL
REMARK 924 INTRA-LIGAND FREE ENERGY PREDICTED BY IDOCK:   -0.17 KCAL/MOL
REMARK 927      BINDING AFFINITY PREDICTED BY RF-SCORE:    0.00 PKD
ROOT
HETATM    1  C   UNL     1     -13.929  14.752  72.195  1.00  0.00    -0.490 C  
HETATM    2  C   UNL     1     -13.110  14.107  71.070  1.00  0.00    -0.302 C  
HETATM    3  N   UNL     1     -12.080  15.020  70.515  1.00  0.00    -0.301 N  
HETATM    4  O   UNL     1     -13.083  15.196  73.260  1.00  0.00    -0.477 OA 
HETATM    5  C   UNL     1     -11.291  15.582  71.639  1.00  0.00    -0.388 C  
HETATM    6  C   UNL     1     -12.159  16.167  72.759  1.00  0.00    -0.553 C  
ENDROOT
BRANCH   3   7
HETATM    7  S   UNL     1     -11.197  14.508  69.175  1.00  0.00    -0.282 SA 
BRANCH   7   8
HETATM    8  C   UNL     1     -10.061  15.829  68.911  1.00  0.00    -0.222 A  
HETATM    9  N   UNL     1      -8.804  15.785  69.292  1.00  0.00    -0.255 NA 
HETATM   10  C   UNL     1      -8.168  16.961  68.932  1.00  0.00    -0.218 A  
HETATM   11  C   UNL     1      -6.812  17.274  69.159  1.00  0.00    -0.234 A  
HETATM   12  C   UNL     1      -6.299  18.504  68.734  1.00  0.00    -0.232 A  
HETATM   13  C   UNL     1      -7.117  19.427  68.093  1.00  0.00    -0.310 A  
HETATM   14  C   UNL     1      -8.467  19.145  67.857  1.00  0.00    -0.335 A  
HETATM   15  C   UNL     1      -8.969  17.904  68.282  1.00  0.00    -0.275 A  
HETATM   16  S   UNL     1     -10.559  17.267  68.122  1.00  0.00    -0.368 SA 
ENDBRANCH   7   8
ENDBRANCH   3   7
TORSDOF 2
ENDMDL
MODEL       44
REMARK 921   NORMALIZED FREE ENERGY PREDICTED BY IDOCK:   -4.65 KCAL/MOL
REMARK 922        TOTAL FREE ENERGY PREDICTED BY IDOCK:   -5.38 KCAL/MOL
REMARK 923 INTER-LIGAND FREE ENERGY PREDICTED BY IDOCK:   -5.38 KCAL/MOL
REMARK 924 INTRA-LIGAND FREE ENERGY PREDICTED BY IDOCK:   -0.01 KCAL/MOL
REMARK 927      BINDING AFFINITY PREDICTED BY RF-SCORE:    0.00 PKD
ROOT
HETATM    1  C   UNL     1     -11.925  15.587  73.111  1.00  0.00    -0.466 C  
HETATM    2  C   UNL     1     -11.730  16.032  71.657  1.00  0.00    -0.506 C  
HETATM    3  N   UNL     1     -12.187  15.014  70.679  1.00  0.00    -0.300 N  
HETATM    4  O   UNL     1     -13.296  15.275  73.375  1.00  0.00    -0.454 OA 
HETATM    5  C   UNL     1     -13.564  14.596  71.040  1.00  0.00    -0.276 C  
HETATM    6  C   UNL     1     -13.715  14.211  72.517  1.00  0.00    -0.522 C  
ENDROOT
BRANCH   3   7
HETATM    7  S   UNL     1     -11.905  15.294  69.042  1.00  0.00    -0.290 SA 
BRANCH   7   8
HETATM    8  C   UNL     1     -11.520  13.690  68.419  1.00  0.00    -0.311 A  
HETATM    9  N   UNL     1     -11.159  13.469  67.175  1.00  0.00    -0.287 NA 
HETATM   10  C   UNL     1     -10.911  12.118  66.998  1.00  0.00    -0.247 A  
HETATM   11  C   UNL     1     -10.488  11.503  65.801  1.00  0.00    -0.308 A  
HETATM   12  C   UNL     1     -10.269  10.122  65.766  1.00  0.00    -0.283 A  
HETATM   13  C   UNL     1     -10.470   9.346  66.902  1.00  0.00    -0.281 A  
HETATM   14  C   UNL     1     -10.893   9.929  68.101  1.00  0.00    -0.282 A  
HETATM   15  C   UNL     1     -11.103  11.317  68.126  1.00  0.00    -0.259 A  
HETATM   16  S   UNL     1     -11.599  12.314  69.437  1.00  0.00    -0.307 SA 
ENDBRANCH   7   8
ENDBRANCH   3   7
TORSDOF 2
ENDMDL
MODEL       45
REMARK 921   NORMALIZED FREE ENERGY PREDICTED BY IDOCK:   -4.64 KCAL/MOL
REMARK 922        TOTAL FREE ENERGY PREDICTED BY IDOCK:   -5.37 KCAL/MOL
REMARK 923 INTER-LIGAND FREE ENERGY PREDICTED BY IDOCK:   -5.18 KCAL/MOL
REMARK 924 INTRA-LIGAND FREE ENERGY PREDICTED BY IDOCK:   -0.19 KCAL/MOL
REMARK 927      BINDING AFFINITY PREDICTED BY RF-SCORE:    0.00 PKD
ROOT
HETATM    1  C   UNL     1     -11.838   6.911  70.620  1.00  0.00    -0.368 C  
HETATM    2  C   UNL     1     -10.542   7.639  70.244  1.00  0.00    -0.230 C  
HETATM    3  N   UNL     1     -10.750   9.088  69.995  1.00  0.00    -0.226 N  
HETATM    4  O   UNL     1     -12.440   7.497  71.778  1.00  0.00    -0.310 OA 
HETATM    5  C   UNL     1     -11.495   9.662  71.142  1.00  0.00    -0.384 C  
HETATM    6  C   UNL     1     -12.754   8.866  71.509  1.00  0.00    -0.335 C  
ENDROOT
BRANCH   3   7
HETATM    7  S   UNL     1      -9.449   9.995  69.428  1.00  0.00    -0.229 SA 
BRANCH   7   8
HETATM    8  C   UNL     1     -10.028  10.608  67.880  1.00  0.00    -0.166 A  
HETATM    9  N   UNL     1     -10.957  11.533  67.774  1.00  0.00    -0.220 NA 
HETATM   10  C   UNL     1     -11.182  11.811  66.436  1.00  0.00    -0.323 A  
HETATM   11  C   UNL     1     -12.096  12.758  65.929  1.00  0.00    -0.485 A  
HETATM   12  C   UNL     1     -12.217  12.941  64.548  1.00  0.00    -0.489 A  
HETATM   13  C   UNL     1     -11.447  12.190  63.666  1.00  0.00    -0.566 A  
HETATM   14  C   UNL     1     -10.536  11.241  64.141  1.00  0.00    -0.431 A  
HETATM   15  C   UNL     1     -10.418  11.072  65.530  1.00  0.00    -0.238 A  
HETATM   16  S   UNL     1      -9.387  10.011  66.407  1.00  0.00    -0.176 SA 
ENDBRANCH   7   8
ENDBRANCH   3   7
TORSDOF 2
ENDMDL
MODEL       46
REMARK 921   NORMALIZED FREE ENERGY PREDICTED BY IDOCK:   -4.63 KCAL/MOL
REMARK 922        TOTAL FREE ENERGY PREDICTED BY IDOCK:   -5.36 KCAL/MOL
REMARK 923 INTER-LIGAND FREE ENERGY PREDICTED BY IDOCK:   -5.21 KCAL/MOL
REMARK 924 INTRA-LIGAND FREE ENERGY PREDICTED BY IDOCK:   -0.16 KCAL/MOL
REMARK 927      BINDING AFFINITY PREDICTED BY RF-SCORE:    0.00 PKD
ROOT
HETATM    1  C   UNL     1     -12.667  12.428  64.016  1.00  0.00    -0.349 C  
HETATM    2  C   UNL     1     -12.299  13.004  65.388  1.00  0.00    -0.486 C  
HETATM    3  N   UNL     1     -11.164  12.290  66.024  1.00  0.00    -0.317 N  
HETATM    4  O   UNL     1     -11.547  12.456  63.127  1.00  0.00    -0.392 OA 
HETATM    5  C   UNL     1     -10.051  12.205  65.047  1.00  0.00    -0.263 C  
HETATM    6  C   UNL     1     -10.484  11.672  63.676  1.00  0.00    -0.429 C  
ENDROOT
BRANCH   3   7
HETATM    7  S   UNL     1     -10.736  12.711  67.598  1.00  0.00    -0.223 SA 
BRANCH   7   8
HETATM    8  C   UNL     1     -10.415  14.440  67.480  1.00  0.00    -0.252 A  
HETATM    9  N   UNL     1      -9.391  14.939  66.824  1.00  0.00    -0.236 NA 
HETATM   10  C   UNL     1      -9.420  16.322  66.902  1.00  0.00    -0.230 A  
HETATM   11  C   UNL     1      -8.494  17.205  66.309  1.00  0.00    -0.279 A  
HETATM   12  C   UNL     1      -8.649  18.586  66.465  1.00  0.00    -0.289 A  
HETATM   13  C   UNL     1      -9.708  19.099  67.206  1.00  0.00    -0.386 A  
HETATM   14  C   UNL     1     -10.639  18.246  67.808  1.00  0.00    -0.415 A  
HETATM   15  C   UNL     1     -10.477  16.861  67.639  1.00  0.00    -0.332 A  
HETATM   16  S   UNL     1     -11.454  15.576  68.233  1.00  0.00    -0.328 SA 
ENDBRANCH   7   8
ENDBRANCH   3   7
TORSDOF 2
ENDMDL
MODEL       47
REMARK 921   NORMALIZED FREE ENERGY PREDICTED BY IDOCK:   -4.63 KCAL/MOL
REMARK 922        TOTAL FREE ENERGY PREDICTED BY IDOCK:   -5.36 KCAL/MOL
REMARK 923 INTER-LIGAND FREE ENERGY PREDICTED BY IDOCK:   -5.14 KCAL/MOL
REMARK 924 INTRA-LIGAND FREE ENERGY PREDICTED BY IDOCK:   -0.22 KCAL/MOL
REMARK 927      BINDING AFFINITY PREDICTED BY RF-SCORE:    0.00 PKD
ROOT
HETATM    1  C   UNL     1     -10.053   8.453  68.072  1.00  0.00    -0.199 C  
HETATM    2  C   UNL     1     -10.522   9.711  67.332  1.00  0.00    -0.257 C  
HETATM    3  N   UNL     1     -10.425  10.936  68.165  1.00  0.00    -0.173 N  
HETATM    4  O   UNL     1      -8.704   8.596  68.528  1.00  0.00    -0.137 OA 
HETATM    5  C   UNL     1      -9.060  11.007  68.744  1.00  0.00    -0.157 C  
HETATM    6  C   UNL     1      -8.621   9.705  69.427  1.00  0.00    -0.158 C  
ENDROOT
BRANCH   3   7
HETATM    7  S   UNL     1     -11.040  12.376  67.543  1.00  0.00    -0.283 SA 
BRANCH   7   8
HETATM    8  C   UNL     1     -11.499  13.275  68.988  1.00  0.00    -0.302 A  
HETATM    9  N   UNL     1     -12.281  12.784  69.924  1.00  0.00    -0.226 NA 
HETATM   10  C   UNL     1     -12.442  13.720  70.932  1.00  0.00    -0.377 A  
HETATM   11  C   UNL     1     -13.199  13.548  72.109  1.00  0.00    -0.551 A  
HETATM   12  C   UNL     1     -13.271  14.581  73.049  1.00  0.00    -0.575 A  
HETATM   13  C   UNL     1     -12.605  15.782  72.832  1.00  0.00    -0.571 A  
HETATM   14  C   UNL     1     -11.850  15.981  71.671  1.00  0.00    -0.582 A  
HETATM   15  C   UNL     1     -11.779  14.934  70.738  1.00  0.00    -0.311 A  
HETATM   16  S   UNL     1     -10.928  14.871  69.244  1.00  0.00    -0.280 SA 
ENDBRANCH   7   8
ENDBRANCH   3   7
TORSDOF 2
ENDMDL
MODEL       48
REMARK 921   NORMALIZED FREE ENERGY PREDICTED BY IDOCK:   -4.62 KCAL/MOL
REMARK 922        TOTAL FREE ENERGY PREDICTED BY IDOCK:   -5.35 KCAL/MOL
REMARK 923 INTER-LIGAND FREE ENERGY PREDICTED BY IDOCK:   -5.16 KCAL/MOL
REMARK 924 INTRA-LIGAND FREE ENERGY PREDICTED BY IDOCK:   -0.19 KCAL/MOL
REMARK 927      BINDING AFFINITY PREDICTED BY RF-SCORE:    0.00 PKD
ROOT
HETATM    1  C   UNL     1      -6.340  15.532  68.448  1.00  0.00    -0.109 C  
HETATM    2  C   UNL     1      -7.690  15.263  67.772  1.00  0.00    -0.149 C  
HETATM    3  N   UNL     1      -8.693  16.320  68.054  1.00  0.00    -0.176 N  
HETATM    4  O   UNL     1      -5.804  16.795  68.045  1.00  0.00    -0.113 OA 
HETATM    5  C   UNL     1      -8.082  17.641  67.760  1.00  0.00    -0.224 C  
HETATM    6  C   UNL     1      -6.711  17.837  68.418  1.00  0.00    -0.213 C  
ENDROOT
BRANCH   3   7
HETATM    7  S   UNL     1     -10.268  16.095  67.502  1.00  0.00    -0.272 SA 
BRANCH   7   8
HETATM    8  C   UNL     1     -11.112  15.492  68.928  1.00  0.00    -0.282 A  
HETATM    9  N   UNL     1     -11.311  16.216  70.007  1.00  0.00    -0.341 NA 
HETATM   10  C   UNL     1     -12.012  15.472  70.942  1.00  0.00    -0.375 A  
HETATM   11  C   UNL     1     -12.423  15.916  72.215  1.00  0.00    -0.543 A  
HETATM   12  C   UNL     1     -13.133  15.056  73.059  1.00  0.00    -0.604 A  
HETATM   13  C   UNL     1     -13.434  13.760  72.655  1.00  0.00    -0.638 A  
HETATM   14  C   UNL     1     -13.035  13.291  71.398  1.00  0.00    -0.398 A  
HETATM   15  C   UNL     1     -12.329  14.166  70.557  1.00  0.00    -0.364 A  
HETATM   16  S   UNL     1     -11.728  13.893  68.969  1.00  0.00    -0.358 SA 
ENDBRANCH   7   8
ENDBRANCH   3   7
TORSDOF 2
ENDMDL
MODEL       49
REMARK 921   NORMALIZED FREE ENERGY PREDICTED BY IDOCK:   -4.62 KCAL/MOL
REMARK 922        TOTAL FREE ENERGY PREDICTED BY IDOCK:   -5.35 KCAL/MOL
REMARK 923 INTER-LIGAND FREE ENERGY PREDICTED BY IDOCK:   -5.13 KCAL/MOL
REMARK 924 INTRA-LIGAND FREE ENERGY PREDICTED BY IDOCK:   -0.22 KCAL/MOL
REMARK 927      BINDING AFFINITY PREDICTED BY RF-SCORE:    0.00 PKD
ROOT
HETATM    1  C   UNL     1      -9.979  15.636  66.043  1.00  0.00    -0.333 C  
HETATM    2  C   UNL     1      -9.289  14.277  66.209  1.00  0.00    -0.208 C  
HETATM    3  N   UNL     1     -10.240  13.139  66.139  1.00  0.00    -0.284 N  
HETATM    4  O   UNL     1     -10.691  15.705  64.804  1.00  0.00    -0.427 OA 
HETATM    5  C   UNL     1     -11.069  13.290  64.917  1.00  0.00    -0.328 C  
HETATM    6  C   UNL     1     -11.692  14.684  64.773  1.00  0.00    -0.428 C  
ENDROOT
BRANCH   3   7
HETATM    7  S   UNL     1      -9.657  11.590  66.450  1.00  0.00    -0.216 SA 
BRANCH   7   8
HETATM    8  C   UNL     1     -10.499  11.131  67.930  1.00  0.00    -0.190 A  
HETATM    9  N   UNL     1     -10.173  10.079  68.647  1.00  0.00    -0.172 NA 
HETATM   10  C   UNL     1     -11.005   9.996  69.751  1.00  0.00    -0.276 A  
HETATM   11  C   UNL     1     -10.950   9.010  70.758  1.00  0.00    -0.315 A  
HETATM   12  C   UNL     1     -11.854   9.050  71.825  1.00  0.00    -0.442 A  
HETATM   13  C   UNL     1     -12.812  10.054  71.900  1.00  0.00    -0.524 A  
HETATM   14  C   UNL     1     -12.892  11.043  70.914  1.00  0.00    -0.393 A  
HETATM   15  C   UNL     1     -11.976  10.996  69.851  1.00  0.00    -0.351 A  
HETATM   16  S   UNL     1     -11.812  12.065  68.514  1.00  0.00    -0.242 SA 
ENDBRANCH   7   8
ENDBRANCH   3   7
TORSDOF 2
ENDMDL
MODEL       50
REMARK 921   NORMALIZED FREE ENERGY PREDICTED BY IDOCK:   -4.61 KCAL/MOL
REMARK 922        TOTAL FREE ENERGY PREDICTED BY IDOCK:   -5.34 KCAL/MOL
REMARK 923 INTER-LIGAND FREE ENERGY PREDICTED BY IDOCK:   -5.21 KCAL/MOL
REMARK 924 INTRA-LIGAND FREE ENERGY PREDICTED BY IDOCK:   -0.13 KCAL/MOL
REMARK 927      BINDING AFFINITY PREDICTED BY RF-SCORE:    0.00 PKD
ROOT
HETATM    1  C   UNL     1     -11.448  15.044  64.828  1.00  0.00    -0.403 C  
HETATM    2  C   UNL     1     -11.666  13.531  64.941  1.00  0.00    -0.357 C  
HETATM    3  N   UNL     1     -10.419  12.795  65.268  1.00  0.00    -0.287 N  
HETATM    4  O   UNL     1     -10.899  15.578  66.036  1.00  0.00    -0.322 OA 
HETATM    5  C   UNL     1      -9.783  13.439  66.444  1.00  0.00    -0.277 C  
HETATM    6  C   UNL     1      -9.637  14.959  66.299  1.00  0.00    -0.307 C  
ENDROOT
BRANCH   3   7
HETATM    7  S   UNL     1     -10.465  11.111  65.282  1.00  0.00    -0.241 SA 
BRANCH   7   8
HETATM    8  C   UNL     1     -10.698  10.728  66.987  1.00  0.00    -0.265 A  
HETATM    9  N   UNL     1     -11.747  11.120  67.676  1.00  0.00    -0.598 NA 
HETATM   10  C   UNL     1     -11.649  10.652  68.976  1.00  0.00    -0.261 A  
HETATM   11  C   UNL     1     -12.592  10.857  70.004  1.00  0.00    -0.253 A  
HETATM   12  C   UNL     1     -12.367  10.319  71.275  1.00  0.00    -0.506 A  
HETATM   13  C   UNL     1     -11.215   9.585  71.537  1.00  0.00    -0.437 A  
HETATM   14  C   UNL     1     -10.261   9.369  70.537  1.00  0.00    -0.332 A  
HETATM   15  C   UNL     1     -10.502   9.908  69.263  1.00  0.00    -0.221 A  
HETATM   16  S   UNL     1      -9.538   9.800  67.842  1.00  0.00    -0.140 SA 
ENDBRANCH   7   8
ENDBRANCH   3   7
TORSDOF 2
ENDMDL
MODEL       51
REMARK 921   NORMALIZED FREE ENERGY PREDICTED BY IDOCK:   -4.60 KCAL/MOL
REMARK 922        TOTAL FREE ENERGY PREDICTED BY IDOCK:   -5.33 KCAL/MOL
REMARK 923 INTER-LIGAND FREE ENERGY PREDICTED BY IDOCK:   -5.14 KCAL/MOL
REMARK 924 INTRA-LIGAND FREE ENERGY PREDICTED BY IDOCK:   -0.19 KCAL/MOL
REMARK 927      BINDING AFFINITY PREDICTED BY RF-SCORE:    0.00 PKD
ROOT
HETATM    1  C   UNL     1     -11.411  12.439  67.220  1.00  0.00    -0.354 C  
HETATM    2  C   UNL     1     -11.762  13.808  66.626  1.00  0.00    -0.394 C  
HETATM    3  N   UNL     1     -10.765  14.274  65.631  1.00  0.00    -0.303 N  
HETATM    4  O   UNL     1     -11.284  11.449  66.195  1.00  0.00    -0.254 OA 
HETATM    5  C   UNL     1     -10.538  13.189  64.645  1.00  0.00    -0.392 C  
HETATM    6  C   UNL     1     -10.242  11.830  65.292  1.00  0.00    -0.267 C  
ENDROOT
BRANCH   3   7
HETATM    7  S   UNL     1     -10.933  15.826  64.997  1.00  0.00    -0.365 SA 
BRANCH   7   8
HETATM    8  C   UNL     1      -9.918  16.805  66.055  1.00  0.00    -0.313 A  
HETATM    9  N   UNL     1      -8.604  16.795  66.004  1.00  0.00    -0.500 NA 
HETATM   10  C   UNL     1      -8.097  17.677  66.944  1.00  0.00    -0.224 A  
HETATM   11  C   UNL     1      -6.733  17.948  67.175  1.00  0.00    -0.200 A  
HETATM   12  C   UNL     1      -6.361  18.870  68.158  1.00  0.00    -0.231 A  
HETATM   13  C   UNL     1      -7.327  19.521  68.917  1.00  0.00    -0.398 A  
HETATM   14  C   UNL     1      -8.688  19.268  68.713  1.00  0.00    -0.383 A  
HETATM   15  C   UNL     1      -9.049  18.345  67.718  1.00  0.00    -0.277 A  
HETATM   16  S   UNL     1     -10.619  17.843  67.225  1.00  0.00    -0.281 SA 
ENDBRANCH   7   8
ENDBRANCH   3   7
TORSDOF 2
ENDMDL
MODEL       52
REMARK 921   NORMALIZED FREE ENERGY PREDICTED BY IDOCK:   -4.59 KCAL/MOL
REMARK 922        TOTAL FREE ENERGY PREDICTED BY IDOCK:   -5.32 KCAL/MOL
REMARK 923 INTER-LIGAND FREE ENERGY PREDICTED BY IDOCK:   -5.10 KCAL/MOL
REMARK 924 INTRA-LIGAND FREE ENERGY PREDICTED BY IDOCK:   -0.22 KCAL/MOL
REMARK 927      BINDING AFFINITY PREDICTED BY RF-SCORE:    0.00 PKD
ROOT
HETATM    1  C   UNL     1      -6.740  19.738  68.997  1.00  0.00    -0.337 C  
HETATM    2  C   UNL     1      -8.193  19.531  68.552  1.00  0.00    -0.338 C  
HETATM    3  N   UNL     1      -8.307  19.171  67.116  1.00  0.00    -0.274 N  
HETATM    4  O   UNL     1      -5.954  18.568  68.750  1.00  0.00    -0.200 OA 
HETATM    5  C   UNL     1      -7.385  18.042  66.837  1.00  0.00    -0.204 C  
HETATM    6  C   UNL     1      -5.959  18.279  67.349  1.00  0.00    -0.156 C  
ENDROOT
BRANCH   3   7
HETATM    7  S   UNL     1      -9.846  19.055  66.441  1.00  0.00    -0.391 SA 
BRANCH   7   8
HETATM    8  C   UNL     1     -10.389  17.456  66.948  1.00  0.00    -0.317 A  
HETATM    9  N   UNL     1     -10.820  17.194  68.162  1.00  0.00    -0.363 NA 
HETATM   10  C   UNL     1     -11.187  15.861  68.245  1.00  0.00    -0.354 A  
HETATM   11  C   UNL     1     -11.710  15.215  69.384  1.00  0.00    -0.355 A  
HETATM   12  C   UNL     1     -12.045  13.858  69.325  1.00  0.00    -0.383 A  
HETATM   13  C   UNL     1     -11.861  13.136  68.151  1.00  0.00    -0.386 A  
HETATM   14  C   UNL     1     -11.340  13.750  67.007  1.00  0.00    -0.345 A  
HETATM   15  C   UNL     1     -11.014  15.115  67.077  1.00  0.00    -0.322 A  
HETATM   16  S   UNL     1     -10.381  16.141  65.850  1.00  0.00    -0.375 SA 
ENDBRANCH   7   8
ENDBRANCH   3   7
TORSDOF 2
ENDMDL
MODEL       53
REMARK 921   NORMALIZED FREE ENERGY PREDICTED BY IDOCK:   -4.59 KCAL/MOL
REMARK 922        TOTAL FREE ENERGY PREDICTED BY IDOCK:   -5.32 KCAL/MOL
REMARK 923 INTER-LIGAND FREE ENERGY PREDICTED BY IDOCK:   -5.09 KCAL/MOL
REMARK 924 INTRA-LIGAND FREE ENERGY PREDICTED BY IDOCK:   -0.23 KCAL/MOL
REMARK 927      BINDING AFFINITY PREDICTED BY RF-SCORE:    0.00 PKD
ROOT
HETATM    1  C   UNL     1      -7.683  16.008  66.798  1.00  0.00    -0.235 C  
HETATM    2  C   UNL     1      -9.148  15.560  66.748  1.00  0.00    -0.255 C  
HETATM    3  N   UNL     1      -9.297  14.084  66.744  1.00  0.00    -0.269 N  
HETATM    4  O   UNL     1      -7.020  15.474  67.948  1.00  0.00    -0.115 OA 
HETATM    5  C   UNL     1      -8.496  13.525  67.862  1.00  0.00    -0.179 C  
HETATM    6  C   UNL     1      -7.054  14.045  67.896  1.00  0.00    -0.160 C  
ENDROOT
BRANCH   3   7
HETATM    7  S   UNL     1     -10.839  13.437  66.544  1.00  0.00    -0.283 SA 
BRANCH   7   8
HETATM    8  C   UNL     1     -11.531  13.534  68.162  1.00  0.00    -0.303 A  
HETATM    9  N   UNL     1     -11.931  14.661  68.708  1.00  0.00    -0.293 NA 
HETATM   10  C   UNL     1     -12.439  14.409  69.972  1.00  0.00    -0.301 A  
HETATM   11  C   UNL     1     -12.976  15.368  70.855  1.00  0.00    -0.539 A  
HETATM   12  C   UNL     1     -13.461  14.971  72.105  1.00  0.00    -0.508 A  
HETATM   13  C   UNL     1     -13.414  13.635  72.489  1.00  0.00    -0.675 A  
HETATM   14  C   UNL     1     -12.883  12.663  71.635  1.00  0.00    -0.367 A  
HETATM   15  C   UNL     1     -12.405  13.073  70.379  1.00  0.00    -0.277 A  
HETATM   16  S   UNL     1     -11.721  12.124  69.118  1.00  0.00    -0.326 SA 
ENDBRANCH   7   8
ENDBRANCH   3   7
TORSDOF 2
ENDMDL
MODEL       54
REMARK 921   NORMALIZED FREE ENERGY PREDICTED BY IDOCK:   -4.58 KCAL/MOL
REMARK 922        TOTAL FREE ENERGY PREDICTED BY IDOCK:   -5.30 KCAL/MOL
REMARK 923 INTER-LIGAND FREE ENERGY PREDICTED BY IDOCK:   -5.11 KCAL/MOL
REMARK 924 INTRA-LIGAND FREE ENERGY PREDICTED BY IDOCK:   -0.19 KCAL/MOL
REMARK 927      BINDING AFFINITY PREDICTED BY RF-SCORE:    0.00 PKD
ROOT
HETATM    1  C   UNL     1      -9.233  16.513  67.226  1.00  0.00    -0.216 C  
HETATM    2  C   UNL     1      -9.634  15.244  66.465  1.00  0.00    -0.271 C  
HETATM    3  N   UNL     1     -10.493  14.340  67.270  1.00  0.00    -0.268 N  
HETATM    4  O   UNL     1     -10.387  17.239  67.662  1.00  0.00    -0.324 OA 
HETATM    5  C   UNL     1     -11.617  15.130  67.831  1.00  0.00    -0.311 C  
HETATM    6  C   UNL     1     -11.164  16.415  68.535  1.00  0.00    -0.334 C  
ENDROOT
BRANCH   3   7
HETATM    7  S   UNL     1     -10.895  12.836  66.626  1.00  0.00    -0.269 SA 
BRANCH   7   8
HETATM    8  C   UNL     1     -10.911  11.783  68.040  1.00  0.00    -0.225 A  
HETATM    9  N   UNL     1     -11.961  11.638  68.818  1.00  0.00    -0.408 NA 
HETATM   10  C   UNL     1     -11.668  10.737  69.828  1.00  0.00    -0.324 A  
HETATM   11  C   UNL     1     -12.550  10.317  70.845  1.00  0.00    -0.465 A  
HETATM   12  C   UNL     1     -12.121   9.393  71.803  1.00  0.00    -0.454 A  
HETATM   13  C   UNL     1     -10.826   8.887  71.766  1.00  0.00    -0.436 A  
HETATM   14  C   UNL     1      -9.929   9.289  70.771  1.00  0.00    -0.357 A  
HETATM   15  C   UNL     1     -10.374  10.212  69.810  1.00  0.00    -0.259 A  
HETATM   16  S   UNL     1      -9.522  10.876  68.471  1.00  0.00    -0.190 SA 
ENDBRANCH   7   8
ENDBRANCH   3   7
TORSDOF 2
ENDMDL
MODEL       55
REMARK 921   NORMALIZED FREE ENERGY PREDICTED BY IDOCK:   -4.57 KCAL/MOL
REMARK 922        TOTAL FREE ENERGY PREDICTED BY IDOCK:   -5.29 KCAL/MOL
REMARK 923 INTER-LIGAND FREE ENERGY PREDICTED BY IDOCK:   -5.34 KCAL/MOL
REMARK 924 INTRA-LIGAND FREE ENERGY PREDICTED BY IDOCK:    0.04 KCAL/MOL
REMARK 927      BINDING AFFINITY PREDICTED BY RF-SCORE:    0.00 PKD
ROOT
HETATM    1  C   UNL     1     -14.149  13.124  72.469  1.00  0.00    -0.191 C  
HETATM    2  C   UNL     1     -13.121  12.183  71.832  1.00  0.00    -0.369 C  
HETATM    3  N   UNL     1     -12.373  12.819  70.718  1.00  0.00    -0.354 N  
HETATM    4  O   UNL     1     -13.525  14.317  72.954  1.00  0.00    -0.593 OA 
HETATM    5  C   UNL     1     -11.841  14.122  71.190  1.00  0.00    -0.135 C  
HETATM    6  C   UNL     1     -12.899  15.002  71.866  1.00  0.00    -0.337 C  
ENDROOT
BRANCH   3   7
HETATM    7  S   UNL     1     -11.312  11.867  69.821  1.00  0.00    -0.076 SA 
BRANCH   7   8
HETATM    8  C   UNL     1     -11.580  12.414  68.167  1.00  0.00    -0.341 A  
HETATM    9  N   UNL     1     -11.701  11.593  67.148  1.00  0.00    -0.598 NA 
HETATM   10  C   UNL     1     -11.917  12.321  65.989  1.00  0.00    -0.269 A  
HETATM   11  C   UNL     1     -12.110  11.787  64.699  1.00  0.00    -0.104 A  
HETATM   12  C   UNL     1     -12.324  12.643  63.614  1.00  0.00    -0.584 A  
HETATM   13  C   UNL     1     -12.344  14.021  63.795  1.00  0.00    -0.195 A  
HETATM   14  C   UNL     1     -12.152  14.579  65.064  1.00  0.00    -0.390 A  
HETATM   15  C   UNL     1     -11.944  13.709  66.146  1.00  0.00    -0.416 A  
HETATM   16  S   UNL     1     -11.699  14.086  67.807  1.00  0.00    -0.384 SA 
ENDBRANCH   7   8
ENDBRANCH   3   7
TORSDOF 2
ENDMDL
MODEL       56
REMARK 921   NORMALIZED FREE ENERGY PREDICTED BY IDOCK:   -4.54 KCAL/MOL
REMARK 922        TOTAL FREE ENERGY PREDICTED BY IDOCK:   -5.26 KCAL/MOL
REMARK 923 INTER-LIGAND FREE ENERGY PREDICTED BY IDOCK:   -5.09 KCAL/MOL
REMARK 924 INTRA-LIGAND FREE ENERGY PREDICTED BY IDOCK:   -0.16 KCAL/MOL
REMARK 927      BINDING AFFINITY PREDICTED BY RF-SCORE:    0.00 PKD
ROOT
HETATM    1  C   UNL     1     -11.529  11.860  66.255  1.00  0.00    -0.301 C  
HETATM    2  C   UNL     1     -10.081  12.364  66.296  1.00  0.00    -0.240 C  
HETATM    3  N   UNL     1      -9.871  13.421  67.316  1.00  0.00    -0.229 N  
HETATM    4  O   UNL     1     -11.937  11.358  67.531  1.00  0.00    -0.626 OA 
HETATM    5  C   UNL     1     -10.420  12.946  68.610  1.00  0.00    -0.213 C  
HETATM    6  C   UNL     1     -11.850  12.404  68.502  1.00  0.00    -0.304 C  
ENDROOT
BRANCH   3   7
HETATM    7  S   UNL     1      -8.369  14.180  67.383  1.00  0.00    -0.198 SA 
BRANCH   7   8
HETATM    8  C   UNL     1      -8.780  15.893  67.342  1.00  0.00    -0.181 A  
HETATM    9  N   UNL     1      -7.880  16.848  67.259  1.00  0.00    -0.171 NA 
HETATM   10  C   UNL     1      -8.512  18.080  67.232  1.00  0.00    -0.234 A  
HETATM   11  C   UNL     1      -7.878  19.335  67.132  1.00  0.00    -0.274 A  
HETATM   12  C   UNL     1      -8.644  20.505  67.110  1.00  0.00    -0.364 A  
HETATM   13  C   UNL     1     -10.031  20.442  67.191  1.00  0.00    -0.568 A  
HETATM   14  C   UNL     1     -10.687  19.211  67.295  1.00  0.00    -0.585 A  
HETATM   15  C   UNL     1      -9.907  18.043  67.309  1.00  0.00    -0.306 A  
HETATM   16  S   UNL     1     -10.415  16.402  67.408  1.00  0.00    -0.300 SA 
ENDBRANCH   7   8
ENDBRANCH   3   7
TORSDOF 2
ENDMDL
MODEL       57
REMARK 921   NORMALIZED FREE ENERGY PREDICTED BY IDOCK:   -4.52 KCAL/MOL
REMARK 922        TOTAL FREE ENERGY PREDICTED BY IDOCK:   -5.24 KCAL/MOL
REMARK 923 INTER-LIGAND FREE ENERGY PREDICTED BY IDOCK:   -5.14 KCAL/MOL
REMARK 924 INTRA-LIGAND FREE ENERGY PREDICTED BY IDOCK:   -0.10 KCAL/MOL
REMARK 927      BINDING AFFINITY PREDICTED BY RF-SCORE:    0.00 PKD
ROOT
HETATM    1  C   UNL     1     -11.393  11.896  64.681  1.00  0.00    -0.293 C  
HETATM    2  C   UNL     1     -11.135  11.872  66.192  1.00  0.00    -0.326 C  
HETATM    3  N   UNL     1     -11.202  13.221  66.807  1.00  0.00    -0.296 N  
HETATM    4  O   UNL     1     -12.666  12.476  64.384  1.00  0.00    -0.656 OA 
HETATM    5  C   UNL     1     -12.467  13.871  66.385  1.00  0.00    -0.370 C  
HETATM    6  C   UNL     1     -12.700  13.821  64.870  1.00  0.00    -0.271 C  
ENDROOT
BRANCH   3   7
HETATM    7  S   UNL     1     -10.796  13.379  68.434  1.00  0.00    -0.273 SA 
BRANCH   7   8
HETATM    8  C   UNL     1     -10.101  14.997  68.522  1.00  0.00    -0.225 A  
HETATM    9  N   UNL     1      -8.807  15.223  68.563  1.00  0.00    -0.177 NA 
HETATM   10  C   UNL     1      -8.577  16.588  68.613  1.00  0.00    -0.243 A  
HETATM   11  C   UNL     1      -7.315  17.215  68.651  1.00  0.00    -0.238 A  
HETATM   12  C   UNL     1      -7.229  18.610  68.694  1.00  0.00    -0.315 A  
HETATM   13  C   UNL     1      -8.381  19.388  68.704  1.00  0.00    -0.397 A  
HETATM   14  C   UNL     1      -9.647  18.793  68.671  1.00  0.00    -0.432 A  
HETATM   15  C   UNL     1      -9.720  17.392  68.621  1.00  0.00    -0.308 A  
HETATM   16  S   UNL     1     -11.111  16.381  68.554  1.00  0.00    -0.324 SA 
ENDBRANCH   7   8
ENDBRANCH   3   7
TORSDOF 2
ENDMDL
MODEL       58
REMARK 921   NORMALIZED FREE ENERGY PREDICTED BY IDOCK:   -4.52 KCAL/MOL
REMARK 922        TOTAL FREE ENERGY PREDICTED BY IDOCK:   -5.24 KCAL/MOL
REMARK 923 INTER-LIGAND FREE ENERGY PREDICTED BY IDOCK:   -5.11 KCAL/MOL
REMARK 924 INTRA-LIGAND FREE ENERGY PREDICTED BY IDOCK:   -0.13 KCAL/MOL
REMARK 927      BINDING AFFINITY PREDICTED BY RF-SCORE:    0.00 PKD
ROOT
HETATM    1  C   UNL     1      -7.795   8.539  72.006  1.00  0.00    -0.099 C  
HETATM    2  C   UNL     1      -8.966   8.949  71.106  1.00  0.00    -0.241 C  
HETATM    3  N   UNL     1     -10.169   8.103  71.308  1.00  0.00    -0.192 N  
HETATM    4  O   UNL     1      -8.165   8.584  73.387  1.00  0.00    -0.379 OA 
HETATM    5  C   UNL     1     -10.468   8.045  72.760  1.00  0.00    -0.345 C  
HETATM    6  C   UNL     1      -9.250   7.681  73.618  1.00  0.00    -0.283 C  
ENDROOT
BRANCH   3   7
HETATM    7  S   UNL     1     -11.490   8.335  70.289  1.00  0.00     0.026 SA 
BRANCH   7   8
HETATM    8  C   UNL     1     -12.017   9.971  70.679  1.00  0.00    -0.313 A  
HETATM    9  N   UNL     1     -11.580  11.039  70.048  1.00  0.00    -0.318 NA 
HETATM   10  C   UNL     1     -12.189  12.168  70.570  1.00  0.00    -0.304 A  
HETATM   11  C   UNL     1     -11.984  13.494  70.139  1.00  0.00    -0.399 A  
HETATM   12  C   UNL     1     -12.673  14.543  70.756  1.00  0.00    -0.425 A  
HETATM   13  C   UNL     1     -13.557  14.290  71.798  1.00  0.00    -0.479 A  
HETATM   14  C   UNL     1     -13.777  12.985  72.249  1.00  0.00    -0.608 A  
HETATM   15  C   UNL     1     -13.085  11.939  71.617  1.00  0.00    -0.328 A  
HETATM   16  S   UNL     1     -13.156  10.249  71.930  1.00  0.00    -0.421 SA 
ENDBRANCH   7   8
ENDBRANCH   3   7
TORSDOF 2
ENDMDL
MODEL       59
REMARK 921   NORMALIZED FREE ENERGY PREDICTED BY IDOCK:   -4.47 KCAL/MOL
REMARK 922        TOTAL FREE ENERGY PREDICTED BY IDOCK:   -5.18 KCAL/MOL
REMARK 923 INTER-LIGAND FREE ENERGY PREDICTED BY IDOCK:   -5.20 KCAL/MOL
REMARK 924 INTRA-LIGAND FREE ENERGY PREDICTED BY IDOCK:    0.02 KCAL/MOL
REMARK 927      BINDING AFFINITY PREDICTED BY RF-SCORE:    0.00 PKD
ROOT
HETATM    1  C   UNL     1     -13.513   9.298  72.105  1.00  0.00    -0.473 C  
HETATM    2  C   UNL     1     -12.388   9.948  71.291  1.00  0.00    -0.381 C  
HETATM    3  N   UNL     1     -11.222   9.048  71.103  1.00  0.00    -0.280 N  
HETATM    4  O   UNL     1     -13.959   8.085  71.492  1.00  0.00    -0.371 OA 
HETATM    5  C   UNL     1     -11.710   7.743  70.592  1.00  0.00    -0.175 C  
HETATM    6  C   UNL     1     -12.869   7.163  71.412  1.00  0.00    -0.384 C  
ENDROOT
BRANCH   3   7
HETATM    7  S   UNL     1      -9.846   9.668  70.355  1.00  0.00    -0.212 SA 
BRANCH   7   8
HETATM    8  C   UNL     1     -10.506  10.683  69.074  1.00  0.00    -0.214 A  
HETATM    9  N   UNL     1     -10.987  11.888  69.285  1.00  0.00    -0.193 NA 
HETATM   10  C   UNL     1     -11.414  12.433  68.085  1.00  0.00    -0.318 A  
HETATM   11  C   UNL     1     -11.973  13.716  67.911  1.00  0.00    -0.382 A  
HETATM   12  C   UNL     1     -12.357  14.142  66.635  1.00  0.00    -0.375 A  
HETATM   13  C   UNL     1     -12.197  13.308  65.534  1.00  0.00    -0.506 A  
HETATM   14  C   UNL     1     -11.649  12.029  65.679  1.00  0.00    -0.356 A  
HETATM   15  C   UNL     1     -11.260  11.615  66.963  1.00  0.00    -0.314 A  
HETATM   16  S   UNL     1     -10.548  10.127  67.453  1.00  0.00    -0.271 SA 
ENDBRANCH   7   8
ENDBRANCH   3   7
TORSDOF 2
ENDMDL
MODEL       60
REMARK 921   NORMALIZED FREE ENERGY PREDICTED BY IDOCK:   -4.47 KCAL/MOL
REMARK 922        TOTAL FREE ENERGY PREDICTED BY IDOCK:   -5.18 KCAL/MOL
REMARK 923 INTER-LIGAND FREE ENERGY PREDICTED BY IDOCK:   -4.98 KCAL/MOL
REMARK 924 INTRA-LIGAND FREE ENERGY PREDICTED BY IDOCK:   -0.20 KCAL/MOL
REMARK 927      BINDING AFFINITY PREDICTED BY RF-SCORE:    0.00 PKD
ROOT
HETATM    1  C   UNL     1      -8.948   6.644  72.945  1.00  0.00    -0.128 C  
HETATM    2  C   UNL     1     -10.443   6.944  73.100  1.00  0.00    -0.287 C  
HETATM    3  N   UNL     1     -11.139   7.081  71.796  1.00  0.00    -0.235 N  
HETATM    4  O   UNL     1      -8.738   5.452  72.182  1.00  0.00    -0.129 OA 
HETATM    5  C   UNL     1     -10.808   5.902  70.958  1.00  0.00    -0.273 C  
HETATM    6  C   UNL     1      -9.303   5.616  70.878  1.00  0.00    -0.160 C  
ENDROOT
BRANCH   3   7
HETATM    7  S   UNL     1     -12.755   7.556  71.799  1.00  0.00    -0.313 SA 
BRANCH   7   8
HETATM    8  C   UNL     1     -12.669   9.280  71.442  1.00  0.00    -0.330 A  
HETATM    9  N   UNL     1     -13.312  10.193  72.136  1.00  0.00    -0.410 NA 
HETATM   10  C   UNL     1     -13.033  11.448  71.623  1.00  0.00    -0.418 A  
HETATM   11  C   UNL     1     -13.528  12.673  72.115  1.00  0.00    -0.561 A  
HETATM   12  C   UNL     1     -13.156  13.873  71.500  1.00  0.00    -0.441 A  
HETATM   13  C   UNL     1     -12.305  13.869  70.401  1.00  0.00    -0.433 A  
HETATM   14  C   UNL     1     -11.802  12.668  69.890  1.00  0.00    -0.364 A  
HETATM   15  C   UNL     1     -12.176  11.471  70.520  1.00  0.00    -0.377 A  
HETATM   16  S   UNL     1     -11.715   9.857  70.141  1.00  0.00    -0.123 SA 
ENDBRANCH   7   8
ENDBRANCH   3   7
TORSDOF 2
ENDMDL
MODEL       61
REMARK 921   NORMALIZED FREE ENERGY PREDICTED BY IDOCK:   -4.46 KCAL/MOL
REMARK 922        TOTAL FREE ENERGY PREDICTED BY IDOCK:   -5.17 KCAL/MOL
REMARK 923 INTER-LIGAND FREE ENERGY PREDICTED BY IDOCK:   -4.97 KCAL/MOL
REMARK 924 INTRA-LIGAND FREE ENERGY PREDICTED BY IDOCK:   -0.19 KCAL/MOL
REMARK 927      BINDING AFFINITY PREDICTED BY RF-SCORE:    0.00 PKD
ROOT
HETATM    1  C   UNL     1     -10.982  11.574  64.199  1.00  0.00    -0.366 C  
HETATM    2  C   UNL     1     -10.409  12.314  65.413  1.00  0.00    -0.269 C  
HETATM    3  N   UNL     1      -9.648  11.422  66.323  1.00  0.00    -0.207 N  
HETATM    4  O   UNL     1      -9.945  10.929  63.453  1.00  0.00    -0.318 OA 
HETATM    5  C   UNL     1      -8.663  10.656  65.519  1.00  0.00    -0.188 C  
HETATM    6  C   UNL     1      -9.278   9.979  64.288  1.00  0.00    -0.269 C  
ENDROOT
BRANCH   3   7
HETATM    7  S   UNL     1      -9.082  12.058  67.777  1.00  0.00    -0.195 SA 
BRANCH   7   8
HETATM    8  C   UNL     1     -10.096  11.269  68.984  1.00  0.00    -0.128 A  
HETATM    9  N   UNL     1      -9.704  10.229  69.685  1.00  0.00    -0.216 NA 
HETATM   10  C   UNL     1     -10.712   9.850  70.556  1.00  0.00    -0.317 A  
HETATM   11  C   UNL     1     -10.654   8.785  71.478  1.00  0.00    -0.379 A  
HETATM   12  C   UNL     1     -11.750   8.517  72.305  1.00  0.00    -0.443 A  
HETATM   13  C   UNL     1     -12.903   9.289  72.221  1.00  0.00    -0.459 A  
HETATM   14  C   UNL     1     -12.990  10.349  71.312  1.00  0.00    -0.517 A  
HETATM   15  C   UNL     1     -11.881  10.613  70.493  1.00  0.00    -0.357 A  
HETATM   16  S   UNL     1     -11.679  11.842  69.305  1.00  0.00    -0.347 SA 
ENDBRANCH   7   8
ENDBRANCH   3   7
TORSDOF 2
ENDMDL
MODEL       62
REMARK 921   NORMALIZED FREE ENERGY PREDICTED BY IDOCK:   -4.44 KCAL/MOL
REMARK 922        TOTAL FREE ENERGY PREDICTED BY IDOCK:   -5.15 KCAL/MOL
REMARK 923 INTER-LIGAND FREE ENERGY PREDICTED BY IDOCK:   -4.95 KCAL/MOL
REMARK 924 INTRA-LIGAND FREE ENERGY PREDICTED BY IDOCK:   -0.20 KCAL/MOL
REMARK 927      BINDING AFFINITY PREDICTED BY RF-SCORE:    0.00 PKD
ROOT
HETATM    1  C   UNL     1     -10.060  12.436  66.703  1.00  0.00    -0.221 C  
HETATM    2  C   UNL     1     -10.356  13.373  67.880  1.00  0.00    -0.238 C  
HETATM    3  N   UNL     1     -10.977  14.651  67.454  1.00  0.00    -0.299 N  
HETATM    4  O   UNL     1     -11.250  12.147  65.962  1.00  0.00    -0.307 OA 
HETATM    5  C   UNL     1     -12.133  14.346  66.574  1.00  0.00    -0.372 C  
HETATM    6  C   UNL     1     -11.795  13.365  65.445  1.00  0.00    -0.353 C  
ENDROOT
BRANCH   3   7
HETATM    7  S   UNL     1     -11.228  15.845  68.616  1.00  0.00    -0.377 SA 
BRANCH   7   8
HETATM    8  C   UNL     1     -10.077  17.100  68.159  1.00  0.00    -0.311 A  
HETATM    9  N   UNL     1      -9.242  17.655  69.008  1.00  0.00    -0.129 NA 
HETATM   10  C   UNL     1      -8.462  18.590  68.348  1.00  0.00    -0.328 A  
HETATM   11  C   UNL     1      -7.444  19.376  68.926  1.00  0.00    -0.399 A  
HETATM   12  C   UNL     1      -6.728  20.281  68.135  1.00  0.00    -0.330 A  
HETATM   13  C   UNL     1      -7.015  20.417  66.782  1.00  0.00    -0.310 A  
HETATM   14  C   UNL     1      -8.022  19.653  66.183  1.00  0.00    -0.352 A  
HETATM   15  C   UNL     1      -8.729  18.742  66.985  1.00  0.00    -0.283 A  
HETATM   16  S   UNL     1      -9.994  17.664  66.542  1.00  0.00    -0.343 SA 
ENDBRANCH   7   8
ENDBRANCH   3   7
TORSDOF 2
ENDMDL
MODEL       63
REMARK 921   NORMALIZED FREE ENERGY PREDICTED BY IDOCK:   -4.44 KCAL/MOL
REMARK 922        TOTAL FREE ENERGY PREDICTED BY IDOCK:   -5.15 KCAL/MOL
REMARK 923 INTER-LIGAND FREE ENERGY PREDICTED BY IDOCK:   -4.92 KCAL/MOL
REMARK 924 INTRA-LIGAND FREE ENERGY PREDICTED BY IDOCK:   -0.23 KCAL/MOL
REMARK 927      BINDING AFFINITY PREDICTED BY RF-SCORE:    0.00 PKD
ROOT
HETATM    1  C   UNL     1      -9.768   7.390  66.741  1.00  0.00    -0.207 C  
HETATM    2  C   UNL     1      -9.583   8.697  67.520  1.00  0.00    -0.157 C  
HETATM    3  N   UNL     1     -10.650   8.921  68.527  1.00  0.00    -0.181 N  
HETATM    4  O   UNL     1      -9.812   6.265  67.624  1.00  0.00    -0.116 OA 
HETATM    5  C   UNL     1     -10.782   7.697  69.355  1.00  0.00    -0.184 C  
HETATM    6  C   UNL     1     -10.912   6.413  68.527  1.00  0.00    -0.319 C  
ENDROOT
BRANCH   3   7
HETATM    7  S   UNL     1     -10.668  10.384  69.361  1.00  0.00    -0.260 SA 
BRANCH   7   8
HETATM    8  C   UNL     1     -10.800  11.581  68.074  1.00  0.00    -0.213 A  
HETATM    9  N   UNL     1     -11.789  11.600  67.207  1.00  0.00    -0.626 NA 
HETATM   10  C   UNL     1     -11.620  12.663  66.335  1.00  0.00    -0.384 A  
HETATM   11  C   UNL     1     -12.487  13.014  65.280  1.00  0.00    -0.555 A  
HETATM   12  C   UNL     1     -12.195  14.122  64.477  1.00  0.00    -0.468 A  
HETATM   13  C   UNL     1     -11.052  14.879  64.706  1.00  0.00    -0.395 A  
HETATM   14  C   UNL     1     -10.172  14.551  65.744  1.00  0.00    -0.354 A  
HETATM   15  C   UNL     1     -10.479  13.441  66.548  1.00  0.00    -0.283 A  
HETATM   16  S   UNL     1      -9.615  12.806  67.893  1.00  0.00    -0.217 SA 
ENDBRANCH   7   8
ENDBRANCH   3   7
TORSDOF 2
ENDMDL
MODEL       64
REMARK 921   NORMALIZED FREE ENERGY PREDICTED BY IDOCK:   -4.42 KCAL/MOL
REMARK 922        TOTAL FREE ENERGY PREDICTED BY IDOCK:   -5.13 KCAL/MOL
REMARK 923 INTER-LIGAND FREE ENERGY PREDICTED BY IDOCK:   -4.94 KCAL/MOL
REMARK 924 INTRA-LIGAND FREE ENERGY PREDICTED BY IDOCK:   -0.19 KCAL/MOL
REMARK 927      BINDING AFFINITY PREDICTED BY RF-SCORE:    0.00 PKD
ROOT
HETATM    1  C   UNL     1     -11.299   6.366  69.274  1.00  0.00    -0.338 C  
HETATM    2  C   UNL     1     -10.566   6.609  67.950  1.00  0.00    -0.247 C  
HETATM    3  N   UNL     1      -9.866   7.918  67.914  1.00  0.00    -0.159 N  
HETATM    4  O   UNL     1     -10.397   6.438  70.383  1.00  0.00    -0.193 OA 
HETATM    5  C   UNL     1      -9.035   8.043  69.136  1.00  0.00    -0.145 C  
HETATM    6  C   UNL     1      -9.803   7.738  70.428  1.00  0.00    -0.183 C  
ENDROOT
BRANCH   3   7
HETATM    7  S   UNL     1      -9.138   8.395  66.472  1.00  0.00    -0.188 SA 
BRANCH   7   8
HETATM    8  C   UNL     1      -9.997   9.878  66.058  1.00  0.00    -0.268 A  
HETATM    9  N   UNL     1     -10.096  10.334  64.829  1.00  0.00    -0.327 NA 
HETATM   10  C   UNL     1     -10.840  11.502  64.826  1.00  0.00    -0.297 A  
HETATM   11  C   UNL     1     -11.171  12.271  63.692  1.00  0.00    -0.539 A  
HETATM   12  C   UNL     1     -11.938  13.432  63.835  1.00  0.00    -0.520 A  
HETATM   13  C   UNL     1     -12.374  13.840  65.091  1.00  0.00    -0.476 A  
HETATM   14  C   UNL     1     -12.057  13.098  66.234  1.00  0.00    -0.460 A  
HETATM   15  C   UNL     1     -11.293  11.931  66.077  1.00  0.00    -0.316 A  
HETATM   16  S   UNL     1     -10.764  10.813  67.273  1.00  0.00    -0.282 SA 
ENDBRANCH   7   8
ENDBRANCH   3   7
TORSDOF 2
ENDMDL
MODEL       65
REMARK 921   NORMALIZED FREE ENERGY PREDICTED BY IDOCK:   -4.35 KCAL/MOL
REMARK 922        TOTAL FREE ENERGY PREDICTED BY IDOCK:   -5.05 KCAL/MOL
REMARK 923 INTER-LIGAND FREE ENERGY PREDICTED BY IDOCK:   -4.83 KCAL/MOL
REMARK 924 INTRA-LIGAND FREE ENERGY PREDICTED BY IDOCK:   -0.22 KCAL/MOL
REMARK 927      BINDING AFFINITY PREDICTED BY RF-SCORE:    0.00 PKD
ROOT
HETATM    1  C   UNL     1      -9.997   7.310  72.340  1.00  0.00    -0.175 C  
HETATM    2  C   UNL     1     -10.360   8.788  72.151  1.00  0.00    -0.308 C  
HETATM    3  N   UNL     1     -11.504   8.984  71.227  1.00  0.00    -0.294 N  
HETATM    4  O   UNL     1     -11.115   6.562  72.825  1.00  0.00    -0.247 OA 
HETATM    5  C   UNL     1     -12.617   8.102  71.660  1.00  0.00    -0.320 C  
HETATM    6  C   UNL     1     -12.189   6.647  71.883  1.00  0.00    -0.335 C  
ENDROOT
BRANCH   3   7
HETATM    7  S   UNL     1     -11.929  10.558  70.804  1.00  0.00    -0.388 SA 
BRANCH   7   8
HETATM    8  C   UNL     1     -11.394  10.684  69.129  1.00  0.00    -0.273 A  
HETATM    9  N   UNL     1     -10.757   9.719  68.502  1.00  0.00    -0.223 NA 
HETATM   10  C   UNL     1     -10.486  10.111  67.202  1.00  0.00    -0.246 A  
HETATM   11  C   UNL     1      -9.830   9.338  66.223  1.00  0.00    -0.361 A  
HETATM   12  C   UNL     1      -9.627   9.860  64.941  1.00  0.00    -0.356 A  
HETATM   13  C   UNL     1     -10.064  11.141  64.624  1.00  0.00    -0.358 A  
HETATM   14  C   UNL     1     -10.714  11.932  65.576  1.00  0.00    -0.329 A  
HETATM   15  C   UNL     1     -10.918  11.395  66.857  1.00  0.00    -0.299 A  
HETATM   16  S   UNL     1     -11.691  12.106  68.220  1.00  0.00    -0.317 SA 
ENDBRANCH   7   8
ENDBRANCH   3   7
TORSDOF 2
ENDMDL
MODEL       66
REMARK 921   NORMALIZED FREE ENERGY PREDICTED BY IDOCK:   -4.34 KCAL/MOL
REMARK 922        TOTAL FREE ENERGY PREDICTED BY IDOCK:   -5.04 KCAL/MOL
REMARK 923 INTER-LIGAND FREE ENERGY PREDICTED BY IDOCK:   -4.94 KCAL/MOL
REMARK 924 INTRA-LIGAND FREE ENERGY PREDICTED BY IDOCK:   -0.10 KCAL/MOL
REMARK 927      BINDING AFFINITY PREDICTED BY RF-SCORE:    0.00 PKD
ROOT
HETATM    1  C   UNL     1     -10.227   6.468  69.475  1.00  0.00    -0.186 C  
HETATM    2  C   UNL     1      -9.475   7.765  69.153  1.00  0.00    -0.151 C  
HETATM    3  N   UNL     1      -9.089   7.864  67.724  1.00  0.00    -0.134 N  
HETATM    4  O   UNL     1     -11.403   6.340  68.669  1.00  0.00    -0.337 OA 
HETATM    5  C   UNL     1     -10.287   7.597  66.890  1.00  0.00    -0.318 C  
HETATM    6  C   UNL     1     -11.031   6.316  67.288  1.00  0.00    -0.366 C  
ENDROOT
BRANCH   3   7
HETATM    7  S   UNL     1      -8.128   9.161  67.244  1.00  0.00    -0.106 SA 
BRANCH   7   8
HETATM    8  C   UNL     1      -9.238  10.159  66.305  1.00  0.00    -0.157 A  
HETATM    9  N   UNL     1     -10.147  10.934  66.851  1.00  0.00    -0.205 NA 
HETATM   10  C   UNL     1     -10.848  11.598  65.858  1.00  0.00    -0.287 A  
HETATM   11  C   UNL     1     -11.890  12.527  66.059  1.00  0.00    -0.478 A  
HETATM   12  C   UNL     1     -12.510  13.129  64.959  1.00  0.00    -0.516 A  
HETATM   13  C   UNL     1     -12.110  12.816  63.665  1.00  0.00    -0.624 A  
HETATM   14  C   UNL     1     -11.081  11.896  63.436  1.00  0.00    -0.463 A  
HETATM   15  C   UNL     1     -10.462  11.303  64.549  1.00  0.00    -0.334 A  
HETATM   16  S   UNL     1      -9.174  10.163  64.592  1.00  0.00    -0.275 SA 
ENDBRANCH   7   8
ENDBRANCH   3   7
TORSDOF 2
ENDMDL
MODEL       67
REMARK 921   NORMALIZED FREE ENERGY PREDICTED BY IDOCK:   -4.33 KCAL/MOL
REMARK 922        TOTAL FREE ENERGY PREDICTED BY IDOCK:   -5.03 KCAL/MOL
REMARK 923 INTER-LIGAND FREE ENERGY PREDICTED BY IDOCK:   -4.85 KCAL/MOL
REMARK 924 INTRA-LIGAND FREE ENERGY PREDICTED BY IDOCK:   -0.17 KCAL/MOL
REMARK 927      BINDING AFFINITY PREDICTED BY RF-SCORE:    0.00 PKD
ROOT
HETATM    1  C   UNL     1      -7.967   9.042  68.569  1.00  0.00    -0.103 C  
HETATM    2  C   UNL     1      -9.052   8.758  69.615  1.00  0.00    -0.149 C  
HETATM    3  N   UNL     1     -10.367   9.343  69.250  1.00  0.00    -0.201 N  
HETATM    4  O   UNL     1      -8.350   8.550  67.282  1.00  0.00    -0.114 OA 
HETATM    5  C   UNL     1     -10.696   8.937  67.861  1.00  0.00    -0.121 C  
HETATM    6  C   UNL     1      -9.558   9.195  66.866  1.00  0.00    -0.178 C  
ENDROOT
BRANCH   3   7
HETATM    7  S   UNL     1     -11.623   9.243  70.368  1.00  0.00    -0.110 SA 
BRANCH   7   8
HETATM    8  C   UNL     1     -12.081  10.928  70.612  1.00  0.00    -0.371 A  
HETATM    9  N   UNL     1     -12.798  11.338  71.634  1.00  0.00    -0.425 NA 
HETATM   10  C   UNL     1     -12.977  12.709  71.554  1.00  0.00    -0.282 A  
HETATM   11  C   UNL     1     -13.679  13.509  72.479  1.00  0.00    -0.664 A  
HETATM   12  C   UNL     1     -13.776  14.889  72.276  1.00  0.00    -0.564 A  
HETATM   13  C   UNL     1     -13.188  15.482  71.165  1.00  0.00    -0.576 A  
HETATM   14  C   UNL     1     -12.488  14.713  70.229  1.00  0.00    -0.401 A  
HETATM   15  C   UNL     1     -12.392  13.329  70.447  1.00  0.00    -0.295 A  
HETATM   16  S   UNL     1     -11.593  12.137  69.499  1.00  0.00    -0.299 SA 
ENDBRANCH   7   8
ENDBRANCH   3   7
TORSDOF 2
ENDMDL
MODEL       68
REMARK 921   NORMALIZED FREE ENERGY PREDICTED BY IDOCK:   -4.32 KCAL/MOL
REMARK 922        TOTAL FREE ENERGY PREDICTED BY IDOCK:   -5.02 KCAL/MOL
REMARK 923 INTER-LIGAND FREE ENERGY PREDICTED BY IDOCK:   -4.80 KCAL/MOL
REMARK 924 INTRA-LIGAND FREE ENERGY PREDICTED BY IDOCK:   -0.22 KCAL/MOL
REMARK 927      BINDING AFFINITY PREDICTED BY RF-SCORE:    0.00 PKD
ROOT
HETATM    1  C   UNL     1     -11.030  10.737  69.524  1.00  0.00    -0.266 C  
HETATM    2  C   UNL     1     -11.815  11.417  68.396  1.00  0.00    -0.274 C  
HETATM    3  N   UNL     1     -11.090  12.571  67.808  1.00  0.00    -0.236 N  
HETATM    4  O   UNL     1      -9.749  10.294  69.067  1.00  0.00    -0.184 OA 
HETATM    5  C   UNL     1      -9.715  12.137  67.459  1.00  0.00    -0.185 C  
HETATM    6  C   UNL     1      -8.994  11.417  68.605  1.00  0.00    -0.131 C  
ENDROOT
BRANCH   3   7
HETATM    7  S   UNL     1     -11.884  13.511  66.658  1.00  0.00    -0.418 SA 
BRANCH   7   8
HETATM    8  C   UNL     1     -11.154  15.103  66.865  1.00  0.00    -0.314 A  
HETATM    9  N   UNL     1     -11.050  15.701  68.031  1.00  0.00    -0.325 NA 
HETATM   10  C   UNL     1     -10.422  16.925  67.869  1.00  0.00    -0.344 A  
HETATM   11  C   UNL     1     -10.120  17.843  68.895  1.00  0.00    -0.349 A  
HETATM   12  C   UNL     1      -9.474  19.045  68.589  1.00  0.00    -0.457 A  
HETATM   13  C   UNL     1      -9.130  19.347  67.276  1.00  0.00    -0.356 A  
HETATM   14  C   UNL     1      -9.420  18.456  66.237  1.00  0.00    -0.246 A  
HETATM   15  C   UNL     1     -10.063  17.249  66.558  1.00  0.00    -0.309 A  
HETATM   16  S   UNL     1     -10.530  15.961  65.519  1.00  0.00    -0.403 SA 
ENDBRANCH   7   8
ENDBRANCH   3   7
TORSDOF 2
ENDMDL
MODEL       69
REMARK 921   NORMALIZED FREE ENERGY PREDICTED BY IDOCK:   -4.28 KCAL/MOL
REMARK 922        TOTAL FREE ENERGY PREDICTED BY IDOCK:   -4.98 KCAL/MOL
REMARK 923 INTER-LIGAND FREE ENERGY PREDICTED BY IDOCK:   -4.78 KCAL/MOL
REMARK 924 INTRA-LIGAND FREE ENERGY PREDICTED BY IDOCK:   -0.19 KCAL/MOL
REMARK 927      BINDING AFFINITY PREDICTED BY RF-SCORE:    0.00 PKD
ROOT
HETATM    1  C   UNL     1      -9.894  16.512  68.117  1.00  0.00    -0.244 C  
HETATM    2  C   UNL     1     -10.865  16.051  67.023  1.00  0.00    -0.227 C  
HETATM    3  N   UNL     1     -11.333  14.657  67.221  1.00  0.00    -0.341 N  
HETATM    4  O   UNL     1     -10.490  16.404  69.413  1.00  0.00    -0.272 OA 
HETATM    5  C   UNL     1     -11.826  14.517  68.614  1.00  0.00    -0.320 C  
HETATM    6  C   UNL     1     -10.839  15.040  69.665  1.00  0.00    -0.271 C  
ENDROOT
BRANCH   3   7
HETATM    7  S   UNL     1     -12.289  13.957  66.024  1.00  0.00    -0.458 SA 
BRANCH   7   8
HETATM    8  C   UNL     1     -11.301  12.612  65.455  1.00  0.00    -0.313 A  
HETATM    9  N   UNL     1     -10.930  12.471  64.201  1.00  0.00    -0.351 NA 
HETATM   10  C   UNL     1     -10.154  11.331  64.073  1.00  0.00    -0.329 A  
HETATM   11  C   UNL     1      -9.563  10.861  62.882  1.00  0.00    -0.371 A  
HETATM   12  C   UNL     1      -8.794   9.693  62.899  1.00  0.00    -0.252 A  
HETATM   13  C   UNL     1      -8.611   8.985  64.081  1.00  0.00    -0.165 A  
HETATM   14  C   UNL     1      -9.188   9.426  65.276  1.00  0.00    -0.299 A  
HETATM   15  C   UNL     1      -9.952  10.605  65.249  1.00  0.00    -0.294 A  
HETATM   16  S   UNL     1     -10.763  11.400  66.541  1.00  0.00    -0.276 SA 
ENDBRANCH   7   8
ENDBRANCH   3   7
TORSDOF 2
ENDMDL
MODEL       70
REMARK 921   NORMALIZED FREE ENERGY PREDICTED BY IDOCK:   -4.28 KCAL/MOL
REMARK 922        TOTAL FREE ENERGY PREDICTED BY IDOCK:   -4.97 KCAL/MOL
REMARK 923 INTER-LIGAND FREE ENERGY PREDICTED BY IDOCK:   -4.82 KCAL/MOL
REMARK 924 INTRA-LIGAND FREE ENERGY PREDICTED BY IDOCK:   -0.15 KCAL/MOL
REMARK 927      BINDING AFFINITY PREDICTED BY RF-SCORE:    0.00 PKD
ROOT
HETATM    1  C   UNL     1     -10.019  10.335  65.026  1.00  0.00    -0.323 C  
HETATM    2  C   UNL     1     -10.524  11.768  64.824  1.00  0.00    -0.293 C  
HETATM    3  N   UNL     1     -11.649  12.113  65.729  1.00  0.00    -0.373 N  
HETATM    4  O   UNL     1      -9.607  10.119  66.379  1.00  0.00    -0.175 OA 
HETATM    5  C   UNL     1     -11.264  11.760  67.118  1.00  0.00    -0.316 C  
HETATM    6  C   UNL     1     -10.718  10.334  67.254  1.00  0.00    -0.263 C  
ENDROOT
BRANCH   3   7
HETATM    7  S   UNL     1     -12.409  13.602  65.527  1.00  0.00    -0.503 SA 
BRANCH   7   8
HETATM    8  C   UNL     1     -11.279  14.735  66.267  1.00  0.00    -0.343 A  
HETATM    9  N   UNL     1     -10.269  15.271  65.619  1.00  0.00    -0.341 NA 
HETATM   10  C   UNL     1      -9.579  16.126  66.462  1.00  0.00    -0.262 A  
HETATM   11  C   UNL     1      -8.446  16.893  66.118  1.00  0.00    -0.281 A  
HETATM   12  C   UNL     1      -7.849  17.723  67.073  1.00  0.00    -0.234 A  
HETATM   13  C   UNL     1      -8.361  17.795  68.364  1.00  0.00    -0.295 A  
HETATM   14  C   UNL     1      -9.481  17.043  68.733  1.00  0.00    -0.263 A  
HETATM   15  C   UNL     1     -10.076  16.219  67.764  1.00  0.00    -0.252 A  
HETATM   16  S   UNL     1     -11.456  15.202  67.907  1.00  0.00    -0.308 SA 
ENDBRANCH   7   8
ENDBRANCH   3   7
TORSDOF 2
ENDMDL
MODEL       71
REMARK 921   NORMALIZED FREE ENERGY PREDICTED BY IDOCK:   -4.28 KCAL/MOL
REMARK 922        TOTAL FREE ENERGY PREDICTED BY IDOCK:   -4.97 KCAL/MOL
REMARK 923 INTER-LIGAND FREE ENERGY PREDICTED BY IDOCK:   -4.78 KCAL/MOL
REMARK 924 INTRA-LIGAND FREE ENERGY PREDICTED BY IDOCK:   -0.19 KCAL/MOL
REMARK 927      BINDING AFFINITY PREDICTED BY RF-SCORE:    0.00 PKD
ROOT
HETATM    1  C   UNL     1      -8.802   6.701  69.314  1.00  0.00    -0.133 C  
HETATM    2  C   UNL     1      -9.115   7.989  70.084  1.00  0.00    -0.151 C  
HETATM    3  N   UNL     1     -10.560   8.325  70.076  1.00  0.00    -0.233 N  
HETATM    4  O   UNL     1      -9.537   5.593  69.842  1.00  0.00    -0.150 OA 
HETATM    5  C   UNL     1     -11.327   7.126  70.497  1.00  0.00    -0.297 C  
HETATM    6  C   UNL     1     -10.938   5.856  69.731  1.00  0.00    -0.382 C  
ENDROOT
BRANCH   3   7
HETATM    7  S   UNL     1     -11.044   9.789  70.754  1.00  0.00    -0.365 SA 
BRANCH   7   8
HETATM    8  C   UNL     1     -11.246  10.837  69.351  1.00  0.00    -0.276 A  
HETATM    9  N   UNL     1     -11.616  12.095  69.439  1.00  0.00    -0.302 NA 
HETATM   10  C   UNL     1     -11.670  12.652  68.172  1.00  0.00    -0.347 A  
HETATM   11  C   UNL     1     -12.013  13.985  67.867  1.00  0.00    -0.387 A  
HETATM   12  C   UNL     1     -12.021  14.417  66.537  1.00  0.00    -0.406 A  
HETATM   13  C   UNL     1     -11.699  13.539  65.508  1.00  0.00    -0.361 A  
HETATM   14  C   UNL     1     -11.359  12.210  65.781  1.00  0.00    -0.402 A  
HETATM   15  C   UNL     1     -11.347  11.790  67.121  1.00  0.00    -0.322 A  
HETATM   16  S   UNL     1     -10.958  10.245  67.769  1.00  0.00    -0.263 SA 
ENDBRANCH   7   8
ENDBRANCH   3   7
TORSDOF 2
ENDMDL
MODEL       72
REMARK 921   NORMALIZED FREE ENERGY PREDICTED BY IDOCK:   -4.26 KCAL/MOL
REMARK 922        TOTAL FREE ENERGY PREDICTED BY IDOCK:   -4.95 KCAL/MOL
REMARK 923 INTER-LIGAND FREE ENERGY PREDICTED BY IDOCK:   -4.83 KCAL/MOL
REMARK 924 INTRA-LIGAND FREE ENERGY PREDICTED BY IDOCK:   -0.12 KCAL/MOL
REMARK 927      BINDING AFFINITY PREDICTED BY RF-SCORE:    0.00 PKD
ROOT
HETATM    1  C   UNL     1     -10.963   6.297  67.299  1.00  0.00    -0.366 C  
HETATM    2  C   UNL     1     -10.326   7.666  67.031  1.00  0.00    -0.330 C  
HETATM    3  N   UNL     1      -8.856   7.588  66.845  1.00  0.00    -0.131 N  
HETATM    4  O   UNL     1     -10.680   5.380  66.238  1.00  0.00    -0.274 OA 
HETATM    5  C   UNL     1      -8.562   6.537  65.838  1.00  0.00    -0.149 C  
HETATM    6  C   UNL     1      -9.265   5.205  66.126  1.00  0.00    -0.151 C  
ENDROOT
BRANCH   3   7
HETATM    7  S   UNL     1      -7.992   9.025  66.688  1.00  0.00    -0.100 SA 
BRANCH   7   8
HETATM    8  C   UNL     1      -9.211  10.168  66.125  1.00  0.00    -0.159 A  
HETATM    9  N   UNL     1      -9.538  10.307  64.860  1.00  0.00    -0.278 NA 
HETATM   10  C   UNL     1     -10.530  11.266  64.740  1.00  0.00    -0.323 A  
HETATM   11  C   UNL     1     -11.145  11.677  63.540  1.00  0.00    -0.476 A  
HETATM   12  C   UNL     1     -12.143  12.657  63.566  1.00  0.00    -0.648 A  
HETATM   13  C   UNL     1     -12.531  13.236  64.769  1.00  0.00    -0.439 A  
HETATM   14  C   UNL     1     -11.935  12.851  65.974  1.00  0.00    -0.505 A  
HETATM   15  C   UNL     1     -10.940  11.861  65.936  1.00  0.00    -0.307 A  
HETATM   16  S   UNL     1     -10.046  11.173  67.235  1.00  0.00    -0.193 SA 
ENDBRANCH   7   8
ENDBRANCH   3   7
TORSDOF 2
ENDMDL
MODEL       73
REMARK 921   NORMALIZED FREE ENERGY PREDICTED BY IDOCK:   -4.26 KCAL/MOL
REMARK 922        TOTAL FREE ENERGY PREDICTED BY IDOCK:   -4.95 KCAL/MOL
REMARK 923 INTER-LIGAND FREE ENERGY PREDICTED BY IDOCK:   -4.93 KCAL/MOL
REMARK 924 INTRA-LIGAND FREE ENERGY PREDICTED BY IDOCK:   -0.02 KCAL/MOL
REMARK 927      BINDING AFFINITY PREDICTED BY RF-SCORE:    0.00 PKD
ROOT
HETATM    1  C   UNL     1      -9.248  11.459  65.672  1.00  0.00    -0.193 C  
HETATM    2  C   UNL     1     -10.245  12.564  66.041  1.00  0.00    -0.251 C  
HETATM    3  N   UNL     1     -10.435  13.553  64.951  1.00  0.00    -0.384 N  
HETATM    4  O   UNL     1      -9.659  10.769  64.488  1.00  0.00    -0.224 OA 
HETATM    5  C   UNL     1     -10.729  12.821  63.694  1.00  0.00    -0.291 C  
HETATM    6  C   UNL     1      -9.732  11.694  63.399  1.00  0.00    -0.348 C  
ENDROOT
BRANCH   3   7
HETATM    7  S   UNL     1     -11.388  14.908  65.259  1.00  0.00    -0.347 SA 
BRANCH   7   8
HETATM    8  C   UNL     1     -10.217  16.109  65.800  1.00  0.00    -0.374 A  
HETATM    9  N   UNL     1     -10.423  17.405  65.715  1.00  0.00    -0.551 NA 
HETATM   10  C   UNL     1      -9.332  18.083  66.234  1.00  0.00    -0.206 A  
HETATM   11  C   UNL     1      -9.195  19.483  66.328  1.00  0.00    -0.416 A  
HETATM   12  C   UNL     1      -8.036  20.035  66.882  1.00  0.00    -0.346 A  
HETATM   13  C   UNL     1      -7.011  19.213  67.338  1.00  0.00    -0.223 A  
HETATM   14  C   UNL     1      -7.119  17.821  67.254  1.00  0.00    -0.201 A  
HETATM   15  C   UNL     1      -8.290  17.278  66.702  1.00  0.00    -0.257 A  
HETATM   16  S   UNL     1      -8.720  15.627  66.482  1.00  0.00    -0.312 SA 
ENDBRANCH   7   8
ENDBRANCH   3   7
TORSDOF 2
ENDMDL
MODEL       74
REMARK 921   NORMALIZED FREE ENERGY PREDICTED BY IDOCK:   -4.26 KCAL/MOL
REMARK 922        TOTAL FREE ENERGY PREDICTED BY IDOCK:   -4.95 KCAL/MOL
REMARK 923 INTER-LIGAND FREE ENERGY PREDICTED BY IDOCK:   -4.73 KCAL/MOL
REMARK 924 INTRA-LIGAND FREE ENERGY PREDICTED BY IDOCK:   -0.21 KCAL/MOL
REMARK 927      BINDING AFFINITY PREDICTED BY RF-SCORE:    0.00 PKD
ROOT
HETATM    1  C   UNL     1     -11.221  15.495  64.624  1.00  0.00    -0.371 C  
HETATM    2  C   UNL     1     -10.147  15.113  65.649  1.00  0.00    -0.363 C  
HETATM    3  N   UNL     1     -10.721  14.663  66.941  1.00  0.00    -0.289 N  
HETATM    4  O   UNL     1     -12.111  14.401  64.378  1.00  0.00    -0.460 OA 
HETATM    5  C   UNL     1     -11.742  13.621  66.667  1.00  0.00    -0.388 C  
HETATM    6  C   UNL     1     -12.761  14.034  65.598  1.00  0.00    -0.481 C  
ENDROOT
BRANCH   3   7
HETATM    7  S   UNL     1      -9.668  14.349  68.218  1.00  0.00    -0.226 SA 
BRANCH   7   8
HETATM    8  C   UNL     1      -8.616  15.764  68.230  1.00  0.00    -0.170 A  
HETATM    9  N   UNL     1      -9.056  16.987  68.429  1.00  0.00    -0.248 NA 
HETATM   10  C   UNL     1      -7.992  17.873  68.395  1.00  0.00    -0.298 A  
HETATM   11  C   UNL     1      -8.070  19.268  68.583  1.00  0.00    -0.405 A  
HETATM   12  C   UNL     1      -6.908  20.045  68.529  1.00  0.00    -0.336 A  
HETATM   13  C   UNL     1      -5.674  19.454  68.284  1.00  0.00    -0.216 A  
HETATM   14  C   UNL     1      -5.568  18.073  68.090  1.00  0.00    -0.160 A  
HETATM   15  C   UNL     1      -6.740  17.302  68.155  1.00  0.00    -0.179 A  
HETATM   16  S   UNL     1      -6.929  15.601  67.978  1.00  0.00    -0.142 SA 
ENDBRANCH   7   8
ENDBRANCH   3   7
TORSDOF 2
ENDMDL
MODEL       75
REMARK 921   NORMALIZED FREE ENERGY PREDICTED BY IDOCK:   -4.25 KCAL/MOL
REMARK 922        TOTAL FREE ENERGY PREDICTED BY IDOCK:   -4.94 KCAL/MOL
REMARK 923 INTER-LIGAND FREE ENERGY PREDICTED BY IDOCK:   -4.80 KCAL/MOL
REMARK 924 INTRA-LIGAND FREE ENERGY PREDICTED BY IDOCK:   -0.13 KCAL/MOL
REMARK 927      BINDING AFFINITY PREDICTED BY RF-SCORE:    0.00 PKD
ROOT
HETATM    1  C   UNL     1     -10.067   7.618  69.723  1.00  0.00    -0.196 C  
HETATM    2  C   UNL     1     -11.202   8.649  69.691  1.00  0.00     0.079 C  
HETATM    3  N   UNL     1     -10.744  10.016  70.043  1.00  0.00    -0.278 N  
HETATM    4  O   UNL     1      -9.006   7.991  68.839  1.00  0.00    -0.141 OA 
HETATM    5  C   UNL     1      -9.558  10.345  69.214  1.00  0.00    -0.209 C  
HETATM    6  C   UNL     1      -8.477   9.258  69.241  1.00  0.00    -0.137 C  
ENDROOT
BRANCH   3   7
HETATM    7  S   UNL     1     -11.901  11.231  70.195  1.00  0.00    -0.373 SA 
BRANCH   7   8
HETATM    8  C   UNL     1     -11.725  12.145  68.698  1.00  0.00    -0.330 A  
HETATM    9  N   UNL     1     -12.067  11.671  67.520  1.00  0.00    -0.532 NA 
HETATM   10  C   UNL     1     -11.824  12.627  66.548  1.00  0.00    -0.396 A  
HETATM   11  C   UNL     1     -12.078  12.488  65.168  1.00  0.00    -0.503 A  
HETATM   12  C   UNL     1     -11.788  13.541  64.295  1.00  0.00    -0.471 A  
HETATM   13  C   UNL     1     -11.245  14.727  64.776  1.00  0.00    -0.392 A  
HETATM   14  C   UNL     1     -10.979  14.891  66.140  1.00  0.00    -0.334 A  
HETATM   15  C   UNL     1     -11.281  13.829  67.007  1.00  0.00    -0.311 A  
HETATM   16  S   UNL     1     -11.087  13.736  68.714  1.00  0.00    -0.276 SA 
ENDBRANCH   7   8
ENDBRANCH   3   7
TORSDOF 2
ENDMDL
MODEL       76
REMARK 921   NORMALIZED FREE ENERGY PREDICTED BY IDOCK:   -4.24 KCAL/MOL
REMARK 922        TOTAL FREE ENERGY PREDICTED BY IDOCK:   -4.93 KCAL/MOL
REMARK 923 INTER-LIGAND FREE ENERGY PREDICTED BY IDOCK:   -4.72 KCAL/MOL
REMARK 924 INTRA-LIGAND FREE ENERGY PREDICTED BY IDOCK:   -0.21 KCAL/MOL
REMARK 927      BINDING AFFINITY PREDICTED BY RF-SCORE:    0.00 PKD
ROOT
HETATM    1  C   UNL     1     -11.255  10.389  70.568  1.00  0.00    -0.314 C  
HETATM    2  C   UNL     1     -11.891  10.848  69.251  1.00  0.00    -0.324 C  
HETATM    3  N   UNL     1     -10.908  11.459  68.321  1.00  0.00    -0.196 N  
HETATM    4  O   UNL     1     -10.199   9.453  70.333  1.00  0.00    -0.217 OA 
HETATM    5  C   UNL     1      -9.751  10.540  68.187  1.00  0.00    -0.153 C  
HETATM    6  C   UNL     1      -9.186  10.071  69.533  1.00  0.00    -0.221 C  
ENDROOT
BRANCH   3   7
HETATM    7  S   UNL     1     -11.478  12.145  66.893  1.00  0.00    -0.338 SA 
BRANCH   7   8
HETATM    8  C   UNL     1     -11.103  13.856  67.089  1.00  0.00    -0.300 A  
HETATM    9  N   UNL     1     -10.856  14.660  66.079  1.00  0.00    -0.310 NA 
HETATM   10  C   UNL     1     -10.613  15.939  66.553  1.00  0.00    -0.297 A  
HETATM   11  C   UNL     1     -10.326  17.073  65.766  1.00  0.00    -0.275 A  
HETATM   12  C   UNL     1     -10.106  18.310  66.380  1.00  0.00    -0.406 A  
HETATM   13  C   UNL     1     -10.162  18.432  67.764  1.00  0.00    -0.407 A  
HETATM   14  C   UNL     1     -10.441  17.322  68.569  1.00  0.00    -0.375 A  
HETATM   15  C   UNL     1     -10.668  16.087  67.941  1.00  0.00    -0.316 A  
HETATM   16  S   UNL     1     -11.046  14.565  68.649  1.00  0.00    -0.270 SA 
ENDBRANCH   7   8
ENDBRANCH   3   7
TORSDOF 2
ENDMDL
MODEL       77
REMARK 921   NORMALIZED FREE ENERGY PREDICTED BY IDOCK:   -4.23 KCAL/MOL
REMARK 922        TOTAL FREE ENERGY PREDICTED BY IDOCK:   -4.92 KCAL/MOL
REMARK 923 INTER-LIGAND FREE ENERGY PREDICTED BY IDOCK:   -4.75 KCAL/MOL
REMARK 924 INTRA-LIGAND FREE ENERGY PREDICTED BY IDOCK:   -0.17 KCAL/MOL
REMARK 927      BINDING AFFINITY PREDICTED BY RF-SCORE:    0.00 PKD
ROOT
HETATM    1  C   UNL     1      -7.833  17.406  66.392  1.00  0.00    -0.302 C  
HETATM    2  C   UNL     1      -9.180  16.709  66.169  1.00  0.00    -0.277 C  
HETATM    3  N   UNL     1      -9.043  15.242  65.986  1.00  0.00    -0.285 N  
HETATM    4  O   UNL     1      -7.151  16.861  67.525  1.00  0.00    -0.136 OA 
HETATM    5  C   UNL     1      -8.219  14.702  67.095  1.00  0.00    -0.201 C  
HETATM    6  C   UNL     1      -6.908  15.468  67.308  1.00  0.00    -0.133 C  
ENDROOT
BRANCH   3   7
HETATM    7  S   UNL     1     -10.418  14.355  65.585  1.00  0.00    -0.355 SA 
BRANCH   7   8
HETATM    8  C   UNL     1     -11.092  13.924  67.156  1.00  0.00    -0.300 A  
HETATM    9  N   UNL     1     -11.121  12.692  67.614  1.00  0.00    -0.250 NA 
HETATM   10  C   UNL     1     -11.695  12.680  68.874  1.00  0.00    -0.325 A  
HETATM   11  C   UNL     1     -11.884  11.543  69.687  1.00  0.00    -0.421 A  
HETATM   12  C   UNL     1     -12.475  11.678  70.948  1.00  0.00    -0.440 A  
HETATM   13  C   UNL     1     -12.884  12.925  71.406  1.00  0.00    -0.377 A  
HETATM   14  C   UNL     1     -12.713  14.068  70.619  1.00  0.00    -0.373 A  
HETATM   15  C   UNL     1     -12.112  13.922  69.359  1.00  0.00    -0.337 A  
HETATM   16  S   UNL     1     -11.753  15.126  68.183  1.00  0.00    -0.232 SA 
ENDBRANCH   7   8
ENDBRANCH   3   7
TORSDOF 2
ENDMDL
MODEL       78
REMARK 921   NORMALIZED FREE ENERGY PREDICTED BY IDOCK:   -4.23 KCAL/MOL
REMARK 922        TOTAL FREE ENERGY PREDICTED BY IDOCK:   -4.92 KCAL/MOL
REMARK 923 INTER-LIGAND FREE ENERGY PREDICTED BY IDOCK:   -4.74 KCAL/MOL
REMARK 924 INTRA-LIGAND FREE ENERGY PREDICTED BY IDOCK:   -0.17 KCAL/MOL
REMARK 927      BINDING AFFINITY PREDICTED BY RF-SCORE:    0.00 PKD
ROOT
HETATM    1  C   UNL     1     -14.299   7.425  71.475  1.00  0.00    -0.440 C  
HETATM    2  C   UNL     1     -12.830   7.140  71.140  1.00  0.00    -0.288 C  
HETATM    3  N   UNL     1     -12.088   8.359  70.731  1.00  0.00    -0.137 N  
HETATM    4  O   UNL     1     -14.410   8.404  72.513  1.00  0.00    -0.399 OA 
HETATM    5  C   UNL     1     -12.318   9.416  71.747  1.00  0.00    -0.394 C  
HETATM    6  C   UNL     1     -13.800   9.624  72.083  1.00  0.00    -0.241 C  
ENDROOT
BRANCH   3   7
HETATM    7  S   UNL     1     -10.502   8.185  70.190  1.00  0.00    -0.228 SA 
BRANCH   7   8
HETATM    8  C   UNL     1     -10.478   9.128  68.701  1.00  0.00    -0.207 A  
HETATM    9  N   UNL     1     -10.975  10.342  68.609  1.00  0.00    -0.238 NA 
HETATM   10  C   UNL     1     -10.792  10.821  67.323  1.00  0.00    -0.288 A  
HETATM   11  C   UNL     1     -11.180  12.091  66.849  1.00  0.00    -0.375 A  
HETATM   12  C   UNL     1     -10.927  12.448  65.520  1.00  0.00    -0.328 A  
HETATM   13  C   UNL     1     -10.299  11.557  64.658  1.00  0.00    -0.349 A  
HETATM   14  C   UNL     1      -9.906  10.289  65.100  1.00  0.00    -0.389 A  
HETATM   15  C   UNL     1     -10.159   9.945  66.438  1.00  0.00    -0.240 A  
HETATM   16  S   UNL     1      -9.785   8.487  67.271  1.00  0.00    -0.201 SA 
ENDBRANCH   7   8
ENDBRANCH   3   7
TORSDOF 2
ENDMDL
MODEL       79
REMARK 921   NORMALIZED FREE ENERGY PREDICTED BY IDOCK:   -4.20 KCAL/MOL
REMARK 922        TOTAL FREE ENERGY PREDICTED BY IDOCK:   -4.89 KCAL/MOL
REMARK 923 INTER-LIGAND FREE ENERGY PREDICTED BY IDOCK:   -4.70 KCAL/MOL
REMARK 924 INTRA-LIGAND FREE ENERGY PREDICTED BY IDOCK:   -0.19 KCAL/MOL
REMARK 927      BINDING AFFINITY PREDICTED BY RF-SCORE:    0.00 PKD
ROOT
HETATM    1  C   UNL     1     -12.086  15.412  73.232  1.00  0.00    -0.478 C  
HETATM    2  C   UNL     1     -11.865  16.124  71.892  1.00  0.00    -0.525 C  
HETATM    3  N   UNL     1     -12.123  15.243  70.725  1.00  0.00    -0.319 N  
HETATM    4  O   UNL     1     -13.417  14.896  73.328  1.00  0.00    -0.536 OA 
HETATM    5  C   UNL     1     -13.452  14.605  70.899  1.00  0.00    -0.243 C  
HETATM    6  C   UNL     1     -13.639  13.954  72.275  1.00  0.00    -0.544 C  
ENDROOT
BRANCH   3   7
HETATM    7  S   UNL     1     -11.782  15.836  69.186  1.00  0.00    -0.353 SA 
BRANCH   7   8
HETATM    8  C   UNL     1     -10.392  14.876  68.683  1.00  0.00    -0.237 A  
HETATM    9  N   UNL     1     -10.488  13.634  68.264  1.00  0.00    -0.242 NA 
HETATM   10  C   UNL     1      -9.230  13.159  67.929  1.00  0.00    -0.207 A  
HETATM   11  C   UNL     1      -8.936  11.875  67.427  1.00  0.00    -0.173 A  
HETATM   12  C   UNL     1      -7.615  11.530  67.124  1.00  0.00    -0.149 A  
HETATM   13  C   UNL     1      -6.585  12.442  67.319  1.00  0.00    -0.136 A  
HETATM   14  C   UNL     1      -6.847  13.722  67.819  1.00  0.00    -0.182 A  
HETATM   15  C   UNL     1      -8.178  14.060  68.113  1.00  0.00    -0.155 A  
HETATM   16  S   UNL     1      -8.812  15.541  68.716  1.00  0.00    -0.220 SA 
ENDBRANCH   7   8
ENDBRANCH   3   7
TORSDOF 2
ENDMDL
MODEL       80
REMARK 921   NORMALIZED FREE ENERGY PREDICTED BY IDOCK:   -4.17 KCAL/MOL
REMARK 922        TOTAL FREE ENERGY PREDICTED BY IDOCK:   -4.85 KCAL/MOL
REMARK 923 INTER-LIGAND FREE ENERGY PREDICTED BY IDOCK:   -4.63 KCAL/MOL
REMARK 924 INTRA-LIGAND FREE ENERGY PREDICTED BY IDOCK:   -0.22 KCAL/MOL
REMARK 927      BINDING AFFINITY PREDICTED BY RF-SCORE:    0.00 PKD
ROOT
HETATM    1  C   UNL     1      -9.735  14.082  66.975  1.00  0.00    -0.256 C  
HETATM    2  C   UNL     1      -9.293  12.690  66.507  1.00  0.00    -0.228 C  
HETATM    3  N   UNL     1     -10.350  11.663  66.683  1.00  0.00    -0.215 N  
HETATM    4  O   UNL     1     -10.913  14.508  66.284  1.00  0.00    -0.311 OA 
HETATM    5  C   UNL     1     -11.607  12.171  66.080  1.00  0.00    -0.354 C  
HETATM    6  C   UNL     1     -11.975  13.586  66.542  1.00  0.00    -0.413 C  
ENDROOT
BRANCH   3   7
HETATM    7  S   UNL     1      -9.967  10.057  66.352  1.00  0.00    -0.243 SA 
BRANCH   7   8
HETATM    8  C   UNL     1     -10.353   9.231  67.860  1.00  0.00    -0.227 A  
HETATM    9  N   UNL     1     -10.525   9.859  69.002  1.00  0.00    -0.200 NA 
HETATM   10  C   UNL     1     -10.831   8.943  69.994  1.00  0.00    -0.227 A  
HETATM   11  C   UNL     1     -11.097   9.243  71.346  1.00  0.00    -0.437 A  
HETATM   12  C   UNL     1     -11.400   8.213  72.243  1.00  0.00    -0.429 A  
HETATM   13  C   UNL     1     -11.436   6.891  71.814  1.00  0.00    -0.310 A  
HETATM   14  C   UNL     1     -11.173   6.564  70.480  1.00  0.00    -0.401 A  
HETATM   15  C   UNL     1     -10.877   7.607  69.587  1.00  0.00    -0.191 A  
HETATM   16  S   UNL     1     -10.531   7.527  67.904  1.00  0.00    -0.184 SA 
ENDBRANCH   7   8
ENDBRANCH   3   7
TORSDOF 2
ENDMDL
MODEL       81
REMARK 921   NORMALIZED FREE ENERGY PREDICTED BY IDOCK:   -4.17 KCAL/MOL
REMARK 922        TOTAL FREE ENERGY PREDICTED BY IDOCK:   -4.85 KCAL/MOL
REMARK 923 INTER-LIGAND FREE ENERGY PREDICTED BY IDOCK:   -5.26 KCAL/MOL
REMARK 924 INTRA-LIGAND FREE ENERGY PREDICTED BY IDOCK:    0.41 KCAL/MOL
REMARK 927      BINDING AFFINITY PREDICTED BY RF-SCORE:    0.00 PKD
ROOT
HETATM    1  C   UNL     1      -9.128  20.528  67.152  1.00  0.00    -0.322 C  
HETATM    2  C   UNL     1      -8.618  19.304  66.382  1.00  0.00    -0.343 C  
HETATM    3  N   UNL     1      -8.202  18.195  67.277  1.00  0.00    -0.227 N  
HETATM    4  O   UNL     1     -10.227  20.181  68.000  1.00  0.00    -0.405 OA 
HETATM    5  C   UNL     1      -9.298  17.931  68.242  1.00  0.00    -0.286 C  
HETATM    6  C   UNL     1      -9.806  19.195  68.946  1.00  0.00    -0.424 C  
ENDROOT
BRANCH   3   7
HETATM    7  S   UNL     1      -7.481  16.839  66.586  1.00  0.00    -0.289 SA 
BRANCH   7   8
HETATM    8  C   UNL     1      -8.855  15.797  66.215  1.00  0.00    -0.343 A  
HETATM    9  N   UNL     1      -8.829  14.491  66.362  1.00  0.00    -0.125 NA 
HETATM   10  C   UNL     1     -10.057  13.960  66.004  1.00  0.00    -0.313 A  
HETATM   11  C   UNL     1     -10.413  12.597  66.044  1.00  0.00    -0.288 A  
HETATM   12  C   UNL     1     -11.697  12.199  65.658  1.00  0.00    -0.385 A  
HETATM   13  C   UNL     1     -12.628  13.139  65.228  1.00  0.00    -0.531 A  
HETATM   14  C   UNL     1     -12.300  14.498  65.175  1.00  0.00    -0.324 A  
HETATM   15  C   UNL     1     -11.010  14.885  65.572  1.00  0.00    -0.350 A  
HETATM   16  S   UNL     1     -10.324  16.462  65.634  1.00  0.00    -0.305 SA 
ENDBRANCH   7   8
ENDBRANCH   3   7
TORSDOF 2
ENDMDL
MODEL       82
REMARK 921   NORMALIZED FREE ENERGY PREDICTED BY IDOCK:   -4.13 KCAL/MOL
REMARK 922        TOTAL FREE ENERGY PREDICTED BY IDOCK:   -4.81 KCAL/MOL
REMARK 923 INTER-LIGAND FREE ENERGY PREDICTED BY IDOCK:   -4.64 KCAL/MOL
REMARK 924 INTRA-LIGAND FREE ENERGY PREDICTED BY IDOCK:   -0.17 KCAL/MOL
REMARK 927      BINDING AFFINITY PREDICTED BY RF-SCORE:    0.00 PKD
ROOT
HETATM    1  C   UNL     1      -7.970   9.445  70.157  1.00  0.00    -0.150 C  
HETATM    2  C   UNL     1      -9.249   9.695  69.349  1.00  0.00    -0.189 C  
HETATM    3  N   UNL     1      -9.289  11.048  68.742  1.00  0.00    -0.192 N  
HETATM    4  O   UNL     1      -6.805   9.621  69.345  1.00  0.00    -0.050 OA 
HETATM    5  C   UNL     1      -8.017  11.276  68.011  1.00  0.00    -0.119 C  
HETATM    6  C   UNL     1      -6.771  10.962  68.848  1.00  0.00    -0.067 C  
ENDROOT
BRANCH   3   7
HETATM    7  S   UNL     1     -10.695  11.526  67.946  1.00  0.00    -0.214 SA 
BRANCH   7   8
HETATM    8  C   UNL     1     -11.585  12.401  69.192  1.00  0.00    -0.314 A  
HETATM    9  N   UNL     1     -11.758  13.704  69.173  1.00  0.00    -0.307 NA 
HETATM   10  C   UNL     1     -12.507  14.088  70.273  1.00  0.00    -0.338 A  
HETATM   11  C   UNL     1     -12.908  15.403  70.583  1.00  0.00    -0.484 A  
HETATM   12  C   UNL     1     -13.672  15.648  71.729  1.00  0.00    -0.482 A  
HETATM   13  C   UNL     1     -14.036  14.603  72.571  1.00  0.00    -0.442 A  
HETATM   14  C   UNL     1     -13.649  13.288  72.289  1.00  0.00    -0.703 A  
HETATM   15  C   UNL     1     -12.889  13.054  71.132  1.00  0.00    -0.245 A  
HETATM   16  S   UNL     1     -12.285  11.566  70.515  1.00  0.00    -0.347 SA 
ENDBRANCH   7   8
ENDBRANCH   3   7
TORSDOF 2
ENDMDL
MODEL       83
REMARK 921   NORMALIZED FREE ENERGY PREDICTED BY IDOCK:   -4.13 KCAL/MOL
REMARK 922        TOTAL FREE ENERGY PREDICTED BY IDOCK:   -4.80 KCAL/MOL
REMARK 923 INTER-LIGAND FREE ENERGY PREDICTED BY IDOCK:   -4.61 KCAL/MOL
REMARK 924 INTRA-LIGAND FREE ENERGY PREDICTED BY IDOCK:   -0.20 KCAL/MOL
REMARK 927      BINDING AFFINITY PREDICTED BY RF-SCORE:    0.00 PKD
ROOT
HETATM    1  C   UNL     1     -10.138  16.742  68.892  1.00  0.00    -0.285 C  
HETATM    2  C   UNL     1     -10.943  16.229  67.692  1.00  0.00    -0.245 C  
HETATM    3  N   UNL     1     -11.428  14.839  67.879  1.00  0.00    -0.330 N  
HETATM    4  O   UNL     1     -10.909  16.679  70.095  1.00  0.00    -0.301 OA 
HETATM    5  C   UNL     1     -12.111  14.749  69.193  1.00  0.00    -0.243 C  
HETATM    6  C   UNL     1     -11.283  15.322  70.350  1.00  0.00    -0.299 C  
ENDROOT
BRANCH   3   7
HETATM    7  S   UNL     1     -12.203  14.083  66.589  1.00  0.00    -0.361 SA 
BRANCH   7   8
HETATM    8  C   UNL     1     -11.330  12.559  66.430  1.00  0.00    -0.329 A  
HETATM    9  N   UNL     1     -11.296  11.647  67.376  1.00  0.00    -0.353 NA 
HETATM   10  C   UNL     1     -10.546  10.564  66.948  1.00  0.00    -0.243 A  
HETATM   11  C   UNL     1     -10.298   9.386  67.683  1.00  0.00    -0.303 A  
HETATM   12  C   UNL     1      -9.524   8.364  67.123  1.00  0.00    -0.209 A  
HETATM   13  C   UNL     1      -8.990   8.502  65.847  1.00  0.00    -0.235 A  
HETATM   14  C   UNL     1      -9.217   9.661  65.097  1.00  0.00    -0.305 A  
HETATM   15  C   UNL     1     -10.001  10.677  65.667  1.00  0.00    -0.268 A  
HETATM   16  S   UNL     1     -10.466  12.191  64.996  1.00  0.00    -0.300 SA 
ENDBRANCH   7   8
ENDBRANCH   3   7
TORSDOF 2
ENDMDL
MODEL       84
REMARK 921   NORMALIZED FREE ENERGY PREDICTED BY IDOCK:   -4.12 KCAL/MOL
REMARK 922        TOTAL FREE ENERGY PREDICTED BY IDOCK:   -4.80 KCAL/MOL
REMARK 923 INTER-LIGAND FREE ENERGY PREDICTED BY IDOCK:   -4.59 KCAL/MOL
REMARK 924 INTRA-LIGAND FREE ENERGY PREDICTED BY IDOCK:   -0.21 KCAL/MOL
REMARK 927      BINDING AFFINITY PREDICTED BY RF-SCORE:    0.00 PKD
ROOT
HETATM    1  C   UNL     1     -10.221  19.066  68.714  1.00  0.00    -0.274 C  
HETATM    2  C   UNL     1      -9.053  18.145  68.340  1.00  0.00    -0.307 C  
HETATM    3  N   UNL     1      -8.935  17.934  66.876  1.00  0.00    -0.250 N  
HETATM    4  O   UNL     1     -10.099  20.339  68.072  1.00  0.00    -0.397 OA 
HETATM    5  C   UNL     1      -8.945  19.258  66.205  1.00  0.00    -0.328 C  
HETATM    6  C   UNL     1     -10.102  20.158  66.653  1.00  0.00    -0.454 C  
ENDROOT
BRANCH   3   7
HETATM    7  S   UNL     1      -7.793  16.830  66.317  1.00  0.00    -0.216 SA 
BRANCH   7   8
HETATM    8  C   UNL     1      -8.562  15.271  66.608  1.00  0.00    -0.270 A  
HETATM    9  N   UNL     1      -9.705  14.919  66.064  1.00  0.00    -0.312 NA 
HETATM   10  C   UNL     1     -10.039  13.638  66.472  1.00  0.00    -0.286 A  
HETATM   11  C   UNL     1     -11.186  12.917  66.083  1.00  0.00    -0.326 A  
HETATM   12  C   UNL     1     -11.395  11.622  66.570  1.00  0.00    -0.331 A  
HETATM   13  C   UNL     1     -10.481  11.040  67.441  1.00  0.00    -0.255 A  
HETATM   14  C   UNL     1      -9.336  11.734  67.846  1.00  0.00    -0.184 A  
HETATM   15  C   UNL     1      -9.134  13.030  67.345  1.00  0.00    -0.201 A  
HETATM   16  S   UNL     1      -7.831  14.114  67.640  1.00  0.00    -0.193 SA 
ENDBRANCH   7   8
ENDBRANCH   3   7
TORSDOF 2
ENDMDL
MODEL       85
REMARK 921   NORMALIZED FREE ENERGY PREDICTED BY IDOCK:   -4.12 KCAL/MOL
REMARK 922        TOTAL FREE ENERGY PREDICTED BY IDOCK:   -4.79 KCAL/MOL
REMARK 923 INTER-LIGAND FREE ENERGY PREDICTED BY IDOCK:   -4.97 KCAL/MOL
REMARK 924 INTRA-LIGAND FREE ENERGY PREDICTED BY IDOCK:    0.19 KCAL/MOL
REMARK 927      BINDING AFFINITY PREDICTED BY RF-SCORE:    0.00 PKD
ROOT
HETATM    1  C   UNL     1      -8.221  11.148  66.532  1.00  0.00    -0.167 C  
HETATM    2  C   UNL     1      -9.105  12.375  66.787  1.00  0.00    -0.212 C  
HETATM    3  N   UNL     1      -9.885  12.779  65.590  1.00  0.00    -0.222 N  
HETATM    4  O   UNL     1      -9.002  10.033  66.092  1.00  0.00    -0.144 OA 
HETATM    5  C   UNL     1     -10.587  11.585  65.059  1.00  0.00    -0.297 C  
HETATM    6  C   UNL     1      -9.668  10.371  64.872  1.00  0.00    -0.309 C  
ENDROOT
BRANCH   3   7
HETATM    7  S   UNL     1     -10.791  14.197  65.668  1.00  0.00    -0.319 SA 
BRANCH   7   8
HETATM    8  C   UNL     1     -11.199  14.321  67.379  1.00  0.00    -0.316 A  
HETATM    9  N   UNL     1     -10.994  15.407  68.091  1.00  0.00    -0.285 NA 
HETATM   10  C   UNL     1     -11.431  15.199  69.389  1.00  0.00    -0.306 A  
HETATM   11  C   UNL     1     -11.390  16.140  70.438  1.00  0.00    -0.377 A  
HETATM   12  C   UNL     1     -11.873  15.796  71.704  1.00  0.00    -0.539 A  
HETATM   13  C   UNL     1     -12.391  14.527  71.941  1.00  0.00    -0.389 A  
HETATM   14  C   UNL     1     -12.440  13.572  70.920  1.00  0.00    -0.448 A  
HETATM   15  C   UNL     1     -11.959  13.932  69.651  1.00  0.00    -0.342 A  
HETATM   16  S   UNL     1     -11.903  12.997  68.208  1.00  0.00    -0.300 SA 
ENDBRANCH   7   8
ENDBRANCH   3   7
TORSDOF 2
ENDMDL
MODEL       86
REMARK 921   NORMALIZED FREE ENERGY PREDICTED BY IDOCK:   -4.11 KCAL/MOL
REMARK 922        TOTAL FREE ENERGY PREDICTED BY IDOCK:   -4.79 KCAL/MOL
REMARK 923 INTER-LIGAND FREE ENERGY PREDICTED BY IDOCK:   -4.68 KCAL/MOL
REMARK 924 INTRA-LIGAND FREE ENERGY PREDICTED BY IDOCK:   -0.11 KCAL/MOL
REMARK 927      BINDING AFFINITY PREDICTED BY RF-SCORE:    0.00 PKD
ROOT
HETATM    1  C   UNL     1      -9.372   7.904  71.115  1.00  0.00    -0.151 C  
HETATM    2  C   UNL     1     -10.342   9.001  71.568  1.00  0.00    -0.342 C  
HETATM    3  N   UNL     1     -11.760   8.564  71.529  1.00  0.00    -0.281 N  
HETATM    4  O   UNL     1      -9.514   6.727  71.916  1.00  0.00    -0.148 OA 
HETATM    5  C   UNL     1     -11.876   7.272  72.249  1.00  0.00    -0.248 C  
HETATM    6  C   UNL     1     -10.849   6.228  71.794  1.00  0.00    -0.248 C  
ENDROOT
BRANCH   3   7
HETATM    7  S   UNL     1     -12.957   9.704  71.857  1.00  0.00    -0.449 SA 
BRANCH   7   8
HETATM    8  C   UNL     1     -12.554  11.034  70.773  1.00  0.00    -0.369 A  
HETATM    9  N   UNL     1     -12.197  10.859  69.520  1.00  0.00    -0.317 NA 
HETATM   10  C   UNL     1     -11.962  12.090  68.928  1.00  0.00    -0.246 A  
HETATM   11  C   UNL     1     -11.577  12.305  67.590  1.00  0.00    -0.421 A  
HETATM   12  C   UNL     1     -11.378  13.608  67.122  1.00  0.00    -0.340 A  
HETATM   13  C   UNL     1     -11.553  14.697  67.969  1.00  0.00    -0.366 A  
HETATM   14  C   UNL     1     -11.932  14.512  69.303  1.00  0.00    -0.355 A  
HETATM   15  C   UNL     1     -12.135  13.200  69.759  1.00  0.00    -0.270 A  
HETATM   16  S   UNL     1     -12.615  12.657  71.319  1.00  0.00    -0.128 SA 
ENDBRANCH   7   8
ENDBRANCH   3   7
TORSDOF 2
ENDMDL
MODEL       87
REMARK 921   NORMALIZED FREE ENERGY PREDICTED BY IDOCK:   -4.06 KCAL/MOL
REMARK 922        TOTAL FREE ENERGY PREDICTED BY IDOCK:   -4.73 KCAL/MOL
REMARK 923 INTER-LIGAND FREE ENERGY PREDICTED BY IDOCK:   -4.97 KCAL/MOL
REMARK 924 INTRA-LIGAND FREE ENERGY PREDICTED BY IDOCK:    0.24 KCAL/MOL
REMARK 927      BINDING AFFINITY PREDICTED BY RF-SCORE:    0.00 PKD
ROOT
HETATM    1  C   UNL     1      -9.120   9.634  64.521  1.00  0.00    -0.236 C  
HETATM    2  C   UNL     1     -10.027  10.349  65.529  1.00  0.00    -0.282 C  
HETATM    3  N   UNL     1     -10.070  11.818  65.320  1.00  0.00    -0.254 N  
HETATM    4  O   UNL     1      -9.534   9.898  63.177  1.00  0.00    -0.271 OA 
HETATM    5  C   UNL     1     -10.368  12.084  63.891  1.00  0.00    -0.402 C  
HETATM    6  C   UNL     1      -9.467  11.304  62.926  1.00  0.00    -0.361 C  
ENDROOT
BRANCH   3   7
HETATM    7  S   UNL     1     -10.907  12.760  66.438  1.00  0.00    -0.277 SA 
BRANCH   7   8
HETATM    8  C   UNL     1     -10.910  11.757  67.888  1.00  0.00    -0.211 A  
HETATM    9  N   UNL     1     -12.004  11.442  68.544  1.00  0.00    -0.555 NA 
HETATM   10  C   UNL     1     -11.683  10.635  69.623  1.00  0.00    -0.296 A  
HETATM   11  C   UNL     1     -12.595  10.087  70.548  1.00  0.00    -0.224 A  
HETATM   12  C   UNL     1     -12.129   9.281  71.592  1.00  0.00    -0.451 A  
HETATM   13  C   UNL     1     -10.771   9.018  71.730  1.00  0.00    -0.437 A  
HETATM   14  C   UNL     1      -9.844   9.553  70.829  1.00  0.00    -0.309 A  
HETATM   15  C   UNL     1     -10.324  10.355  69.781  1.00  0.00    -0.208 A  
HETATM   16  S   UNL     1      -9.445  11.129  68.521  1.00  0.00    -0.191 SA 
ENDBRANCH   7   8
ENDBRANCH   3   7
TORSDOF 2
ENDMDL
MODEL       88
REMARK 921   NORMALIZED FREE ENERGY PREDICTED BY IDOCK:   -4.05 KCAL/MOL
REMARK 922        TOTAL FREE ENERGY PREDICTED BY IDOCK:   -4.72 KCAL/MOL
REMARK 923 INTER-LIGAND FREE ENERGY PREDICTED BY IDOCK:   -4.50 KCAL/MOL
REMARK 924 INTRA-LIGAND FREE ENERGY PREDICTED BY IDOCK:   -0.22 KCAL/MOL
REMARK 927      BINDING AFFINITY PREDICTED BY RF-SCORE:    0.00 PKD
ROOT
HETATM    1  C   UNL     1     -11.670  12.257  64.270  1.00  0.00    -0.381 C  
HETATM    2  C   UNL     1     -10.740  11.943  65.447  1.00  0.00    -0.283 C  
HETATM    3  N   UNL     1     -10.568  13.097  66.365  1.00  0.00    -0.283 N  
HETATM    4  O   UNL     1     -12.958  12.679  64.728  1.00  0.00    -0.816 OA 
HETATM    5  C   UNL     1     -11.910  13.614  66.731  1.00  0.00    -0.413 C  
HETATM    6  C   UNL     1     -12.817  13.862  65.520  1.00  0.00    -0.431 C  
ENDROOT
BRANCH   3   7
HETATM    7  S   UNL     1      -9.461  12.956  67.627  1.00  0.00    -0.205 SA 
BRANCH   7   8
HETATM    8  C   UNL     1      -8.609  14.499  67.590  1.00  0.00    -0.179 A  
HETATM    9  N   UNL     1      -8.357  15.156  66.479  1.00  0.00    -0.133 NA 
HETATM   10  C   UNL     1      -7.692  16.333  66.778  1.00  0.00    -0.260 A  
HETATM   11  C   UNL     1      -7.270  17.306  65.849  1.00  0.00    -0.069 A  
HETATM   12  C   UNL     1      -6.610  18.456  66.293  1.00  0.00    -0.255 A  
HETATM   13  C   UNL     1      -6.361  18.649  67.647  1.00  0.00    -0.200 A  
HETATM   14  C   UNL     1      -6.765  17.699  68.591  1.00  0.00    -0.217 A  
HETATM   15  C   UNL     1      -7.433  16.551  68.134  1.00  0.00    -0.159 A  
HETATM   16  S   UNL     1      -8.061  15.230  69.040  1.00  0.00    -0.217 SA 
ENDBRANCH   7   8
ENDBRANCH   3   7
TORSDOF 2
ENDMDL
MODEL       89
REMARK 921   NORMALIZED FREE ENERGY PREDICTED BY IDOCK:   -4.05 KCAL/MOL
REMARK 922        TOTAL FREE ENERGY PREDICTED BY IDOCK:   -4.71 KCAL/MOL
REMARK 923 INTER-LIGAND FREE ENERGY PREDICTED BY IDOCK:   -4.62 KCAL/MOL
REMARK 924 INTRA-LIGAND FREE ENERGY PREDICTED BY IDOCK:   -0.09 KCAL/MOL
REMARK 927      BINDING AFFINITY PREDICTED BY RF-SCORE:    0.00 PKD
ROOT
HETATM    1  C   UNL     1      -6.724  18.680  68.561  1.00  0.00    -0.258 C  
HETATM    2  C   UNL     1      -8.170  18.171  68.521  1.00  0.00    -0.307 C  
HETATM    3  N   UNL     1      -8.758  18.221  67.159  1.00  0.00    -0.251 N  
HETATM    4  O   UNL     1      -5.890  17.933  67.671  1.00  0.00    -0.140 OA 
HETATM    5  C   UNL     1      -7.822  17.560  66.216  1.00  0.00    -0.287 C  
HETATM    6  C   UNL     1      -6.380  18.069  66.334  1.00  0.00    -0.212 C  
ENDROOT
BRANCH   3   7
HETATM    7  S   UNL     1     -10.387  17.833  66.978  1.00  0.00    -0.328 SA 
BRANCH   7   8
HETATM    8  C   UNL     1     -10.343  16.173  66.386  1.00  0.00    -0.315 A  
HETATM    9  N   UNL     1      -9.811  15.181  67.064  1.00  0.00    -0.228 NA 
HETATM   10  C   UNL     1      -9.944  14.004  66.346  1.00  0.00    -0.294 A  
HETATM   11  C   UNL     1      -9.508  12.728  66.757  1.00  0.00    -0.243 A  
HETATM   12  C   UNL     1      -9.714  11.620  65.929  1.00  0.00    -0.260 A  
HETATM   13  C   UNL     1     -10.343  11.765  64.698  1.00  0.00    -0.336 A  
HETATM   14  C   UNL     1     -10.783  13.020  64.263  1.00  0.00    -0.430 A  
HETATM   15  C   UNL     1     -10.576  14.124  65.106  1.00  0.00    -0.398 A  
HETATM   16  S   UNL     1     -11.015  15.770  64.862  1.00  0.00    -0.338 SA 
ENDBRANCH   7   8
ENDBRANCH   3   7
TORSDOF 2
ENDMDL
MODEL       90
REMARK 921   NORMALIZED FREE ENERGY PREDICTED BY IDOCK:   -4.04 KCAL/MOL
REMARK 922        TOTAL FREE ENERGY PREDICTED BY IDOCK:   -4.70 KCAL/MOL
REMARK 923 INTER-LIGAND FREE ENERGY PREDICTED BY IDOCK:   -4.55 KCAL/MOL
REMARK 924 INTRA-LIGAND FREE ENERGY PREDICTED BY IDOCK:   -0.15 KCAL/MOL
REMARK 927      BINDING AFFINITY PREDICTED BY RF-SCORE:    0.00 PKD
ROOT
HETATM    1  C   UNL     1     -10.066  13.372  66.170  1.00  0.00    -0.302 C  
HETATM    2  C   UNL     1      -9.252  12.092  66.396  1.00  0.00    -0.207 C  
HETATM    3  N   UNL     1      -9.959  10.873  65.930  1.00  0.00    -0.233 N  
HETATM    4  O   UNL     1     -10.401  13.533  64.788  1.00  0.00    -0.388 OA 
HETATM    5  C   UNL     1     -10.423  11.099  64.538  1.00  0.00    -0.350 C  
HETATM    6  C   UNL     1     -11.185  12.417  64.357  1.00  0.00    -0.332 C  
ENDROOT
BRANCH   3   7
HETATM    7  S   UNL     1      -9.259   9.374  66.243  1.00  0.00    -0.197 SA 
BRANCH   7   8
HETATM    8  C   UNL     1     -10.003   8.891  67.767  1.00  0.00    -0.192 A  
HETATM    9  N   UNL     1     -10.276   9.738  68.734  1.00  0.00    -0.186 NA 
HETATM   10  C   UNL     1     -10.867   9.061  69.789  1.00  0.00    -0.205 A  
HETATM   11  C   UNL     1     -11.314   9.636  70.996  1.00  0.00    -0.444 A  
HETATM   12  C   UNL     1     -11.901   8.831  71.977  1.00  0.00    -0.442 A  
HETATM   13  C   UNL     1     -12.043   7.463  71.776  1.00  0.00    -0.345 A  
HETATM   14  C   UNL     1     -11.606   6.865  70.589  1.00  0.00    -0.402 A  
HETATM   15  C   UNL     1     -11.025   7.685  69.608  1.00  0.00    -0.137 A  
HETATM   16  S   UNL     1     -10.415   7.254  68.058  1.00  0.00    -0.184 SA 
ENDBRANCH   7   8
ENDBRANCH   3   7
TORSDOF 2
ENDMDL
MODEL       91
REMARK 921   NORMALIZED FREE ENERGY PREDICTED BY IDOCK:   -3.98 KCAL/MOL
REMARK 922        TOTAL FREE ENERGY PREDICTED BY IDOCK:   -4.64 KCAL/MOL
REMARK 923 INTER-LIGAND FREE ENERGY PREDICTED BY IDOCK:   -4.47 KCAL/MOL
REMARK 924 INTRA-LIGAND FREE ENERGY PREDICTED BY IDOCK:   -0.16 KCAL/MOL
REMARK 927      BINDING AFFINITY PREDICTED BY RF-SCORE:    0.00 PKD
ROOT
HETATM    1  C   UNL     1      -7.143  11.914  67.036  1.00  0.00    -0.116 C  
HETATM    2  C   UNL     1      -8.556  12.501  67.130  1.00  0.00    -0.200 C  
HETATM    3  N   UNL     1      -9.517  11.830  66.221  1.00  0.00    -0.220 N  
HETATM    4  O   UNL     1      -7.147  10.512  67.322  1.00  0.00    -0.085 OA 
HETATM    5  C   UNL     1      -9.419  10.364  66.428  1.00  0.00    -0.169 C  
HETATM    6  C   UNL     1      -7.980   9.837  66.376  1.00  0.00    -0.109 C  
ENDROOT
BRANCH   3   7
HETATM    7  S   UNL     1     -11.076  12.457  66.101  1.00  0.00    -0.318 SA 
BRANCH   7   8
HETATM    8  C   UNL     1     -11.670  12.382  67.759  1.00  0.00    -0.350 A  
HETATM    9  N   UNL     1     -11.989  11.257  68.359  1.00  0.00    -0.603 NA 
HETATM   10  C   UNL     1     -12.405  11.523  69.653  1.00  0.00    -0.142 A  
HETATM   11  C   UNL     1     -12.812  10.567  70.606  1.00  0.00    -0.407 A  
HETATM   12  C   UNL     1     -13.203  10.978  71.884  1.00  0.00    -0.503 A  
HETATM   13  C   UNL     1     -13.200  12.326  72.224  1.00  0.00    -0.345 A  
HETATM   14  C   UNL     1     -12.804  13.297  71.297  1.00  0.00    -0.398 A  
HETATM   15  C   UNL     1     -12.406  12.871  70.020  1.00  0.00    -0.129 A  
HETATM   16  S   UNL     1     -11.857  13.811  68.687  1.00  0.00    -0.381 SA 
ENDBRANCH   7   8
ENDBRANCH   3   7
TORSDOF 2
ENDMDL
MODEL       92
REMARK 921   NORMALIZED FREE ENERGY PREDICTED BY IDOCK:   -3.94 KCAL/MOL
REMARK 922        TOTAL FREE ENERGY PREDICTED BY IDOCK:   -4.59 KCAL/MOL
REMARK 923 INTER-LIGAND FREE ENERGY PREDICTED BY IDOCK:   -4.40 KCAL/MOL
REMARK 924 INTRA-LIGAND FREE ENERGY PREDICTED BY IDOCK:   -0.19 KCAL/MOL
REMARK 927      BINDING AFFINITY PREDICTED BY RF-SCORE:    0.00 PKD
ROOT
HETATM    1  C   UNL     1      -7.339  19.886  65.894  1.00  0.00    -0.320 C  
HETATM    2  C   UNL     1      -6.991  18.585  66.627  1.00  0.00    -0.204 C  
HETATM    3  N   UNL     1      -7.486  18.566  68.027  1.00  0.00    -0.245 N  
HETATM    4  O   UNL     1      -8.751  20.114  65.888  1.00  0.00    -0.263 OA 
HETATM    5  C   UNL     1      -8.923  18.935  68.025  1.00  0.00    -0.305 C  
HETATM    6  C   UNL     1      -9.222  20.215  67.235  1.00  0.00    -0.382 C  
ENDROOT
BRANCH   3   7
HETATM    7  S   UNL     1      -7.056  17.267  69.008  1.00  0.00    -0.204 SA 
BRANCH   7   8
HETATM    8  C   UNL     1      -8.289  16.061  68.643  1.00  0.00    -0.203 A  
HETATM    9  N   UNL     1      -9.299  15.799  69.443  1.00  0.00    -0.268 NA 
HETATM   10  C   UNL     1     -10.099  14.821  68.875  1.00  0.00    -0.237 A  
HETATM   11  C   UNL     1     -11.281  14.291  69.431  1.00  0.00    -0.313 A  
HETATM   12  C   UNL     1     -11.996  13.306  68.742  1.00  0.00    -0.335 A  
HETATM   13  C   UNL     1     -11.547  12.838  67.512  1.00  0.00    -0.412 A  
HETATM   14  C   UNL     1     -10.375  13.343  66.939  1.00  0.00    -0.257 A  
HETATM   15  C   UNL     1      -9.670  14.337  67.636  1.00  0.00    -0.220 A  
HETATM   16  S   UNL     1      -8.225  15.156  67.189  1.00  0.00    -0.230 SA 
ENDBRANCH   7   8
ENDBRANCH   3   7
TORSDOF 2
ENDMDL
MODEL       93
REMARK 921   NORMALIZED FREE ENERGY PREDICTED BY IDOCK:   -3.94 KCAL/MOL
REMARK 922        TOTAL FREE ENERGY PREDICTED BY IDOCK:   -4.59 KCAL/MOL
REMARK 923 INTER-LIGAND FREE ENERGY PREDICTED BY IDOCK:   -4.42 KCAL/MOL
REMARK 924 INTRA-LIGAND FREE ENERGY PREDICTED BY IDOCK:   -0.17 KCAL/MOL
REMARK 927      BINDING AFFINITY PREDICTED BY RF-SCORE:    0.00 PKD
ROOT
HETATM    1  C   UNL     1      -7.328  10.863  66.909  1.00  0.00    -0.128 C  
HETATM    2  C   UNL     1      -8.584  11.734  66.786  1.00  0.00    -0.185 C  
HETATM    3  N   UNL     1      -9.594  11.158  65.864  1.00  0.00    -0.209 N  
HETATM    4  O   UNL     1      -7.657   9.543  67.351  1.00  0.00    -0.094 OA 
HETATM    5  C   UNL     1      -9.831   9.744  66.247  1.00  0.00    -0.250 C  
HETATM    6  C   UNL     1      -8.540   8.932  66.406  1.00  0.00    -0.126 C  
ENDROOT
BRANCH   3   7
HETATM    7  S   UNL     1     -10.966  12.069  65.511  1.00  0.00    -0.305 SA 
BRANCH   7   8
HETATM    8  C   UNL     1     -11.396  12.771  67.069  1.00  0.00    -0.314 A  
HETATM    9  N   UNL     1     -11.686  12.050  68.129  1.00  0.00    -0.391 NA 
HETATM   10  C   UNL     1     -11.965  12.886  69.197  1.00  0.00    -0.259 A  
HETATM   11  C   UNL     1     -12.303  12.476  70.503  1.00  0.00    -0.345 A  
HETATM   12  C   UNL     1     -12.555  13.434  71.491  1.00  0.00    -0.331 A  
HETATM   13  C   UNL     1     -12.482  14.790  71.195  1.00  0.00    -0.397 A  
HETATM   14  C   UNL     1     -12.153  15.224  69.907  1.00  0.00    -0.375 A  
HETATM   15  C   UNL     1     -11.894  14.254  68.925  1.00  0.00    -0.336 A  
HETATM   16  S   UNL     1     -11.453  14.472  67.277  1.00  0.00    -0.377 SA 
ENDBRANCH   7   8
ENDBRANCH   3   7
TORSDOF 2
ENDMDL
MODEL       94
REMARK 921   NORMALIZED FREE ENERGY PREDICTED BY IDOCK:   -3.92 KCAL/MOL
REMARK 922        TOTAL FREE ENERGY PREDICTED BY IDOCK:   -4.57 KCAL/MOL
REMARK 923 INTER-LIGAND FREE ENERGY PREDICTED BY IDOCK:   -4.36 KCAL/MOL
REMARK 924 INTRA-LIGAND FREE ENERGY PREDICTED BY IDOCK:   -0.21 KCAL/MOL
REMARK 927      BINDING AFFINITY PREDICTED BY RF-SCORE:    0.00 PKD
ROOT
HETATM    1  C   UNL     1      -8.416   4.944  66.536  1.00  0.00    -0.110 C  
HETATM    2  C   UNL     1      -8.358   4.809  68.062  1.00  0.00    -0.102 C  
HETATM    3  N   UNL     1      -9.288   5.736  68.756  1.00  0.00    -0.117 N  
HETATM    4  O   UNL     1      -9.743   4.719  66.049  1.00  0.00    -0.163 OA 
HETATM    5  C   UNL     1     -10.636   5.592  68.152  1.00  0.00    -0.183 C  
HETATM    6  C   UNL     1     -10.630   5.683  66.621  1.00  0.00    -0.295 C  
ENDROOT
BRANCH   3   7
HETATM    7  S   UNL     1      -9.234   5.811  70.437  1.00  0.00    -0.155 SA 
BRANCH   7   8
HETATM    8  C   UNL     1     -10.335   7.134  70.817  1.00  0.00    -0.206 A  
HETATM    9  N   UNL     1     -10.204   8.344  70.321  1.00  0.00    -0.193 NA 
HETATM   10  C   UNL     1     -11.226   9.152  70.793  1.00  0.00    -0.277 A  
HETATM   11  C   UNL     1     -11.427  10.509  70.469  1.00  0.00    -0.433 A  
HETATM   12  C   UNL     1     -12.510  11.205  71.016  1.00  0.00    -0.506 A  
HETATM   13  C   UNL     1     -13.390  10.570  71.885  1.00  0.00    -0.461 A  
HETATM   14  C   UNL     1     -13.213   9.225  72.227  1.00  0.00    -0.535 A  
HETATM   15  C   UNL     1     -12.127   8.535  71.666  1.00  0.00    -0.321 A  
HETATM   16  S   UNL     1     -11.661   6.892  71.877  1.00  0.00    -0.300 SA 
ENDBRANCH   7   8
ENDBRANCH   3   7
TORSDOF 2
ENDMDL
MODEL       95
REMARK 921   NORMALIZED FREE ENERGY PREDICTED BY IDOCK:   -3.89 KCAL/MOL
REMARK 922        TOTAL FREE ENERGY PREDICTED BY IDOCK:   -4.54 KCAL/MOL
REMARK 923 INTER-LIGAND FREE ENERGY PREDICTED BY IDOCK:   -4.46 KCAL/MOL
REMARK 924 INTRA-LIGAND FREE ENERGY PREDICTED BY IDOCK:   -0.07 KCAL/MOL
REMARK 927      BINDING AFFINITY PREDICTED BY RF-SCORE:    0.00 PKD
ROOT
HETATM    1  C   UNL     1     -12.306  14.313  70.626  1.00  0.00    -0.361 C  
HETATM    2  C   UNL     1     -12.038  13.135  69.681  1.00  0.00    -0.255 C  
HETATM    3  N   UNL     1     -11.866  11.849  70.402  1.00  0.00    -0.304 N  
HETATM    4  O   UNL     1     -13.465  14.075  71.430  1.00  0.00    -0.335 OA 
HETATM    5  C   UNL     1     -13.007  11.674  71.335  1.00  0.00    -0.324 C  
HETATM    6  C   UNL     1     -13.263  12.900  72.220  1.00  0.00    -0.414 C  
ENDROOT
BRANCH   3   7
HETATM    7  S   UNL     1     -11.420  10.489  69.515  1.00  0.00    -0.269 SA 
BRANCH   7   8
HETATM    8  C   UNL     1     -10.541   9.511  70.689  1.00  0.00    -0.308 A  
HETATM    9  N   UNL     1     -11.110   8.965  71.741  1.00  0.00    -0.341 NA 
HETATM   10  C   UNL     1     -10.166   8.250  72.459  1.00  0.00    -0.316 A  
HETATM   11  C   UNL     1     -10.404   7.516  73.639  1.00  0.00    -0.311 A  
HETATM   12  C   UNL     1      -9.354   6.832  74.260  1.00  0.00    -0.261 A  
HETATM   13  C   UNL     1      -8.071   6.873  73.725  1.00  0.00    -0.129 A  
HETATM   14  C   UNL     1      -7.805   7.596  72.557  1.00  0.00    -0.119 A  
HETATM   15  C   UNL     1      -8.869   8.273  71.939  1.00  0.00    -0.177 A  
HETATM   16  S   UNL     1      -8.863   9.219  70.503  1.00  0.00    -0.241 SA 
ENDBRANCH   7   8
ENDBRANCH   3   7
TORSDOF 2
ENDMDL
MODEL       96
REMARK 921   NORMALIZED FREE ENERGY PREDICTED BY IDOCK:   -3.86 KCAL/MOL
REMARK 922        TOTAL FREE ENERGY PREDICTED BY IDOCK:   -4.51 KCAL/MOL
REMARK 923 INTER-LIGAND FREE ENERGY PREDICTED BY IDOCK:   -4.42 KCAL/MOL
REMARK 924 INTRA-LIGAND FREE ENERGY PREDICTED BY IDOCK:   -0.09 KCAL/MOL
REMARK 927      BINDING AFFINITY PREDICTED BY RF-SCORE:    0.00 PKD
ROOT
HETATM    1  C   UNL     1     -10.467  11.764  63.393  1.00  0.00    -0.434 C  
HETATM    2  C   UNL     1     -10.174  11.130  64.758  1.00  0.00    -0.306 C  
HETATM    3  N   UNL     1     -10.377  12.075  65.885  1.00  0.00    -0.236 N  
HETATM    4  O   UNL     1     -11.803  12.271  63.336  1.00  0.00    -0.467 OA 
HETATM    5  C   UNL     1     -11.716  12.698  65.743  1.00  0.00    -0.419 C  
HETATM    6  C   UNL     1     -11.977  13.270  64.344  1.00  0.00    -0.406 C  
ENDROOT
BRANCH   3   7
HETATM    7  S   UNL     1      -9.955  11.571  67.436  1.00  0.00    -0.192 SA 
BRANCH   7   8
HETATM    8  C   UNL     1      -9.732   9.833  67.248  1.00  0.00    -0.169 A  
HETATM    9  N   UNL     1     -10.726   8.973  67.266  1.00  0.00    -0.227 NA 
HETATM   10  C   UNL     1     -10.234   7.691  67.080  1.00  0.00    -0.300 A  
HETATM   11  C   UNL     1     -11.001   6.509  67.025  1.00  0.00    -0.466 A  
HETATM   12  C   UNL     1     -10.370   5.277  66.824  1.00  0.00    -0.320 A  
HETATM   13  C   UNL     1      -8.989   5.206  66.684  1.00  0.00    -0.115 A  
HETATM   14  C   UNL     1      -8.203   6.362  66.738  1.00  0.00    -0.110 A  
HETATM   15  C   UNL     1      -8.848   7.594  66.933  1.00  0.00    -0.131 A  
HETATM   16  S   UNL     1      -8.167   9.171  67.025  1.00  0.00    -0.116 SA 
ENDBRANCH   7   8
ENDBRANCH   3   7
TORSDOF 2
ENDMDL
MODEL       97
REMARK 921   NORMALIZED FREE ENERGY PREDICTED BY IDOCK:   -3.85 KCAL/MOL
REMARK 922        TOTAL FREE ENERGY PREDICTED BY IDOCK:   -4.50 KCAL/MOL
REMARK 923 INTER-LIGAND FREE ENERGY PREDICTED BY IDOCK:   -4.29 KCAL/MOL
REMARK 924 INTRA-LIGAND FREE ENERGY PREDICTED BY IDOCK:   -0.21 KCAL/MOL
REMARK 927      BINDING AFFINITY PREDICTED BY RF-SCORE:    0.00 PKD
ROOT
HETATM    1  C   UNL     1      -7.452  19.766  66.773  1.00  0.00    -0.249 C  
HETATM    2  C   UNL     1      -7.301  18.254  66.978  1.00  0.00    -0.207 C  
HETATM    3  N   UNL     1      -8.521  17.627  67.545  1.00  0.00    -0.217 N  
HETATM    4  O   UNL     1      -8.563  20.062  65.922  1.00  0.00    -0.310 OA 
HETATM    5  C   UNL     1      -9.690  18.049  66.735  1.00  0.00    -0.323 C  
HETATM    6  C   UNL     1      -9.764  19.565  66.517  1.00  0.00    -0.388 C  
ENDROOT
BRANCH   3   7
HETATM    7  S   UNL     1      -8.460  15.997  67.965  1.00  0.00    -0.166 SA 
BRANCH   7   8
HETATM    8  C   UNL     1      -9.868  15.796  69.007  1.00  0.00    -0.240 A  
HETATM    9  N   UNL     1      -9.895  16.181  70.264  1.00  0.00     0.403 NA 
HETATM   10  C   UNL     1     -11.138  15.903  70.808  1.00  0.00    -0.322 A  
HETATM   11  C   UNL     1     -11.547  16.186  72.127  1.00  0.00    -0.459 A  
HETATM   12  C   UNL     1     -12.840  15.854  72.543  1.00  0.00    -0.524 A  
HETATM   13  C   UNL     1     -13.728  15.240  71.666  1.00  0.00    -0.600 A  
HETATM   14  C   UNL     1     -13.348  14.945  70.353  1.00  0.00    -0.019 A  
HETATM   15  C   UNL     1     -12.049  15.289  69.945  1.00  0.00    -0.343 A  
HETATM   16  S   UNL     1     -11.303  15.074  68.409  1.00  0.00    -0.323 SA 
ENDBRANCH   7   8
ENDBRANCH   3   7
TORSDOF 2
ENDMDL
MODEL       98
REMARK 921   NORMALIZED FREE ENERGY PREDICTED BY IDOCK:   -3.83 KCAL/MOL
REMARK 922        TOTAL FREE ENERGY PREDICTED BY IDOCK:   -4.47 KCAL/MOL
REMARK 923 INTER-LIGAND FREE ENERGY PREDICTED BY IDOCK:   -4.26 KCAL/MOL
REMARK 924 INTRA-LIGAND FREE ENERGY PREDICTED BY IDOCK:   -0.21 KCAL/MOL
REMARK 927      BINDING AFFINITY PREDICTED BY RF-SCORE:    0.00 PKD
ROOT
HETATM    1  C   UNL     1     -10.263   2.903  73.980  1.00  0.00    -0.133 C  
HETATM    2  C   UNL     1      -9.967   4.362  74.345  1.00  0.00    -0.182 C  
HETATM    3  N   UNL     1      -8.955   4.982  73.454  1.00  0.00    -0.119 N  
HETATM    4  O   UNL     1     -10.708   2.789  72.625  1.00  0.00    -0.107 OA 
HETATM    5  C   UNL     1      -9.355   4.744  72.045  1.00  0.00    -0.138 C  
HETATM    6  C   UNL     1      -9.690   3.277  71.748  1.00  0.00    -0.167 C  
ENDROOT
BRANCH   3   7
HETATM    7  S   UNL     1      -8.416   6.536  73.817  1.00  0.00    -0.124 SA 
BRANCH   7   8
HETATM    8  C   UNL     1      -9.558   7.570  72.961  1.00  0.00    -0.215 A  
HETATM    9  N   UNL     1     -10.842   7.611  73.240  1.00  0.00    -0.385 NA 
HETATM   10  C   UNL     1     -11.469   8.525  72.410  1.00  0.00    -0.349 A  
HETATM   11  C   UNL     1     -12.840   8.852  72.423  1.00  0.00    -0.446 A  
HETATM   12  C   UNL     1     -13.339   9.803  71.527  1.00  0.00    -0.468 A  
HETATM   13  C   UNL     1     -12.494  10.427  70.616  1.00  0.00    -0.437 A  
HETATM   14  C   UNL     1     -11.131  10.118  70.578  1.00  0.00    -0.400 A  
HETATM   15  C   UNL     1     -10.640   9.167  71.487  1.00  0.00    -0.358 A  
HETATM   16  S   UNL     1      -9.030   8.597  71.694  1.00  0.00    -0.233 SA 
ENDBRANCH   7   8
ENDBRANCH   3   7
TORSDOF 2
ENDMDL
MODEL       99
REMARK 921   NORMALIZED FREE ENERGY PREDICTED BY IDOCK:   -3.82 KCAL/MOL
REMARK 922        TOTAL FREE ENERGY PREDICTED BY IDOCK:   -4.46 KCAL/MOL
REMARK 923 INTER-LIGAND FREE ENERGY PREDICTED BY IDOCK:   -4.28 KCAL/MOL
REMARK 924 INTRA-LIGAND FREE ENERGY PREDICTED BY IDOCK:   -0.18 KCAL/MOL
REMARK 927      BINDING AFFINITY PREDICTED BY RF-SCORE:    0.00 PKD
ROOT
HETATM    1  C   UNL     1     -13.623   9.228  72.117  1.00  0.00    -0.471 C  
HETATM    2  C   UNL     1     -12.554   8.230  72.576  1.00  0.00    -0.213 C  
HETATM    3  N   UNL     1     -11.462   8.063  71.584  1.00  0.00    -0.257 N  
HETATM    4  O   UNL     1     -13.048  10.509  71.842  1.00  0.00    -0.457 OA 
HETATM    5  C   UNL     1     -10.961   9.406  71.202  1.00  0.00    -0.360 C  
HETATM    6  C   UNL     1     -12.075  10.380  70.802  1.00  0.00    -0.364 C  
ENDROOT
BRANCH   3   7
HETATM    7  S   UNL     1     -10.289   6.891  71.878  1.00  0.00    -0.189 SA 
BRANCH   7   8
HETATM    8  C   UNL     1     -10.159   6.054  70.332  1.00  0.00    -0.194 A  
HETATM    9  N   UNL     1     -10.702   6.503  69.222  1.00  0.00    -0.251 NA 
HETATM   10  C   UNL     1     -10.412   5.636  68.181  1.00  0.00    -0.195 A  
HETATM   11  C   UNL     1     -10.811   5.793  66.838  1.00  0.00    -0.337 A  
HETATM   12  C   UNL     1     -10.441   4.839  65.884  1.00  0.00    -0.313 A  
HETATM   13  C   UNL     1      -9.686   3.731  66.251  1.00  0.00    -0.138 A  
HETATM   14  C   UNL     1      -9.279   3.548  67.577  1.00  0.00    -0.224 A  
HETATM   15  C   UNL     1      -9.650   4.516  68.524  1.00  0.00    -0.149 A  
HETATM   16  S   UNL     1      -9.292   4.580  70.205  1.00  0.00    -0.166 SA 
ENDBRANCH   7   8
ENDBRANCH   3   7
TORSDOF 2
ENDMDL
MODEL      100
REMARK 921   NORMALIZED FREE ENERGY PREDICTED BY IDOCK:   -3.82 KCAL/MOL
REMARK 922        TOTAL FREE ENERGY PREDICTED BY IDOCK:   -4.46 KCAL/MOL
REMARK 923 INTER-LIGAND FREE ENERGY PREDICTED BY IDOCK:   -4.55 KCAL/MOL
REMARK 924 INTRA-LIGAND FREE ENERGY PREDICTED BY IDOCK:    0.10 KCAL/MOL
REMARK 927      BINDING AFFINITY PREDICTED BY RF-SCORE:    0.00 PKD
ROOT
HETATM    1  C   UNL     1     -13.937   9.126  72.327  1.00  0.00    -0.420 C  
HETATM    2  C   UNL     1     -12.556   9.636  71.898  1.00  0.00    -0.396 C  
HETATM    3  N   UNL     1     -11.540   8.556  71.836  1.00  0.00    -0.316 N  
HETATM    4  O   UNL     1     -14.405   8.101  71.444  1.00  0.00    -0.407 OA 
HETATM    5  C   UNL     1     -12.087   7.437  71.029  1.00  0.00    -0.298 C  
HETATM    6  C   UNL     1     -13.491   7.001  71.466  1.00  0.00    -0.277 C  
ENDROOT
BRANCH   3   7
HETATM    7  S   UNL     1      -9.940   8.981  71.524  1.00  0.00    -0.296 SA 
BRANCH   7   8
HETATM    8  C   UNL     1      -9.974   9.458  69.827  1.00  0.00    -0.200 A  
HETATM    9  N   UNL     1      -9.272   8.852  68.894  1.00  0.00    -0.140 NA 
HETATM   10  C   UNL     1      -9.523   9.445  67.668  1.00  0.00    -0.132 A  
HETATM   11  C   UNL     1      -8.965   9.059  66.432  1.00  0.00    -0.189 A  
HETATM   12  C   UNL     1      -9.313   9.745  65.264  1.00  0.00    -0.315 A  
HETATM   13  C   UNL     1     -10.202  10.812  65.311  1.00  0.00    -0.351 A  
HETATM   14  C   UNL     1     -10.769  11.219  66.524  1.00  0.00    -0.323 A  
HETATM   15  C   UNL     1     -10.417  10.518  67.689  1.00  0.00    -0.234 A  
HETATM   16  S   UNL     1     -10.952  10.765  69.305  1.00  0.00    -0.260 SA 
ENDBRANCH   7   8
ENDBRANCH   3   7
TORSDOF 2
ENDMDL
MODEL      101
REMARK 921   NORMALIZED FREE ENERGY PREDICTED BY IDOCK:   -3.82 KCAL/MOL
REMARK 922        TOTAL FREE ENERGY PREDICTED BY IDOCK:   -4.45 KCAL/MOL
REMARK 923 INTER-LIGAND FREE ENERGY PREDICTED BY IDOCK:   -4.24 KCAL/MOL
REMARK 924 INTRA-LIGAND FREE ENERGY PREDICTED BY IDOCK:   -0.21 KCAL/MOL
REMARK 927      BINDING AFFINITY PREDICTED BY RF-SCORE:    0.00 PKD
ROOT
HETATM    1  C   UNL     1      -8.001  17.182  67.374  1.00  0.00    -0.180 C  
HETATM    2  C   UNL     1      -8.417  16.361  66.148  1.00  0.00    -0.294 C  
HETATM    3  N   UNL     1      -9.854  15.989  66.167  1.00  0.00    -0.301 N  
HETATM    4  O   UNL     1      -8.786  18.373  67.487  1.00  0.00    -0.255 OA 
HETATM    5  C   UNL     1     -10.656  17.212  66.420  1.00  0.00    -0.172 C  
HETATM    6  C   UNL     1     -10.166  18.022  67.626  1.00  0.00    -0.368 C  
ENDROOT
BRANCH   3   7
HETATM    7  S   UNL     1     -10.429  14.962  64.963  1.00  0.00    -0.358 SA 
BRANCH   7   8
HETATM    8  C   UNL     1     -10.465  13.389  65.757  1.00  0.00    -0.290 A  
HETATM    9  N   UNL     1     -10.845  13.220  67.004  1.00  0.00    -0.267 NA 
HETATM   10  C   UNL     1     -10.778  11.876  67.331  1.00  0.00    -0.232 A  
HETATM   11  C   UNL     1     -11.122  11.308  68.575  1.00  0.00    -0.288 A  
HETATM   12  C   UNL     1     -11.011   9.927  68.766  1.00  0.00    -0.217 A  
HETATM   13  C   UNL     1     -10.559   9.106  67.739  1.00  0.00    -0.289 A  
HETATM   14  C   UNL     1     -10.208   9.643  66.496  1.00  0.00    -0.294 A  
HETATM   15  C   UNL     1     -10.330  11.030  66.314  1.00  0.00    -0.251 A  
HETATM   16  S   UNL     1      -9.997  11.972  64.913  1.00  0.00    -0.188 SA 
ENDBRANCH   7   8
ENDBRANCH   3   7
TORSDOF 2
ENDMDL
MODEL      102
REMARK 921   NORMALIZED FREE ENERGY PREDICTED BY IDOCK:   -3.81 KCAL/MOL
REMARK 922        TOTAL FREE ENERGY PREDICTED BY IDOCK:   -4.45 KCAL/MOL
REMARK 923 INTER-LIGAND FREE ENERGY PREDICTED BY IDOCK:   -4.22 KCAL/MOL
REMARK 924 INTRA-LIGAND FREE ENERGY PREDICTED BY IDOCK:   -0.22 KCAL/MOL
REMARK 927      BINDING AFFINITY PREDICTED BY RF-SCORE:    0.00 PKD
ROOT
HETATM    1  C   UNL     1     -10.892   6.137  71.358  1.00  0.00    -0.265 C  
HETATM    2  C   UNL     1     -11.200   6.409  69.880  1.00  0.00    -0.420 C  
HETATM    3  N   UNL     1     -10.216   7.324  69.249  1.00  0.00    -0.187 N  
HETATM    4  O   UNL     1      -9.580   5.589  71.519  1.00  0.00    -0.146 OA 
HETATM    5  C   UNL     1      -8.850   6.820  69.535  1.00  0.00    -0.139 C  
HETATM    6  C   UNL     1      -8.613   6.516  71.019  1.00  0.00    -0.134 C  
ENDROOT
BRANCH   3   7
HETATM    7  S   UNL     1     -10.501   7.836  67.669  1.00  0.00    -0.222 SA 
BRANCH   7   8
HETATM    8  C   UNL     1     -10.836   9.556  67.857  1.00  0.00    -0.180 A  
HETATM    9  N   UNL     1     -11.180  10.336  66.856  1.00  0.00    -0.091 NA 
HETATM   10  C   UNL     1     -11.390  11.623  67.322  1.00  0.00    -0.305 A  
HETATM   11  C   UNL     1     -11.786  12.731  66.546  1.00  0.00    -0.463 A  
HETATM   12  C   UNL     1     -11.967  13.979  67.151  1.00  0.00    -0.465 A  
HETATM   13  C   UNL     1     -11.756  14.138  68.516  1.00  0.00    -0.380 A  
HETATM   14  C   UNL     1     -11.359  13.057  69.310  1.00  0.00    -0.310 A  
HETATM   15  C   UNL     1     -11.187  11.808  68.692  1.00  0.00    -0.257 A  
HETATM   16  S   UNL     1     -10.729  10.306  69.394  1.00  0.00    -0.258 SA 
ENDBRANCH   7   8
ENDBRANCH   3   7
TORSDOF 2
ENDMDL
MODEL      103
REMARK 921   NORMALIZED FREE ENERGY PREDICTED BY IDOCK:   -3.81 KCAL/MOL
REMARK 922        TOTAL FREE ENERGY PREDICTED BY IDOCK:   -4.44 KCAL/MOL
REMARK 923 INTER-LIGAND FREE ENERGY PREDICTED BY IDOCK:   -4.41 KCAL/MOL
REMARK 924 INTRA-LIGAND FREE ENERGY PREDICTED BY IDOCK:   -0.03 KCAL/MOL
REMARK 927      BINDING AFFINITY PREDICTED BY RF-SCORE:    0.00 PKD
ROOT
HETATM    1  C   UNL     1     -10.571   5.358  66.638  1.00  0.00    -0.294 C  
HETATM    2  C   UNL     1     -10.174   6.031  67.956  1.00  0.00    -0.181 C  
HETATM    3  N   UNL     1      -9.208   5.225  68.744  1.00  0.00    -0.112 N  
HETATM    4  O   UNL     1      -9.422   5.092  65.828  1.00  0.00    -0.157 OA 
HETATM    5  C   UNL     1      -8.082   4.839  67.859  1.00  0.00    -0.092 C  
HETATM    6  C   UNL     1      -8.536   4.218  66.532  1.00  0.00    -0.108 C  
ENDROOT
BRANCH   3   7
HETATM    7  S   UNL     1      -8.788   5.762  70.284  1.00  0.00    -0.142 SA 
BRANCH   7   8
HETATM    8  C   UNL     1     -10.139   6.802  70.731  1.00  0.00    -0.191 A  
HETATM    9  N   UNL     1     -11.364   6.357  70.906  1.00  0.00    -0.322 NA 
HETATM   10  C   UNL     1     -12.192   7.407  71.265  1.00  0.00    -0.341 A  
HETATM   11  C   UNL     1     -13.570   7.315  71.550  1.00  0.00    -0.442 A  
HETATM   12  C   UNL     1     -14.286   8.462  71.907  1.00  0.00    -0.561 A  
HETATM   13  C   UNL     1     -13.652   9.697  71.978  1.00  0.00    -0.467 A  
HETATM   14  C   UNL     1     -12.287   9.818  71.697  1.00  0.00    -0.495 A  
HETATM   15  C   UNL     1     -11.577   8.658  71.347  1.00  0.00    -0.293 A  
HETATM   16  S   UNL     1      -9.908   8.484  70.967  1.00  0.00    -0.211 SA 
ENDBRANCH   7   8
ENDBRANCH   3   7
TORSDOF 2
ENDMDL
MODEL      104
REMARK 921   NORMALIZED FREE ENERGY PREDICTED BY IDOCK:   -3.80 KCAL/MOL
REMARK 922        TOTAL FREE ENERGY PREDICTED BY IDOCK:   -4.43 KCAL/MOL
REMARK 923 INTER-LIGAND FREE ENERGY PREDICTED BY IDOCK:   -4.22 KCAL/MOL
REMARK 924 INTRA-LIGAND FREE ENERGY PREDICTED BY IDOCK:   -0.22 KCAL/MOL
REMARK 927      BINDING AFFINITY PREDICTED BY RF-SCORE:    0.00 PKD
ROOT
HETATM    1  C   UNL     1      -8.924  10.409  67.957  1.00  0.00    -0.129 C  
HETATM    2  C   UNL     1     -10.032  11.264  68.584  1.00  0.00    -0.204 C  
HETATM    3  N   UNL     1     -10.283  12.519  67.833  1.00  0.00    -0.213 N  
HETATM    4  O   UNL     1      -9.233  10.081  66.599  1.00  0.00    -0.145 OA 
HETATM    5  C   UNL     1     -10.469  12.183  66.400  1.00  0.00    -0.230 C  
HETATM    6  C   UNL     1      -9.361  11.284  65.837  1.00  0.00    -0.219 C  
ENDROOT
BRANCH   3   7
HETATM    7  S   UNL     1     -11.368  13.634  68.479  1.00  0.00    -0.314 SA 
BRANCH   7   8
HETATM    8  C   UNL     1     -10.423  15.120  68.555  1.00  0.00    -0.233 A  
HETATM    9  N   UNL     1     -10.963  16.318  68.549  1.00  0.00    -0.329 NA 
HETATM   10  C   UNL     1      -9.966  17.276  68.634  1.00  0.00    -0.327 A  
HETATM   11  C   UNL     1     -10.160  18.672  68.669  1.00  0.00    -0.412 A  
HETATM   12  C   UNL     1      -9.058  19.528  68.762  1.00  0.00    -0.381 A  
HETATM   13  C   UNL     1      -7.767  19.013  68.814  1.00  0.00    -0.382 A  
HETATM   14  C   UNL     1      -7.545  17.633  68.776  1.00  0.00    -0.253 A  
HETATM   15  C   UNL     1      -8.660  16.783  68.690  1.00  0.00    -0.263 A  
HETATM   16  S   UNL     1      -8.712  15.064  68.645  1.00  0.00    -0.183 SA 
ENDBRANCH   7   8
ENDBRANCH   3   7
TORSDOF 2
ENDMDL
MODEL      105
REMARK 921   NORMALIZED FREE ENERGY PREDICTED BY IDOCK:   -3.78 KCAL/MOL
REMARK 922        TOTAL FREE ENERGY PREDICTED BY IDOCK:   -4.41 KCAL/MOL
REMARK 923 INTER-LIGAND FREE ENERGY PREDICTED BY IDOCK:   -4.20 KCAL/MOL
REMARK 924 INTRA-LIGAND FREE ENERGY PREDICTED BY IDOCK:   -0.21 KCAL/MOL
REMARK 927      BINDING AFFINITY PREDICTED BY RF-SCORE:    0.00 PKD
ROOT
HETATM    1  C   UNL     1     -12.914  13.314  65.023  1.00  0.00    -0.157 C  
HETATM    2  C   UNL     1     -11.711  13.619  65.923  1.00  0.00    -0.354 C  
HETATM    3  N   UNL     1     -10.599  12.653  65.741  1.00  0.00    -0.266 N  
HETATM    4  O   UNL     1     -12.536  13.300  63.643  1.00  0.00    -0.699 OA 
HETATM    5  C   UNL     1     -10.301  12.543  64.291  1.00  0.00    -0.370 C  
HETATM    6  C   UNL     1     -11.546  12.289  63.432  1.00  0.00    -0.447 C  
ENDROOT
BRANCH   3   7
HETATM    7  S   UNL     1      -9.265  12.768  66.763  1.00  0.00    -0.208 SA 
BRANCH   7   8
HETATM    8  C   UNL     1      -9.341  11.274  67.695  1.00  0.00    -0.160 A  
HETATM    9  N   UNL     1      -8.675  11.087  68.813  1.00  0.00    -0.159 NA 
HETATM   10  C   UNL     1      -8.953   9.826  69.313  1.00  0.00    -0.173 A  
HETATM   11  C   UNL     1      -8.437   9.274  70.504  1.00  0.00    -0.251 A  
HETATM   12  C   UNL     1      -8.809   7.984  70.894  1.00  0.00    -0.147 A  
HETATM   13  C   UNL     1      -9.682   7.235  70.114  1.00  0.00    -0.172 A  
HETATM   14  C   UNL     1     -10.207   7.756  68.926  1.00  0.00    -0.220 A  
HETATM   15  C   UNL     1      -9.832   9.055  68.549  1.00  0.00    -0.169 A  
HETATM   16  S   UNL     1     -10.317   9.965  67.171  1.00  0.00    -0.243 SA 
ENDBRANCH   7   8
ENDBRANCH   3   7
TORSDOF 2
ENDMDL
MODEL      106
REMARK 921   NORMALIZED FREE ENERGY PREDICTED BY IDOCK:   -3.77 KCAL/MOL
REMARK 922        TOTAL FREE ENERGY PREDICTED BY IDOCK:   -4.40 KCAL/MOL
REMARK 923 INTER-LIGAND FREE ENERGY PREDICTED BY IDOCK:   -4.18 KCAL/MOL
REMARK 924 INTRA-LIGAND FREE ENERGY PREDICTED BY IDOCK:   -0.22 KCAL/MOL
REMARK 927      BINDING AFFINITY PREDICTED BY RF-SCORE:    0.00 PKD
ROOT
HETATM    1  C   UNL     1      -7.398   7.564  69.491  1.00  0.00    -0.084 C  
HETATM    2  C   UNL     1      -8.583   7.844  68.560  1.00  0.00    -0.128 C  
HETATM    3  N   UNL     1      -9.155   9.200  68.752  1.00  0.00    -0.136 N  
HETATM    4  O   UNL     1      -6.360   8.533  69.310  1.00  0.00    -0.041 OA 
HETATM    5  C   UNL     1      -8.052  10.191  68.697  1.00  0.00    -0.109 C  
HETATM    6  C   UNL     1      -6.870   9.836  69.607  1.00  0.00    -0.072 C  
ENDROOT
BRANCH   3   7
HETATM    7  S   UNL     1     -10.555   9.604  67.907  1.00  0.00    -0.246 SA 
BRANCH   7   8
HETATM    8  C   UNL     1     -11.264  10.885  68.889  1.00  0.00    -0.267 A  
HETATM    9  N   UNL     1     -11.876  10.663  70.030  1.00  0.00    -0.296 NA 
HETATM   10  C   UNL     1     -12.308  11.865  70.567  1.00  0.00    -0.284 A  
HETATM   11  C   UNL     1     -12.990  12.028  71.790  1.00  0.00    -0.445 A  
HETATM   12  C   UNL     1     -13.363  13.308  72.215  1.00  0.00    -0.630 A  
HETATM   13  C   UNL     1     -13.071  14.423  71.438  1.00  0.00    -0.416 A  
HETATM   14  C   UNL     1     -12.398  14.289  70.219  1.00  0.00    -0.418 A  
HETATM   15  C   UNL     1     -12.022  13.001  69.806  1.00  0.00    -0.308 A  
HETATM   16  S   UNL     1     -11.180  12.521  68.385  1.00  0.00    -0.297 SA 
ENDBRANCH   7   8
ENDBRANCH   3   7
TORSDOF 2
ENDMDL
MODEL      107
REMARK 921   NORMALIZED FREE ENERGY PREDICTED BY IDOCK:   -3.74 KCAL/MOL
REMARK 922        TOTAL FREE ENERGY PREDICTED BY IDOCK:   -4.37 KCAL/MOL
REMARK 923 INTER-LIGAND FREE ENERGY PREDICTED BY IDOCK:   -4.59 KCAL/MOL
REMARK 924 INTRA-LIGAND FREE ENERGY PREDICTED BY IDOCK:    0.21 KCAL/MOL
REMARK 927      BINDING AFFINITY PREDICTED BY RF-SCORE:    0.00 PKD
ROOT
HETATM    1  C   UNL     1     -14.339  15.118  71.948  1.00  0.00    -0.596 C  
HETATM    2  C   UNL     1     -14.043  13.682  72.396  1.00  0.00    -0.484 C  
HETATM    3  N   UNL     1     -13.262  12.917  71.393  1.00  0.00    -0.246 N  
HETATM    4  O   UNL     1     -13.130  15.829  71.665  1.00  0.00    -0.481 OA 
HETATM    5  C   UNL     1     -12.077  13.722  71.003  1.00  0.00    -0.241 C  
HETATM    6  C   UNL     1     -12.423  15.164  70.614  1.00  0.00    -0.388 C  
ENDROOT
BRANCH   3   7
HETATM    7  S   UNL     1     -12.985  11.280  71.675  1.00  0.00    -0.349 SA 
BRANCH   7   8
HETATM    8  C   UNL     1     -11.765  10.865  70.472  1.00  0.00    -0.342 A  
HETATM    9  N   UNL     1     -10.704  10.138  70.743  1.00  0.00    -0.214 NA 
HETATM   10  C   UNL     1      -9.948   9.974  69.594  1.00  0.00    -0.236 A  
HETATM   11  C   UNL     1      -8.747   9.242  69.490  1.00  0.00    -0.146 A  
HETATM   12  C   UNL     1      -8.088   9.154  68.259  1.00  0.00    -0.104 A  
HETATM   13  C   UNL     1      -8.605   9.788  67.135  1.00  0.00    -0.129 A  
HETATM   14  C   UNL     1      -9.792  10.524  67.210  1.00  0.00    -0.209 A  
HETATM   15  C   UNL     1     -10.448  10.599  68.449  1.00  0.00    -0.188 A  
HETATM   16  S   UNL     1     -11.916  11.402  68.851  1.00  0.00    -0.233 SA 
ENDBRANCH   7   8
ENDBRANCH   3   7
TORSDOF 2
ENDMDL
MODEL      108
REMARK 921   NORMALIZED FREE ENERGY PREDICTED BY IDOCK:   -3.70 KCAL/MOL
REMARK 922        TOTAL FREE ENERGY PREDICTED BY IDOCK:   -4.33 KCAL/MOL
REMARK 923 INTER-LIGAND FREE ENERGY PREDICTED BY IDOCK:   -4.13 KCAL/MOL
REMARK 924 INTRA-LIGAND FREE ENERGY PREDICTED BY IDOCK:   -0.20 KCAL/MOL
REMARK 927      BINDING AFFINITY PREDICTED BY RF-SCORE:    0.00 PKD
ROOT
HETATM    1  C   UNL     1     -10.083   7.099  71.291  1.00  0.00    -0.189 C  
HETATM    2  C   UNL     1      -9.336   8.065  70.363  1.00  0.00    -0.158 C  
HETATM    3  N   UNL     1      -9.286   7.586  68.959  1.00  0.00    -0.147 N  
HETATM    4  O   UNL     1     -11.419   6.872  70.833  1.00  0.00    -0.286 OA 
HETATM    5  C   UNL     1     -10.661   7.224  68.533  1.00  0.00    -0.175 C  
HETATM    6  C   UNL     1     -11.380   6.300  69.522  1.00  0.00    -0.404 C  
ENDROOT
BRANCH   3   7
HETATM    7  S   UNL     1      -8.374   8.464  67.848  1.00  0.00    -0.132 SA 
BRANCH   7   8
HETATM    8  C   UNL     1      -9.434   9.810  67.430  1.00  0.00    -0.152 A  
HETATM    9  N   UNL     1      -9.811  10.725  68.295  1.00  0.00    -0.161 NA 
HETATM   10  C   UNL     1     -10.624  11.652  67.664  1.00  0.00    -0.203 A  
HETATM   11  C   UNL     1     -11.208  12.786  68.265  1.00  0.00    -0.308 A  
HETATM   12  C   UNL     1     -12.007  13.646  67.503  1.00  0.00    -0.393 A  
HETATM   13  C   UNL     1     -12.236  13.388  66.157  1.00  0.00    -0.471 A  
HETATM   14  C   UNL     1     -11.673  12.268  65.536  1.00  0.00    -0.433 A  
HETATM   15  C   UNL     1     -10.867  11.417  66.309  1.00  0.00    -0.263 A  
HETATM   16  S   UNL     1     -10.031   9.990  65.834  1.00  0.00    -0.255 SA 
ENDBRANCH   7   8
ENDBRANCH   3   7
TORSDOF 2
ENDMDL
MODEL      109
REMARK 921   NORMALIZED FREE ENERGY PREDICTED BY IDOCK:   -3.70 KCAL/MOL
REMARK 922        TOTAL FREE ENERGY PREDICTED BY IDOCK:   -4.32 KCAL/MOL
REMARK 923 INTER-LIGAND FREE ENERGY PREDICTED BY IDOCK:   -4.13 KCAL/MOL
REMARK 924 INTRA-LIGAND FREE ENERGY PREDICTED BY IDOCK:   -0.19 KCAL/MOL
REMARK 927      BINDING AFFINITY PREDICTED BY RF-SCORE:    0.00 PKD
ROOT
HETATM    1  C   UNL     1     -10.130  10.926  64.689  1.00  0.00    -0.328 C  
HETATM    2  C   UNL     1      -9.467  11.596  65.898  1.00  0.00    -0.228 C  
HETATM    3  N   UNL     1      -8.869  10.617  66.840  1.00  0.00    -0.137 N  
HETATM    4  O   UNL     1      -9.196  10.110  63.976  1.00  0.00    -0.232 OA 
HETATM    5  C   UNL     1      -8.005   9.688  66.071  1.00  0.00    -0.108 C  
HETATM    6  C   UNL     1      -8.700   9.086  64.843  1.00  0.00    -0.166 C  
ENDROOT
BRANCH   3   7
HETATM    7  S   UNL     1      -8.232  11.190  68.291  1.00  0.00    -0.140 SA 
BRANCH   7   8
HETATM    8  C   UNL     1      -9.128  10.284  69.510  1.00  0.00    -0.167 A  
HETATM    9  N   UNL     1     -10.429  10.381  69.667  1.00  0.00    -0.243 NA 
HETATM   10  C   UNL     1     -10.836   9.539  70.689  1.00  0.00    -0.306 A  
HETATM   11  C   UNL     1     -12.161   9.360  71.136  1.00  0.00    -0.402 A  
HETATM   12  C   UNL     1     -12.431   8.468  72.179  1.00  0.00    -0.437 A  
HETATM   13  C   UNL     1     -11.401   7.758  72.785  1.00  0.00    -0.446 A  
HETATM   14  C   UNL     1     -10.076   7.919  72.364  1.00  0.00    -0.310 A  
HETATM   15  C   UNL     1      -9.819   8.812  71.311  1.00  0.00    -0.266 A  
HETATM   16  S   UNL     1      -8.318   9.207  70.569  1.00  0.00    -0.208 SA 
ENDBRANCH   7   8
ENDBRANCH   3   7
TORSDOF 2
ENDMDL
MODEL      110
REMARK 921   NORMALIZED FREE ENERGY PREDICTED BY IDOCK:   -3.70 KCAL/MOL
REMARK 922        TOTAL FREE ENERGY PREDICTED BY IDOCK:   -4.32 KCAL/MOL
REMARK 923 INTER-LIGAND FREE ENERGY PREDICTED BY IDOCK:   -4.16 KCAL/MOL
REMARK 924 INTRA-LIGAND FREE ENERGY PREDICTED BY IDOCK:   -0.16 KCAL/MOL
REMARK 927      BINDING AFFINITY PREDICTED BY RF-SCORE:    0.00 PKD
ROOT
HETATM    1  C   UNL     1      -7.403   7.293  72.441  1.00  0.00    -0.075 C  
HETATM    2  C   UNL     1      -8.671   7.476  71.598  1.00  0.00    -0.116 C  
HETATM    3  N   UNL     1      -9.850   6.784  72.177  1.00  0.00    -0.150 N  
HETATM    4  O   UNL     1      -7.602   7.760  73.778  1.00  0.00    -0.118 OA 
HETATM    5  C   UNL     1      -9.970   7.171  73.604  1.00  0.00    -0.325 C  
HETATM    6  C   UNL     1      -8.661   7.018  74.389  1.00  0.00    -0.197 C  
ENDROOT
BRANCH   3   7
HETATM    7  S   UNL     1     -11.282   6.769  71.291  1.00  0.00    -0.292 SA 
BRANCH   7   8
HETATM    8  C   UNL     1     -11.618   8.480  71.037  1.00  0.00    -0.279 A  
HETATM    9  N   UNL     1     -12.285   9.218  71.896  1.00  0.00    -0.374 NA 
HETATM   10  C   UNL     1     -12.371  10.517  71.424  1.00  0.00    -0.372 A  
HETATM   11  C   UNL     1     -12.999  11.597  72.077  1.00  0.00    -0.365 A  
HETATM   12  C   UNL     1     -13.005  12.864  71.484  1.00  0.00    -0.388 A  
HETATM   13  C   UNL     1     -12.400  13.068  70.249  1.00  0.00    -0.311 A  
HETATM   14  C   UNL     1     -11.773  12.014  69.576  1.00  0.00    -0.408 A  
HETATM   15  C   UNL     1     -11.767  10.748  70.185  1.00  0.00    -0.339 A  
HETATM   16  S   UNL     1     -11.072   9.279  69.623  1.00  0.00    -0.045 SA 
ENDBRANCH   7   8
ENDBRANCH   3   7
TORSDOF 2
ENDMDL
MODEL      111
REMARK 921   NORMALIZED FREE ENERGY PREDICTED BY IDOCK:   -3.69 KCAL/MOL
REMARK 922        TOTAL FREE ENERGY PREDICTED BY IDOCK:   -4.31 KCAL/MOL
REMARK 923 INTER-LIGAND FREE ENERGY PREDICTED BY IDOCK:   -4.54 KCAL/MOL
REMARK 924 INTRA-LIGAND FREE ENERGY PREDICTED BY IDOCK:    0.23 KCAL/MOL
REMARK 927      BINDING AFFINITY PREDICTED BY RF-SCORE:    0.00 PKD
ROOT
HETATM    1  C   UNL     1     -11.876  14.380  67.104  1.00  0.00    -0.410 C  
HETATM    2  C   UNL     1     -11.783  14.216  68.626  1.00  0.00    -0.350 C  
HETATM    3  N   UNL     1     -12.286  12.900  69.093  1.00  0.00    -0.138 N  
HETATM    4  O   UNL     1     -11.156  13.344  66.429  1.00  0.00    -0.294 OA 
HETATM    5  C   UNL     1     -11.633  11.834  68.295  1.00  0.00    -0.308 C  
HETATM    6  C   UNL     1     -11.710  12.073  66.782  1.00  0.00    -0.264 C  
ENDROOT
BRANCH   3   7
HETATM    7  S   UNL     1     -12.386  12.627  70.752  1.00  0.00    -0.158 SA 
BRANCH   7   8
HETATM    8  C   UNL     1     -12.102  10.893  70.893  1.00  0.00    -0.349 A  
HETATM    9  N   UNL     1     -10.919  10.341  70.736  1.00  0.00    -0.250 NA 
HETATM   10  C   UNL     1     -11.016   8.972  70.922  1.00  0.00    -0.268 A  
HETATM   11  C   UNL     1      -9.954   8.048  70.850  1.00  0.00    -0.207 A  
HETATM   12  C   UNL     1     -10.196   6.688  71.066  1.00  0.00    -0.214 A  
HETATM   13  C   UNL     1     -11.481   6.236  71.348  1.00  0.00    -0.352 A  
HETATM   14  C   UNL     1     -12.554   7.130  71.423  1.00  0.00    -0.432 A  
HETATM   15  C   UNL     1     -12.297   8.494  71.210  1.00  0.00    -0.271 A  
HETATM   16  S   UNL     1     -13.390   9.821  71.252  1.00  0.00    -0.270 SA 
ENDBRANCH   7   8
ENDBRANCH   3   7
TORSDOF 2
ENDMDL
MODEL      112
REMARK 921   NORMALIZED FREE ENERGY PREDICTED BY IDOCK:   -3.68 KCAL/MOL
REMARK 922        TOTAL FREE ENERGY PREDICTED BY IDOCK:   -4.30 KCAL/MOL
REMARK 923 INTER-LIGAND FREE ENERGY PREDICTED BY IDOCK:   -4.26 KCAL/MOL
REMARK 924 INTRA-LIGAND FREE ENERGY PREDICTED BY IDOCK:   -0.03 KCAL/MOL
REMARK 927      BINDING AFFINITY PREDICTED BY RF-SCORE:    0.00 PKD
ROOT
HETATM    1  C   UNL     1     -12.012  14.572  64.575  1.00  0.00    -0.468 C  
HETATM    2  C   UNL     1     -10.647  14.188  65.159  1.00  0.00    -0.398 C  
HETATM    3  N   UNL     1     -10.661  12.860  65.823  1.00  0.00    -0.271 N  
HETATM    4  O   UNL     1     -12.466  13.591  63.638  1.00  0.00    -0.718 OA 
HETATM    5  C   UNL     1     -11.258  11.872  64.891  1.00  0.00    -0.292 C  
HETATM    6  C   UNL     1     -12.596  12.328  64.297  1.00  0.00    -0.372 C  
ENDROOT
BRANCH   3   7
HETATM    7  S   UNL     1      -9.275  12.362  66.641  1.00  0.00    -0.202 SA 
BRANCH   7   8
HETATM    8  C   UNL     1      -9.316  10.608  66.473  1.00  0.00    -0.167 A  
HETATM    9  N   UNL     1      -8.603   9.953  65.584  1.00  0.00    -0.140 NA 
HETATM   10  C   UNL     1      -8.840   8.594  65.710  1.00  0.00    -0.193 A  
HETATM   11  C   UNL     1      -8.244   7.574  64.940  1.00  0.00    -0.086 A  
HETATM   12  C   UNL     1      -8.573   6.236  65.180  1.00  0.00    -0.030 A  
HETATM   13  C   UNL     1      -9.489   5.901  66.170  1.00  0.00    -0.131 A  
HETATM   14  C   UNL     1     -10.099   6.892  66.946  1.00  0.00    -0.286 A  
HETATM   15  C   UNL     1      -9.755   8.231  66.701  1.00  0.00    -0.251 A  
HETATM   16  S   UNL     1     -10.313   9.655  67.490  1.00  0.00    -0.257 SA 
ENDBRANCH   7   8
ENDBRANCH   3   7
TORSDOF 2
ENDMDL
MODEL      113
REMARK 921   NORMALIZED FREE ENERGY PREDICTED BY IDOCK:   -3.67 KCAL/MOL
REMARK 922        TOTAL FREE ENERGY PREDICTED BY IDOCK:   -4.29 KCAL/MOL
REMARK 923 INTER-LIGAND FREE ENERGY PREDICTED BY IDOCK:   -4.21 KCAL/MOL
REMARK 924 INTRA-LIGAND FREE ENERGY PREDICTED BY IDOCK:   -0.07 KCAL/MOL
REMARK 927      BINDING AFFINITY PREDICTED BY RF-SCORE:    0.00 PKD
ROOT
HETATM    1  C   UNL     1     -12.604  14.543  70.114  1.00  0.00    -0.288 C  
HETATM    2  C   UNL     1     -12.088  14.348  68.684  1.00  0.00    -0.239 C  
HETATM    3  N   UNL     1     -11.468  15.575  68.125  1.00  0.00    -0.341 N  
HETATM    4  O   UNL     1     -11.554  14.970  70.988  1.00  0.00    -0.294 OA 
HETATM    5  C   UNL     1     -10.473  16.088  69.099  1.00  0.00    -0.251 C  
HETATM    6  C   UNL     1     -11.026  16.215  70.524  1.00  0.00    -0.269 C  
ENDROOT
BRANCH   3   7
HETATM    7  S   UNL     1     -10.986  15.563  66.512  1.00  0.00    -0.183 SA 
BRANCH   7   8
HETATM    8  C   UNL     1      -9.771  16.839  66.444  1.00  0.00    -0.290 A  
HETATM    9  N   UNL     1      -8.481  16.613  66.558  1.00  0.00    -0.262 NA 
HETATM   10  C   UNL     1      -7.790  17.807  66.449  1.00  0.00    -0.277 A  
HETATM   11  C   UNL     1      -6.389  17.962  66.505  1.00  0.00    -0.232 A  
HETATM   12  C   UNL     1      -5.822  19.234  66.374  1.00  0.00    -0.177 A  
HETATM   13  C   UNL     1      -6.629  20.351  66.193  1.00  0.00    -0.266 A  
HETATM   14  C   UNL     1      -8.021  20.228  66.137  1.00  0.00    -0.184 A  
HETATM   15  C   UNL     1      -8.578  18.945  66.263  1.00  0.00    -0.257 A  
HETATM   16  S   UNL     1     -10.232  18.474  66.218  1.00  0.00    -0.406 SA 
ENDBRANCH   7   8
ENDBRANCH   3   7
TORSDOF 2
ENDMDL
MODEL      114
REMARK 921   NORMALIZED FREE ENERGY PREDICTED BY IDOCK:   -3.66 KCAL/MOL
REMARK 922        TOTAL FREE ENERGY PREDICTED BY IDOCK:   -4.28 KCAL/MOL
REMARK 923 INTER-LIGAND FREE ENERGY PREDICTED BY IDOCK:   -4.09 KCAL/MOL
REMARK 924 INTRA-LIGAND FREE ENERGY PREDICTED BY IDOCK:   -0.19 KCAL/MOL
REMARK 927      BINDING AFFINITY PREDICTED BY RF-SCORE:    0.00 PKD
ROOT
HETATM    1  C   UNL     1      -8.581   8.416  71.027  1.00  0.00    -0.155 C  
HETATM    2  C   UNL     1      -9.894   9.158  71.303  1.00  0.00    -0.293 C  
HETATM    3  N   UNL     1     -10.554   9.637  70.062  1.00  0.00    -0.240 N  
HETATM    4  O   UNL     1      -8.792   7.301  70.156  1.00  0.00    -0.143 OA 
HETATM    5  C   UNL     1     -10.648   8.504  69.109  1.00  0.00    -0.173 C  
HETATM    6  C   UNL     1      -9.319   7.765  68.909  1.00  0.00    -0.146 C  
ENDROOT
BRANCH   3   7
HETATM    7  S   UNL     1     -11.930  10.598  70.208  1.00  0.00    -0.364 SA 
BRANCH   7   8
HETATM    8  C   UNL     1     -11.448  12.112  69.445  1.00  0.00    -0.290 A  
HETATM    9  N   UNL     1     -11.980  13.274  69.751  1.00  0.00    -0.327 NA 
HETATM   10  C   UNL     1     -11.384  14.271  68.996  1.00  0.00    -0.272 A  
HETATM   11  C   UNL     1     -11.682  15.647  69.058  1.00  0.00    -0.408 A  
HETATM   12  C   UNL     1     -10.995  16.548  68.237  1.00  0.00    -0.346 A  
HETATM   13  C   UNL     1     -10.021  16.096  67.354  1.00  0.00    -0.247 A  
HETATM   14  C   UNL     1      -9.708  14.735  67.270  1.00  0.00    -0.230 A  
HETATM   15  C   UNL     1     -10.399  13.842  68.103  1.00  0.00    -0.252 A  
HETATM   16  S   UNL     1     -10.228  12.135  68.241  1.00  0.00    -0.210 SA 
ENDBRANCH   7   8
ENDBRANCH   3   7
TORSDOF 2
ENDMDL
MODEL      115
REMARK 921   NORMALIZED FREE ENERGY PREDICTED BY IDOCK:   -3.65 KCAL/MOL
REMARK 922        TOTAL FREE ENERGY PREDICTED BY IDOCK:   -4.27 KCAL/MOL
REMARK 923 INTER-LIGAND FREE ENERGY PREDICTED BY IDOCK:   -4.23 KCAL/MOL
REMARK 924 INTRA-LIGAND FREE ENERGY PREDICTED BY IDOCK:   -0.04 KCAL/MOL
REMARK 927      BINDING AFFINITY PREDICTED BY RF-SCORE:    0.00 PKD
ROOT
HETATM    1  C   UNL     1      -7.208  13.049  67.713  1.00  0.00    -0.139 C  
HETATM    2  C   UNL     1      -8.683  12.637  67.783  1.00  0.00    -0.179 C  
HETATM    3  N   UNL     1      -9.132  11.906  66.572  1.00  0.00    -0.209 N  
HETATM    4  O   UNL     1      -6.363  11.911  67.520  1.00  0.00    -0.078 OA 
HETATM    5  C   UNL     1      -8.173  10.807  66.300  1.00  0.00    -0.162 C  
HETATM    6  C   UNL     1      -6.710  11.264  66.292  1.00  0.00    -0.011 C  
ENDROOT
BRANCH   3   7
HETATM    7  S   UNL     1     -10.765  11.515  66.434  1.00  0.00    -0.278 SA 
BRANCH   7   8
HETATM    8  C   UNL     1     -11.140  10.794  67.999  1.00  0.00    -0.299 A  
HETATM    9  N   UNL     1     -12.028  11.296  68.828  1.00  0.00    -0.506 NA 
HETATM   10  C   UNL     1     -12.107  10.500  69.959  1.00  0.00    -0.274 A  
HETATM   11  C   UNL     1     -12.960  10.711  71.062  1.00  0.00    -0.456 A  
HETATM   12  C   UNL     1     -12.940   9.820  72.140  1.00  0.00    -0.483 A  
HETATM   13  C   UNL     1     -12.079   8.727  72.137  1.00  0.00    -0.441 A  
HETATM   14  C   UNL     1     -11.220   8.497  71.058  1.00  0.00    -0.312 A  
HETATM   15  C   UNL     1     -11.255   9.394  69.978  1.00  0.00    -0.190 A  
HETATM   16  S   UNL     1     -10.344   9.368  68.519  1.00  0.00    -0.213 SA 
ENDBRANCH   7   8
ENDBRANCH   3   7
TORSDOF 2
ENDMDL
MODEL      116
REMARK 921   NORMALIZED FREE ENERGY PREDICTED BY IDOCK:   -3.64 KCAL/MOL
REMARK 922        TOTAL FREE ENERGY PREDICTED BY IDOCK:   -4.26 KCAL/MOL
REMARK 923 INTER-LIGAND FREE ENERGY PREDICTED BY IDOCK:   -4.04 KCAL/MOL
REMARK 924 INTRA-LIGAND FREE ENERGY PREDICTED BY IDOCK:   -0.22 KCAL/MOL
REMARK 927      BINDING AFFINITY PREDICTED BY RF-SCORE:    0.00 PKD
ROOT
HETATM    1  C   UNL     1     -11.995  10.880  70.566  1.00  0.00    -0.371 C  
HETATM    2  C   UNL     1     -11.026   9.694  70.513  1.00  0.00    -0.313 C  
HETATM    3  N   UNL     1     -11.030   8.893  71.763  1.00  0.00    -0.339 N  
HETATM    4  O   UNL     1     -13.332  10.442  70.829  1.00  0.00    -0.322 OA 
HETATM    5  C   UNL     1     -12.434   8.556  72.103  1.00  0.00    -0.379 C  
HETATM    6  C   UNL     1     -13.372   9.770  72.091  1.00  0.00    -0.431 C  
ENDROOT
BRANCH   3   7
HETATM    7  S   UNL     1      -9.911   7.644  71.916  1.00  0.00    -0.182 SA 
BRANCH   7   8
HETATM    8  C   UNL     1      -9.767   7.028  70.270  1.00  0.00    -0.175 A  
HETATM    9  N   UNL     1      -8.724   7.259  69.504  1.00  0.00    -0.134 NA 
HETATM   10  C   UNL     1      -8.900   6.632  68.281  1.00  0.00    -0.124 A  
HETATM   11  C   UNL     1      -7.987   6.641  67.207  1.00  0.00    -0.117 A  
HETATM   12  C   UNL     1      -8.293   5.957  66.025  1.00  0.00    -0.128 A  
HETATM   13  C   UNL     1      -9.495   5.271  65.898  1.00  0.00    -0.156 A  
HETATM   14  C   UNL     1     -10.421   5.249  66.946  1.00  0.00    -0.313 A  
HETATM   15  C   UNL     1     -10.100   5.933  68.130  1.00  0.00    -0.166 A  
HETATM   16  S   UNL     1     -11.013   6.073  69.581  1.00  0.00    -0.393 SA 
ENDBRANCH   7   8
ENDBRANCH   3   7
TORSDOF 2
ENDMDL
MODEL      117
REMARK 921   NORMALIZED FREE ENERGY PREDICTED BY IDOCK:   -3.63 KCAL/MOL
REMARK 922        TOTAL FREE ENERGY PREDICTED BY IDOCK:   -4.25 KCAL/MOL
REMARK 923 INTER-LIGAND FREE ENERGY PREDICTED BY IDOCK:   -4.03 KCAL/MOL
REMARK 924 INTRA-LIGAND FREE ENERGY PREDICTED BY IDOCK:   -0.22 KCAL/MOL
REMARK 927      BINDING AFFINITY PREDICTED BY RF-SCORE:    0.00 PKD
ROOT
HETATM    1  C   UNL     1      -7.909  15.837  68.912  1.00  0.00    -0.190 C  
HETATM    2  C   UNL     1      -7.827  14.324  68.675  1.00  0.00    -0.140 C  
HETATM    3  N   UNL     1      -8.810  13.847  67.671  1.00  0.00    -0.180 N  
HETATM    4  O   UNL     1      -7.713  16.561  67.694  1.00  0.00    -0.143 OA 
HETATM    5  C   UNL     1      -8.693  14.691  66.456  1.00  0.00    -0.080 C  
HETATM    6  C   UNL     1      -8.729  16.195  66.755  1.00  0.00    -0.240 C  
ENDROOT
BRANCH   3   7
HETATM    7  S   UNL     1      -8.943  12.188  67.409  1.00  0.00    -0.188 SA 
BRANCH   7   8
HETATM    8  C   UNL     1     -10.067  11.670  68.665  1.00  0.00    -0.198 A  
HETATM    9  N   UNL     1     -10.934  12.478  69.233  1.00  0.00    -0.142 NA 
HETATM   10  C   UNL     1     -11.681  11.776  70.165  1.00  0.00    -0.269 A  
HETATM   11  C   UNL     1     -12.717  12.302  70.962  1.00  0.00    -0.319 A  
HETATM   12  C   UNL     1     -13.395  11.473  71.862  1.00  0.00    -0.408 A  
HETATM   13  C   UNL     1     -13.050  10.132  71.982  1.00  0.00    -0.538 A  
HETATM   14  C   UNL     1     -12.023   9.584  71.207  1.00  0.00    -0.445 A  
HETATM   15  C   UNL     1     -11.355  10.424  70.301  1.00  0.00    -0.328 A  
HETATM   16  S   UNL     1     -10.079  10.046  69.212  1.00  0.00    -0.228 SA 
ENDBRANCH   7   8
ENDBRANCH   3   7
TORSDOF 2
ENDMDL
MODEL      118
REMARK 921   NORMALIZED FREE ENERGY PREDICTED BY IDOCK:   -3.63 KCAL/MOL
REMARK 922        TOTAL FREE ENERGY PREDICTED BY IDOCK:   -4.25 KCAL/MOL
REMARK 923 INTER-LIGAND FREE ENERGY PREDICTED BY IDOCK:   -4.13 KCAL/MOL
REMARK 924 INTRA-LIGAND FREE ENERGY PREDICTED BY IDOCK:   -0.12 KCAL/MOL
REMARK 927      BINDING AFFINITY PREDICTED BY RF-SCORE:    0.00 PKD
ROOT
HETATM    1  C   UNL     1     -11.427  10.421  70.303  1.00  0.00    -0.325 C  
HETATM    2  C   UNL     1     -12.157  11.240  69.232  1.00  0.00    -0.303 C  
HETATM    3  N   UNL     1     -11.242  11.759  68.184  1.00  0.00    -0.239 N  
HETATM    4  O   UNL     1     -10.722   9.321  69.719  1.00  0.00    -0.222 OA 
HETATM    5  C   UNL     1     -10.418  10.634  67.677  1.00  0.00    -0.227 C  
HETATM    6  C   UNL     1      -9.753   9.817  68.791  1.00  0.00    -0.161 C  
ENDROOT
BRANCH   3   7
HETATM    7  S   UNL     1     -11.871  12.800  67.019  1.00  0.00    -0.304 SA 
BRANCH   7   8
HETATM    8  C   UNL     1     -10.762  14.170  67.062  1.00  0.00    -0.285 A  
HETATM    9  N   UNL     1     -11.164  15.419  67.143  1.00  0.00    -0.300 NA 
HETATM   10  C   UNL     1     -10.063  16.259  67.172  1.00  0.00    -0.268 A  
HETATM   11  C   UNL     1     -10.096  17.665  67.271  1.00  0.00    -0.331 A  
HETATM   12  C   UNL     1      -8.901  18.391  67.296  1.00  0.00    -0.261 A  
HETATM   13  C   UNL     1      -7.676  17.737  67.218  1.00  0.00    -0.222 A  
HETATM   14  C   UNL     1      -7.614  16.344  67.116  1.00  0.00    -0.224 A  
HETATM   15  C   UNL     1      -8.820  15.625  67.099  1.00  0.00    -0.208 A  
HETATM   16  S   UNL     1      -9.067  13.925  67.001  1.00  0.00    -0.247 SA 
ENDBRANCH   7   8
ENDBRANCH   3   7
TORSDOF 2
ENDMDL
MODEL      119
REMARK 921   NORMALIZED FREE ENERGY PREDICTED BY IDOCK:   -3.62 KCAL/MOL
REMARK 922        TOTAL FREE ENERGY PREDICTED BY IDOCK:   -4.24 KCAL/MOL
REMARK 923 INTER-LIGAND FREE ENERGY PREDICTED BY IDOCK:   -4.06 KCAL/MOL
REMARK 924 INTRA-LIGAND FREE ENERGY PREDICTED BY IDOCK:   -0.18 KCAL/MOL
REMARK 927      BINDING AFFINITY PREDICTED BY RF-SCORE:    0.00 PKD
ROOT
HETATM    1  C   UNL     1     -12.398   9.920  71.749  1.00  0.00    -0.368 C  
HETATM    2  C   UNL     1     -11.585   8.638  71.537  1.00  0.00    -0.302 C  
HETATM    3  N   UNL     1     -12.203   7.453  72.184  1.00  0.00    -0.264 N  
HETATM    4  O   UNL     1     -13.734   9.771  71.260  1.00  0.00    -0.301 OA 
HETATM    5  C   UNL     1     -13.628   7.382  71.777  1.00  0.00    -0.314 C  
HETATM    6  C   UNL     1     -14.381   8.705  71.961  1.00  0.00    -0.422 C  
ENDROOT
BRANCH   3   7
HETATM    7  S   UNL     1     -11.354   5.999  72.166  1.00  0.00    -0.293 SA 
BRANCH   7   8
HETATM    8  C   UNL     1     -10.534   6.031  70.605  1.00  0.00    -0.246 A  
HETATM    9  N   UNL     1     -11.172   6.041  69.456  1.00  0.00    -0.403 NA 
HETATM   10  C   UNL     1     -10.256   6.082  68.418  1.00  0.00    -0.181 A  
HETATM   11  C   UNL     1     -10.565   6.119  67.043  1.00  0.00    -0.384 A  
HETATM   12  C   UNL     1      -9.535   6.164  66.097  1.00  0.00    -0.100 A  
HETATM   13  C   UNL     1      -8.205   6.167  66.502  1.00  0.00    -0.111 A  
HETATM   14  C   UNL     1      -7.870   6.127  67.860  1.00  0.00    -0.106 A  
HETATM   15  C   UNL     1      -8.913   6.089  68.800  1.00  0.00    -0.118 A  
HETATM   16  S   UNL     1      -8.822   6.053  70.517  1.00  0.00    -0.146 SA 
ENDBRANCH   7   8
ENDBRANCH   3   7
TORSDOF 2
ENDMDL
MODEL      120
REMARK 921   NORMALIZED FREE ENERGY PREDICTED BY IDOCK:   -3.59 KCAL/MOL
REMARK 922        TOTAL FREE ENERGY PREDICTED BY IDOCK:   -4.20 KCAL/MOL
REMARK 923 INTER-LIGAND FREE ENERGY PREDICTED BY IDOCK:   -4.00 KCAL/MOL
REMARK 924 INTRA-LIGAND FREE ENERGY PREDICTED BY IDOCK:   -0.20 KCAL/MOL
REMARK 927      BINDING AFFINITY PREDICTED BY RF-SCORE:    0.00 PKD
ROOT
HETATM    1  C   UNL     1     -12.371  10.464  70.906  1.00  0.00    -0.381 C  
HETATM    2  C   UNL     1     -11.017   9.743  70.918  1.00  0.00    -0.341 C  
HETATM    3  N   UNL     1     -10.787   8.976  72.167  1.00  0.00    -0.280 N  
HETATM    4  O   UNL     1     -13.448   9.541  71.086  1.00  0.00    -0.341 OA 
HETATM    5  C   UNL     1     -11.971   8.117  72.419  1.00  0.00    -0.372 C  
HETATM    6  C   UNL     1     -13.301   8.877  72.345  1.00  0.00    -0.440 C  
ENDROOT
BRANCH   3   7
HETATM    7  S   UNL     1      -9.284   8.249  72.393  1.00  0.00    -0.275 SA 
BRANCH   7   8
HETATM    8  C   UNL     1      -9.355   6.839  71.338  1.00  0.00    -0.157 A  
HETATM    9  N   UNL     1      -9.362   6.921  70.026  1.00  0.00    -0.158 NA 
HETATM   10  C   UNL     1      -9.407   5.648  69.482  1.00  0.00    -0.133 A  
HETATM   11  C   UNL     1      -9.412   5.334  68.107  1.00  0.00    -0.151 A  
HETATM   12  C   UNL     1      -9.455   3.997  67.697  1.00  0.00    -0.231 A  
HETATM   13  C   UNL     1      -9.498   2.972  68.635  1.00  0.00    -0.194 A  
HETATM   14  C   UNL     1      -9.498   3.255  70.005  1.00  0.00    -0.231 A  
HETATM   15  C   UNL     1      -9.448   4.600  70.405  1.00  0.00    -0.171 A  
HETATM   16  S   UNL     1      -9.417   5.257  71.994  1.00  0.00    -0.146 SA 
ENDBRANCH   7   8
ENDBRANCH   3   7
TORSDOF 2
ENDMDL
MODEL      121
REMARK 921   NORMALIZED FREE ENERGY PREDICTED BY IDOCK:   -3.59 KCAL/MOL
REMARK 922        TOTAL FREE ENERGY PREDICTED BY IDOCK:   -4.20 KCAL/MOL
REMARK 923 INTER-LIGAND FREE ENERGY PREDICTED BY IDOCK:   -4.06 KCAL/MOL
REMARK 924 INTRA-LIGAND FREE ENERGY PREDICTED BY IDOCK:   -0.14 KCAL/MOL
REMARK 927      BINDING AFFINITY PREDICTED BY RF-SCORE:    0.00 PKD
ROOT
HETATM    1  C   UNL     1     -14.189  14.724  72.685  1.00  0.00    -0.089 C  
HETATM    2  C   UNL     1     -13.384  13.623  71.985  1.00  0.00    -0.459 C  
HETATM    3  N   UNL     1     -12.436  14.159  70.977  1.00  0.00    -0.345 N  
HETATM    4  O   UNL     1     -13.324  15.670  73.321  1.00  0.00    -0.522 OA 
HETATM    5  C   UNL     1     -11.632  15.235  71.608  1.00  0.00    -0.408 C  
HETATM    6  C   UNL     1     -12.483  16.281  72.338  1.00  0.00    -0.321 C  
ENDROOT
BRANCH   3   7
HETATM    7  S   UNL     1     -11.585  13.065  70.019  1.00  0.00    -0.038 SA 
BRANCH   7   8
HETATM    8  C   UNL     1     -11.561  13.846  68.439  1.00  0.00    -0.332 A  
HETATM    9  N   UNL     1     -10.979  15.003  68.217  1.00  0.00    -0.261 NA 
HETATM   10  C   UNL     1     -11.117  15.343  66.881  1.00  0.00    -0.256 A  
HETATM   11  C   UNL     1     -10.610  16.506  66.265  1.00  0.00    -0.223 A  
HETATM   12  C   UNL     1     -10.820  16.720  64.899  1.00  0.00    -0.088 A  
HETATM   13  C   UNL     1     -11.531  15.796  64.141  1.00  0.00    -0.079 A  
HETATM   14  C   UNL     1     -12.048  14.636  64.727  1.00  0.00    -0.428 A  
HETATM   15  C   UNL     1     -11.825  14.429  66.097  1.00  0.00    -0.382 A  
HETATM   16  S   UNL     1     -12.313  13.109  67.087  1.00  0.00     0.179 SA 
ENDBRANCH   7   8
ENDBRANCH   3   7
TORSDOF 2
ENDMDL
MODEL      122
REMARK 921   NORMALIZED FREE ENERGY PREDICTED BY IDOCK:   -3.59 KCAL/MOL
REMARK 922        TOTAL FREE ENERGY PREDICTED BY IDOCK:   -4.20 KCAL/MOL
REMARK 923 INTER-LIGAND FREE ENERGY PREDICTED BY IDOCK:   -3.98 KCAL/MOL
REMARK 924 INTRA-LIGAND FREE ENERGY PREDICTED BY IDOCK:   -0.22 KCAL/MOL
REMARK 927      BINDING AFFINITY PREDICTED BY RF-SCORE:    0.00 PKD
ROOT
HETATM    1  C   UNL     1     -13.537   9.141  72.084  1.00  0.00    -0.474 C  
HETATM    2  C   UNL     1     -12.237   8.342  71.935  1.00  0.00    -0.337 C  
HETATM    3  N   UNL     1     -11.458   8.731  70.734  1.00  0.00    -0.277 N  
HETATM    4  O   UNL     1     -13.274  10.547  72.139  1.00  0.00    -0.458 OA 
HETATM    5  C   UNL     1     -11.305  10.207  70.728  1.00  0.00    -0.354 C  
HETATM    6  C   UNL     1     -12.627  10.957  70.932  1.00  0.00    -0.397 C  
ENDROOT
BRANCH   3   7
HETATM    7  S   UNL     1     -10.079   7.842  70.353  1.00  0.00    -0.196 SA 
BRANCH   7   8
HETATM    8  C   UNL     1      -9.597   8.497  68.788  1.00  0.00    -0.149 A  
HETATM    9  N   UNL     1      -8.436   9.076  68.577  1.00  0.00    -0.127 NA 
HETATM   10  C   UNL     1      -8.349   9.469  67.252  1.00  0.00    -0.125 A  
HETATM   11  C   UNL     1      -7.247  10.110  66.649  1.00  0.00    -0.105 A  
HETATM   12  C   UNL     1      -7.292  10.447  65.292  1.00  0.00    -0.108 A  
HETATM   13  C   UNL     1      -8.420  10.160  64.531  1.00  0.00    -0.182 A  
HETATM   14  C   UNL     1      -9.529   9.529  65.104  1.00  0.00    -0.305 A  
HETATM   15  C   UNL     1      -9.469   9.189  66.465  1.00  0.00    -0.208 A  
HETATM   16  S   UNL     1     -10.648   8.401  67.438  1.00  0.00    -0.173 SA 
ENDBRANCH   7   8
ENDBRANCH   3   7
TORSDOF 2
ENDMDL
MODEL      123
REMARK 921   NORMALIZED FREE ENERGY PREDICTED BY IDOCK:   -3.57 KCAL/MOL
REMARK 922        TOTAL FREE ENERGY PREDICTED BY IDOCK:   -4.18 KCAL/MOL
REMARK 923 INTER-LIGAND FREE ENERGY PREDICTED BY IDOCK:   -3.97 KCAL/MOL
REMARK 924 INTRA-LIGAND FREE ENERGY PREDICTED BY IDOCK:   -0.21 KCAL/MOL
REMARK 927      BINDING AFFINITY PREDICTED BY RF-SCORE:    0.00 PKD
ROOT
HETATM    1  C   UNL     1      -8.732   8.921  70.638  1.00  0.00    -0.197 C  
HETATM    2  C   UNL     1     -10.058   9.665  70.443  1.00  0.00    -0.276 C  
HETATM    3  N   UNL     1     -10.298  10.049  69.029  1.00  0.00    -0.194 N  
HETATM    4  O   UNL     1      -8.677   7.745  69.825  1.00  0.00    -0.137 OA 
HETATM    5  C   UNL     1     -10.106   8.850  68.175  1.00  0.00    -0.189 C  
HETATM    6  C   UNL     1      -8.789   8.114  68.447  1.00  0.00    -0.133 C  
ENDROOT
BRANCH   3   7
HETATM    7  S   UNL     1     -11.641  11.001  68.676  1.00  0.00    -0.299 SA 
BRANCH   7   8
HETATM    8  C   UNL     1     -10.932  12.453  67.970  1.00  0.00    -0.225 A  
HETATM    9  N   UNL     1      -9.712  12.861  68.237  1.00  0.00    -0.223 NA 
HETATM   10  C   UNL     1      -9.442  14.016  67.521  1.00  0.00    -0.221 A  
HETATM   11  C   UNL     1      -8.230  14.736  67.536  1.00  0.00    -0.201 A  
HETATM   12  C   UNL     1      -8.093  15.888  66.755  1.00  0.00    -0.301 A  
HETATM   13  C   UNL     1      -9.146  16.334  65.964  1.00  0.00    -0.332 A  
HETATM   14  C   UNL     1     -10.361  15.641  65.932  1.00  0.00    -0.368 A  
HETATM   15  C   UNL     1     -10.484  14.482  66.716  1.00  0.00    -0.270 A  
HETATM   16  S   UNL     1     -11.827  13.418  66.872  1.00  0.00    -0.400 SA 
ENDBRANCH   7   8
ENDBRANCH   3   7
TORSDOF 2
ENDMDL
MODEL      124
REMARK 921   NORMALIZED FREE ENERGY PREDICTED BY IDOCK:   -3.56 KCAL/MOL
REMARK 922        TOTAL FREE ENERGY PREDICTED BY IDOCK:   -4.17 KCAL/MOL
REMARK 923 INTER-LIGAND FREE ENERGY PREDICTED BY IDOCK:   -4.03 KCAL/MOL
REMARK 924 INTRA-LIGAND FREE ENERGY PREDICTED BY IDOCK:   -0.14 KCAL/MOL
REMARK 927      BINDING AFFINITY PREDICTED BY RF-SCORE:    0.00 PKD
ROOT
HETATM    1  C   UNL     1      -7.740   8.366  67.515  1.00  0.00    -0.099 C  
HETATM    2  C   UNL     1      -8.488   9.603  67.004  1.00  0.00    -0.124 C  
HETATM    3  N   UNL     1      -9.684   9.258  66.195  1.00  0.00    -0.260 N  
HETATM    4  O   UNL     1      -8.600   7.531  68.296  1.00  0.00    -0.124 OA 
HETATM    5  C   UNL     1     -10.504   8.285  66.958  1.00  0.00    -0.314 C  
HETATM    6  C   UNL     1      -9.698   7.094  67.490  1.00  0.00    -0.142 C  
ENDROOT
BRANCH   3   7
HETATM    7  S   UNL     1     -10.526  10.506  65.441  1.00  0.00    -0.069 SA 
BRANCH   7   8
HETATM    8  C   UNL     1     -10.847  11.631  66.759  1.00  0.00    -0.277 A  
HETATM    9  N   UNL     1     -11.544  11.310  67.826  1.00  0.00    -0.531 NA 
HETATM   10  C   UNL     1     -11.607  12.397  68.683  1.00  0.00    -0.319 A  
HETATM   11  C   UNL     1     -12.256  12.429  69.934  1.00  0.00    -0.227 A  
HETATM   12  C   UNL     1     -12.236  13.598  70.701  1.00  0.00    -0.434 A  
HETATM   13  C   UNL     1     -11.583  14.735  70.238  1.00  0.00    -0.333 A  
HETATM   14  C   UNL     1     -10.934  14.732  68.999  1.00  0.00    -0.257 A  
HETATM   15  C   UNL     1     -10.956  13.551  68.241  1.00  0.00    -0.258 A  
HETATM   16  S   UNL     1     -10.244  13.234  66.707  1.00  0.00    -0.258 SA 
ENDBRANCH   7   8
ENDBRANCH   3   7
TORSDOF 2
ENDMDL
MODEL      125
REMARK 921   NORMALIZED FREE ENERGY PREDICTED BY IDOCK:   -3.55 KCAL/MOL
REMARK 922        TOTAL FREE ENERGY PREDICTED BY IDOCK:   -4.15 KCAL/MOL
REMARK 923 INTER-LIGAND FREE ENERGY PREDICTED BY IDOCK:   -3.94 KCAL/MOL
REMARK 924 INTRA-LIGAND FREE ENERGY PREDICTED BY IDOCK:   -0.22 KCAL/MOL
REMARK 927      BINDING AFFINITY PREDICTED BY RF-SCORE:    0.00 PKD
ROOT
HETATM    1  C   UNL     1      -6.553   9.708  70.239  1.00  0.00    -0.091 C  
HETATM    2  C   UNL     1      -7.384   8.846  69.282  1.00  0.00    -0.070 C  
HETATM    3  N   UNL     1      -7.947   9.624  68.150  1.00  0.00    -0.100 N  
HETATM    4  O   UNL     1      -5.482  10.359  69.549  1.00  0.00    -0.038 OA 
HETATM    5  C   UNL     1      -6.851  10.403  67.522  1.00  0.00    -0.075 C  
HETATM    6  C   UNL     1      -6.020  11.206  68.530  1.00  0.00    -0.042 C  
ENDROOT
BRANCH   3   7
HETATM    7  S   UNL     1      -9.004   8.848  67.094  1.00  0.00    -0.128 SA 
BRANCH   7   8
HETATM    8  C   UNL     1      -9.932  10.178  66.402  1.00  0.00    -0.234 A  
HETATM    9  N   UNL     1     -10.113  10.335  65.110  1.00  0.00    -0.314 NA 
HETATM   10  C   UNL     1     -10.894  11.456  64.884  1.00  0.00    -0.257 A  
HETATM   11  C   UNL     1     -11.311  11.935  63.625  1.00  0.00    -0.536 A  
HETATM   12  C   UNL     1     -12.106  13.083  63.544  1.00  0.00    -0.617 A  
HETATM   13  C   UNL     1     -12.486  13.762  64.696  1.00  0.00    -0.356 A  
HETATM   14  C   UNL     1     -12.082  13.312  65.957  1.00  0.00    -0.491 A  
HETATM   15  C   UNL     1     -11.290  12.154  66.027  1.00  0.00    -0.358 A  
HETATM   16  S   UNL     1     -10.661  11.354  67.414  1.00  0.00    -0.232 SA 
ENDBRANCH   7   8
ENDBRANCH   3   7
TORSDOF 2
ENDMDL
MODEL      126
REMARK 921   NORMALIZED FREE ENERGY PREDICTED BY IDOCK:   -3.54 KCAL/MOL
REMARK 922        TOTAL FREE ENERGY PREDICTED BY IDOCK:   -4.14 KCAL/MOL
REMARK 923 INTER-LIGAND FREE ENERGY PREDICTED BY IDOCK:   -3.98 KCAL/MOL
REMARK 924 INTRA-LIGAND FREE ENERGY PREDICTED BY IDOCK:   -0.15 KCAL/MOL
REMARK 927      BINDING AFFINITY PREDICTED BY RF-SCORE:    0.00 PKD
ROOT
HETATM    1  C   UNL     1      -6.528   8.654  66.627  1.00  0.00    -0.060 C  
HETATM    2  C   UNL     1      -7.071   9.704  67.603  1.00  0.00    -0.088 C  
HETATM    3  N   UNL     1      -8.325  10.338  67.123  1.00  0.00    -0.121 N  
HETATM    4  O   UNL     1      -7.497   7.631  66.379  1.00  0.00    -0.081 OA 
HETATM    5  C   UNL     1      -9.279   9.268  66.740  1.00  0.00    -0.147 C  
HETATM    6  C   UNL     1      -8.669   8.216  65.805  1.00  0.00    -0.154 C  
ENDROOT
BRANCH   3   7
HETATM    7  S   UNL     1      -8.965  11.616  68.013  1.00  0.00    -0.182 SA 
BRANCH   7   8
HETATM    8  C   UNL     1     -10.023  10.811  69.172  1.00  0.00    -0.187 A  
HETATM    9  N   UNL     1      -9.598   9.910  70.029  1.00  0.00    -0.236 NA 
HETATM   10  C   UNL     1     -10.657   9.477  70.810  1.00  0.00    -0.317 A  
HETATM   11  C   UNL     1     -10.587   8.526  71.848  1.00  0.00    -0.392 A  
HETATM   12  C   UNL     1     -11.740   8.184  72.561  1.00  0.00    -0.457 A  
HETATM   13  C   UNL     1     -12.961   8.772  72.252  1.00  0.00    -0.462 A  
HETATM   14  C   UNL     1     -13.061   9.716  71.224  1.00  0.00    -0.437 A  
HETATM   15  C   UNL     1     -11.895  10.056  70.520  1.00  0.00    -0.303 A  
HETATM   16  S   UNL     1     -11.695  11.180  69.233  1.00  0.00    -0.358 SA 
ENDBRANCH   7   8
ENDBRANCH   3   7
TORSDOF 2
ENDMDL
MODEL      127
REMARK 921   NORMALIZED FREE ENERGY PREDICTED BY IDOCK:   -3.53 KCAL/MOL
REMARK 922        TOTAL FREE ENERGY PREDICTED BY IDOCK:   -4.14 KCAL/MOL
REMARK 923 INTER-LIGAND FREE ENERGY PREDICTED BY IDOCK:   -3.93 KCAL/MOL
REMARK 924 INTRA-LIGAND FREE ENERGY PREDICTED BY IDOCK:   -0.21 KCAL/MOL
REMARK 927      BINDING AFFINITY PREDICTED BY RF-SCORE:    0.00 PKD
ROOT
HETATM    1  C   UNL     1      -6.661  10.288  67.765  1.00  0.00    -0.073 C  
HETATM    2  C   UNL     1      -6.856   8.958  68.503  1.00  0.00    -0.064 C  
HETATM    3  N   UNL     1      -8.192   8.358  68.261  1.00  0.00    -0.122 N  
HETATM    4  O   UNL     1      -6.847  10.127  66.356  1.00  0.00    -0.090 OA 
HETATM    5  C   UNL     1      -8.434   8.319  66.798  1.00  0.00    -0.122 C  
HETATM    6  C   UNL     1      -8.175   9.660  66.101  1.00  0.00    -0.115 C  
ENDROOT
BRANCH   3   7
HETATM    7  S   UNL     1      -8.612   6.971  69.119  1.00  0.00    -0.132 SA 
BRANCH   7   8
HETATM    8  C   UNL     1     -10.097   7.441  69.945  1.00  0.00    -0.195 A  
HETATM    9  N   UNL     1     -10.310   8.652  70.409  1.00  0.00    -0.195 NA 
HETATM   10  C   UNL     1     -11.567   8.713  70.988  1.00  0.00    -0.281 A  
HETATM   11  C   UNL     1     -12.153   9.850  71.579  1.00  0.00    -0.496 A  
HETATM   12  C   UNL     1     -13.439   9.770  72.124  1.00  0.00    -0.491 A  
HETATM   13  C   UNL     1     -14.144   8.572  72.093  1.00  0.00    -0.493 A  
HETATM   14  C   UNL     1     -13.586   7.427  71.516  1.00  0.00    -0.454 A  
HETATM   15  C   UNL     1     -12.297   7.522  70.966  1.00  0.00    -0.235 A  
HETATM   16  S   UNL     1     -11.362   6.310  70.182  1.00  0.00    -0.367 SA 
ENDBRANCH   7   8
ENDBRANCH   3   7
TORSDOF 2
ENDMDL
MODEL      128
REMARK 921   NORMALIZED FREE ENERGY PREDICTED BY IDOCK:   -3.53 KCAL/MOL
REMARK 922        TOTAL FREE ENERGY PREDICTED BY IDOCK:   -4.13 KCAL/MOL
REMARK 923 INTER-LIGAND FREE ENERGY PREDICTED BY IDOCK:   -3.98 KCAL/MOL
REMARK 924 INTRA-LIGAND FREE ENERGY PREDICTED BY IDOCK:   -0.15 KCAL/MOL
REMARK 927      BINDING AFFINITY PREDICTED BY RF-SCORE:    0.00 PKD
ROOT
HETATM    1  C   UNL     1      -5.786  12.159  70.493  1.00  0.00    -0.160 C  
HETATM    2  C   UNL     1      -5.731  12.917  69.162  1.00  0.00    -0.076 C  
HETATM    3  N   UNL     1      -6.386  14.247  69.231  1.00  0.00    -0.103 N  
HETATM    4  O   UNL     1      -5.181  12.918  71.544  1.00  0.00    -0.213 OA 
HETATM    5  C   UNL     1      -5.849  14.978  70.405  1.00  0.00    -0.143 C  
HETATM    6  C   UNL     1      -5.880  14.156  71.700  1.00  0.00    -0.128 C  
ENDROOT
BRANCH   3   7
HETATM    7  S   UNL     1      -6.537  15.138  67.810  1.00  0.00    -0.170 SA 
BRANCH   7   8
HETATM    8  C   UNL     1      -8.175  14.767  67.273  1.00  0.00    -0.213 A  
HETATM    9  N   UNL     1      -8.733  15.328  66.224  1.00  0.00    -0.239 NA 
HETATM   10  C   UNL     1     -10.011  14.821  66.052  1.00  0.00    -0.313 A  
HETATM   11  C   UNL     1     -10.910  15.172  65.024  1.00  0.00    -0.457 A  
HETATM   12  C   UNL     1     -12.173  14.574  64.968  1.00  0.00    -0.376 A  
HETATM   13  C   UNL     1     -12.554  13.638  65.922  1.00  0.00    -0.478 A  
HETATM   14  C   UNL     1     -11.684  13.274  66.955  1.00  0.00    -0.437 A  
HETATM   15  C   UNL     1     -10.416  13.875  66.997  1.00  0.00    -0.278 A  
HETATM   16  S   UNL     1      -9.135  13.625  68.118  1.00  0.00    -0.196 SA 
ENDBRANCH   7   8
ENDBRANCH   3   7
TORSDOF 2
ENDMDL
MODEL      129
REMARK 921   NORMALIZED FREE ENERGY PREDICTED BY IDOCK:   -3.52 KCAL/MOL
REMARK 922        TOTAL FREE ENERGY PREDICTED BY IDOCK:   -4.12 KCAL/MOL
REMARK 923 INTER-LIGAND FREE ENERGY PREDICTED BY IDOCK:   -3.93 KCAL/MOL
REMARK 924 INTRA-LIGAND FREE ENERGY PREDICTED BY IDOCK:   -0.19 KCAL/MOL
REMARK 927      BINDING AFFINITY PREDICTED BY RF-SCORE:    0.00 PKD
ROOT
HETATM    1  C   UNL     1      -9.175   7.336  71.056  1.00  0.00    -0.154 C  
HETATM    2  C   UNL     1     -10.102   7.221  69.840  1.00  0.00    -0.194 C  
HETATM    3  N   UNL     1      -9.552   7.892  68.635  1.00  0.00    -0.153 N  
HETATM    4  O   UNL     1      -7.883   6.791  70.772  1.00  0.00    -0.098 OA 
HETATM    5  C   UNL     1      -8.161   7.420  68.424  1.00  0.00    -0.125 C  
HETATM    6  C   UNL     1      -7.292   7.508  69.685  1.00  0.00    -0.090 C  
ENDROOT
BRANCH   3   7
HETATM    7  S   UNL     1     -10.519   7.980  67.258  1.00  0.00    -0.292 SA 
BRANCH   7   8
HETATM    8  C   UNL     1     -10.657   9.714  66.973  1.00  0.00    -0.197 A  
HETATM    9  N   UNL     1     -11.333  10.522  67.759  1.00  0.00    -0.415 NA 
HETATM   10  C   UNL     1     -11.240  11.819  67.281  1.00  0.00    -0.305 A  
HETATM   11  C   UNL     1     -11.822  12.962  67.867  1.00  0.00    -0.388 A  
HETATM   12  C   UNL     1     -11.642  14.217  67.277  1.00  0.00    -0.399 A  
HETATM   13  C   UNL     1     -10.897  14.349  66.111  1.00  0.00    -0.309 A  
HETATM   14  C   UNL     1     -10.312  13.231  65.506  1.00  0.00    -0.298 A  
HETATM   15  C   UNL     1     -10.493  11.978  66.111  1.00  0.00    -0.236 A  
HETATM   16  S   UNL     1      -9.892  10.442  65.622  1.00  0.00    -0.277 SA 
ENDBRANCH   7   8
ENDBRANCH   3   7
TORSDOF 2
ENDMDL
MODEL      130
REMARK 921   NORMALIZED FREE ENERGY PREDICTED BY IDOCK:   -3.50 KCAL/MOL
REMARK 922        TOTAL FREE ENERGY PREDICTED BY IDOCK:   -4.10 KCAL/MOL
REMARK 923 INTER-LIGAND FREE ENERGY PREDICTED BY IDOCK:   -3.99 KCAL/MOL
REMARK 924 INTRA-LIGAND FREE ENERGY PREDICTED BY IDOCK:   -0.12 KCAL/MOL
REMARK 927      BINDING AFFINITY PREDICTED BY RF-SCORE:    0.00 PKD
ROOT
HETATM    1  C   UNL     1      -8.266  10.117  68.558  1.00  0.00    -0.111 C  
HETATM    2  C   UNL     1      -9.229   9.924  69.735  1.00  0.00    -0.227 C  
HETATM    3  N   UNL     1     -10.602  10.403  69.437  1.00  0.00    -0.224 N  
HETATM    4  O   UNL     1      -8.743   9.449  67.386  1.00  0.00    -0.125 OA 
HETATM    5  C   UNL     1     -11.040   9.810  68.149  1.00  0.00    -0.110 C  
HETATM    6  C   UNL     1     -10.017   9.985  67.019  1.00  0.00    -0.205 C  
ENDROOT
BRANCH   3   7
HETATM    7  S   UNL     1     -11.739  10.395  70.679  1.00  0.00    -0.369 SA 
BRANCH   7   8
HETATM    8  C   UNL     1     -11.390   8.894  71.536  1.00  0.00    -0.325 A  
HETATM    9  N   UNL     1     -10.527   8.812  72.524  1.00  0.00    -0.166 NA 
HETATM   10  C   UNL     1     -10.486   7.512  72.998  1.00  0.00    -0.342 A  
HETATM   11  C   UNL     1      -9.689   7.042  74.062  1.00  0.00    -0.332 A  
HETATM   12  C   UNL     1      -9.753   5.697  74.441  1.00  0.00    -0.202 A  
HETATM   13  C   UNL     1     -10.592   4.814  73.772  1.00  0.00    -0.330 A  
HETATM   14  C   UNL     1     -11.390   5.252  72.709  1.00  0.00    -0.342 A  
HETATM   15  C   UNL     1     -11.324   6.606  72.343  1.00  0.00    -0.272 A  
HETATM   16  S   UNL     1     -12.184   7.437  71.107  1.00  0.00    -0.303 SA 
ENDBRANCH   7   8
ENDBRANCH   3   7
TORSDOF 2
ENDMDL
MODEL      131
REMARK 921   NORMALIZED FREE ENERGY PREDICTED BY IDOCK:   -3.50 KCAL/MOL
REMARK 922        TOTAL FREE ENERGY PREDICTED BY IDOCK:   -4.10 KCAL/MOL
REMARK 923 INTER-LIGAND FREE ENERGY PREDICTED BY IDOCK:   -3.95 KCAL/MOL
REMARK 924 INTRA-LIGAND FREE ENERGY PREDICTED BY IDOCK:   -0.15 KCAL/MOL
REMARK 927      BINDING AFFINITY PREDICTED BY RF-SCORE:    0.00 PKD
ROOT
HETATM    1  C   UNL     1     -10.144   7.082  68.334  1.00  0.00    -0.164 C  
HETATM    2  C   UNL     1     -10.103   8.505  68.905  1.00  0.00    -0.203 C  
HETATM    3  N   UNL     1      -9.092   9.362  68.236  1.00  0.00    -0.128 N  
HETATM    4  O   UNL     1     -10.410   7.098  66.928  1.00  0.00    -0.256 OA 
HETATM    5  C   UNL     1      -9.289   9.267  66.768  1.00  0.00    -0.156 C  
HETATM    6  C   UNL     1      -9.376   7.824  66.257  1.00  0.00    -0.151 C  
ENDROOT
BRANCH   3   7
HETATM    7  S   UNL     1      -8.824  10.908  68.849  1.00  0.00    -0.097 SA 
BRANCH   7   8
HETATM    8  C   UNL     1      -9.791  11.934  67.791  1.00  0.00    -0.184 A  
HETATM    9  N   UNL     1      -9.267  12.782  66.934  1.00  0.00    -0.224 NA 
HETATM   10  C   UNL     1     -10.279  13.427  66.242  1.00  0.00    -0.298 A  
HETATM   11  C   UNL     1     -10.105  14.394  65.231  1.00  0.00    -0.387 A  
HETATM   12  C   UNL     1     -11.222  14.962  64.609  1.00  0.00    -0.349 A  
HETATM   13  C   UNL     1     -12.507  14.585  64.984  1.00  0.00    -0.307 A  
HETATM   14  C   UNL     1     -12.709  13.631  65.987  1.00  0.00    -0.366 A  
HETATM   15  C   UNL     1     -11.580  13.062  66.599  1.00  0.00    -0.359 A  
HETATM   16  S   UNL     1     -11.504  11.867  67.834  1.00  0.00    -0.319 SA 
ENDBRANCH   7   8
ENDBRANCH   3   7
TORSDOF 2
ENDMDL
MODEL      132
REMARK 921   NORMALIZED FREE ENERGY PREDICTED BY IDOCK:   -3.49 KCAL/MOL
REMARK 922        TOTAL FREE ENERGY PREDICTED BY IDOCK:   -4.09 KCAL/MOL
REMARK 923 INTER-LIGAND FREE ENERGY PREDICTED BY IDOCK:   -3.96 KCAL/MOL
REMARK 924 INTRA-LIGAND FREE ENERGY PREDICTED BY IDOCK:   -0.12 KCAL/MOL
REMARK 927      BINDING AFFINITY PREDICTED BY RF-SCORE:    0.00 PKD
ROOT
HETATM    1  C   UNL     1      -8.667   5.912  71.971  1.00  0.00    -0.137 C  
HETATM    2  C   UNL     1     -10.053   6.435  71.573  1.00  0.00    -0.192 C  
HETATM    3  N   UNL     1     -10.487   7.591  72.396  1.00  0.00    -0.226 N  
HETATM    4  O   UNL     1      -7.680   6.944  71.877  1.00  0.00    -0.093 OA 
HETATM    5  C   UNL     1      -9.401   8.602  72.403  1.00  0.00    -0.214 C  
HETATM    6  C   UNL     1      -8.028   8.016  72.757  1.00  0.00    -0.148 C  
ENDROOT
BRANCH   3   7
HETATM    7  S   UNL     1     -12.048   8.185  72.178  1.00  0.00    -0.366 SA 
BRANCH   7   8
HETATM    8  C   UNL     1     -11.854   9.365  70.882  1.00  0.00    -0.294 A  
HETATM    9  N   UNL     1     -11.331   9.071  69.713  1.00  0.00    -0.029 NA 
HETATM   10  C   UNL     1     -11.329  10.198  68.909  1.00  0.00    -0.120 A  
HETATM   11  C   UNL     1     -10.861  10.268  67.581  1.00  0.00    -0.363 A  
HETATM   12  C   UNL     1     -10.924  11.478  66.881  1.00  0.00    -0.350 A  
HETATM   13  C   UNL     1     -11.441  12.617  67.487  1.00  0.00    -0.397 A  
HETATM   14  C   UNL     1     -11.909  12.578  68.805  1.00  0.00    -0.347 A  
HETATM   15  C   UNL     1     -11.847  11.356  69.494  1.00  0.00    -0.357 A  
HETATM   16  S   UNL     1     -12.354  10.990  71.097  1.00  0.00    -0.331 SA 
ENDBRANCH   7   8
ENDBRANCH   3   7
TORSDOF 2
ENDMDL
MODEL      133
REMARK 921   NORMALIZED FREE ENERGY PREDICTED BY IDOCK:   -3.49 KCAL/MOL
REMARK 922        TOTAL FREE ENERGY PREDICTED BY IDOCK:   -4.08 KCAL/MOL
REMARK 923 INTER-LIGAND FREE ENERGY PREDICTED BY IDOCK:   -3.86 KCAL/MOL
REMARK 924 INTRA-LIGAND FREE ENERGY PREDICTED BY IDOCK:   -0.22 KCAL/MOL
REMARK 927      BINDING AFFINITY PREDICTED BY RF-SCORE:    0.00 PKD
ROOT
HETATM    1  C   UNL     1     -13.133   7.288  71.436  1.00  0.00    -0.361 C  
HETATM    2  C   UNL     1     -11.618   7.439  71.614  1.00  0.00    -0.270 C  
HETATM    3  N   UNL     1     -11.094   8.697  71.027  1.00  0.00    -0.253 N  
HETATM    4  O   UNL     1     -13.833   8.393  72.015  1.00  0.00    -0.372 OA 
HETATM    5  C   UNL     1     -11.912   9.829  71.529  1.00  0.00    -0.407 C  
HETATM    6  C   UNL     1     -13.421   9.604  71.374  1.00  0.00    -0.329 C  
ENDROOT
BRANCH   3   7
HETATM    7  S   UNL     1      -9.427   8.939  71.012  1.00  0.00    -0.274 SA 
BRANCH   7   8
HETATM    8  C   UNL     1      -9.087   9.301  69.321  1.00  0.00    -0.151 A  
HETATM    9  N   UNL     1     -10.018   9.352  68.394  1.00  0.00    -0.164 NA 
HETATM   10  C   UNL     1      -9.442   9.672  67.176  1.00  0.00    -0.148 A  
HETATM   11  C   UNL     1     -10.126   9.832  65.953  1.00  0.00    -0.314 A  
HETATM   12  C   UNL     1      -9.415  10.164  64.795  1.00  0.00    -0.355 A  
HETATM   13  C   UNL     1      -8.036  10.333  64.837  1.00  0.00    -0.154 A  
HETATM   14  C   UNL     1      -7.332  10.177  66.035  1.00  0.00    -0.118 A  
HETATM   15  C   UNL     1      -8.057   9.851  67.193  1.00  0.00    -0.117 A  
HETATM   16  S   UNL     1      -7.485   9.614  68.798  1.00  0.00    -0.076 SA 
ENDBRANCH   7   8
ENDBRANCH   3   7
TORSDOF 2
ENDMDL
MODEL      134
REMARK 921   NORMALIZED FREE ENERGY PREDICTED BY IDOCK:   -3.47 KCAL/MOL
REMARK 922        TOTAL FREE ENERGY PREDICTED BY IDOCK:   -4.07 KCAL/MOL
REMARK 923 INTER-LIGAND FREE ENERGY PREDICTED BY IDOCK:   -3.90 KCAL/MOL
REMARK 924 INTRA-LIGAND FREE ENERGY PREDICTED BY IDOCK:   -0.16 KCAL/MOL
REMARK 927      BINDING AFFINITY PREDICTED BY RF-SCORE:    0.00 PKD
ROOT
HETATM    1  C   UNL     1      -9.796   5.291  73.863  1.00  0.00    -0.168 C  
HETATM    2  C   UNL     1     -10.851   5.954  72.970  1.00  0.00    -0.267 C  
HETATM    3  N   UNL     1     -10.892   7.429  73.129  1.00  0.00    -0.376 N  
HETATM    4  O   UNL     1      -8.493   5.820  73.601  1.00  0.00    -0.117 OA 
HETATM    5  C   UNL     1      -9.513   7.958  72.989  1.00  0.00    -0.271 C  
HETATM    6  C   UNL     1      -8.489   7.226  73.865  1.00  0.00    -0.166 C  
ENDROOT
BRANCH   3   7
HETATM    7  S   UNL     1     -12.098   8.286  72.324  1.00  0.00    -0.372 SA 
BRANCH   7   8
HETATM    8  C   UNL     1     -11.424   8.513  70.711  1.00  0.00    -0.253 A  
HETATM    9  N   UNL     1     -11.068   7.515  69.933  1.00  0.00    -0.217 NA 
HETATM   10  C   UNL     1     -10.592   8.012  68.731  1.00  0.00    -0.118 A  
HETATM   11  C   UNL     1     -10.132   7.245  67.641  1.00  0.00    -0.232 A  
HETATM   12  C   UNL     1      -9.682   7.882  66.480  1.00  0.00    -0.279 A  
HETATM   13  C   UNL     1      -9.680   9.269  66.391  1.00  0.00    -0.325 A  
HETATM   14  C   UNL     1     -10.127  10.055  67.458  1.00  0.00    -0.243 A  
HETATM   15  C   UNL     1     -10.583   9.405  68.616  1.00  0.00    -0.200 A  
HETATM   16  S   UNL     1     -11.203  10.086  70.069  1.00  0.00    -0.299 SA 
ENDBRANCH   7   8
ENDBRANCH   3   7
TORSDOF 2
ENDMDL
MODEL      135
REMARK 921   NORMALIZED FREE ENERGY PREDICTED BY IDOCK:   -3.47 KCAL/MOL
REMARK 922        TOTAL FREE ENERGY PREDICTED BY IDOCK:   -4.06 KCAL/MOL
REMARK 923 INTER-LIGAND FREE ENERGY PREDICTED BY IDOCK:   -3.98 KCAL/MOL
REMARK 924 INTRA-LIGAND FREE ENERGY PREDICTED BY IDOCK:   -0.08 KCAL/MOL
REMARK 927      BINDING AFFINITY PREDICTED BY RF-SCORE:    0.00 PKD
ROOT
HETATM    1  C   UNL     1      -8.755   8.298  66.340  1.00  0.00    -0.142 C  
HETATM    2  C   UNL     1      -8.877   9.669  65.664  1.00  0.00    -0.159 C  
HETATM    3  N   UNL     1     -10.272  10.176  65.644  1.00  0.00    -0.256 N  
HETATM    4  O   UNL     1      -9.250   8.338  67.681  1.00  0.00    -0.136 OA 
HETATM    5  C   UNL     1     -10.826  10.089  67.018  1.00  0.00    -0.126 C  
HETATM    6  C   UNL     1     -10.631   8.713  67.667  1.00  0.00    -0.203 C  
ENDROOT
BRANCH   3   7
HETATM    7  S   UNL     1     -10.592  11.602  64.806  1.00  0.00    -0.320 SA 
BRANCH   7   8
HETATM    8  C   UNL     1     -10.612  12.822  66.079  1.00  0.00    -0.268 A  
HETATM    9  N   UNL     1      -9.591  13.051  66.874  1.00  0.00    -0.236 NA 
HETATM   10  C   UNL     1      -9.908  14.073  67.753  1.00  0.00    -0.232 A  
HETATM   11  C   UNL     1      -9.058  14.606  68.744  1.00  0.00    -0.178 A  
HETATM   12  C   UNL     1      -9.509  15.646  69.563  1.00  0.00    -0.275 A  
HETATM   13  C   UNL     1     -10.793  16.158  69.413  1.00  0.00    -0.320 A  
HETATM   14  C   UNL     1     -11.658  15.645  68.441  1.00  0.00    -0.358 A  
HETATM   15  C   UNL     1     -11.192  14.606  67.620  1.00  0.00    -0.321 A  
HETATM   16  S   UNL     1     -12.002  13.790  66.340  1.00  0.00    -0.452 SA 
ENDBRANCH   7   8
ENDBRANCH   3   7
TORSDOF 2
ENDMDL
MODEL      136
REMARK 921   NORMALIZED FREE ENERGY PREDICTED BY IDOCK:   -3.47 KCAL/MOL
REMARK 922        TOTAL FREE ENERGY PREDICTED BY IDOCK:   -4.06 KCAL/MOL
REMARK 923 INTER-LIGAND FREE ENERGY PREDICTED BY IDOCK:   -3.84 KCAL/MOL
REMARK 924 INTRA-LIGAND FREE ENERGY PREDICTED BY IDOCK:   -0.22 KCAL/MOL
REMARK 927      BINDING AFFINITY PREDICTED BY RF-SCORE:    0.00 PKD
ROOT
HETATM    1  C   UNL     1     -11.198   9.479  71.381  1.00  0.00    -0.382 C  
HETATM    2  C   UNL     1     -11.620   9.724  69.927  1.00  0.00    -0.079 C  
HETATM    3  N   UNL     1     -10.505  10.225  69.084  1.00  0.00    -0.209 N  
HETATM    4  O   UNL     1     -10.112   8.551  71.453  1.00  0.00    -0.198 OA 
HETATM    5  C   UNL     1      -9.335   9.331  69.268  1.00  0.00    -0.160 C  
HETATM    6  C   UNL     1      -8.989   9.077  70.740  1.00  0.00    -0.236 C  
ENDROOT
BRANCH   3   7
HETATM    7  S   UNL     1     -10.845  10.682  67.499  1.00  0.00    -0.303 SA 
BRANCH   7   8
HETATM    8  C   UNL     1     -10.636  12.432  67.530  1.00  0.00    -0.219 A  
HETATM    9  N   UNL     1      -9.945  13.058  68.456  1.00  0.00    -0.209 NA 
HETATM   10  C   UNL     1      -9.953  14.419  68.199  1.00  0.00    -0.223 A  
HETATM   11  C   UNL     1      -9.306  15.411  68.966  1.00  0.00    -0.232 A  
HETATM   12  C   UNL     1      -9.393  16.754  68.585  1.00  0.00    -0.252 A  
HETATM   13  C   UNL     1     -10.118  17.123  67.458  1.00  0.00    -0.301 A  
HETATM   14  C   UNL     1     -10.773  16.161  66.681  1.00  0.00    -0.226 A  
HETATM   15  C   UNL     1     -10.672  14.815  67.069  1.00  0.00    -0.300 A  
HETATM   16  S   UNL     1     -11.341  13.419  66.319  1.00  0.00    -0.316 SA 
ENDBRANCH   7   8
ENDBRANCH   3   7
TORSDOF 2
ENDMDL
MODEL      137
REMARK 921   NORMALIZED FREE ENERGY PREDICTED BY IDOCK:   -3.46 KCAL/MOL
REMARK 922        TOTAL FREE ENERGY PREDICTED BY IDOCK:   -4.06 KCAL/MOL
REMARK 923 INTER-LIGAND FREE ENERGY PREDICTED BY IDOCK:   -4.03 KCAL/MOL
REMARK 924 INTRA-LIGAND FREE ENERGY PREDICTED BY IDOCK:   -0.03 KCAL/MOL
REMARK 927      BINDING AFFINITY PREDICTED BY RF-SCORE:    0.00 PKD
ROOT
HETATM    1  C   UNL     1     -12.372   7.468  71.556  1.00  0.00    -0.339 C  
HETATM    2  C   UNL     1     -11.289   6.798  70.702  1.00  0.00    -0.334 C  
HETATM    3  N   UNL     1     -10.514   7.770  69.892  1.00  0.00    -0.227 N  
HETATM    4  O   UNL     1     -11.806   8.450  72.429  1.00  0.00    -0.372 OA 
HETATM    5  C   UNL     1     -10.042   8.859  70.783  1.00  0.00    -0.226 C  
HETATM    6  C   UNL     1     -11.155   9.459  71.651  1.00  0.00    -0.339 C  
ENDROOT
BRANCH   3   7
HETATM    7  S   UNL     1      -9.386   7.173  68.792  1.00  0.00    -0.133 SA 
BRANCH   7   8
HETATM    8  C   UNL     1      -9.587   8.231  67.395  1.00  0.00    -0.160 A  
HETATM    9  N   UNL     1      -8.961   8.044  66.255  1.00  0.00    -0.163 NA 
HETATM   10  C   UNL     1      -9.337   9.026  65.353  1.00  0.00    -0.144 A  
HETATM   11  C   UNL     1      -8.886   9.146  64.023  1.00  0.00    -0.112 A  
HETATM   12  C   UNL     1      -9.356  10.189  63.218  1.00  0.00    -0.332 A  
HETATM   13  C   UNL     1     -10.261  11.116  63.721  1.00  0.00    -0.434 A  
HETATM   14  C   UNL     1     -10.722  11.024  65.039  1.00  0.00    -0.264 A  
HETATM   15  C   UNL     1     -10.250   9.968  65.835  1.00  0.00    -0.205 A  
HETATM   16  S   UNL     1     -10.639   9.582  67.465  1.00  0.00    -0.241 SA 
ENDBRANCH   7   8
ENDBRANCH   3   7
TORSDOF 2
ENDMDL
MODEL      138
REMARK 921   NORMALIZED FREE ENERGY PREDICTED BY IDOCK:   -3.44 KCAL/MOL
REMARK 922        TOTAL FREE ENERGY PREDICTED BY IDOCK:   -4.04 KCAL/MOL
REMARK 923 INTER-LIGAND FREE ENERGY PREDICTED BY IDOCK:   -3.82 KCAL/MOL
REMARK 924 INTRA-LIGAND FREE ENERGY PREDICTED BY IDOCK:   -0.22 KCAL/MOL
REMARK 927      BINDING AFFINITY PREDICTED BY RF-SCORE:    0.00 PKD
ROOT
HETATM    1  C   UNL     1      -8.939   4.618  67.031  1.00  0.00    -0.113 C  
HETATM    2  C   UNL     1      -8.942   6.139  66.838  1.00  0.00    -0.118 C  
HETATM    3  N   UNL     1      -8.357   6.865  67.992  1.00  0.00    -0.121 N  
HETATM    4  O   UNL     1      -7.614   4.130  67.261  1.00  0.00    -0.075 OA 
HETATM    5  C   UNL     1      -7.038   6.264  68.310  1.00  0.00    -0.083 C  
HETATM    6  C   UNL     1      -7.081   4.737  68.441  1.00  0.00    -0.057 C  
ENDROOT
BRANCH   3   7
HETATM    7  S   UNL     1      -8.422   8.549  67.994  1.00  0.00    -0.131 SA 
BRANCH   7   8
HETATM    8  C   UNL     1      -9.727   8.900  69.127  1.00  0.00    -0.168 A  
HETATM    9  N   UNL     1     -10.243  10.099  69.282  1.00  0.00    -0.208 NA 
HETATM   10  C   UNL     1     -11.254  10.050  70.227  1.00  0.00    -0.313 A  
HETATM   11  C   UNL     1     -12.048  11.137  70.647  1.00  0.00    -0.477 A  
HETATM   12  C   UNL     1     -13.043  10.942  71.611  1.00  0.00    -0.538 A  
HETATM   13  C   UNL     1     -13.253   9.684  72.165  1.00  0.00    -0.535 A  
HETATM   14  C   UNL     1     -12.477   8.590  71.770  1.00  0.00    -0.388 A  
HETATM   15  C   UNL     1     -11.486   8.796  70.796  1.00  0.00    -0.270 A  
HETATM   16  S   UNL     1     -10.398   7.659  70.100  1.00  0.00    -0.221 SA 
ENDBRANCH   7   8
ENDBRANCH   3   7
TORSDOF 2
ENDMDL
MODEL      139
REMARK 921   NORMALIZED FREE ENERGY PREDICTED BY IDOCK:   -3.44 KCAL/MOL
REMARK 922        TOTAL FREE ENERGY PREDICTED BY IDOCK:   -4.03 KCAL/MOL
REMARK 923 INTER-LIGAND FREE ENERGY PREDICTED BY IDOCK:   -3.98 KCAL/MOL
REMARK 924 INTRA-LIGAND FREE ENERGY PREDICTED BY IDOCK:   -0.06 KCAL/MOL
REMARK 927      BINDING AFFINITY PREDICTED BY RF-SCORE:    0.00 PKD
ROOT
HETATM    1  C   UNL     1      -9.798   9.622  65.711  1.00  0.00    -0.302 C  
HETATM    2  C   UNL     1     -10.427  11.000  65.472  1.00  0.00    -0.238 C  
HETATM    3  N   UNL     1     -11.042  11.570  66.696  1.00  0.00    -0.302 N  
HETATM    4  O   UNL     1      -8.807   9.679  66.742  1.00  0.00    -0.133 OA 
HETATM    5  C   UNL     1     -10.051  11.502  67.799  1.00  0.00    -0.182 C  
HETATM    6  C   UNL     1      -9.415  10.116  67.961  1.00  0.00    -0.145 C  
ENDROOT
BRANCH   3   7
HETATM    7  S   UNL     1     -11.902  13.012  66.562  1.00  0.00    -0.396 SA 
BRANCH   7   8
HETATM    8  C   UNL     1     -10.676  14.242  66.861  1.00  0.00    -0.290 A  
HETATM    9  N   UNL     1     -10.361  14.667  68.065  1.00  0.00    -0.232 NA 
HETATM   10  C   UNL     1      -9.358  15.618  67.973  1.00  0.00    -0.193 A  
HETATM   11  C   UNL     1      -8.751  16.289  69.054  1.00  0.00    -0.246 A  
HETATM   12  C   UNL     1      -7.741  17.227  68.815  1.00  0.00    -0.261 A  
HETATM   13  C   UNL     1      -7.333  17.509  67.516  1.00  0.00    -0.191 A  
HETATM   14  C   UNL     1      -7.920  16.861  66.424  1.00  0.00    -0.352 A  
HETATM   15  C   UNL     1      -8.928  15.916  66.677  1.00  0.00    -0.268 A  
HETATM   16  S   UNL     1      -9.816  14.955  65.561  1.00  0.00    -0.248 SA 
ENDBRANCH   7   8
ENDBRANCH   3   7
TORSDOF 2
ENDMDL
MODEL      140
REMARK 921   NORMALIZED FREE ENERGY PREDICTED BY IDOCK:   -3.44 KCAL/MOL
REMARK 922        TOTAL FREE ENERGY PREDICTED BY IDOCK:   -4.03 KCAL/MOL
REMARK 923 INTER-LIGAND FREE ENERGY PREDICTED BY IDOCK:   -3.89 KCAL/MOL
REMARK 924 INTRA-LIGAND FREE ENERGY PREDICTED BY IDOCK:   -0.14 KCAL/MOL
REMARK 927      BINDING AFFINITY PREDICTED BY RF-SCORE:    0.00 PKD
ROOT
HETATM    1  C   UNL     1     -10.113   9.096  71.173  1.00  0.00    -0.314 C  
HETATM    2  C   UNL     1      -9.542   9.749  69.909  1.00  0.00    -0.235 C  
HETATM    3  N   UNL     1      -9.097   8.755  68.901  1.00  0.00    -0.141 N  
HETATM    4  O   UNL     1     -11.212   8.235  70.857  1.00  0.00    -0.257 OA 
HETATM    5  C   UNL     1     -10.196   7.784  68.677  1.00  0.00    -0.201 C  
HETATM    6  C   UNL     1     -10.766   7.200  69.976  1.00  0.00    -0.248 C  
ENDROOT
BRANCH   3   7
HETATM    7  S   UNL     1      -8.311   9.314  67.520  1.00  0.00    -0.119 SA 
BRANCH   7   8
HETATM    8  C   UNL     1      -9.310  10.674  67.010  1.00  0.00    -0.155 A  
HETATM    9  N   UNL     1      -8.898  11.922  67.038  1.00  0.00    -0.183 NA 
HETATM   10  C   UNL     1      -9.899  12.752  66.564  1.00  0.00    -0.258 A  
HETATM   11  C   UNL     1      -9.820  14.154  66.431  1.00  0.00    -0.308 A  
HETATM   12  C   UNL     1     -10.912  14.870  65.929  1.00  0.00    -0.338 A  
HETATM   13  C   UNL     1     -12.081  14.212  65.565  1.00  0.00    -0.421 A  
HETATM   14  C   UNL     1     -12.188  12.823  65.690  1.00  0.00    -0.503 A  
HETATM   15  C   UNL     1     -11.083  12.114  66.187  1.00  0.00    -0.312 A  
HETATM   16  S   UNL     1     -10.906  10.421  66.437  1.00  0.00     0.102 SA 
ENDBRANCH   7   8
ENDBRANCH   3   7
TORSDOF 2
ENDMDL
MODEL      141
REMARK 921   NORMALIZED FREE ENERGY PREDICTED BY IDOCK:   -3.43 KCAL/MOL
REMARK 922        TOTAL FREE ENERGY PREDICTED BY IDOCK:   -4.03 KCAL/MOL
REMARK 923 INTER-LIGAND FREE ENERGY PREDICTED BY IDOCK:   -3.98 KCAL/MOL
REMARK 924 INTRA-LIGAND FREE ENERGY PREDICTED BY IDOCK:   -0.04 KCAL/MOL
REMARK 927      BINDING AFFINITY PREDICTED BY RF-SCORE:    0.00 PKD
ROOT
HETATM    1  C   UNL     1      -9.673   9.832  66.024  1.00  0.00    -0.255 C  
HETATM    2  C   UNL     1      -9.969   8.831  67.146  1.00  0.00    -0.230 C  
HETATM    3  N   UNL     1      -8.737   8.315  67.794  1.00  0.00    -0.134 N  
HETATM    4  O   UNL     1      -8.908  10.939  66.509  1.00  0.00    -0.153 OA 
HETATM    5  C   UNL     1      -7.885   9.469  68.175  1.00  0.00    -0.083 C  
HETATM    6  C   UNL     1      -7.664  10.465  67.031  1.00  0.00    -0.105 C  
ENDROOT
BRANCH   3   7
HETATM    7  S   UNL     1      -8.891   7.096  68.947  1.00  0.00    -0.129 SA 
BRANCH   7   8
HETATM    8  C   UNL     1     -10.276   7.619  69.904  1.00  0.00    -0.215 A  
HETATM    9  N   UNL     1     -11.369   6.901  70.041  1.00  0.00    -0.302 NA 
HETATM   10  C   UNL     1     -12.263   7.570  70.860  1.00  0.00    -0.194 A  
HETATM   11  C   UNL     1     -13.537   7.107  71.249  1.00  0.00    -0.301 A  
HETATM   12  C   UNL     1     -14.337   7.888  72.089  1.00  0.00    -0.417 A  
HETATM   13  C   UNL     1     -13.889   9.124  72.542  1.00  0.00    -0.485 A  
HETATM   14  C   UNL     1     -12.632   9.610  72.169  1.00  0.00    -0.388 A  
HETATM   15  C   UNL     1     -11.835   8.814  71.331  1.00  0.00    -0.308 A  
HETATM   16  S   UNL     1     -10.256   9.125  70.722  1.00  0.00    -0.283 SA 
ENDBRANCH   7   8
ENDBRANCH   3   7
TORSDOF 2
ENDMDL
MODEL      142
REMARK 921   NORMALIZED FREE ENERGY PREDICTED BY IDOCK:   -3.43 KCAL/MOL
REMARK 922        TOTAL FREE ENERGY PREDICTED BY IDOCK:   -4.02 KCAL/MOL
REMARK 923 INTER-LIGAND FREE ENERGY PREDICTED BY IDOCK:   -4.09 KCAL/MOL
REMARK 924 INTRA-LIGAND FREE ENERGY PREDICTED BY IDOCK:    0.06 KCAL/MOL
REMARK 927      BINDING AFFINITY PREDICTED BY RF-SCORE:    0.00 PKD
ROOT
HETATM    1  C   UNL     1      -7.154   7.785  63.158  1.00  0.00    -0.083 C  
HETATM    2  C   UNL     1      -7.292   8.604  64.447  1.00  0.00    -0.103 C  
HETATM    3  N   UNL     1      -8.426   8.153  65.294  1.00  0.00    -0.157 N  
HETATM    4  O   UNL     1      -6.991   6.393  63.446  1.00  0.00    -0.043 OA 
HETATM    5  C   UNL     1      -8.324   6.684  65.477  1.00  0.00    -0.144 C  
HETATM    6  C   UNL     1      -8.135   5.919  64.161  1.00  0.00    -0.110 C  
ENDROOT
BRANCH   3   7
HETATM    7  S   UNL     1      -8.798   9.047  66.672  1.00  0.00    -0.137 SA 
BRANCH   7   8
HETATM    8  C   UNL     1      -9.806  10.351  66.047  1.00  0.00    -0.232 A  
HETATM    9  N   UNL     1     -10.468  11.183  66.819  1.00  0.00    -0.241 NA 
HETATM   10  C   UNL     1     -11.151  12.099  66.037  1.00  0.00    -0.313 A  
HETATM   11  C   UNL     1     -11.957  13.155  66.509  1.00  0.00    -0.459 A  
HETATM   12  C   UNL     1     -12.586  14.013  65.602  1.00  0.00    -0.542 A  
HETATM   13  C   UNL     1     -12.428  13.831  64.232  1.00  0.00    -0.308 A  
HETATM   14  C   UNL     1     -11.636  12.790  63.735  1.00  0.00    -0.548 A  
HETATM   15  C   UNL     1     -11.004  11.940  64.657  1.00  0.00    -0.316 A  
HETATM   16  S   UNL     1      -9.967  10.600  64.359  1.00  0.00    -0.350 SA 
ENDBRANCH   7   8
ENDBRANCH   3   7
TORSDOF 2
ENDMDL
MODEL      143
REMARK 921   NORMALIZED FREE ENERGY PREDICTED BY IDOCK:   -3.41 KCAL/MOL
REMARK 922        TOTAL FREE ENERGY PREDICTED BY IDOCK:   -4.00 KCAL/MOL
REMARK 923 INTER-LIGAND FREE ENERGY PREDICTED BY IDOCK:   -3.81 KCAL/MOL
REMARK 924 INTRA-LIGAND FREE ENERGY PREDICTED BY IDOCK:   -0.19 KCAL/MOL
REMARK 927      BINDING AFFINITY PREDICTED BY RF-SCORE:    0.00 PKD
ROOT
HETATM    1  C   UNL     1      -9.001  10.338  67.874  1.00  0.00    -0.131 C  
HETATM    2  C   UNL     1      -9.951  11.327  68.560  1.00  0.00    -0.202 C  
HETATM    3  N   UNL     1     -10.173  12.558  67.761  1.00  0.00    -0.212 N  
HETATM    4  O   UNL     1      -9.488   9.968  66.581  1.00  0.00    -0.161 OA 
HETATM    5  C   UNL     1     -10.548  12.164  66.380  1.00  0.00    -0.241 C  
HETATM    6  C   UNL     1      -9.594  11.135  65.761  1.00  0.00    -0.221 C  
ENDROOT
BRANCH   3   7
HETATM    7  S   UNL     1     -11.076  13.804  68.446  1.00  0.00    -0.277 SA 
BRANCH   7   8
HETATM    8  C   UNL     1     -10.247  15.256  67.889  1.00  0.00    -0.235 A  
HETATM    9  N   UNL     1      -9.088  15.231  67.268  1.00  0.00    -0.191 NA 
HETATM   10  C   UNL     1      -8.707  16.523  66.946  1.00  0.00    -0.205 A  
HETATM   11  C   UNL     1      -7.530  16.893  66.263  1.00  0.00    -0.282 A  
HETATM   12  C   UNL     1      -7.273  18.242  65.998  1.00  0.00    -0.298 A  
HETATM   13  C   UNL     1      -8.166  19.225  66.407  1.00  0.00    -0.329 A  
HETATM   14  C   UNL     1      -9.339  18.887  67.090  1.00  0.00    -0.328 A  
HETATM   15  C   UNL     1      -9.590  17.529  67.344  1.00  0.00    -0.265 A  
HETATM   16  S   UNL     1     -10.936  16.806  68.136  1.00  0.00    -0.234 SA 
ENDBRANCH   7   8
ENDBRANCH   3   7
TORSDOF 2
ENDMDL
MODEL      144
REMARK 921   NORMALIZED FREE ENERGY PREDICTED BY IDOCK:   -3.37 KCAL/MOL
REMARK 922        TOTAL FREE ENERGY PREDICTED BY IDOCK:   -3.96 KCAL/MOL
REMARK 923 INTER-LIGAND FREE ENERGY PREDICTED BY IDOCK:   -3.76 KCAL/MOL
REMARK 924 INTRA-LIGAND FREE ENERGY PREDICTED BY IDOCK:   -0.20 KCAL/MOL
REMARK 927      BINDING AFFINITY PREDICTED BY RF-SCORE:    0.00 PKD
ROOT
HETATM    1  C   UNL     1     -13.321  10.173  71.801  1.00  0.00    -0.385 C  
HETATM    2  C   UNL     1     -11.881   9.848  71.385  1.00  0.00    -0.394 C  
HETATM    3  N   UNL     1     -11.426   8.525  71.879  1.00  0.00    -0.311 N  
HETATM    4  O   UNL     1     -14.230   9.170  71.338  1.00  0.00    -0.256 OA 
HETATM    5  C   UNL     1     -12.443   7.508  71.512  1.00  0.00    -0.346 C  
HETATM    6  C   UNL     1     -13.871   7.906  71.904  1.00  0.00    -0.326 C  
ENDROOT
BRANCH   3   7
HETATM    7  S   UNL     1      -9.819   8.088  71.630  1.00  0.00    -0.182 SA 
BRANCH   7   8
HETATM    8  C   UNL     1      -9.526   8.566  69.958  1.00  0.00    -0.164 A  
HETATM    9  N   UNL     1      -8.795   9.606  69.624  1.00  0.00    -0.185 NA 
HETATM   10  C   UNL     1      -8.741   9.710  68.244  1.00  0.00    -0.120 A  
HETATM   11  C   UNL     1      -8.039  10.692  67.514  1.00  0.00    -0.111 A  
HETATM   12  C   UNL     1      -8.066  10.674  66.116  1.00  0.00    -0.154 A  
HETATM   13  C   UNL     1      -8.785   9.697  65.436  1.00  0.00    -0.183 A  
HETATM   14  C   UNL     1      -9.493   8.713  66.135  1.00  0.00    -0.308 A  
HETATM   15  C   UNL     1      -9.453   8.737  67.538  1.00  0.00    -0.141 A  
HETATM   16  S   UNL     1     -10.196   7.667  68.662  1.00  0.00    -0.200 SA 
ENDBRANCH   7   8
ENDBRANCH   3   7
TORSDOF 2
ENDMDL
MODEL      145
REMARK 921   NORMALIZED FREE ENERGY PREDICTED BY IDOCK:   -3.36 KCAL/MOL
REMARK 922        TOTAL FREE ENERGY PREDICTED BY IDOCK:   -3.94 KCAL/MOL
REMARK 923 INTER-LIGAND FREE ENERGY PREDICTED BY IDOCK:   -3.74 KCAL/MOL
REMARK 924 INTRA-LIGAND FREE ENERGY PREDICTED BY IDOCK:   -0.21 KCAL/MOL
REMARK 927      BINDING AFFINITY PREDICTED BY RF-SCORE:    0.00 PKD
ROOT
HETATM    1  C   UNL     1      -9.592   7.952  70.647  1.00  0.00    -0.166 C  
HETATM    2  C   UNL     1     -10.273   8.029  69.276  1.00  0.00    -0.213 C  
HETATM    3  N   UNL     1      -9.497   8.828  68.294  1.00  0.00    -0.140 N  
HETATM    4  O   UNL     1      -8.277   7.400  70.539  1.00  0.00    -0.122 OA 
HETATM    5  C   UNL     1      -8.097   8.336  68.286  1.00  0.00    -0.124 C  
HETATM    6  C   UNL     1      -7.482   8.229  69.687  1.00  0.00    -0.081 C  
ENDROOT
BRANCH   3   7
HETATM    7  S   UNL     1     -10.185   9.128  66.786  1.00  0.00    -0.244 SA 
BRANCH   7   8
HETATM    8  C   UNL     1     -10.355  10.883  66.763  1.00  0.00    -0.241 A  
HETATM    9  N   UNL     1     -10.160  11.611  65.686  1.00  0.00    -0.230 NA 
HETATM   10  C   UNL     1     -10.384  12.945  65.982  1.00  0.00    -0.283 A  
HETATM   11  C   UNL     1     -10.288  14.022  65.077  1.00  0.00    -0.432 A  
HETATM   12  C   UNL     1     -10.548  15.325  65.512  1.00  0.00    -0.390 A  
HETATM   13  C   UNL     1     -10.896  15.571  66.836  1.00  0.00    -0.301 A  
HETATM   14  C   UNL     1     -10.995  14.522  67.756  1.00  0.00    -0.282 A  
HETATM   15  C   UNL     1     -10.739  13.217  67.305  1.00  0.00    -0.255 A  
HETATM   16  S   UNL     1     -10.796  11.738  68.181  1.00  0.00    -0.233 SA 
ENDBRANCH   7   8
ENDBRANCH   3   7
TORSDOF 2
ENDMDL
MODEL      146
REMARK 921   NORMALIZED FREE ENERGY PREDICTED BY IDOCK:   -3.35 KCAL/MOL
REMARK 922        TOTAL FREE ENERGY PREDICTED BY IDOCK:   -3.94 KCAL/MOL
REMARK 923 INTER-LIGAND FREE ENERGY PREDICTED BY IDOCK:   -3.71 KCAL/MOL
REMARK 924 INTRA-LIGAND FREE ENERGY PREDICTED BY IDOCK:   -0.22 KCAL/MOL
REMARK 927      BINDING AFFINITY PREDICTED BY RF-SCORE:    0.00 PKD
ROOT
HETATM    1  C   UNL     1      -6.706   3.698  70.997  1.00  0.00    -0.032 C  
HETATM    2  C   UNL     1      -7.146   4.584  69.825  1.00  0.00    -0.050 C  
HETATM    3  N   UNL     1      -8.153   5.600  70.221  1.00  0.00    -0.102 N  
HETATM    4  O   UNL     1      -6.173   4.485  72.066  1.00  0.00    -0.019 OA 
HETATM    5  C   UNL     1      -7.651   6.323  71.416  1.00  0.00    -0.098 C  
HETATM    6  C   UNL     1      -7.176   5.390  72.536  1.00  0.00    -0.093 C  
ENDROOT
BRANCH   3   7
HETATM    7  S   UNL     1      -8.844   6.552  69.016  1.00  0.00    -0.130 SA 
BRANCH   7   8
HETATM    8  C   UNL     1     -10.126   7.413  69.867  1.00  0.00    -0.195 A  
HETATM    9  N   UNL     1     -10.182   8.723  69.950  1.00  0.00    -0.194 NA 
HETATM   10  C   UNL     1     -11.308   9.095  70.665  1.00  0.00    -0.273 A  
HETATM   11  C   UNL     1     -11.711  10.416  70.947  1.00  0.00    -0.455 A  
HETATM   12  C   UNL     1     -12.881  10.648  71.679  1.00  0.00    -0.570 A  
HETATM   13  C   UNL     1     -13.648   9.583  72.138  1.00  0.00    -0.500 A  
HETATM   14  C   UNL     1     -13.270   8.262  71.876  1.00  0.00    -0.366 A  
HETATM   15  C   UNL     1     -12.098   8.043  71.134  1.00  0.00    -0.265 A  
HETATM   16  S   UNL     1     -11.391   6.554  70.642  1.00  0.00    -0.370 SA 
ENDBRANCH   7   8
ENDBRANCH   3   7
TORSDOF 2
ENDMDL
MODEL      147
REMARK 921   NORMALIZED FREE ENERGY PREDICTED BY IDOCK:   -3.35 KCAL/MOL
REMARK 922        TOTAL FREE ENERGY PREDICTED BY IDOCK:   -3.93 KCAL/MOL
REMARK 923 INTER-LIGAND FREE ENERGY PREDICTED BY IDOCK:   -3.75 KCAL/MOL
REMARK 924 INTRA-LIGAND FREE ENERGY PREDICTED BY IDOCK:   -0.19 KCAL/MOL
REMARK 927      BINDING AFFINITY PREDICTED BY RF-SCORE:    0.00 PKD
ROOT
HETATM    1  C   UNL     1      -6.973  12.445  67.635  1.00  0.00    -0.132 C  
HETATM    2  C   UNL     1      -6.822  11.602  68.907  1.00  0.00    -0.101 C  
HETATM    3  N   UNL     1      -7.160  10.173  68.690  1.00  0.00    -0.073 N  
HETATM    4  O   UNL     1      -6.157  11.933  66.577  1.00  0.00    -0.155 OA 
HETATM    5  C   UNL     1      -6.410   9.684  67.507  1.00  0.00    -0.064 C  
HETATM    6  C   UNL     1      -6.553  10.592  66.279  1.00  0.00    -0.118 C  
ENDROOT
BRANCH   3   7
HETATM    7  S   UNL     1      -7.185   9.147  70.026  1.00  0.00    -0.077 SA 
BRANCH   7   8
HETATM    8  C   UNL     1      -8.861   9.231  70.568  1.00  0.00    -0.241 A  
HETATM    9  N   UNL     1      -9.765   9.994  69.995  1.00  0.00    -0.221 NA 
HETATM   10  C   UNL     1     -10.983   9.830  70.635  1.00  0.00    -0.331 A  
HETATM   11  C   UNL     1     -12.191  10.471  70.294  1.00  0.00    -0.393 A  
HETATM   12  C   UNL     1     -13.352  10.207  71.027  1.00  0.00    -0.333 A  
HETATM   13  C   UNL     1     -13.325   9.319  72.096  1.00  0.00    -0.537 A  
HETATM   14  C   UNL     1     -12.140   8.672  72.459  1.00  0.00    -0.368 A  
HETATM   15  C   UNL     1     -10.982   8.940  71.711  1.00  0.00    -0.361 A  
HETATM   16  S   UNL     1      -9.398   8.295  71.899  1.00  0.00    -0.241 SA 
ENDBRANCH   7   8
ENDBRANCH   3   7
TORSDOF 2
ENDMDL
MODEL      148
REMARK 921   NORMALIZED FREE ENERGY PREDICTED BY IDOCK:   -3.35 KCAL/MOL
REMARK 922        TOTAL FREE ENERGY PREDICTED BY IDOCK:   -3.93 KCAL/MOL
REMARK 923 INTER-LIGAND FREE ENERGY PREDICTED BY IDOCK:   -3.75 KCAL/MOL
REMARK 924 INTRA-LIGAND FREE ENERGY PREDICTED BY IDOCK:   -0.18 KCAL/MOL
REMARK 927      BINDING AFFINITY PREDICTED BY RF-SCORE:    0.00 PKD
ROOT
HETATM    1  C   UNL     1      -7.820   5.385  68.538  1.00  0.00    -0.088 C  
HETATM    2  C   UNL     1      -8.748   5.415  69.757  1.00  0.00    -0.106 C  
HETATM    3  N   UNL     1      -8.007   5.482  71.041  1.00  0.00    -0.104 N  
HETATM    4  O   UNL     1      -6.960   6.528  68.516  1.00  0.00    -0.074 OA 
HETATM    5  C   UNL     1      -7.022   6.588  70.961  1.00  0.00    -0.068 C  
HETATM    6  C   UNL     1      -6.154   6.540  69.697  1.00  0.00    -0.022 C  
ENDROOT
BRANCH   3   7
HETATM    7  S   UNL     1      -8.883   5.373  72.476  1.00  0.00    -0.130 SA 
BRANCH   7   8
HETATM    8  C   UNL     1     -10.212   6.503  72.224  1.00  0.00    -0.184 A  
HETATM    9  N   UNL     1     -11.443   6.121  71.966  1.00  0.00    -0.305 NA 
HETATM   10  C   UNL     1     -12.257   7.234  71.835  1.00  0.00    -0.313 A  
HETATM   11  C   UNL     1     -13.642   7.222  71.572  1.00  0.00    -0.442 A  
HETATM   12  C   UNL     1     -14.343   8.427  71.469  1.00  0.00    -0.499 A  
HETATM   13  C   UNL     1     -13.685   9.642  71.619  1.00  0.00    -0.328 A  
HETATM   14  C   UNL     1     -12.310   9.684  71.876  1.00  0.00    -0.437 A  
HETATM   15  C   UNL     1     -11.618   8.467  71.984  1.00  0.00    -0.362 A  
HETATM   16  S   UNL     1      -9.951   8.195  72.308  1.00  0.00    -0.292 SA 
ENDBRANCH   7   8
ENDBRANCH   3   7
TORSDOF 2
ENDMDL
MODEL      149
REMARK 921   NORMALIZED FREE ENERGY PREDICTED BY IDOCK:   -3.34 KCAL/MOL
REMARK 922        TOTAL FREE ENERGY PREDICTED BY IDOCK:   -3.92 KCAL/MOL
REMARK 923 INTER-LIGAND FREE ENERGY PREDICTED BY IDOCK:   -3.75 KCAL/MOL
REMARK 924 INTRA-LIGAND FREE ENERGY PREDICTED BY IDOCK:   -0.17 KCAL/MOL
REMARK 927      BINDING AFFINITY PREDICTED BY RF-SCORE:    0.00 PKD
ROOT
HETATM    1  C   UNL     1      -7.315  12.943  67.901  1.00  0.00    -0.127 C  
HETATM    2  C   UNL     1      -8.763  12.474  68.087  1.00  0.00    -0.190 C  
HETATM    3  N   UNL     1      -9.244  11.635  66.961  1.00  0.00    -0.179 N  
HETATM    4  O   UNL     1      -6.429  11.830  67.743  1.00  0.00    -0.063 OA 
HETATM    5  C   UNL     1      -8.251  10.560  66.715  1.00  0.00    -0.126 C  
HETATM    6  C   UNL     1      -6.813  11.077  66.589  1.00  0.00    -0.137 C  
ENDROOT
BRANCH   3   7
HETATM    7  S   UNL     1     -10.861  11.166  66.948  1.00  0.00    -0.265 SA 
BRANCH   7   8
HETATM    8  C   UNL     1     -11.024  10.237  68.438  1.00  0.00    -0.260 A  
HETATM    9  N   UNL     1     -10.597   9.001  68.566  1.00  0.00    -0.190 NA 
HETATM   10  C   UNL     1     -10.854   8.552  69.851  1.00  0.00    -0.205 A  
HETATM   11  C   UNL     1     -10.527   7.281  70.366  1.00  0.00    -0.232 A  
HETATM   12  C   UNL     1     -10.841   6.963  71.692  1.00  0.00    -0.252 A  
HETATM   13  C   UNL     1     -11.481   7.890  72.507  1.00  0.00    -0.455 A  
HETATM   14  C   UNL     1     -11.821   9.157  72.021  1.00  0.00    -0.407 A  
HETATM   15  C   UNL     1     -11.493   9.467  70.692  1.00  0.00    -0.297 A  
HETATM   16  S   UNL     1     -11.761  10.928  69.823  1.00  0.00    -0.369 SA 
ENDBRANCH   7   8
ENDBRANCH   3   7
TORSDOF 2
ENDMDL
MODEL      150
REMARK 921   NORMALIZED FREE ENERGY PREDICTED BY IDOCK:   -3.34 KCAL/MOL
REMARK 922        TOTAL FREE ENERGY PREDICTED BY IDOCK:   -3.92 KCAL/MOL
REMARK 923 INTER-LIGAND FREE ENERGY PREDICTED BY IDOCK:   -3.69 KCAL/MOL
REMARK 924 INTRA-LIGAND FREE ENERGY PREDICTED BY IDOCK:   -0.22 KCAL/MOL
REMARK 927      BINDING AFFINITY PREDICTED BY RF-SCORE:    0.00 PKD
ROOT
HETATM    1  C   UNL     1      -9.255   3.506  64.800  1.00  0.00    -0.142 C  
HETATM    2  C   UNL     1     -10.341   4.436  65.353  1.00  0.00    -0.216 C  
HETATM    3  N   UNL     1      -9.800   5.463  66.278  1.00  0.00    -0.165 N  
HETATM    4  O   UNL     1      -8.237   4.247  64.122  1.00  0.00    -0.093 OA 
HETATM    5  C   UNL     1      -8.656   6.138  65.616  1.00  0.00    -0.145 C  
HETATM    6  C   UNL     1      -7.626   5.162  65.036  1.00  0.00    -0.082 C  
ENDROOT
BRANCH   3   7
HETATM    7  S   UNL     1     -10.888   6.468  67.081  1.00  0.00    -0.405 SA 
BRANCH   7   8
HETATM    8  C   UNL     1     -10.750   5.949  68.761  1.00  0.00    -0.284 A  
HETATM    9  N   UNL     1     -11.447   6.483  69.739  1.00  0.00    -0.396 NA 
HETATM   10  C   UNL     1     -11.129   5.855  70.931  1.00  0.00    -0.242 A  
HETATM   11  C   UNL     1     -11.685   6.145  72.194  1.00  0.00    -0.361 A  
HETATM   12  C   UNL     1     -11.274   5.423  73.320  1.00  0.00    -0.322 A  
HETATM   13  C   UNL     1     -10.315   4.423  73.206  1.00  0.00    -0.235 A  
HETATM   14  C   UNL     1      -9.745   4.116  71.966  1.00  0.00    -0.231 A  
HETATM   15  C   UNL     1     -10.170   4.842  70.842  1.00  0.00    -0.202 A  
HETATM   16  S   UNL     1      -9.676   4.688  69.201  1.00  0.00    -0.171 SA 
ENDBRANCH   7   8
ENDBRANCH   3   7
TORSDOF 2
ENDMDL
MODEL      151
REMARK 921   NORMALIZED FREE ENERGY PREDICTED BY IDOCK:   -3.33 KCAL/MOL
REMARK 922        TOTAL FREE ENERGY PREDICTED BY IDOCK:   -3.92 KCAL/MOL
REMARK 923 INTER-LIGAND FREE ENERGY PREDICTED BY IDOCK:   -3.75 KCAL/MOL
REMARK 924 INTRA-LIGAND FREE ENERGY PREDICTED BY IDOCK:   -0.16 KCAL/MOL
REMARK 927      BINDING AFFINITY PREDICTED BY RF-SCORE:    0.00 PKD
ROOT
HETATM    1  C   UNL     1     -12.114  14.030  67.284  1.00  0.00    -0.370 C  
HETATM    2  C   UNL     1     -11.692  12.562  67.149  1.00  0.00    -0.355 C  
HETATM    3  N   UNL     1     -10.634  12.360  66.127  1.00  0.00    -0.249 N  
HETATM    4  O   UNL     1     -10.995  14.861  67.607  1.00  0.00    -0.281 OA 
HETATM    5  C   UNL     1      -9.534  13.321  66.390  1.00  0.00    -0.217 C  
HETATM    6  C   UNL     1     -10.017  14.766  66.567  1.00  0.00    -0.271 C  
ENDROOT
BRANCH   3   7
HETATM    7  S   UNL     1     -10.169  10.784  65.759  1.00  0.00    -0.243 SA 
BRANCH   7   8
HETATM    8  C   UNL     1     -10.005  10.031  67.345  1.00  0.00    -0.197 A  
HETATM    9  N   UNL     1     -10.823   9.103  67.789  1.00  0.00    -0.171 NA 
HETATM   10  C   UNL     1     -10.425   8.702  69.054  1.00  0.00    -0.199 A  
HETATM   11  C   UNL     1     -11.048   7.714  69.844  1.00  0.00    -0.160 A  
HETATM   12  C   UNL     1     -10.534   7.404  71.107  1.00  0.00    -0.220 A  
HETATM   13  C   UNL     1      -9.413   8.067  71.595  1.00  0.00    -0.213 A  
HETATM   14  C   UNL     1      -8.777   9.054  70.835  1.00  0.00    -0.280 A  
HETATM   15  C   UNL     1      -9.298   9.351  69.565  1.00  0.00    -0.180 A  
HETATM   16  S   UNL     1      -8.735  10.487  68.402  1.00  0.00    -0.143 SA 
ENDBRANCH   7   8
ENDBRANCH   3   7
TORSDOF 2
ENDMDL
MODEL      152
REMARK 921   NORMALIZED FREE ENERGY PREDICTED BY IDOCK:   -3.33 KCAL/MOL
REMARK 922        TOTAL FREE ENERGY PREDICTED BY IDOCK:   -3.91 KCAL/MOL
REMARK 923 INTER-LIGAND FREE ENERGY PREDICTED BY IDOCK:   -3.90 KCAL/MOL
REMARK 924 INTRA-LIGAND FREE ENERGY PREDICTED BY IDOCK:   -0.01 KCAL/MOL
REMARK 927      BINDING AFFINITY PREDICTED BY RF-SCORE:    0.00 PKD
ROOT
HETATM    1  C   UNL     1      -9.592   6.973  68.243  1.00  0.00    -0.134 C  
HETATM    2  C   UNL     1      -9.569   8.048  67.150  1.00  0.00    -0.175 C  
HETATM    3  N   UNL     1      -9.913   9.397  67.665  1.00  0.00    -0.178 N  
HETATM    4  O   UNL     1      -8.696   7.303  69.309  1.00  0.00    -0.136 OA 
HETATM    5  C   UNL     1      -9.071   9.677  68.854  1.00  0.00    -0.144 C  
HETATM    6  C   UNL     1      -9.089   8.548  69.892  1.00  0.00    -0.150 C  
ENDROOT
BRANCH   3   7
HETATM    7  S   UNL     1     -10.074  10.657  66.559  1.00  0.00    -0.229 SA 
BRANCH   7   8
HETATM    8  C   UNL     1     -10.626  12.001  67.557  1.00  0.00    -0.221 A  
HETATM    9  N   UNL     1     -10.204  13.236  67.399  1.00  0.00    -0.228 NA 
HETATM   10  C   UNL     1     -10.830  14.061  68.319  1.00  0.00    -0.255 A  
HETATM   11  C   UNL     1     -10.644  15.453  68.445  1.00  0.00    -0.247 A  
HETATM   12  C   UNL     1     -11.350  16.166  69.420  1.00  0.00    -0.323 A  
HETATM   13  C   UNL     1     -12.232  15.512  70.272  1.00  0.00    -0.432 A  
HETATM   14  C   UNL     1     -12.433  14.131  70.172  1.00  0.00    -0.391 A  
HETATM   15  C   UNL     1     -11.725  13.427  69.185  1.00  0.00    -0.326 A  
HETATM   16  S   UNL     1     -11.771  11.750  68.807  1.00  0.00    -0.331 SA 
ENDBRANCH   7   8
ENDBRANCH   3   7
TORSDOF 2
ENDMDL
MODEL      153
REMARK 921   NORMALIZED FREE ENERGY PREDICTED BY IDOCK:   -3.33 KCAL/MOL
REMARK 922        TOTAL FREE ENERGY PREDICTED BY IDOCK:   -3.91 KCAL/MOL
REMARK 923 INTER-LIGAND FREE ENERGY PREDICTED BY IDOCK:   -3.90 KCAL/MOL
REMARK 924 INTRA-LIGAND FREE ENERGY PREDICTED BY IDOCK:   -0.00 KCAL/MOL
REMARK 927      BINDING AFFINITY PREDICTED BY RF-SCORE:    0.00 PKD
ROOT
HETATM    1  C   UNL     1      -9.183  13.815  67.006  1.00  0.00    -0.251 C  
HETATM    2  C   UNL     1      -9.786  12.678  67.838  1.00  0.00    -0.216 C  
HETATM    3  N   UNL     1     -11.133  13.007  68.368  1.00  0.00    -0.247 N  
HETATM    4  O   UNL     1     -10.037  14.163  65.912  1.00  0.00    -0.297 OA 
HETATM    5  C   UNL     1     -11.975  13.495  67.248  1.00  0.00    -0.365 C  
HETATM    6  C   UNL     1     -11.303  14.595  66.416  1.00  0.00    -0.348 C  
ENDROOT
BRANCH   3   7
HETATM    7  S   UNL     1     -11.864  11.917  69.423  1.00  0.00    -0.314 SA 
BRANCH   7   8
HETATM    8  C   UNL     1     -11.102  10.382  69.010  1.00  0.00    -0.248 A  
HETATM    9  N   UNL     1     -11.135   9.863  67.803  1.00  0.00    -0.219 NA 
HETATM   10  C   UNL     1     -10.438   8.667  67.793  1.00  0.00    -0.224 A  
HETATM   11  C   UNL     1     -10.242   7.831  66.675  1.00  0.00    -0.288 A  
HETATM   12  C   UNL     1      -9.508   6.648  66.808  1.00  0.00    -0.194 A  
HETATM   13  C   UNL     1      -8.971   6.285  68.037  1.00  0.00    -0.114 A  
HETATM   14  C   UNL     1      -9.152   7.093  69.164  1.00  0.00    -0.137 A  
HETATM   15  C   UNL     1      -9.885   8.282  69.017  1.00  0.00    -0.176 A  
HETATM   16  S   UNL     1     -10.259   9.477  70.197  1.00  0.00    -0.265 SA 
ENDBRANCH   7   8
ENDBRANCH   3   7
TORSDOF 2
ENDMDL
MODEL      154
REMARK 921   NORMALIZED FREE ENERGY PREDICTED BY IDOCK:   -3.30 KCAL/MOL
REMARK 922        TOTAL FREE ENERGY PREDICTED BY IDOCK:   -3.88 KCAL/MOL
REMARK 923 INTER-LIGAND FREE ENERGY PREDICTED BY IDOCK:   -3.92 KCAL/MOL
REMARK 924 INTRA-LIGAND FREE ENERGY PREDICTED BY IDOCK:    0.04 KCAL/MOL
REMARK 927      BINDING AFFINITY PREDICTED BY RF-SCORE:    0.00 PKD
ROOT
HETATM    1  C   UNL     1      -7.569   9.259  65.129  1.00  0.00    -0.106 C  
HETATM    2  C   UNL     1      -8.371   9.279  66.436  1.00  0.00    -0.118 C  
HETATM    3  N   UNL     1      -9.423   8.233  66.479  1.00  0.00    -0.203 N  
HETATM    4  O   UNL     1      -6.959   7.982  64.919  1.00  0.00    -0.061 OA 
HETATM    5  C   UNL     1      -8.808   6.929  66.127  1.00  0.00    -0.147 C  
HETATM    6  C   UNL     1      -7.974   6.977  64.841  1.00  0.00    -0.127 C  
ENDROOT
BRANCH   3   7
HETATM    7  S   UNL     1     -10.485   8.221  67.786  1.00  0.00    -0.182 SA 
BRANCH   7   8
HETATM    8  C   UNL     1     -10.894   9.924  67.989  1.00  0.00    -0.243 A  
HETATM    9  N   UNL     1     -11.098  10.741  66.980  1.00  0.00    -0.255 NA 
HETATM   10  C   UNL     1     -11.414  12.001  67.460  1.00  0.00    -0.333 A  
HETATM   11  C   UNL     1     -11.714  13.135  66.677  1.00  0.00    -0.427 A  
HETATM   12  C   UNL     1     -12.023  14.349  67.297  1.00  0.00    -0.409 A  
HETATM   13  C   UNL     1     -12.032  14.452  68.684  1.00  0.00    -0.332 A  
HETATM   14  C   UNL     1     -11.735  13.344  69.485  1.00  0.00    -0.385 A  
HETATM   15  C   UNL     1     -11.433  12.128  68.851  1.00  0.00    -0.297 A  
HETATM   16  S   UNL     1     -11.049  10.606  69.554  1.00  0.00    -0.293 SA 
ENDBRANCH   7   8
ENDBRANCH   3   7
TORSDOF 2
ENDMDL
MODEL      155
REMARK 921   NORMALIZED FREE ENERGY PREDICTED BY IDOCK:   -3.29 KCAL/MOL
REMARK 922        TOTAL FREE ENERGY PREDICTED BY IDOCK:   -3.87 KCAL/MOL
REMARK 923 INTER-LIGAND FREE ENERGY PREDICTED BY IDOCK:   -3.72 KCAL/MOL
REMARK 924 INTRA-LIGAND FREE ENERGY PREDICTED BY IDOCK:   -0.15 KCAL/MOL
REMARK 927      BINDING AFFINITY PREDICTED BY RF-SCORE:    0.00 PKD
ROOT
HETATM    1  C   UNL     1     -10.900   9.908  70.444  1.00  0.00    -0.319 C  
HETATM    2  C   UNL     1      -9.864   8.986  71.097  1.00  0.00    -0.300 C  
HETATM    3  N   UNL     1     -10.132   8.752  72.539  1.00  0.00    -0.182 N  
HETATM    4  O   UNL     1     -12.222   9.382  70.589  1.00  0.00    -0.216 OA 
HETATM    5  C   UNL     1     -11.548   8.336  72.695  1.00  0.00    -0.349 C  
HETATM    6  C   UNL     1     -12.537   9.263  71.979  1.00  0.00    -0.390 C  
ENDROOT
BRANCH   3   7
HETATM    7  S   UNL     1      -9.001   7.879  73.430  1.00  0.00    -0.282 SA 
BRANCH   7   8
HETATM    8  C   UNL     1      -9.437   6.202  73.104  1.00  0.00    -0.138 A  
HETATM    9  N   UNL     1      -9.022   5.544  72.045  1.00  0.00    -0.134 NA 
HETATM   10  C   UNL     1      -9.519   4.251  72.078  1.00  0.00    -0.135 A  
HETATM   11  C   UNL     1      -9.276   3.245  71.121  1.00  0.00    -0.195 A  
HETATM   12  C   UNL     1      -9.840   1.976  71.285  1.00  0.00    -0.156 A  
HETATM   13  C   UNL     1     -10.645   1.697  72.383  1.00  0.00    -0.199 A  
HETATM   14  C   UNL     1     -10.906   2.677  73.347  1.00  0.00    -0.293 A  
HETATM   15  C   UNL     1     -10.328   3.946  73.175  1.00  0.00    -0.168 A  
HETATM   16  S   UNL     1     -10.446   5.335  74.184  1.00  0.00    -0.261 SA 
ENDBRANCH   7   8
ENDBRANCH   3   7
TORSDOF 2
ENDMDL
MODEL      156
REMARK 921   NORMALIZED FREE ENERGY PREDICTED BY IDOCK:   -3.29 KCAL/MOL
REMARK 922        TOTAL FREE ENERGY PREDICTED BY IDOCK:   -3.86 KCAL/MOL
REMARK 923 INTER-LIGAND FREE ENERGY PREDICTED BY IDOCK:   -3.69 KCAL/MOL
REMARK 924 INTRA-LIGAND FREE ENERGY PREDICTED BY IDOCK:   -0.17 KCAL/MOL
REMARK 927      BINDING AFFINITY PREDICTED BY RF-SCORE:    0.00 PKD
ROOT
HETATM    1  C   UNL     1      -8.337   7.905  65.158  1.00  0.00    -0.120 C  
HETATM    2  C   UNL     1      -8.732   8.989  66.169  1.00  0.00    -0.147 C  
HETATM    3  N   UNL     1     -10.077   8.765  66.754  1.00  0.00    -0.269 N  
HETATM    4  O   UNL     1      -8.371   6.606  65.756  1.00  0.00    -0.132 OA 
HETATM    5  C   UNL     1     -10.150   7.369  67.252  1.00  0.00    -0.228 C  
HETATM    6  C   UNL     1      -9.696   6.330  66.219  1.00  0.00    -0.041 C  
ENDROOT
BRANCH   3   7
HETATM    7  S   UNL     1     -10.714   9.948  67.770  1.00  0.00    -0.263 SA 
BRANCH   7   8
HETATM    8  C   UNL     1     -10.354   9.330  69.382  1.00  0.00    -0.215 A  
HETATM    9  N   UNL     1     -11.240   8.713  70.131  1.00  0.00    -0.200 NA 
HETATM   10  C   UNL     1     -10.653   8.336  71.328  1.00  0.00    -0.219 A  
HETATM   11  C   UNL     1     -11.286   7.639  72.378  1.00  0.00    -0.381 A  
HETATM   12  C   UNL     1     -10.568   7.317  73.534  1.00  0.00    -0.408 A  
HETATM   13  C   UNL     1      -9.233   7.684  73.661  1.00  0.00    -0.339 A  
HETATM   14  C   UNL     1      -8.581   8.379  72.637  1.00  0.00    -0.241 A  
HETATM   15  C   UNL     1      -9.310   8.691  71.478  1.00  0.00    -0.249 A  
HETATM   16  S   UNL     1      -8.789   9.511  70.059  1.00  0.00    -0.235 SA 
ENDBRANCH   7   8
ENDBRANCH   3   7
TORSDOF 2
ENDMDL
MODEL      157
REMARK 921   NORMALIZED FREE ENERGY PREDICTED BY IDOCK:   -3.28 KCAL/MOL
REMARK 922        TOTAL FREE ENERGY PREDICTED BY IDOCK:   -3.85 KCAL/MOL
REMARK 923 INTER-LIGAND FREE ENERGY PREDICTED BY IDOCK:   -3.68 KCAL/MOL
REMARK 924 INTRA-LIGAND FREE ENERGY PREDICTED BY IDOCK:   -0.17 KCAL/MOL
REMARK 927      BINDING AFFINITY PREDICTED BY RF-SCORE:    0.00 PKD
ROOT
HETATM    1  C   UNL     1     -11.756  14.648  67.448  1.00  0.00    -0.390 C  
HETATM    2  C   UNL     1     -11.121  13.435  68.138  1.00  0.00    -0.258 C  
HETATM    3  N   UNL     1     -11.718  12.148  67.701  1.00  0.00    -0.337 N  
HETATM    4  O   UNL     1     -11.647  14.548  66.025  1.00  0.00    -0.356 OA 
HETATM    5  C   UNL     1     -11.724  12.110  66.217  1.00  0.00    -0.320 C  
HETATM    6  C   UNL     1     -12.322  13.369  65.578  1.00  0.00    -0.480 C  
ENDROOT
BRANCH   3   7
HETATM    7  S   UNL     1     -11.228  10.736  68.476  1.00  0.00    -0.295 SA 
BRANCH   7   8
HETATM    8  C   UNL     1      -9.949  10.124  67.429  1.00  0.00    -0.195 A  
HETATM    9  N   UNL     1      -8.826  10.772  67.210  1.00  0.00    -0.133 NA 
HETATM   10  C   UNL     1      -8.021  10.031  66.361  1.00  0.00    -0.116 A  
HETATM   11  C   UNL     1      -6.735  10.394  65.912  1.00  0.00    -0.127 A  
HETATM   12  C   UNL     1      -6.028   9.542  65.056  1.00  0.00    -0.068 A  
HETATM   13  C   UNL     1      -6.586   8.340  64.638  1.00  0.00    -0.065 A  
HETATM   14  C   UNL     1      -7.862   7.956  65.065  1.00  0.00    -0.120 A  
HETATM   15  C   UNL     1      -8.559   8.815  65.930  1.00  0.00    -0.154 A  
HETATM   16  S   UNL     1     -10.117   8.616  66.632  1.00  0.00    -0.269 SA 
ENDBRANCH   7   8
ENDBRANCH   3   7
TORSDOF 2
ENDMDL
MODEL      158
REMARK 921   NORMALIZED FREE ENERGY PREDICTED BY IDOCK:   -3.27 KCAL/MOL
REMARK 922        TOTAL FREE ENERGY PREDICTED BY IDOCK:   -3.84 KCAL/MOL
REMARK 923 INTER-LIGAND FREE ENERGY PREDICTED BY IDOCK:   -3.84 KCAL/MOL
REMARK 924 INTRA-LIGAND FREE ENERGY PREDICTED BY IDOCK:    0.00 KCAL/MOL
REMARK 927      BINDING AFFINITY PREDICTED BY RF-SCORE:    0.00 PKD
ROOT
HETATM    1  C   UNL     1     -13.661   9.713  72.040  1.00  0.00    -0.385 C  
HETATM    2  C   UNL     1     -12.142   9.677  71.833  1.00  0.00    -0.306 C  
HETATM    3  N   UNL     1     -11.535   8.391  72.259  1.00  0.00    -0.368 N  
HETATM    4  O   UNL     1     -14.302   8.644  71.337  1.00  0.00    -0.386 OA 
HETATM    5  C   UNL     1     -12.292   7.280  71.630  1.00  0.00    -0.352 C  
HETATM    6  C   UNL     1     -13.809   7.393  71.823  1.00  0.00    -0.330 C  
ENDROOT
BRANCH   3   7
HETATM    7  S   UNL     1      -9.857   8.252  72.232  1.00  0.00    -0.317 SA 
BRANCH   7   8
HETATM    8  C   UNL     1      -9.599   6.594  71.693  1.00  0.00    -0.162 A  
HETATM    9  N   UNL     1      -9.691   5.554  72.491  1.00  0.00    -0.152 NA 
HETATM   10  C   UNL     1      -9.450   4.394  71.773  1.00  0.00    -0.147 A  
HETATM   11  C   UNL     1      -9.476   3.081  72.286  1.00  0.00    -0.187 A  
HETATM   12  C   UNL     1      -9.218   1.997  71.441  1.00  0.00    -0.171 A  
HETATM   13  C   UNL     1      -8.930   2.202  70.097  1.00  0.00    -0.150 A  
HETATM   14  C   UNL     1      -8.894   3.494  69.562  1.00  0.00    -0.148 A  
HETATM   15  C   UNL     1      -9.161   4.575  70.418  1.00  0.00    -0.128 A  
HETATM   16  S   UNL     1      -9.209   6.256  70.058  1.00  0.00    -0.152 SA 
ENDBRANCH   7   8
ENDBRANCH   3   7
TORSDOF 2
ENDMDL
MODEL      159
REMARK 921   NORMALIZED FREE ENERGY PREDICTED BY IDOCK:   -3.25 KCAL/MOL
REMARK 922        TOTAL FREE ENERGY PREDICTED BY IDOCK:   -3.83 KCAL/MOL
REMARK 923 INTER-LIGAND FREE ENERGY PREDICTED BY IDOCK:   -3.75 KCAL/MOL
REMARK 924 INTRA-LIGAND FREE ENERGY PREDICTED BY IDOCK:   -0.07 KCAL/MOL
REMARK 927      BINDING AFFINITY PREDICTED BY RF-SCORE:    0.00 PKD
ROOT
HETATM    1  C   UNL     1     -11.871   6.113  71.999  1.00  0.00    -0.280 C  
HETATM    2  C   UNL     1     -11.790   7.304  71.037  1.00  0.00    -0.318 C  
HETATM    3  N   UNL     1     -11.453   8.576  71.725  1.00  0.00    -0.288 N  
HETATM    4  O   UNL     1     -10.642   5.941  72.711  1.00  0.00    -0.203 OA 
HETATM    5  C   UNL     1     -10.252   8.352  72.568  1.00  0.00    -0.299 C  
HETATM    6  C   UNL     1     -10.365   7.119  73.473  1.00  0.00    -0.369 C  
ENDROOT
BRANCH   3   7
HETATM    7  S   UNL     1     -11.472  10.000  70.826  1.00  0.00    -0.375 SA 
BRANCH   7   8
HETATM    8  C   UNL     1     -10.393   9.641  69.478  1.00  0.00    -0.221 A  
HETATM    9  N   UNL     1     -10.812   9.481  68.243  1.00  0.00    -0.186 NA 
HETATM   10  C   UNL     1      -9.731   9.226  67.415  1.00  0.00    -0.161 A  
HETATM   11  C   UNL     1      -9.786   9.016  66.022  1.00  0.00    -0.339 A  
HETATM   12  C   UNL     1      -8.609   8.774  65.307  1.00  0.00    -0.212 A  
HETATM   13  C   UNL     1      -7.382   8.732  65.959  1.00  0.00    -0.089 A  
HETATM   14  C   UNL     1      -7.299   8.933  67.341  1.00  0.00    -0.081 A  
HETATM   15  C   UNL     1      -8.486   9.183  68.048  1.00  0.00    -0.121 A  
HETATM   16  S   UNL     1      -8.705   9.483  69.728  1.00  0.00    -0.211 SA 
ENDBRANCH   7   8
ENDBRANCH   3   7
TORSDOF 2
ENDMDL
MODEL      160
REMARK 921   NORMALIZED FREE ENERGY PREDICTED BY IDOCK:   -3.25 KCAL/MOL
REMARK 922        TOTAL FREE ENERGY PREDICTED BY IDOCK:   -3.82 KCAL/MOL
REMARK 923 INTER-LIGAND FREE ENERGY PREDICTED BY IDOCK:   -4.00 KCAL/MOL
REMARK 924 INTRA-LIGAND FREE ENERGY PREDICTED BY IDOCK:    0.19 KCAL/MOL
REMARK 927      BINDING AFFINITY PREDICTED BY RF-SCORE:    0.00 PKD
ROOT
HETATM    1  C   UNL     1      -8.215  18.284  66.939  1.00  0.00    -0.247 C  
HETATM    2  C   UNL     1      -9.486  17.428  67.003  1.00  0.00    -0.266 C  
HETATM    3  N   UNL     1     -10.006  17.277  68.385  1.00  0.00    -0.302 N  
HETATM    4  O   UNL     1      -8.441  19.584  67.492  1.00  0.00    -0.288 OA 
HETATM    5  C   UNL     1     -10.111  18.623  69.001  1.00  0.00    -0.243 C  
HETATM    6  C   UNL     1      -8.831  19.457  68.862  1.00  0.00    -0.288 C  
ENDROOT
BRANCH   3   7
HETATM    7  S   UNL     1     -11.312  16.244  68.639  1.00  0.00    -0.268 SA 
BRANCH   7   8
HETATM    8  C   UNL     1     -10.680  14.670  68.159  1.00  0.00    -0.242 A  
HETATM    9  N   UNL     1     -11.447  13.636  67.895  1.00  0.00    -0.295 NA 
HETATM   10  C   UNL     1     -10.661  12.555  67.533  1.00  0.00    -0.220 A  
HETATM   11  C   UNL     1     -11.128  11.276  67.165  1.00  0.00    -0.364 A  
HETATM   12  C   UNL     1     -10.216  10.274  66.816  1.00  0.00    -0.286 A  
HETATM   13  C   UNL     1      -8.849  10.526  66.834  1.00  0.00    -0.143 A  
HETATM   14  C   UNL     1      -8.358  11.784  67.199  1.00  0.00    -0.168 A  
HETATM   15  C   UNL     1      -9.282  12.784  67.540  1.00  0.00    -0.191 A  
HETATM   16  S   UNL     1      -8.992  14.414  68.008  1.00  0.00    -0.191 SA 
ENDBRANCH   7   8
ENDBRANCH   3   7
TORSDOF 2
ENDMDL
MODEL      161
REMARK 921   NORMALIZED FREE ENERGY PREDICTED BY IDOCK:   -3.24 KCAL/MOL
REMARK 922        TOTAL FREE ENERGY PREDICTED BY IDOCK:   -3.81 KCAL/MOL
REMARK 923 INTER-LIGAND FREE ENERGY PREDICTED BY IDOCK:   -3.64 KCAL/MOL
REMARK 924 INTRA-LIGAND FREE ENERGY PREDICTED BY IDOCK:   -0.17 KCAL/MOL
REMARK 927      BINDING AFFINITY PREDICTED BY RF-SCORE:    0.00 PKD
ROOT
HETATM    1  C   UNL     1     -10.465   7.563  69.523  1.00  0.00    -0.226 C  
HETATM    2  C   UNL     1     -10.516   8.484  68.298  1.00  0.00    -0.171 C  
HETATM    3  N   UNL     1      -9.492   8.141  67.280  1.00  0.00    -0.148 N  
HETATM    4  O   UNL     1     -10.630   6.193  69.145  1.00  0.00    -0.219 OA 
HETATM    5  C   UNL     1      -9.580   6.688  66.992  1.00  0.00    -0.150 C  
HETATM    6  C   UNL     1      -9.577   5.816  68.253  1.00  0.00    -0.121 C  
ENDROOT
BRANCH   3   7
HETATM    7  S   UNL     1      -9.324   9.151  65.943  1.00  0.00    -0.251 SA 
BRANCH   7   8
HETATM    8  C   UNL     1      -9.686  10.748  66.596  1.00  0.00    -0.190 A  
HETATM    9  N   UNL     1     -10.828  11.367  66.394  1.00  0.00    -0.277 NA 
HETATM   10  C   UNL     1     -10.815  12.589  67.045  1.00  0.00    -0.254 A  
HETATM   11  C   UNL     1     -11.868  13.526  67.071  1.00  0.00    -0.447 A  
HETATM   12  C   UNL     1     -11.719  14.725  67.777  1.00  0.00    -0.368 A  
HETATM   13  C   UNL     1     -10.537  15.004  68.452  1.00  0.00    -0.239 A  
HETATM   14  C   UNL     1      -9.474  14.094  68.441  1.00  0.00    -0.214 A  
HETATM   15  C   UNL     1      -9.638  12.892  67.735  1.00  0.00    -0.212 A  
HETATM   16  S   UNL     1      -8.535  11.584  67.552  1.00  0.00    -0.150 SA 
ENDBRANCH   7   8
ENDBRANCH   3   7
TORSDOF 2
ENDMDL
MODEL      162
REMARK 921   NORMALIZED FREE ENERGY PREDICTED BY IDOCK:   -3.24 KCAL/MOL
REMARK 922        TOTAL FREE ENERGY PREDICTED BY IDOCK:   -3.81 KCAL/MOL
REMARK 923 INTER-LIGAND FREE ENERGY PREDICTED BY IDOCK:   -3.59 KCAL/MOL
REMARK 924 INTRA-LIGAND FREE ENERGY PREDICTED BY IDOCK:   -0.21 KCAL/MOL
REMARK 927      BINDING AFFINITY PREDICTED BY RF-SCORE:    0.00 PKD
ROOT
HETATM    1  C   UNL     1     -11.659  12.350  68.173  1.00  0.00    -0.341 C  
HETATM    2  C   UNL     1     -10.286  11.678  68.051  1.00  0.00    -0.190 C  
HETATM    3  N   UNL     1     -10.088  11.010  66.741  1.00  0.00    -0.213 N  
HETATM    4  O   UNL     1     -11.857  13.310  67.130  1.00  0.00    -0.354 OA 
HETATM    5  C   UNL     1     -10.426  11.973  65.663  1.00  0.00    -0.256 C  
HETATM    6  C   UNL     1     -11.786  12.654  65.861  1.00  0.00    -0.420 C  
ENDROOT
BRANCH   3   7
HETATM    7  S   UNL     1      -8.688  10.102  66.510  1.00  0.00    -0.130 SA 
BRANCH   7   8
HETATM    8  C   UNL     1      -8.958   8.681  67.518  1.00  0.00    -0.134 A  
HETATM    9  N   UNL     1      -8.238   8.407  68.583  1.00  0.00    -0.122 NA 
HETATM   10  C   UNL     1      -8.701   7.239  69.167  1.00  0.00    -0.136 A  
HETATM   11  C   UNL     1      -8.189   6.638  70.335  1.00  0.00    -0.125 A  
HETATM   12  C   UNL     1      -8.759   5.456  70.819  1.00  0.00    -0.139 A  
HETATM   13  C   UNL     1      -9.827   4.863  70.153  1.00  0.00    -0.309 A  
HETATM   14  C   UNL     1     -10.352   5.437  68.990  1.00  0.00    -0.282 A  
HETATM   15  C   UNL     1      -9.776   6.627  68.518  1.00  0.00    -0.131 A  
HETATM   16  S   UNL     1     -10.206   7.568  67.144  1.00  0.00    -0.308 SA 
ENDBRANCH   7   8
ENDBRANCH   3   7
TORSDOF 2
ENDMDL
MODEL      163
REMARK 921   NORMALIZED FREE ENERGY PREDICTED BY IDOCK:   -3.22 KCAL/MOL
REMARK 922        TOTAL FREE ENERGY PREDICTED BY IDOCK:   -3.79 KCAL/MOL
REMARK 923 INTER-LIGAND FREE ENERGY PREDICTED BY IDOCK:   -3.68 KCAL/MOL
REMARK 924 INTRA-LIGAND FREE ENERGY PREDICTED BY IDOCK:   -0.11 KCAL/MOL
REMARK 927      BINDING AFFINITY PREDICTED BY RF-SCORE:    0.00 PKD
ROOT
HETATM    1  C   UNL     1     -10.780   6.036  72.593  1.00  0.00    -0.232 C  
HETATM    2  C   UNL     1     -10.200   5.963  71.176  1.00  0.00    -0.212 C  
HETATM    3  N   UNL     1     -11.090   6.577  70.159  1.00  0.00    -0.319 N  
HETATM    4  O   UNL     1     -11.048   7.390  72.971  1.00  0.00    -0.342 OA 
HETATM    5  C   UNL     1     -11.473   7.934  70.624  1.00  0.00    -0.238 C  
HETATM    6  C   UNL     1     -11.998   7.957  72.064  1.00  0.00    -0.319 C  
ENDROOT
BRANCH   3   7
HETATM    7  S   UNL     1     -10.660   6.445  68.536  1.00  0.00    -0.281 SA 
BRANCH   7   8
HETATM    8  C   UNL     1     -10.085   8.063  68.138  1.00  0.00    -0.197 A  
HETATM    9  N   UNL     1     -10.758   8.901  67.382  1.00  0.00    -0.230 NA 
HETATM   10  C   UNL     1     -10.055  10.090  67.267  1.00  0.00    -0.209 A  
HETATM   11  C   UNL     1     -10.468  11.230  66.548  1.00  0.00    -0.299 A  
HETATM   12  C   UNL     1      -9.658  12.370  66.522  1.00  0.00    -0.242 A  
HETATM   13  C   UNL     1      -8.443  12.387  67.198  1.00  0.00    -0.185 A  
HETATM   14  C   UNL     1      -8.007  11.269  67.916  1.00  0.00    -0.118 A  
HETATM   15  C   UNL     1      -8.832  10.133  67.941  1.00  0.00    -0.125 A  
HETATM   16  S   UNL     1      -8.583   8.630  68.740  1.00  0.00    -0.131 SA 
ENDBRANCH   7   8
ENDBRANCH   3   7
TORSDOF 2
ENDMDL
MODEL      164
REMARK 921   NORMALIZED FREE ENERGY PREDICTED BY IDOCK:   -3.21 KCAL/MOL
REMARK 922        TOTAL FREE ENERGY PREDICTED BY IDOCK:   -3.78 KCAL/MOL
REMARK 923 INTER-LIGAND FREE ENERGY PREDICTED BY IDOCK:   -3.59 KCAL/MOL
REMARK 924 INTRA-LIGAND FREE ENERGY PREDICTED BY IDOCK:   -0.19 KCAL/MOL
REMARK 927      BINDING AFFINITY PREDICTED BY RF-SCORE:    0.00 PKD
ROOT
HETATM    1  C   UNL     1     -12.337  12.089  70.836  1.00  0.00    -0.285 C  
HETATM    2  C   UNL     1     -11.782  11.316  69.634  1.00  0.00    -0.350 C  
HETATM    3  N   UNL     1     -11.170  10.019  70.018  1.00  0.00    -0.271 N  
HETATM    4  O   UNL     1     -13.307  11.312  71.545  1.00  0.00    -0.300 OA 
HETATM    5  C   UNL     1     -12.133   9.275  70.867  1.00  0.00    -0.233 C  
HETATM    6  C   UNL     1     -12.696  10.110  72.023  1.00  0.00    -0.327 C  
ENDROOT
BRANCH   3   7
HETATM    7  S   UNL     1     -10.385   9.122  68.828  1.00  0.00    -0.211 SA 
BRANCH   7   8
HETATM    8  C   UNL     1     -10.028   7.599  69.641  1.00  0.00    -0.185 A  
HETATM    9  N   UNL     1      -9.161   7.493  70.622  1.00  0.00    -0.155 NA 
HETATM   10  C   UNL     1      -9.114   6.179  71.060  1.00  0.00    -0.147 A  
HETATM   11  C   UNL     1      -8.312   5.683  72.108  1.00  0.00    -0.115 A  
HETATM   12  C   UNL     1      -8.370   4.328  72.449  1.00  0.00    -0.104 A  
HETATM   13  C   UNL     1      -9.210   3.462  71.759  1.00  0.00    -0.185 A  
HETATM   14  C   UNL     1     -10.014   3.926  70.713  1.00  0.00    -0.119 A  
HETATM   15  C   UNL     1      -9.953   5.290  70.384  1.00  0.00    -0.233 A  
HETATM   16  S   UNL     1     -10.821   6.152  69.175  1.00  0.00    -0.372 SA 
ENDBRANCH   7   8
ENDBRANCH   3   7
TORSDOF 2
ENDMDL
MODEL      165
REMARK 921   NORMALIZED FREE ENERGY PREDICTED BY IDOCK:   -3.19 KCAL/MOL
REMARK 922        TOTAL FREE ENERGY PREDICTED BY IDOCK:   -3.76 KCAL/MOL
REMARK 923 INTER-LIGAND FREE ENERGY PREDICTED BY IDOCK:   -3.64 KCAL/MOL
REMARK 924 INTRA-LIGAND FREE ENERGY PREDICTED BY IDOCK:   -0.11 KCAL/MOL
REMARK 927      BINDING AFFINITY PREDICTED BY RF-SCORE:    0.00 PKD
ROOT
HETATM    1  C   UNL     1      -9.245  19.734  67.539  1.00  0.00    -0.335 C  
HETATM    2  C   UNL     1      -9.235  18.538  68.499  1.00  0.00    -0.335 C  
HETATM    3  N   UNL     1     -10.402  17.640  68.308  1.00  0.00    -0.368 N  
HETATM    4  O   UNL     1      -9.276  19.300  66.176  1.00  0.00    -0.373 OA 
HETATM    5  C   UNL     1     -10.508  17.302  66.866  1.00  0.00    -0.272 C  
HETATM    6  C   UNL     1     -10.459  18.530  65.949  1.00  0.00    -0.347 C  
ENDROOT
BRANCH   3   7
HETATM    7  S   UNL     1     -10.612  16.362  69.384  1.00  0.00    -0.326 SA 
BRANCH   7   8
HETATM    8  C   UNL     1      -9.234  15.317  69.043  1.00  0.00    -0.223 A  
HETATM    9  N   UNL     1      -8.091  15.398  69.687  1.00  0.00    -0.201 NA 
HETATM   10  C   UNL     1      -7.217  14.438  69.204  1.00  0.00    -0.118 A  
HETATM   11  C   UNL     1      -5.903  14.210  69.660  1.00  0.00    -0.107 A  
HETATM   12  C   UNL     1      -5.130  13.198  69.082  1.00  0.00    -0.069 A  
HETATM   13  C   UNL     1      -5.645  12.416  68.054  1.00  0.00    -0.073 A  
HETATM   14  C   UNL     1      -6.944  12.623  67.579  1.00  0.00    -0.150 A  
HETATM   15  C   UNL     1      -7.713  13.637  68.172  1.00  0.00    -0.138 A  
HETATM   16  S   UNL     1      -9.329  14.115  67.824  1.00  0.00    -0.207 SA 
ENDBRANCH   7   8
ENDBRANCH   3   7
TORSDOF 2
ENDMDL
MODEL      166
REMARK 921   NORMALIZED FREE ENERGY PREDICTED BY IDOCK:   -3.19 KCAL/MOL
REMARK 922        TOTAL FREE ENERGY PREDICTED BY IDOCK:   -3.75 KCAL/MOL
REMARK 923 INTER-LIGAND FREE ENERGY PREDICTED BY IDOCK:   -3.74 KCAL/MOL
REMARK 924 INTRA-LIGAND FREE ENERGY PREDICTED BY IDOCK:   -0.02 KCAL/MOL
REMARK 927      BINDING AFFINITY PREDICTED BY RF-SCORE:    0.00 PKD
ROOT
HETATM    1  C   UNL     1     -11.660  15.636  71.901  1.00  0.00    -0.461 C  
HETATM    2  C   UNL     1     -10.946  15.886  70.567  1.00  0.00    -0.330 C  
HETATM    3  N   UNL     1     -11.172  14.799  69.583  1.00  0.00    -0.266 N  
HETATM    4  O   UNL     1     -13.068  15.471  71.709  1.00  0.00    -0.407 OA 
HETATM    5  C   UNL     1     -12.630  14.541  69.489  1.00  0.00    -0.002 C  
HETATM    6  C   UNL     1     -13.303  14.349  70.853  1.00  0.00    -0.238 C  
ENDROOT
BRANCH   3   7
HETATM    7  S   UNL     1     -10.335  14.857  68.122  1.00  0.00    -0.240 SA 
BRANCH   7   8
HETATM    8  C   UNL     1     -10.048  13.157  67.754  1.00  0.00    -0.226 A  
HETATM    9  N   UNL     1     -10.914  12.205  68.023  1.00  0.00    -0.216 NA 
HETATM   10  C   UNL     1     -10.409  10.986  67.603  1.00  0.00    -0.191 A  
HETATM   11  C   UNL     1     -11.058   9.739  67.709  1.00  0.00    -0.142 A  
HETATM   12  C   UNL     1     -10.430   8.583  67.235  1.00  0.00    -0.366 A  
HETATM   13  C   UNL     1      -9.164   8.650  66.665  1.00  0.00    -0.227 A  
HETATM   14  C   UNL     1      -8.495   9.873  66.550  1.00  0.00    -0.127 A  
HETATM   15  C   UNL     1      -9.139  11.028  67.023  1.00  0.00    -0.147 A  
HETATM   16  S   UNL     1      -8.588  12.658  67.007  1.00  0.00    -0.148 SA 
ENDBRANCH   7   8
ENDBRANCH   3   7
TORSDOF 2
ENDMDL
MODEL      167
REMARK 921   NORMALIZED FREE ENERGY PREDICTED BY IDOCK:   -3.18 KCAL/MOL
REMARK 922        TOTAL FREE ENERGY PREDICTED BY IDOCK:   -3.74 KCAL/MOL
REMARK 923 INTER-LIGAND FREE ENERGY PREDICTED BY IDOCK:   -3.52 KCAL/MOL
REMARK 924 INTRA-LIGAND FREE ENERGY PREDICTED BY IDOCK:   -0.22 KCAL/MOL
REMARK 927      BINDING AFFINITY PREDICTED BY RF-SCORE:    0.00 PKD
ROOT
HETATM    1  C   UNL     1      -7.436  12.598  67.391  1.00  0.00    -0.146 C  
HETATM    2  C   UNL     1      -8.759  11.830  67.290  1.00  0.00    -0.163 C  
HETATM    3  N   UNL     1      -8.587  10.463  66.737  1.00  0.00    -0.124 N  
HETATM    4  O   UNL     1      -6.488  11.890  68.196  1.00  0.00    -0.049 OA 
HETATM    5  C   UNL     1      -7.508   9.780  67.491  1.00  0.00    -0.091 C  
HETATM    6  C   UNL     1      -6.225  10.613  67.607  1.00  0.00    -0.055 C  
ENDROOT
BRANCH   3   7
HETATM    7  S   UNL     1      -9.967   9.548  66.427  1.00  0.00    -0.264 SA 
BRANCH   7   8
HETATM    8  C   UNL     1     -10.362   8.867  68.005  1.00  0.00    -0.219 A  
HETATM    9  N   UNL     1     -10.744   9.597  69.029  1.00  0.00    -0.220 NA 
HETATM   10  C   UNL     1     -10.995   8.775  70.115  1.00  0.00    -0.223 A  
HETATM   11  C   UNL     1     -11.438   9.195  71.386  1.00  0.00    -0.420 A  
HETATM   12  C   UNL     1     -11.657   8.252  72.395  1.00  0.00    -0.464 A  
HETATM   13  C   UNL     1     -11.436   6.900  72.158  1.00  0.00    -0.316 A  
HETATM   14  C   UNL     1     -10.993   6.456  70.908  1.00  0.00    -0.335 A  
HETATM   15  C   UNL     1     -10.783   7.411  69.901  1.00  0.00    -0.243 A  
HETATM   16  S   UNL     1     -10.264   7.178  68.277  1.00  0.00    -0.191 SA 
ENDBRANCH   7   8
ENDBRANCH   3   7
TORSDOF 2
ENDMDL
MODEL      168
REMARK 921   NORMALIZED FREE ENERGY PREDICTED BY IDOCK:   -3.14 KCAL/MOL
REMARK 922        TOTAL FREE ENERGY PREDICTED BY IDOCK:   -3.70 KCAL/MOL
REMARK 923 INTER-LIGAND FREE ENERGY PREDICTED BY IDOCK:   -3.50 KCAL/MOL
REMARK 924 INTRA-LIGAND FREE ENERGY PREDICTED BY IDOCK:   -0.19 KCAL/MOL
REMARK 927      BINDING AFFINITY PREDICTED BY RF-SCORE:    0.00 PKD
ROOT
HETATM    1  C   UNL     1     -12.807   8.587  72.072  1.00  0.00    -0.374 C  
HETATM    2  C   UNL     1     -11.532   7.855  72.508  1.00  0.00    -0.398 C  
HETATM    3  N   UNL     1     -10.462   7.907  71.481  1.00  0.00    -0.207 N  
HETATM    4  O   UNL     1     -12.534   9.956  71.758  1.00  0.00    -0.382 OA 
HETATM    5  C   UNL     1     -10.277   9.318  71.060  1.00  0.00    -0.314 C  
HETATM    6  C   UNL     1     -11.589  10.018  70.686  1.00  0.00    -0.340 C  
ENDROOT
BRANCH   3   7
HETATM    7  S   UNL     1      -9.052   7.024  71.750  1.00  0.00    -0.136 SA 
BRANCH   7   8
HETATM    8  C   UNL     1      -9.107   5.785  70.497  1.00  0.00    -0.147 A  
HETATM    9  N   UNL     1      -9.293   4.510  70.754  1.00  0.00    -0.139 NA 
HETATM   10  C   UNL     1      -9.301   3.795  69.567  1.00  0.00    -0.179 A  
HETATM   11  C   UNL     1      -9.490   2.403  69.440  1.00  0.00    -0.126 A  
HETATM   12  C   UNL     1      -9.480   1.811  68.173  1.00  0.00    -0.218 A  
HETATM   13  C   UNL     1      -9.280   2.583  67.034  1.00  0.00    -0.122 A  
HETATM   14  C   UNL     1      -9.086   3.965  67.131  1.00  0.00    -0.174 A  
HETATM   15  C   UNL     1      -9.105   4.549  68.408  1.00  0.00    -0.124 A  
HETATM   16  S   UNL     1      -8.917   6.202  68.845  1.00  0.00    -0.124 SA 
ENDBRANCH   7   8
ENDBRANCH   3   7
TORSDOF 2
ENDMDL
MODEL      169
REMARK 921   NORMALIZED FREE ENERGY PREDICTED BY IDOCK:   -3.14 KCAL/MOL
REMARK 922        TOTAL FREE ENERGY PREDICTED BY IDOCK:   -3.70 KCAL/MOL
REMARK 923 INTER-LIGAND FREE ENERGY PREDICTED BY IDOCK:   -3.55 KCAL/MOL
REMARK 924 INTRA-LIGAND FREE ENERGY PREDICTED BY IDOCK:   -0.15 KCAL/MOL
REMARK 927      BINDING AFFINITY PREDICTED BY RF-SCORE:    0.00 PKD
ROOT
HETATM    1  C   UNL     1     -12.406  11.533  70.454  1.00  0.00    -0.305 C  
HETATM    2  C   UNL     1     -11.664  12.030  69.207  1.00  0.00    -0.330 C  
HETATM    3  N   UNL     1     -12.173  13.336  68.720  1.00  0.00    -0.200 N  
HETATM    4  O   UNL     1     -12.323  12.487  71.517  1.00  0.00    -0.105 OA 
HETATM    5  C   UNL     1     -12.211  14.284  69.861  1.00  0.00    -0.352 C  
HETATM    6  C   UNL     1     -12.918  13.718  71.098  1.00  0.00    -0.298 C  
ENDROOT
BRANCH   3   7
HETATM    7  S   UNL     1     -11.559  13.943  67.273  1.00  0.00    -0.387 SA 
BRANCH   7   8
HETATM    8  C   UNL     1      -9.985  14.585  67.741  1.00  0.00    -0.225 A  
HETATM    9  N   UNL     1      -9.798  15.830  68.119  1.00  0.00    -0.209 NA 
HETATM   10  C   UNL     1      -8.464  16.024  68.435  1.00  0.00    -0.180 A  
HETATM   11  C   UNL     1      -7.887  17.225  68.895  1.00  0.00    -0.206 A  
HETATM   12  C   UNL     1      -6.520  17.278  69.183  1.00  0.00    -0.235 A  
HETATM   13  C   UNL     1      -5.719  16.153  69.015  1.00  0.00    -0.119 A  
HETATM   14  C   UNL     1      -6.264  14.949  68.557  1.00  0.00    -0.091 A  
HETATM   15  C   UNL     1      -7.640  14.907  68.278  1.00  0.00    -0.113 A  
HETATM   16  S   UNL     1      -8.593  13.585  67.725  1.00  0.00    -0.197 SA 
ENDBRANCH   7   8
ENDBRANCH   3   7
TORSDOF 2
ENDMDL
MODEL      170
REMARK 921   NORMALIZED FREE ENERGY PREDICTED BY IDOCK:   -3.11 KCAL/MOL
REMARK 922        TOTAL FREE ENERGY PREDICTED BY IDOCK:   -3.67 KCAL/MOL
REMARK 923 INTER-LIGAND FREE ENERGY PREDICTED BY IDOCK:   -3.88 KCAL/MOL
REMARK 924 INTRA-LIGAND FREE ENERGY PREDICTED BY IDOCK:    0.21 KCAL/MOL
REMARK 927      BINDING AFFINITY PREDICTED BY RF-SCORE:    0.00 PKD
ROOT
HETATM    1  C   UNL     1     -11.664  15.099  69.068  1.00  0.00    -0.335 C  
HETATM    2  C   UNL     1     -11.326  13.604  69.100  1.00  0.00    -0.285 C  
HETATM    3  N   UNL     1     -11.786  12.886  67.885  1.00  0.00    -0.346 N  
HETATM    4  O   UNL     1     -11.098  15.731  67.917  1.00  0.00    -0.325 OA 
HETATM    5  C   UNL     1     -11.307  13.625  66.690  1.00  0.00    -0.326 C  
HETATM    6  C   UNL     1     -11.625  15.124  66.734  1.00  0.00    -0.134 C  
ENDROOT
BRANCH   3   7
HETATM    7  S   UNL     1     -11.619  11.211  67.835  1.00  0.00    -0.189 SA 
BRANCH   7   8
HETATM    8  C   UNL     1     -10.462  10.959  66.529  1.00  0.00    -0.253 A  
HETATM    9  N   UNL     1     -10.767  11.107  65.258  1.00  0.00    -0.241 NA 
HETATM   10  C   UNL     1      -9.648  10.855  64.481  1.00  0.00    -0.264 A  
HETATM   11  C   UNL     1      -9.583  10.929  63.075  1.00  0.00    -0.382 A  
HETATM   12  C   UNL     1      -8.380  10.653  62.417  1.00  0.00    -0.263 A  
HETATM   13  C   UNL     1      -7.246  10.300  63.138  1.00  0.00    -0.112 A  
HETATM   14  C   UNL     1      -7.282  10.216  64.534  1.00  0.00    -0.119 A  
HETATM   15  C   UNL     1      -8.494  10.502  65.184  1.00  0.00    -0.166 A  
HETATM   16  S   UNL     1      -8.846  10.502  66.868  1.00  0.00    -0.137 SA 
ENDBRANCH   7   8
ENDBRANCH   3   7
TORSDOF 2
ENDMDL
MODEL      171
REMARK 921   NORMALIZED FREE ENERGY PREDICTED BY IDOCK:   -3.11 KCAL/MOL
REMARK 922        TOTAL FREE ENERGY PREDICTED BY IDOCK:   -3.67 KCAL/MOL
REMARK 923 INTER-LIGAND FREE ENERGY PREDICTED BY IDOCK:   -3.46 KCAL/MOL
REMARK 924 INTRA-LIGAND FREE ENERGY PREDICTED BY IDOCK:   -0.21 KCAL/MOL
REMARK 927      BINDING AFFINITY PREDICTED BY RF-SCORE:    0.00 PKD
ROOT
HETATM    1  C   UNL     1      -7.745   9.506  63.689  1.00  0.00    -0.125 C  
HETATM    2  C   UNL     1      -7.307   9.591  65.156  1.00  0.00    -0.109 C  
HETATM    3  N   UNL     1      -7.835  10.797  65.843  1.00  0.00    -0.153 N  
HETATM    4  O   UNL     1      -9.171   9.515  63.575  1.00  0.00    -0.197 OA 
HETATM    5  C   UNL     1      -9.298  10.872  65.606  1.00  0.00    -0.207 C  
HETATM    6  C   UNL     1      -9.684  10.729  64.129  1.00  0.00    -0.309 C  
ENDROOT
BRANCH   3   7
HETATM    7  S   UNL     1      -7.323  11.109  67.417  1.00  0.00    -0.114 SA 
BRANCH   7   8
HETATM    8  C   UNL     1      -8.565  10.342  68.405  1.00  0.00    -0.128 A  
HETATM    9  N   UNL     1      -9.486  11.018  69.056  1.00  0.00    -0.155 NA 
HETATM   10  C   UNL     1     -10.321  10.138  69.724  1.00  0.00    -0.259 A  
HETATM   11  C   UNL     1     -11.433  10.490  70.516  1.00  0.00    -0.433 A  
HETATM   12  C   UNL     1     -12.196   9.492  71.131  1.00  0.00    -0.421 A  
HETATM   13  C   UNL     1     -11.863   8.151  70.974  1.00  0.00    -0.279 A  
HETATM   14  C   UNL     1     -10.762   7.773  70.198  1.00  0.00    -0.242 A  
HETATM   15  C   UNL     1     -10.009   8.784  69.579  1.00  0.00    -0.195 A  
HETATM   16  S   UNL     1      -8.629   8.637  68.561  1.00  0.00    -0.135 SA 
ENDBRANCH   7   8
ENDBRANCH   3   7
TORSDOF 2
ENDMDL
MODEL      172
REMARK 921   NORMALIZED FREE ENERGY PREDICTED BY IDOCK:   -3.10 KCAL/MOL
REMARK 922        TOTAL FREE ENERGY PREDICTED BY IDOCK:   -3.65 KCAL/MOL
REMARK 923 INTER-LIGAND FREE ENERGY PREDICTED BY IDOCK:   -3.85 KCAL/MOL
REMARK 924 INTRA-LIGAND FREE ENERGY PREDICTED BY IDOCK:    0.20 KCAL/MOL
REMARK 927      BINDING AFFINITY PREDICTED BY RF-SCORE:    0.00 PKD
ROOT
HETATM    1  C   UNL     1      -6.458  10.041  65.452  1.00  0.00    -0.106 C  
HETATM    2  C   UNL     1      -7.855  10.670  65.522  1.00  0.00    -0.099 C  
HETATM    3  N   UNL     1      -8.634  10.476  64.274  1.00  0.00    -0.174 N  
HETATM    4  O   UNL     1      -6.537   8.641  65.169  1.00  0.00    -0.063 OA 
HETATM    5  C   UNL     1      -8.598   9.037  63.912  1.00  0.00    -0.132 C  
HETATM    6  C   UNL     1      -7.183   8.446  63.908  1.00  0.00    -0.094 C  
ENDROOT
BRANCH   3   7
HETATM    7  S   UNL     1     -10.132  11.235  64.141  1.00  0.00    -0.352 SA 
BRANCH   7   8
HETATM    8  C   UNL     1     -10.612  11.478  65.820  1.00  0.00    -0.263 A  
HETATM    9  N   UNL     1     -10.966  12.647  66.306  1.00  0.00    -0.275 NA 
HETATM   10  C   UNL     1     -11.300  12.511  67.643  1.00  0.00    -0.306 A  
HETATM   11  C   UNL     1     -11.742  13.543  68.496  1.00  0.00    -0.392 A  
HETATM   12  C   UNL     1     -12.052  13.261  69.830  1.00  0.00    -0.377 A  
HETATM   13  C   UNL     1     -11.922  11.969  70.328  1.00  0.00    -0.398 A  
HETATM   14  C   UNL     1     -11.481  10.927  69.505  1.00  0.00    -0.372 A  
HETATM   15  C   UNL     1     -11.180  11.221  68.165  1.00  0.00    -0.286 A  
HETATM   16  S   UNL     1     -10.641  10.164  66.920  1.00  0.00    -0.163 SA 
ENDBRANCH   7   8
ENDBRANCH   3   7
TORSDOF 2
ENDMDL
MODEL      173
REMARK 921   NORMALIZED FREE ENERGY PREDICTED BY IDOCK:   -3.06 KCAL/MOL
REMARK 922        TOTAL FREE ENERGY PREDICTED BY IDOCK:   -3.61 KCAL/MOL
REMARK 923 INTER-LIGAND FREE ENERGY PREDICTED BY IDOCK:   -3.41 KCAL/MOL
REMARK 924 INTRA-LIGAND FREE ENERGY PREDICTED BY IDOCK:   -0.20 KCAL/MOL
REMARK 927      BINDING AFFINITY PREDICTED BY RF-SCORE:    0.00 PKD
ROOT
HETATM    1  C   UNL     1      -8.672  11.303  68.296  1.00  0.00    -0.158 C  
HETATM    2  C   UNL     1      -9.773  10.239  68.222  1.00  0.00    -0.142 C  
HETATM    3  N   UNL     1      -9.335   9.008  67.519  1.00  0.00    -0.135 N  
HETATM    4  O   UNL     1      -7.503  10.792  68.944  1.00  0.00    -0.097 OA 
HETATM    5  C   UNL     1      -8.050   8.558  68.109  1.00  0.00    -0.119 C  
HETATM    6  C   UNL     1      -7.002   9.673  68.207  1.00  0.00    -0.073 C  
ENDROOT
BRANCH   3   7
HETATM    7  S   UNL     1     -10.476   7.804  67.227  1.00  0.00    -0.318 SA 
BRANCH   7   8
HETATM    8  C   UNL     1     -10.465   6.867  68.721  1.00  0.00    -0.205 A  
HETATM    9  N   UNL     1     -11.104   7.237  69.808  1.00  0.00    -0.221 NA 
HETATM   10  C   UNL     1     -10.916   6.290  70.801  1.00  0.00    -0.297 A  
HETATM   11  C   UNL     1     -11.459   6.335  72.101  1.00  0.00    -0.354 A  
HETATM   12  C   UNL     1     -11.191   5.302  73.005  1.00  0.00    -0.387 A  
HETATM   13  C   UNL     1     -10.386   4.230  72.634  1.00  0.00    -0.243 A  
HETATM   14  C   UNL     1      -9.831   4.162  71.352  1.00  0.00    -0.254 A  
HETATM   15  C   UNL     1     -10.113   5.202  70.451  1.00  0.00    -0.262 A  
HETATM   16  S   UNL     1      -9.599   5.391  68.820  1.00  0.00    -0.146 SA 
ENDBRANCH   7   8
ENDBRANCH   3   7
TORSDOF 2
ENDMDL
MODEL      174
REMARK 921   NORMALIZED FREE ENERGY PREDICTED BY IDOCK:   -3.03 KCAL/MOL
REMARK 922        TOTAL FREE ENERGY PREDICTED BY IDOCK:   -3.58 KCAL/MOL
REMARK 923 INTER-LIGAND FREE ENERGY PREDICTED BY IDOCK:   -3.82 KCAL/MOL
REMARK 924 INTRA-LIGAND FREE ENERGY PREDICTED BY IDOCK:    0.24 KCAL/MOL
REMARK 927      BINDING AFFINITY PREDICTED BY RF-SCORE:    0.00 PKD
ROOT
HETATM    1  C   UNL     1      -7.760  16.886  67.294  1.00  0.00    -0.169 C  
HETATM    2  C   UNL     1      -8.609  16.051  66.329  1.00  0.00    -0.328 C  
HETATM    3  N   UNL     1      -9.938  15.702  66.889  1.00  0.00    -0.243 N  
HETATM    4  O   UNL     1      -8.436  18.091  67.666  1.00  0.00    -0.235 OA 
HETATM    5  C   UNL     1     -10.579  16.941  67.395  1.00  0.00    -0.294 C  
HETATM    6  C   UNL     1      -9.668  17.765  68.314  1.00  0.00    -0.320 C  
ENDROOT
BRANCH   3   7
HETATM    7  S   UNL     1     -10.930  14.664  66.007  1.00  0.00    -0.331 SA 
BRANCH   7   8
HETATM    8  C   UNL     1     -10.126  13.103  66.171  1.00  0.00    -0.291 A  
HETATM    9  N   UNL     1     -10.589  11.995  65.636  1.00  0.00    -0.255 NA 
HETATM   10  C   UNL     1      -9.733  10.947  65.927  1.00  0.00    -0.224 A  
HETATM   11  C   UNL     1      -9.889   9.609  65.511  1.00  0.00    -0.352 A  
HETATM   12  C   UNL     1      -8.939   8.649  65.874  1.00  0.00    -0.245 A  
HETATM   13  C   UNL     1      -7.841   9.002  66.649  1.00  0.00    -0.100 A  
HETATM   14  C   UNL     1      -7.662  10.321  67.080  1.00  0.00    -0.100 A  
HETATM   15  C   UNL     1      -8.618  11.277  66.702  1.00  0.00    -0.167 A  
HETATM   16  S   UNL     1      -8.666  12.960  67.056  1.00  0.00    -0.163 SA 
ENDBRANCH   7   8
ENDBRANCH   3   7
TORSDOF 2
ENDMDL
MODEL      175
REMARK 921   NORMALIZED FREE ENERGY PREDICTED BY IDOCK:   -3.02 KCAL/MOL
REMARK 922        TOTAL FREE ENERGY PREDICTED BY IDOCK:   -3.57 KCAL/MOL
REMARK 923 INTER-LIGAND FREE ENERGY PREDICTED BY IDOCK:   -3.70 KCAL/MOL
REMARK 924 INTRA-LIGAND FREE ENERGY PREDICTED BY IDOCK:    0.13 KCAL/MOL
REMARK 927      BINDING AFFINITY PREDICTED BY RF-SCORE:    0.00 PKD
ROOT
HETATM    1  C   UNL     1      -8.226  11.840  67.466  1.00  0.00    -0.152 C  
HETATM    2  C   UNL     1      -9.236  11.302  68.486  1.00  0.00    -0.181 C  
HETATM    3  N   UNL     1     -10.639  11.638  68.136  1.00  0.00    -0.193 N  
HETATM    4  O   UNL     1      -8.505  11.345  66.153  1.00  0.00    -0.172 OA 
HETATM    5  C   UNL     1     -10.882  11.243  66.726  1.00  0.00    -0.282 C  
HETATM    6  C   UNL     1      -9.814  11.764  65.756  1.00  0.00    -0.240 C  
ENDROOT
BRANCH   3   7
HETATM    7  S   UNL     1     -11.853  11.244  69.235  1.00  0.00    -0.364 SA 
BRANCH   7   8
HETATM    8  C   UNL     1     -11.205   9.828  70.061  1.00  0.00    -0.251 A  
HETATM    9  N   UNL     1     -11.109   9.739  71.369  1.00  0.00    -0.326 NA 
HETATM   10  C   UNL     1     -10.578   8.507  71.712  1.00  0.00    -0.301 A  
HETATM   11  C   UNL     1     -10.341   8.042  73.022  1.00  0.00    -0.351 A  
HETATM   12  C   UNL     1      -9.803   6.767  73.224  1.00  0.00    -0.214 A  
HETATM   13  C   UNL     1      -9.493   5.952  72.141  1.00  0.00    -0.161 A  
HETATM   14  C   UNL     1      -9.714   6.389  70.831  1.00  0.00    -0.193 A  
HETATM   15  C   UNL     1     -10.261   7.668  70.641  1.00  0.00    -0.199 A  
HETATM   16  S   UNL     1     -10.659   8.469  69.171  1.00  0.00    -0.121 SA 
ENDBRANCH   7   8
ENDBRANCH   3   7
TORSDOF 2
ENDMDL
MODEL      176
REMARK 921   NORMALIZED FREE ENERGY PREDICTED BY IDOCK:   -3.01 KCAL/MOL
REMARK 922        TOTAL FREE ENERGY PREDICTED BY IDOCK:   -3.56 KCAL/MOL
REMARK 923 INTER-LIGAND FREE ENERGY PREDICTED BY IDOCK:   -3.44 KCAL/MOL
REMARK 924 INTRA-LIGAND FREE ENERGY PREDICTED BY IDOCK:   -0.12 KCAL/MOL
REMARK 927      BINDING AFFINITY PREDICTED BY RF-SCORE:    0.00 PKD
ROOT
HETATM    1  C   UNL     1     -10.190   4.783  71.929  1.00  0.00    -0.193 C  
HETATM    2  C   UNL     1     -10.973   6.041  72.327  1.00  0.00    -0.265 C  
HETATM    3  N   UNL     1     -10.592   7.230  71.525  1.00  0.00    -0.204 N  
HETATM    4  O   UNL     1     -10.369   4.482  70.542  1.00  0.00    -0.152 OA 
HETATM    5  C   UNL     1     -10.650   6.869  70.086  1.00  0.00    -0.220 C  
HETATM    6  C   UNL     1      -9.895   5.577  69.753  1.00  0.00    -0.194 C  
ENDROOT
BRANCH   3   7
HETATM    7  S   UNL     1     -11.258   8.721  71.941  1.00  0.00    -0.378 SA 
BRANCH   7   8
HETATM    8  C   UNL     1     -10.880   9.734  70.549  1.00  0.00    -0.323 A  
HETATM    9  N   UNL     1      -9.652  10.028  70.184  1.00  0.00    -0.179 NA 
HETATM   10  C   UNL     1      -9.682  10.825  69.052  1.00  0.00    -0.187 A  
HETATM   11  C   UNL     1      -8.560  11.327  68.361  1.00  0.00    -0.155 A  
HETATM   12  C   UNL     1      -8.739  12.119  67.222  1.00  0.00    -0.182 A  
HETATM   13  C   UNL     1     -10.017  12.420  66.765  1.00  0.00    -0.234 A  
HETATM   14  C   UNL     1     -11.148  11.939  67.433  1.00  0.00    -0.336 A  
HETATM   15  C   UNL     1     -10.956  11.139  68.571  1.00  0.00    -0.220 A  
HETATM   16  S   UNL     1     -12.132  10.394  69.582  1.00  0.00    -0.018 SA 
ENDBRANCH   7   8
ENDBRANCH   3   7
TORSDOF 2
ENDMDL
MODEL      177
REMARK 921   NORMALIZED FREE ENERGY PREDICTED BY IDOCK:   -3.01 KCAL/MOL
REMARK 922        TOTAL FREE ENERGY PREDICTED BY IDOCK:   -3.55 KCAL/MOL
REMARK 923 INTER-LIGAND FREE ENERGY PREDICTED BY IDOCK:   -3.36 KCAL/MOL
REMARK 924 INTRA-LIGAND FREE ENERGY PREDICTED BY IDOCK:   -0.19 KCAL/MOL
REMARK 927      BINDING AFFINITY PREDICTED BY RF-SCORE:    0.00 PKD
ROOT
HETATM    1  C   UNL     1     -10.746  11.744  68.211  1.00  0.00    -0.214 C  
HETATM    2  C   UNL     1      -9.868  10.494  68.337  1.00  0.00    -0.161 C  
HETATM    3  N   UNL     1      -9.852   9.941  69.714  1.00  0.00    -0.226 N  
HETATM    4  O   UNL     1     -12.092  11.473  68.616  1.00  0.00    -0.483 OA 
HETATM    5  C   UNL     1     -11.253   9.788  70.179  1.00  0.00    -0.272 C  
HETATM    6  C   UNL     1     -12.101  11.051  69.982  1.00  0.00    -0.364 C  
ENDROOT
BRANCH   3   7
HETATM    7  S   UNL     1      -8.817   8.654  70.046  1.00  0.00    -0.148 SA 
BRANCH   7   8
HETATM    8  C   UNL     1      -9.087   7.560  68.691  1.00  0.00    -0.134 A  
HETATM    9  N   UNL     1      -8.253   7.446  67.680  1.00  0.00    -0.117 NA 
HETATM   10  C   UNL     1      -8.732   6.500  66.789  1.00  0.00    -0.123 A  
HETATM   11  C   UNL     1      -8.103   6.096  65.593  1.00  0.00    -0.128 A  
HETATM   12  C   UNL     1      -8.699   5.121  64.787  1.00  0.00    -0.133 A  
HETATM   13  C   UNL     1      -9.913   4.549  65.151  1.00  0.00    -0.149 A  
HETATM   14  C   UNL     1     -10.560   4.934  66.330  1.00  0.00    -0.307 A  
HETATM   15  C   UNL     1      -9.949   5.908  67.135  1.00  0.00    -0.159 A  
HETATM   16  S   UNL     1     -10.483   6.567  68.631  1.00  0.00    -0.243 SA 
ENDBRANCH   7   8
ENDBRANCH   3   7
TORSDOF 2
ENDMDL
MODEL      178
REMARK 921   NORMALIZED FREE ENERGY PREDICTED BY IDOCK:   -2.98 KCAL/MOL
REMARK 922        TOTAL FREE ENERGY PREDICTED BY IDOCK:   -3.52 KCAL/MOL
REMARK 923 INTER-LIGAND FREE ENERGY PREDICTED BY IDOCK:   -3.33 KCAL/MOL
REMARK 924 INTRA-LIGAND FREE ENERGY PREDICTED BY IDOCK:   -0.19 KCAL/MOL
REMARK 927      BINDING AFFINITY PREDICTED BY RF-SCORE:    0.00 PKD
ROOT
HETATM    1  C   UNL     1      -6.746   8.276  72.313  1.00  0.00    -0.082 C  
HETATM    2  C   UNL     1      -7.694   7.842  71.189  1.00  0.00    -0.085 C  
HETATM    3  N   UNL     1      -8.660   6.802  71.624  1.00  0.00    -0.125 N  
HETATM    4  O   UNL     1      -7.474   8.765  73.443  1.00  0.00    -0.376 OA 
HETATM    5  C   UNL     1      -9.316   7.259  72.874  1.00  0.00    -0.154 C  
HETATM    6  C   UNL     1      -8.325   7.730  73.944  1.00  0.00    -0.227 C  
ENDROOT
BRANCH   3   7
HETATM    7  S   UNL     1      -9.672   6.117  70.464  1.00  0.00    -0.175 SA 
BRANCH   7   8
HETATM    8  C   UNL     1      -9.972   7.451  69.352  1.00  0.00    -0.176 A  
HETATM    9  N   UNL     1      -9.480   7.498  68.134  1.00  0.00    -0.143 NA 
HETATM   10  C   UNL     1      -9.905   8.657  67.506  1.00  0.00    -0.180 A  
HETATM   11  C   UNL     1      -9.594   9.047  66.187  1.00  0.00    -0.341 A  
HETATM   12  C   UNL     1     -10.098  10.248  65.677  1.00  0.00    -0.341 A  
HETATM   13  C   UNL     1     -10.901  11.066  66.463  1.00  0.00    -0.269 A  
HETATM   14  C   UNL     1     -11.223  10.706  67.776  1.00  0.00    -0.383 A  
HETATM   15  C   UNL     1     -10.717   9.495  68.275  1.00  0.00    -0.194 A  
HETATM   16  S   UNL     1     -10.947   8.780  69.822  1.00  0.00    -0.074 SA 
ENDBRANCH   7   8
ENDBRANCH   3   7
TORSDOF 2
ENDMDL
MODEL      179
REMARK 921   NORMALIZED FREE ENERGY PREDICTED BY IDOCK:   -2.98 KCAL/MOL
REMARK 922        TOTAL FREE ENERGY PREDICTED BY IDOCK:   -3.52 KCAL/MOL
REMARK 923 INTER-LIGAND FREE ENERGY PREDICTED BY IDOCK:   -3.33 KCAL/MOL
REMARK 924 INTRA-LIGAND FREE ENERGY PREDICTED BY IDOCK:   -0.19 KCAL/MOL
REMARK 927      BINDING AFFINITY PREDICTED BY RF-SCORE:    0.00 PKD
ROOT
HETATM    1  C   UNL     1      -6.592   8.584  64.261  1.00  0.00    -0.071 C  
HETATM    2  C   UNL     1      -7.326   9.081  65.512  1.00  0.00    -0.085 C  
HETATM    3  N   UNL     1      -8.652   8.440  65.692  1.00  0.00    -0.166 N  
HETATM    4  O   UNL     1      -6.418   7.165  64.295  1.00  0.00    -0.039 OA 
HETATM    5  C   UNL     1      -8.483   6.969  65.592  1.00  0.00    -0.138 C  
HETATM    6  C   UNL     1      -7.698   6.530  64.350  1.00  0.00    -0.109 C  
ENDROOT
BRANCH   3   7
HETATM    7  S   UNL     1      -9.643   8.988  66.939  1.00  0.00    -0.203 SA 
BRANCH   7   8
HETATM    8  C   UNL     1      -9.683  10.732  66.686  1.00  0.00    -0.190 A  
HETATM    9  N   UNL     1     -10.450  11.312  65.790  1.00  0.00    -0.252 NA 
HETATM   10  C   UNL     1     -10.269  12.684  65.843  1.00  0.00    -0.274 A  
HETATM   11  C   UNL     1     -10.932  13.638  65.044  1.00  0.00    -0.350 A  
HETATM   12  C   UNL     1     -10.654  14.999  65.208  1.00  0.00    -0.418 A  
HETATM   13  C   UNL     1      -9.724  15.421  66.152  1.00  0.00    -0.347 A  
HETATM   14  C   UNL     1      -9.049  14.496  66.955  1.00  0.00    -0.274 A  
HETATM   15  C   UNL     1      -9.341  13.133  66.786  1.00  0.00    -0.244 A  
HETATM   16  S   UNL     1      -8.699  11.775  67.624  1.00  0.00    -0.167 SA 
ENDBRANCH   7   8
ENDBRANCH   3   7
TORSDOF 2
ENDMDL
MODEL      180
REMARK 921   NORMALIZED FREE ENERGY PREDICTED BY IDOCK:   -2.96 KCAL/MOL
REMARK 922        TOTAL FREE ENERGY PREDICTED BY IDOCK:   -3.50 KCAL/MOL
REMARK 923 INTER-LIGAND FREE ENERGY PREDICTED BY IDOCK:   -3.26 KCAL/MOL
REMARK 924 INTRA-LIGAND FREE ENERGY PREDICTED BY IDOCK:   -0.24 KCAL/MOL
REMARK 927      BINDING AFFINITY PREDICTED BY RF-SCORE:    0.00 PKD
ROOT
HETATM    1  C   UNL     1     -10.692   6.171  72.904  1.00  0.00    -0.247 C  
HETATM    2  C   UNL     1     -10.337   5.961  71.428  1.00  0.00    -0.218 C  
HETATM    3  N   UNL     1     -11.293   6.624  70.507  1.00  0.00    -0.332 N  
HETATM    4  O   UNL     1     -10.754   7.563  73.227  1.00  0.00    -0.375 OA 
HETATM    5  C   UNL     1     -11.455   8.037  70.931  1.00  0.00    -0.276 C  
HETATM    6  C   UNL     1     -11.758   8.193  72.426  1.00  0.00    -0.399 C  
ENDROOT
BRANCH   3   7
HETATM    7  S   UNL     1     -11.122   6.363  68.852  1.00  0.00    -0.307 SA 
BRANCH   7   8
HETATM    8  C   UNL     1      -9.887   7.532  68.385  1.00  0.00    -0.164 A  
HETATM    9  N   UNL     1      -8.619   7.406  68.706  1.00  0.00    -0.129 NA 
HETATM   10  C   UNL     1      -7.901   8.470  68.185  1.00  0.00    -0.103 A  
HETATM   11  C   UNL     1      -6.511   8.671  68.308  1.00  0.00    -0.060 A  
HETATM   12  C   UNL     1      -5.914   9.792  67.723  1.00  0.00    -0.050 A  
HETATM   13  C   UNL     1      -6.681  10.716  67.023  1.00  0.00    -0.086 A  
HETATM   14  C   UNL     1      -8.063  10.544  66.888  1.00  0.00    -0.120 A  
HETATM   15  C   UNL     1      -8.650   9.410  67.473  1.00  0.00    -0.122 A  
HETATM   16  S   UNL     1     -10.298   8.918  67.465  1.00  0.00    -0.269 SA 
ENDBRANCH   7   8
ENDBRANCH   3   7
TORSDOF 2
ENDMDL
MODEL      181
REMARK 921   NORMALIZED FREE ENERGY PREDICTED BY IDOCK:   -2.95 KCAL/MOL
REMARK 922        TOTAL FREE ENERGY PREDICTED BY IDOCK:   -3.49 KCAL/MOL
REMARK 923 INTER-LIGAND FREE ENERGY PREDICTED BY IDOCK:   -3.31 KCAL/MOL
REMARK 924 INTRA-LIGAND FREE ENERGY PREDICTED BY IDOCK:   -0.18 KCAL/MOL
REMARK 927      BINDING AFFINITY PREDICTED BY RF-SCORE:    0.00 PKD
ROOT
HETATM    1  C   UNL     1      -9.234  10.144  64.278  1.00  0.00    -0.266 C  
HETATM    2  C   UNL     1      -9.516  11.019  65.505  1.00  0.00    -0.216 C  
HETATM    3  N   UNL     1      -8.760  10.583  66.706  1.00  0.00    -0.131 N  
HETATM    4  O   UNL     1      -7.838  10.131  63.965  1.00  0.00    -0.154 OA 
HETATM    5  C   UNL     1      -7.329  10.441  66.338  1.00  0.00    -0.120 C  
HETATM    6  C   UNL     1      -7.107   9.601  65.074  1.00  0.00    -0.116 C  
ENDROOT
BRANCH   3   7
HETATM    7  S   UNL     1      -9.074  11.353  68.171  1.00  0.00    -0.179 SA 
BRANCH   7   8
HETATM    8  C   UNL     1      -9.056  13.062  67.740  1.00  0.00    -0.200 A  
HETATM    9  N   UNL     1     -10.144  13.747  67.463  1.00  0.00    -0.239 NA 
HETATM   10  C   UNL     1      -9.806  15.059  67.180  1.00  0.00    -0.233 A  
HETATM   11  C   UNL     1     -10.705  16.095  66.853  1.00  0.00    -0.247 A  
HETATM   12  C   UNL     1     -10.224  17.382  66.595  1.00  0.00    -0.324 A  
HETATM   13  C   UNL     1      -8.861  17.651  66.652  1.00  0.00    -0.283 A  
HETATM   14  C   UNL     1      -7.945  16.642  66.970  1.00  0.00    -0.230 A  
HETATM   15  C   UNL     1      -8.441  15.355  67.235  1.00  0.00    -0.192 A  
HETATM   16  S   UNL     1      -7.580  13.930  67.665  1.00  0.00    -0.183 SA 
ENDBRANCH   7   8
ENDBRANCH   3   7
TORSDOF 2
ENDMDL
MODEL      182
REMARK 921   NORMALIZED FREE ENERGY PREDICTED BY IDOCK:   -2.92 KCAL/MOL
REMARK 922        TOTAL FREE ENERGY PREDICTED BY IDOCK:   -3.46 KCAL/MOL
REMARK 923 INTER-LIGAND FREE ENERGY PREDICTED BY IDOCK:   -3.57 KCAL/MOL
REMARK 924 INTRA-LIGAND FREE ENERGY PREDICTED BY IDOCK:    0.11 KCAL/MOL
REMARK 927      BINDING AFFINITY PREDICTED BY RF-SCORE:    0.00 PKD
ROOT
HETATM    1  C   UNL     1     -10.741   5.142  73.821  1.00  0.00    -0.299 C  
HETATM    2  C   UNL     1     -11.299   5.963  72.652  1.00  0.00    -0.292 C  
HETATM    3  N   UNL     1     -11.154   7.426  72.858  1.00  0.00    -0.343 N  
HETATM    4  O   UNL     1      -9.361   5.442  74.049  1.00  0.00    -0.131 OA 
HETATM    5  C   UNL     1      -9.746   7.714  73.226  1.00  0.00    -0.288 C  
HETATM    6  C   UNL     1      -9.222   6.830  74.365  1.00  0.00    -0.220 C  
ENDROOT
BRANCH   3   7
HETATM    7  S   UNL     1     -11.851   8.464  71.730  1.00  0.00    -0.341 SA 
BRANCH   7   8
HETATM    8  C   UNL     1     -10.993   8.076  70.240  1.00  0.00    -0.242 A  
HETATM    9  N   UNL     1     -10.142   8.896  69.664  1.00  0.00    -0.194 NA 
HETATM   10  C   UNL     1      -9.624   8.302  68.525  1.00  0.00    -0.149 A  
HETATM   11  C   UNL     1      -8.672   8.870  67.654  1.00  0.00    -0.124 A  
HETATM   12  C   UNL     1      -8.230   8.152  66.539  1.00  0.00    -0.107 A  
HETATM   13  C   UNL     1      -8.727   6.880  66.276  1.00  0.00    -0.149 A  
HETATM   14  C   UNL     1      -9.675   6.294  67.120  1.00  0.00    -0.164 A  
HETATM   15  C   UNL     1     -10.106   7.022  68.241  1.00  0.00    -0.167 A  
HETATM   16  S   UNL     1     -11.234   6.569  69.459  1.00  0.00    -0.356 SA 
ENDBRANCH   7   8
ENDBRANCH   3   7
TORSDOF 2
ENDMDL
MODEL      183
REMARK 921   NORMALIZED FREE ENERGY PREDICTED BY IDOCK:   -2.90 KCAL/MOL
REMARK 922        TOTAL FREE ENERGY PREDICTED BY IDOCK:   -3.42 KCAL/MOL
REMARK 923 INTER-LIGAND FREE ENERGY PREDICTED BY IDOCK:   -3.27 KCAL/MOL
REMARK 924 INTRA-LIGAND FREE ENERGY PREDICTED BY IDOCK:   -0.16 KCAL/MOL
REMARK 927      BINDING AFFINITY PREDICTED BY RF-SCORE:    0.00 PKD
ROOT
HETATM    1  C   UNL     1     -11.720  11.575  67.701  1.00  0.00    -0.208 C  
HETATM    2  C   UNL     1     -10.611  11.447  68.752  1.00  0.00    -0.204 C  
HETATM    3  N   UNL     1      -9.799  10.216  68.582  1.00  0.00    -0.157 N  
HETATM    4  O   UNL     1     -11.179  11.558  66.377  1.00  0.00    -0.306 OA 
HETATM    5  C   UNL     1      -9.352  10.136  67.169  1.00  0.00    -0.153 C  
HETATM    6  C   UNL     1     -10.491  10.323  66.160  1.00  0.00    -0.130 C  
ENDROOT
BRANCH   3   7
HETATM    7  S   UNL     1      -8.636   9.859  69.747  1.00  0.00    -0.186 SA 
BRANCH   7   8
HETATM    8  C   UNL     1      -9.359   8.524  70.643  1.00  0.00    -0.174 A  
HETATM    9  N   UNL     1      -8.662   7.521  71.128  1.00  0.00    -0.135 NA 
HETATM   10  C   UNL     1      -9.508   6.646  71.790  1.00  0.00    -0.151 A  
HETATM   11  C   UNL     1      -9.122   5.463  72.452  1.00  0.00    -0.145 A  
HETATM   12  C   UNL     1     -10.086   4.673  73.087  1.00  0.00    -0.202 A  
HETATM   13  C   UNL     1     -11.426   5.042  73.067  1.00  0.00    -0.344 A  
HETATM   14  C   UNL     1     -11.838   6.209  72.415  1.00  0.00    -0.287 A  
HETATM   15  C   UNL     1     -10.860   6.997  71.787  1.00  0.00    -0.223 A  
HETATM   16  S   UNL     1     -11.048   8.477  70.930  1.00  0.00    -0.262 SA 
ENDBRANCH   7   8
ENDBRANCH   3   7
TORSDOF 2
ENDMDL
MODEL      184
REMARK 921   NORMALIZED FREE ENERGY PREDICTED BY IDOCK:   -2.87 KCAL/MOL
REMARK 922        TOTAL FREE ENERGY PREDICTED BY IDOCK:   -3.40 KCAL/MOL
REMARK 923 INTER-LIGAND FREE ENERGY PREDICTED BY IDOCK:   -3.19 KCAL/MOL
REMARK 924 INTRA-LIGAND FREE ENERGY PREDICTED BY IDOCK:   -0.21 KCAL/MOL
REMARK 927      BINDING AFFINITY PREDICTED BY RF-SCORE:    0.00 PKD
ROOT
HETATM    1  C   UNL     1      -8.843  12.899  68.092  1.00  0.00    -0.194 C  
HETATM    2  C   UNL     1      -8.665  11.458  67.601  1.00  0.00    -0.136 C  
HETATM    3  N   UNL     1      -9.925  10.675  67.649  1.00  0.00    -0.166 N  
HETATM    4  O   UNL     1      -9.842  13.584  67.330  1.00  0.00    -0.229 OA 
HETATM    5  C   UNL     1     -10.992  11.454  66.973  1.00  0.00    -0.292 C  
HETATM    6  C   UNL     1     -11.093  12.903  67.465  1.00  0.00    -0.269 C  
ENDROOT
BRANCH   3   7
HETATM    7  S   UNL     1      -9.861   9.033  67.281  1.00  0.00    -0.214 SA 
BRANCH   7   8
HETATM    8  C   UNL     1      -9.849   8.264  68.867  1.00  0.00    -0.180 A  
HETATM    9  N   UNL     1      -9.276   7.104  69.101  1.00  0.00    -0.140 NA 
HETATM   10  C   UNL     1      -9.422   6.776  70.439  1.00  0.00    -0.166 A  
HETATM   11  C   UNL     1      -8.926   5.615  71.066  1.00  0.00    -0.151 A  
HETATM   12  C   UNL     1      -9.144   5.413  72.433  1.00  0.00    -0.145 A  
HETATM   13  C   UNL     1      -9.852   6.347  73.180  1.00  0.00    -0.178 A  
HETATM   14  C   UNL     1     -10.359   7.506  72.583  1.00  0.00    -0.311 A  
HETATM   15  C   UNL     1     -10.128   7.701  71.212  1.00  0.00    -0.186 A  
HETATM   16  S   UNL     1     -10.602   9.017  70.210  1.00  0.00    -0.229 SA 
ENDBRANCH   7   8
ENDBRANCH   3   7
TORSDOF 2
ENDMDL
MODEL      185
REMARK 921   NORMALIZED FREE ENERGY PREDICTED BY IDOCK:   -2.87 KCAL/MOL
REMARK 922        TOTAL FREE ENERGY PREDICTED BY IDOCK:   -3.39 KCAL/MOL
REMARK 923 INTER-LIGAND FREE ENERGY PREDICTED BY IDOCK:   -3.17 KCAL/MOL
REMARK 924 INTRA-LIGAND FREE ENERGY PREDICTED BY IDOCK:   -0.22 KCAL/MOL
REMARK 927      BINDING AFFINITY PREDICTED BY RF-SCORE:    0.00 PKD
ROOT
HETATM    1  C   UNL     1      -9.120   4.873  66.505  1.00  0.00    -0.124 C  
HETATM    2  C   UNL     1      -8.775   6.228  65.876  1.00  0.00    -0.149 C  
HETATM    3  N   UNL     1      -8.316   7.224  66.875  1.00  0.00    -0.116 N  
HETATM    4  O   UNL     1      -8.001   4.334  67.215  1.00  0.00    -0.095 OA 
HETATM    5  C   UNL     1      -7.245   6.610  67.698  1.00  0.00    -0.090 C  
HETATM    6  C   UNL     1      -7.622   5.234  68.260  1.00  0.00    -0.080 C  
ENDROOT
BRANCH   3   7
HETATM    7  S   UNL     1      -8.040   8.804  66.360  1.00  0.00    -0.104 SA 
BRANCH   7   8
HETATM    8  C   UNL     1      -9.141   9.752  67.359  1.00  0.00    -0.134 A  
HETATM    9  N   UNL     1      -9.812   9.247  68.370  1.00  0.00    -0.151 NA 
HETATM   10  C   UNL     1     -10.575  10.240  68.962  1.00  0.00    -0.224 A  
HETATM   11  C   UNL     1     -11.415  10.082  70.084  1.00  0.00    -0.344 A  
HETATM   12  C   UNL     1     -12.126  11.177  70.583  1.00  0.00    -0.477 A  
HETATM   13  C   UNL     1     -12.018  12.424  69.978  1.00  0.00    -0.372 A  
HETATM   14  C   UNL     1     -11.195  12.609  68.862  1.00  0.00    -0.329 A  
HETATM   15  C   UNL     1     -10.480  11.504  68.374  1.00  0.00    -0.207 A  
HETATM   16  S   UNL     1      -9.388  11.419  67.047  1.00  0.00    -0.177 SA 
ENDBRANCH   7   8
ENDBRANCH   3   7
TORSDOF 2
ENDMDL
MODEL      186
REMARK 921   NORMALIZED FREE ENERGY PREDICTED BY IDOCK:   -2.86 KCAL/MOL
REMARK 922        TOTAL FREE ENERGY PREDICTED BY IDOCK:   -3.39 KCAL/MOL
REMARK 923 INTER-LIGAND FREE ENERGY PREDICTED BY IDOCK:   -3.17 KCAL/MOL
REMARK 924 INTRA-LIGAND FREE ENERGY PREDICTED BY IDOCK:   -0.22 KCAL/MOL
REMARK 927      BINDING AFFINITY PREDICTED BY RF-SCORE:    0.00 PKD
ROOT
HETATM    1  C   UNL     1      -8.959   3.535  65.707  1.00  0.00    -0.140 C  
HETATM    2  C   UNL     1      -9.556   4.944  65.629  1.00  0.00    -0.155 C  
HETATM    3  N   UNL     1      -8.751   5.950  66.365  1.00  0.00    -0.126 N  
HETATM    4  O   UNL     1      -7.620   3.513  65.202  1.00  0.00    -0.075 OA 
HETATM    5  C   UNL     1      -7.336   5.831  65.933  1.00  0.00    -0.073 C  
HETATM    6  C   UNL     1      -6.805   4.393  65.981  1.00  0.00    -0.058 C  
ENDROOT
BRANCH   3   7
HETATM    7  S   UNL     1      -9.355   7.517  66.496  1.00  0.00    -0.165 SA 
BRANCH   7   8
HETATM    8  C   UNL     1      -9.916   7.595  68.165  1.00  0.00    -0.175 A  
HETATM    9  N   UNL     1     -10.557   8.629  68.662  1.00  0.00    -0.175 NA 
HETATM   10  C   UNL     1     -10.877   8.384  69.987  1.00  0.00    -0.225 A  
HETATM   11  C   UNL     1     -11.578   9.256  70.845  1.00  0.00    -0.364 A  
HETATM   12  C   UNL     1     -11.838   8.875  72.166  1.00  0.00    -0.417 A  
HETATM   13  C   UNL     1     -11.405   7.643  72.644  1.00  0.00    -0.423 A  
HETATM   14  C   UNL     1     -10.704   6.761  71.816  1.00  0.00    -0.250 A  
HETATM   15  C   UNL     1     -10.455   7.151  70.490  1.00  0.00    -0.212 A  
HETATM   16  S   UNL     1      -9.645   6.288  69.241  1.00  0.00    -0.134 SA 
ENDBRANCH   7   8
ENDBRANCH   3   7
TORSDOF 2
ENDMDL
MODEL      187
REMARK 921   NORMALIZED FREE ENERGY PREDICTED BY IDOCK:   -2.86 KCAL/MOL
REMARK 922        TOTAL FREE ENERGY PREDICTED BY IDOCK:   -3.39 KCAL/MOL
REMARK 923 INTER-LIGAND FREE ENERGY PREDICTED BY IDOCK:   -3.43 KCAL/MOL
REMARK 924 INTRA-LIGAND FREE ENERGY PREDICTED BY IDOCK:    0.04 KCAL/MOL
REMARK 927      BINDING AFFINITY PREDICTED BY RF-SCORE:    0.00 PKD
ROOT
HETATM    1  C   UNL     1     -12.567  15.521  70.236  1.00  0.00    -0.323 C  
HETATM    2  C   UNL     1     -12.152  14.140  70.759  1.00  0.00    -0.349 C  
HETATM    3  N   UNL     1     -12.119  13.109  69.692  1.00  0.00    -0.287 N  
HETATM    4  O   UNL     1     -11.690  15.962  69.195  1.00  0.00    -0.376 OA 
HETATM    5  C   UNL     1     -11.318  13.630  68.556  1.00  0.00    -0.290 C  
HETATM    6  C   UNL     1     -11.739  15.034  68.107  1.00  0.00    -0.312 C  
ENDROOT
BRANCH   3   7
HETATM    7  S   UNL     1     -11.825  11.511  70.134  1.00  0.00    -0.339 SA 
BRANCH   7   8
HETATM    8  C   UNL     1     -10.559  11.009  69.014  1.00  0.00    -0.225 A  
HETATM    9  N   UNL     1      -9.278  11.062  69.304  1.00  0.00    -0.003 NA 
HETATM   10  C   UNL     1      -8.540  10.588  68.233  1.00  0.00    -0.127 A  
HETATM   11  C   UNL     1      -7.135  10.478  68.179  1.00  0.00    -0.082 A  
HETATM   12  C   UNL     1      -6.519   9.973  67.029  1.00  0.00    -0.069 A  
HETATM   13  C   UNL     1      -7.280   9.584  65.933  1.00  0.00    -0.096 A  
HETATM   14  C   UNL     1      -8.675   9.685  65.958  1.00  0.00    -0.155 A  
HETATM   15  C   UNL     1      -9.283  10.186  67.120  1.00  0.00    -0.138 A  
HETATM   16  S   UNL     1     -10.955  10.412  67.457  1.00  0.00    -0.255 SA 
ENDBRANCH   7   8
ENDBRANCH   3   7
TORSDOF 2
ENDMDL
MODEL      188
REMARK 921   NORMALIZED FREE ENERGY PREDICTED BY IDOCK:   -2.86 KCAL/MOL
REMARK 922        TOTAL FREE ENERGY PREDICTED BY IDOCK:   -3.38 KCAL/MOL
REMARK 923 INTER-LIGAND FREE ENERGY PREDICTED BY IDOCK:   -3.29 KCAL/MOL
REMARK 924 INTRA-LIGAND FREE ENERGY PREDICTED BY IDOCK:   -0.10 KCAL/MOL
REMARK 927      BINDING AFFINITY PREDICTED BY RF-SCORE:    0.00 PKD
ROOT
HETATM    1  C   UNL     1     -12.317  13.420  66.537  1.00  0.00    -0.295 C  
HETATM    2  C   UNL     1     -11.103  12.485  66.585  1.00  0.00    -0.283 C  
HETATM    3  N   UNL     1     -10.706  11.990  65.243  1.00  0.00    -0.278 N  
HETATM    4  O   UNL     1     -12.070  14.542  65.685  1.00  0.00    -0.357 OA 
HETATM    5  C   UNL     1     -10.582  13.152  64.328  1.00  0.00    -0.412 C  
HETATM    6  C   UNL     1     -11.802  14.082  64.357  1.00  0.00    -0.431 C  
ENDROOT
BRANCH   3   7
HETATM    7  S   UNL     1      -9.481  10.838  65.147  1.00  0.00    -0.244 SA 
BRANCH   7   8
HETATM    8  C   UNL     1      -8.471  11.205  66.544  1.00  0.00    -0.165 A  
HETATM    9  N   UNL     1      -7.876  12.365  66.718  1.00  0.00    -0.002 NA 
HETATM   10  C   UNL     1      -7.172  12.350  67.911  1.00  0.00    -0.110 A  
HETATM   11  C   UNL     1      -6.421  13.418  68.442  1.00  0.00    -0.093 A  
HETATM   12  C   UNL     1      -5.761  13.266  69.666  1.00  0.00    -0.107 A  
HETATM   13  C   UNL     1      -5.834  12.066  70.363  1.00  0.00    -0.157 A  
HETATM   14  C   UNL     1      -6.569  10.988  69.857  1.00  0.00    -0.142 A  
HETATM   15  C   UNL     1      -7.233  11.155  68.631  1.00  0.00    -0.098 A  
HETATM   16  S   UNL     1      -8.216  10.036  67.771  1.00  0.00    -0.113 SA 
ENDBRANCH   7   8
ENDBRANCH   3   7
TORSDOF 2
ENDMDL
MODEL      189
REMARK 921   NORMALIZED FREE ENERGY PREDICTED BY IDOCK:   -2.85 KCAL/MOL
REMARK 922        TOTAL FREE ENERGY PREDICTED BY IDOCK:   -3.38 KCAL/MOL
REMARK 923 INTER-LIGAND FREE ENERGY PREDICTED BY IDOCK:   -3.16 KCAL/MOL
REMARK 924 INTRA-LIGAND FREE ENERGY PREDICTED BY IDOCK:   -0.22 KCAL/MOL
REMARK 927      BINDING AFFINITY PREDICTED BY RF-SCORE:    0.00 PKD
ROOT
HETATM    1  C   UNL     1      -9.173   4.843  66.480  1.00  0.00    -0.135 C  
HETATM    2  C   UNL     1      -8.836   5.921  65.444  1.00  0.00    -0.062 C  
HETATM    3  N   UNL     1      -8.244   7.138  66.053  1.00  0.00    -0.121 N  
HETATM    4  O   UNL     1      -8.013   4.467  67.229  1.00  0.00    -0.099 OA 
HETATM    5  C   UNL     1      -7.124   6.728  66.935  1.00  0.00    -0.075 C  
HETATM    6  C   UNL     1      -7.500   5.611  67.917  1.00  0.00    -0.077 C  
ENDROOT
BRANCH   3   7
HETATM    7  S   UNL     1      -7.957   8.469  65.062  1.00  0.00    -0.138 SA 
BRANCH   7   8
HETATM    8  C   UNL     1      -8.959   9.730  65.779  1.00  0.00    -0.160 A  
HETATM    9  N   UNL     1      -8.835  11.005  65.482  1.00  0.00    -0.191 NA 
HETATM   10  C   UNL     1      -9.769  11.740  66.193  1.00  0.00    -0.229 A  
HETATM   11  C   UNL     1      -9.950  13.136  66.125  1.00  0.00    -0.291 A  
HETATM   12  C   UNL     1     -10.941  13.750  66.899  1.00  0.00    -0.296 A  
HETATM   13  C   UNL     1     -11.748  12.993  67.741  1.00  0.00    -0.405 A  
HETATM   14  C   UNL     1     -11.588  11.607  67.831  1.00  0.00    -0.369 A  
HETATM   15  C   UNL     1     -10.595  11.001  67.044  1.00  0.00    -0.256 A  
HETATM   16  S   UNL     1     -10.173   9.338  66.923  1.00  0.00    -0.250 SA 
ENDBRANCH   7   8
ENDBRANCH   3   7
TORSDOF 2
ENDMDL
MODEL      190
REMARK 921   NORMALIZED FREE ENERGY PREDICTED BY IDOCK:   -2.85 KCAL/MOL
REMARK 922        TOTAL FREE ENERGY PREDICTED BY IDOCK:   -3.37 KCAL/MOL
REMARK 923 INTER-LIGAND FREE ENERGY PREDICTED BY IDOCK:   -3.15 KCAL/MOL
REMARK 924 INTRA-LIGAND FREE ENERGY PREDICTED BY IDOCK:   -0.22 KCAL/MOL
REMARK 927      BINDING AFFINITY PREDICTED BY RF-SCORE:    0.00 PKD
ROOT
HETATM    1  C   UNL     1      -7.715   9.736  69.903  1.00  0.00    -0.157 C  
HETATM    2  C   UNL     1      -8.603   8.498  70.070  1.00  0.00    -0.134 C  
HETATM    3  N   UNL     1     -10.051   8.826  70.077  1.00  0.00    -0.185 N  
HETATM    4  O   UNL     1      -8.035  10.441  68.699  1.00  0.00    -0.102 OA 
HETATM    5  C   UNL     1     -10.349   9.672  68.895  1.00  0.00    -0.203 C  
HETATM    6  C   UNL     1      -9.400  10.867  68.746  1.00  0.00    -0.185 C  
ENDROOT
BRANCH   3   7
HETATM    7  S   UNL     1     -11.149   7.591  70.400  1.00  0.00    -0.246 SA 
BRANCH   7   8
HETATM    8  C   UNL     1     -10.663   6.317  69.282  1.00  0.00    -0.305 A  
HETATM    9  N   UNL     1     -10.930   6.348  67.995  1.00  0.00    -0.314 NA 
HETATM   10  C   UNL     1     -10.407   5.219  67.386  1.00  0.00    -0.180 A  
HETATM   11  C   UNL     1     -10.480   4.909  66.012  1.00  0.00    -0.327 A  
HETATM   12  C   UNL     1      -9.900   3.732  65.531  1.00  0.00    -0.116 A  
HETATM   13  C   UNL     1      -9.254   2.857  66.397  1.00  0.00    -0.113 A  
HETATM   14  C   UNL     1      -9.169   3.137  67.765  1.00  0.00    -0.241 A  
HETATM   15  C   UNL     1      -9.749   4.326  68.236  1.00  0.00    -0.096 A  
HETATM   16  S   UNL     1      -9.795   4.949  69.839  1.00  0.00    -0.240 SA 
ENDBRANCH   7   8
ENDBRANCH   3   7
TORSDOF 2
ENDMDL
MODEL      191
REMARK 921   NORMALIZED FREE ENERGY PREDICTED BY IDOCK:   -2.84 KCAL/MOL
REMARK 922        TOTAL FREE ENERGY PREDICTED BY IDOCK:   -3.37 KCAL/MOL
REMARK 923 INTER-LIGAND FREE ENERGY PREDICTED BY IDOCK:   -3.42 KCAL/MOL
REMARK 924 INTRA-LIGAND FREE ENERGY PREDICTED BY IDOCK:    0.06 KCAL/MOL
REMARK 927      BINDING AFFINITY PREDICTED BY RF-SCORE:    0.00 PKD
ROOT
HETATM    1  C   UNL     1      -8.135   8.943  62.700  1.00  0.00    -0.164 C  
HETATM    2  C   UNL     1      -7.794   8.789  64.187  1.00  0.00    -0.139 C  
HETATM    3  N   UNL     1      -7.742  10.090  64.900  1.00  0.00    -0.135 N  
HETATM    4  O   UNL     1      -9.385   9.616  62.524  1.00  0.00    -0.265 OA 
HETATM    5  C   UNL     1      -8.988  10.841  64.605  1.00  0.00    -0.175 C  
HETATM    6  C   UNL     1      -9.309  10.920  63.107  1.00  0.00    -0.324 C  
ENDROOT
BRANCH   3   7
HETATM    7  S   UNL     1      -7.236  10.100  66.507  1.00  0.00    -0.109 SA 
BRANCH   7   8
HETATM    8  C   UNL     1      -8.538  10.952  67.335  1.00  0.00    -0.127 A  
HETATM    9  N   UNL     1      -8.640  12.262  67.359  1.00  0.00    -0.169 NA 
HETATM   10  C   UNL     1      -9.771  12.626  68.072  1.00  0.00    -0.215 A  
HETATM   11  C   UNL     1     -10.219  13.944  68.299  1.00  0.00    -0.247 A  
HETATM   12  C   UNL     1     -11.387  14.166  69.035  1.00  0.00    -0.310 A  
HETATM   13  C   UNL     1     -12.111  13.098  69.551  1.00  0.00    -0.296 A  
HETATM   14  C   UNL     1     -11.688  11.780  69.344  1.00  0.00    -0.405 A  
HETATM   15  C   UNL     1     -10.518  11.569  68.598  1.00  0.00    -0.202 A  
HETATM   16  S   UNL     1      -9.763  10.085  68.164  1.00  0.00    -0.142 SA 
ENDBRANCH   7   8
ENDBRANCH   3   7
TORSDOF 2
ENDMDL
MODEL      192
REMARK 921   NORMALIZED FREE ENERGY PREDICTED BY IDOCK:   -2.84 KCAL/MOL
REMARK 922        TOTAL FREE ENERGY PREDICTED BY IDOCK:   -3.36 KCAL/MOL
REMARK 923 INTER-LIGAND FREE ENERGY PREDICTED BY IDOCK:   -3.17 KCAL/MOL
REMARK 924 INTRA-LIGAND FREE ENERGY PREDICTED BY IDOCK:   -0.19 KCAL/MOL
REMARK 927      BINDING AFFINITY PREDICTED BY RF-SCORE:    0.00 PKD
ROOT
HETATM    1  C   UNL     1     -12.549  14.519  70.858  1.00  0.00    -0.344 C  
HETATM    2  C   UNL     1     -12.242  13.757  69.564  1.00  0.00    -0.293 C  
HETATM    3  N   UNL     1     -11.826  12.354  69.810  1.00  0.00    -0.331 N  
HETATM    4  O   UNL     1     -13.569  13.861  71.615  1.00  0.00    -0.355 OA 
HETATM    5  C   UNL     1     -12.821  11.716  70.707  1.00  0.00    -0.109 C  
HETATM    6  C   UNL     1     -13.130  12.544  71.960  1.00  0.00    -0.366 C  
ENDROOT
BRANCH   3   7
HETATM    7  S   UNL     1     -11.314  11.430  68.498  1.00  0.00    -0.302 SA 
BRANCH   7   8
HETATM    8  C   UNL     1      -9.697  10.914  68.975  1.00  0.00    -0.166 A  
HETATM    9  N   UNL     1      -9.472  10.045  69.935  1.00  0.00    -0.215 NA 
HETATM   10  C   UNL     1      -8.109   9.835  70.061  1.00  0.00    -0.189 A  
HETATM   11  C   UNL     1      -7.487   8.959  70.974  1.00  0.00    -0.124 A  
HETATM   12  C   UNL     1      -6.093   8.841  70.988  1.00  0.00    -0.044 A  
HETATM   13  C   UNL     1      -5.313   9.585  70.110  1.00  0.00    -0.031 A  
HETATM   14  C   UNL     1      -5.903  10.465  69.197  1.00  0.00    -0.037 A  
HETATM   15  C   UNL     1      -7.304  10.569  69.187  1.00  0.00    -0.109 A  
HETATM   16  S   UNL     1      -8.311  11.537  68.183  1.00  0.00    -0.158 SA 
ENDBRANCH   7   8
ENDBRANCH   3   7
TORSDOF 2
ENDMDL
MODEL      193
REMARK 921   NORMALIZED FREE ENERGY PREDICTED BY IDOCK:   -2.83 KCAL/MOL
REMARK 922        TOTAL FREE ENERGY PREDICTED BY IDOCK:   -3.35 KCAL/MOL
REMARK 923 INTER-LIGAND FREE ENERGY PREDICTED BY IDOCK:   -4.51 KCAL/MOL
REMARK 924 INTRA-LIGAND FREE ENERGY PREDICTED BY IDOCK:    1.16 KCAL/MOL
REMARK 927      BINDING AFFINITY PREDICTED BY RF-SCORE:    0.00 PKD
ROOT
HETATM    1  C   UNL     1      -8.650   3.155  73.319  1.00  0.00    -0.081 C  
HETATM    2  C   UNL     1      -8.658   4.004  72.042  1.00  0.00    -0.104 C  
HETATM    3  N   UNL     1     -10.029   4.369  71.606  1.00  0.00    -0.187 N  
HETATM    4  O   UNL     1      -9.311   3.832  74.392  1.00  0.00    -0.097 OA 
HETATM    5  C   UNL     1     -10.755   4.949  72.763  1.00  0.00    -0.228 C  
HETATM    6  C   UNL     1     -10.671   4.085  74.028  1.00  0.00    -0.229 C  
ENDROOT
BRANCH   3   7
HETATM    7  S   UNL     1     -10.211   5.176  70.138  1.00  0.00    -0.265 SA 
BRANCH   7   8
HETATM    8  C   UNL     1     -10.947   6.707  70.609  1.00  0.00    -0.280 A  
HETATM    9  N   UNL     1     -10.522   7.874  70.176  1.00  0.00    -0.226 NA 
HETATM   10  C   UNL     1     -11.309   8.881  70.709  1.00  0.00    -0.278 A  
HETATM   11  C   UNL     1     -11.168  10.262  70.462  1.00  0.00    -0.408 A  
HETATM   12  C   UNL     1     -12.042  11.172  71.066  1.00  0.00    -0.380 A  
HETATM   13  C   UNL     1     -13.049  10.727  71.915  1.00  0.00    -0.557 A  
HETATM   14  C   UNL     1     -13.210   9.363  72.181  1.00  0.00    -0.541 A  
HETATM   15  C   UNL     1     -12.331   8.458  71.563  1.00  0.00    -0.309 A  
HETATM   16  S   UNL     1     -12.287   6.742  71.677  1.00  0.00    -0.337 SA 
ENDBRANCH   7   8
ENDBRANCH   3   7
TORSDOF 2
ENDMDL
MODEL      194
REMARK 921   NORMALIZED FREE ENERGY PREDICTED BY IDOCK:   -2.81 KCAL/MOL
REMARK 922        TOTAL FREE ENERGY PREDICTED BY IDOCK:   -3.33 KCAL/MOL
REMARK 923 INTER-LIGAND FREE ENERGY PREDICTED BY IDOCK:   -3.25 KCAL/MOL
REMARK 924 INTRA-LIGAND FREE ENERGY PREDICTED BY IDOCK:   -0.08 KCAL/MOL
REMARK 927      BINDING AFFINITY PREDICTED BY RF-SCORE:    0.00 PKD
ROOT
HETATM    1  C   UNL     1     -10.381  11.138  67.476  1.00  0.00    -0.196 C  
HETATM    2  C   UNL     1      -9.308  10.225  68.080  1.00  0.00    -0.138 C  
HETATM    3  N   UNL     1      -9.366  10.173  69.562  1.00  0.00    -0.219 N  
HETATM    4  O   UNL     1     -11.692  10.725  67.872  1.00  0.00    -0.543 OA 
HETATM    5  C   UNL     1     -10.762   9.876  69.970  1.00  0.00    -0.292 C  
HETATM    6  C   UNL     1     -11.799  10.784  69.297  1.00  0.00    -0.288 C  
ENDROOT
BRANCH   3   7
HETATM    7  S   UNL     1      -8.160   9.329  70.381  1.00  0.00    -0.172 SA 
BRANCH   7   8
HETATM    8  C   UNL     1      -8.531   7.644  70.019  1.00  0.00    -0.136 A  
HETATM    9  N   UNL     1      -8.557   7.159  68.797  1.00  0.00    -0.125 NA 
HETATM   10  C   UNL     1      -8.862   5.808  68.842  1.00  0.00    -0.110 A  
HETATM   11  C   UNL     1      -8.965   4.946  67.731  1.00  0.00    -0.118 A  
HETATM   12  C   UNL     1      -9.276   3.595  67.923  1.00  0.00    -0.223 A  
HETATM   13  C   UNL     1      -9.490   3.095  69.203  1.00  0.00    -0.177 A  
HETATM   14  C   UNL     1      -9.398   3.929  70.322  1.00  0.00    -0.238 A  
HETATM   15  C   UNL     1      -9.079   5.281  70.117  1.00  0.00    -0.133 A  
HETATM   16  S   UNL     1      -8.879   6.535  71.278  1.00  0.00    -0.137 SA 
ENDBRANCH   7   8
ENDBRANCH   3   7
TORSDOF 2
ENDMDL
MODEL      195
REMARK 921   NORMALIZED FREE ENERGY PREDICTED BY IDOCK:   -2.80 KCAL/MOL
REMARK 922        TOTAL FREE ENERGY PREDICTED BY IDOCK:   -3.32 KCAL/MOL
REMARK 923 INTER-LIGAND FREE ENERGY PREDICTED BY IDOCK:   -3.21 KCAL/MOL
REMARK 924 INTRA-LIGAND FREE ENERGY PREDICTED BY IDOCK:   -0.11 KCAL/MOL
REMARK 927      BINDING AFFINITY PREDICTED BY RF-SCORE:    0.00 PKD
ROOT
HETATM    1  C   UNL     1      -8.074   6.355  70.447  1.00  0.00    -0.117 C  
HETATM    2  C   UNL     1      -8.760   6.977  69.225  1.00  0.00    -0.136 C  
HETATM    3  N   UNL     1      -9.746   6.064  68.595  1.00  0.00    -0.124 N  
HETATM    4  O   UNL     1      -9.033   5.961  71.432  1.00  0.00    -0.139 OA 
HETATM    5  C   UNL     1     -10.658   5.553  69.649  1.00  0.00    -0.305 C  
HETATM    6  C   UNL     1      -9.921   4.990  70.870  1.00  0.00    -0.216 C  
ENDROOT
BRANCH   3   7
HETATM    7  S   UNL     1     -10.476   6.547  67.156  1.00  0.00    -0.331 SA 
BRANCH   7   8
HETATM    8  C   UNL     1     -10.157   8.280  67.104  1.00  0.00    -0.264 A  
HETATM    9  N   UNL     1     -10.871   9.165  67.763  1.00  0.00    -0.171 NA 
HETATM   10  C   UNL     1     -10.366  10.434  67.533  1.00  0.00    -0.224 A  
HETATM   11  C   UNL     1     -10.861  11.634  68.081  1.00  0.00    -0.260 A  
HETATM   12  C   UNL     1     -10.247  12.851  67.766  1.00  0.00    -0.224 A  
HETATM   13  C   UNL     1      -9.153  12.888  66.909  1.00  0.00    -0.224 A  
HETATM   14  C   UNL     1      -8.643  11.713  66.347  1.00  0.00    -0.143 A  
HETATM   15  C   UNL     1      -9.264  10.497  66.677  1.00  0.00    -0.156 A  
HETATM   16  S   UNL     1      -8.863   8.903  66.168  1.00  0.00    -0.173 SA 
ENDBRANCH   7   8
ENDBRANCH   3   7
TORSDOF 2
ENDMDL
MODEL      196
REMARK 921   NORMALIZED FREE ENERGY PREDICTED BY IDOCK:   -2.78 KCAL/MOL
REMARK 922        TOTAL FREE ENERGY PREDICTED BY IDOCK:   -3.30 KCAL/MOL
REMARK 923 INTER-LIGAND FREE ENERGY PREDICTED BY IDOCK:   -3.29 KCAL/MOL
REMARK 924 INTRA-LIGAND FREE ENERGY PREDICTED BY IDOCK:   -0.01 KCAL/MOL
REMARK 927      BINDING AFFINITY PREDICTED BY RF-SCORE:    0.00 PKD
ROOT
HETATM    1  C   UNL     1      -6.445   4.725  68.732  1.00  0.00    -0.037 C  
HETATM    2  C   UNL     1      -7.560   5.728  68.412  1.00  0.00    -0.089 C  
HETATM    3  N   UNL     1      -8.430   5.282  67.296  1.00  0.00    -0.107 N  
HETATM    4  O   UNL     1      -6.985   3.439  69.052  1.00  0.00    -0.044 OA 
HETATM    5  C   UNL     1      -8.879   3.895  67.571  1.00  0.00    -0.118 C  
HETATM    6  C   UNL     1      -7.731   2.945  67.936  1.00  0.00    -0.056 C  
ENDROOT
BRANCH   3   7
HETATM    7  S   UNL     1      -9.610   6.343  66.730  1.00  0.00    -0.157 SA 
BRANCH   7   8
HETATM    8  C   UNL     1     -10.324   6.979  68.210  1.00  0.00    -0.194 A  
HETATM    9  N   UNL     1     -10.361   8.261  68.499  1.00  0.00    -0.208 NA 
HETATM   10  C   UNL     1     -10.996   8.444  69.717  1.00  0.00    -0.127 A  
HETATM   11  C   UNL     1     -11.237   9.681  70.347  1.00  0.00    -0.342 A  
HETATM   12  C   UNL     1     -11.898   9.719  71.579  1.00  0.00    -0.476 A  
HETATM   13  C   UNL     1     -12.316   8.544  72.193  1.00  0.00    -0.444 A  
HETATM   14  C   UNL     1     -12.087   7.302  71.591  1.00  0.00    -0.359 A  
HETATM   15  C   UNL     1     -11.429   7.277  70.351  1.00  0.00    -0.248 A  
HETATM   16  S   UNL     1     -11.023   5.925  69.367  1.00  0.00    -0.283 SA 
ENDBRANCH   7   8
ENDBRANCH   3   7
TORSDOF 2
ENDMDL
MODEL      197
REMARK 921   NORMALIZED FREE ENERGY PREDICTED BY IDOCK:   -2.77 KCAL/MOL
REMARK 922        TOTAL FREE ENERGY PREDICTED BY IDOCK:   -3.28 KCAL/MOL
REMARK 923 INTER-LIGAND FREE ENERGY PREDICTED BY IDOCK:   -3.09 KCAL/MOL
REMARK 924 INTRA-LIGAND FREE ENERGY PREDICTED BY IDOCK:   -0.19 KCAL/MOL
REMARK 927      BINDING AFFINITY PREDICTED BY RF-SCORE:    0.00 PKD
ROOT
HETATM    1  C   UNL     1     -12.460  10.019  71.567  1.00  0.00    -0.419 C  
HETATM    2  C   UNL     1     -11.691   8.897  70.859  1.00  0.00    -0.267 C  
HETATM    3  N   UNL     1     -12.043   7.549  71.371  1.00  0.00    -0.314 N  
HETATM    4  O   UNL     1     -13.874   9.832  71.444  1.00  0.00    -0.240 OA 
HETATM    5  C   UNL     1     -13.521   7.412  71.367  1.00  0.00    -0.330 C  
HETATM    6  C   UNL     1     -14.242   8.586  72.041  1.00  0.00    -0.453 C  
ENDROOT
BRANCH   3   7
HETATM    7  S   UNL     1     -11.176   6.224  70.796  1.00  0.00    -0.318 SA 
BRANCH   7   8
HETATM    8  C   UNL     1      -9.540   6.859  70.621  1.00  0.00    -0.169 A  
HETATM    9  N   UNL     1      -8.993   7.127  69.456  1.00  0.00    -0.141 NA 
HETATM   10  C   UNL     1      -7.714   7.623  69.648  1.00  0.00    -0.099 A  
HETATM   11  C   UNL     1      -6.825   8.036  68.635  1.00  0.00    -0.067 A  
HETATM   12  C   UNL     1      -5.559   8.524  68.975  1.00  0.00    -0.039 A  
HETATM   13  C   UNL     1      -5.166   8.602  70.306  1.00  0.00    -0.021 A  
HETATM   14  C   UNL     1      -6.026   8.196  71.331  1.00  0.00    -0.035 A  
HETATM   15  C   UNL     1      -7.297   7.714  70.979  1.00  0.00    -0.070 A  
HETATM   16  S   UNL     1      -8.568   7.164  71.999  1.00  0.00    -0.110 SA 
ENDBRANCH   7   8
ENDBRANCH   3   7
TORSDOF 2
ENDMDL
MODEL      198
REMARK 921   NORMALIZED FREE ENERGY PREDICTED BY IDOCK:   -2.75 KCAL/MOL
REMARK 922        TOTAL FREE ENERGY PREDICTED BY IDOCK:   -3.26 KCAL/MOL
REMARK 923 INTER-LIGAND FREE ENERGY PREDICTED BY IDOCK:   -3.23 KCAL/MOL
REMARK 924 INTRA-LIGAND FREE ENERGY PREDICTED BY IDOCK:   -0.04 KCAL/MOL
REMARK 927      BINDING AFFINITY PREDICTED BY RF-SCORE:    0.00 PKD
ROOT
HETATM    1  C   UNL     1      -6.958  12.409  68.810  1.00  0.00    -0.094 C  
HETATM    2  C   UNL     1      -7.542  13.281  67.692  1.00  0.00    -0.170 C  
HETATM    3  N   UNL     1      -7.513  14.729  68.019  1.00  0.00    -0.116 N  
HETATM    4  O   UNL     1      -5.611  12.788  69.109  1.00  0.00    -0.068 OA 
HETATM    5  C   UNL     1      -6.141  15.086  68.459  1.00  0.00    -0.096 C  
HETATM    6  C   UNL     1      -5.585  14.152  69.540  1.00  0.00    -0.093 C  
ENDROOT
BRANCH   3   7
HETATM    7  S   UNL     1      -8.253  15.804  66.955  1.00  0.00    -0.271 SA 
BRANCH   7   8
HETATM    8  C   UNL     1      -9.512  14.825  66.203  1.00  0.00    -0.292 A  
HETATM    9  N   UNL     1      -9.309  14.090  65.132  1.00  0.00     0.530 NA 
HETATM   10  C   UNL     1     -10.479  13.430  64.795  1.00  0.00    -0.403 A  
HETATM   11  C   UNL     1     -10.646  12.540  63.714  1.00  0.00    -0.471 A  
HETATM   12  C   UNL     1     -11.888  11.937  63.493  1.00  0.00    -0.560 A  
HETATM   13  C   UNL     1     -12.966  12.212  64.327  1.00  0.00    -0.173 A  
HETATM   14  C   UNL     1     -12.830  13.094  65.404  1.00  0.00    -0.275 A  
HETATM   15  C   UNL     1     -11.576  13.688  65.621  1.00  0.00    -0.328 A  
HETATM   16  S   UNL     1     -11.096  14.786  66.856  1.00  0.00    -0.345 SA 
ENDBRANCH   7   8
ENDBRANCH   3   7
TORSDOF 2
ENDMDL
MODEL      199
REMARK 921   NORMALIZED FREE ENERGY PREDICTED BY IDOCK:   -2.74 KCAL/MOL
REMARK 922        TOTAL FREE ENERGY PREDICTED BY IDOCK:   -3.25 KCAL/MOL
REMARK 923 INTER-LIGAND FREE ENERGY PREDICTED BY IDOCK:   -3.36 KCAL/MOL
REMARK 924 INTRA-LIGAND FREE ENERGY PREDICTED BY IDOCK:    0.11 KCAL/MOL
REMARK 927      BINDING AFFINITY PREDICTED BY RF-SCORE:    0.00 PKD
ROOT
HETATM    1  C   UNL     1      -8.830   4.345  73.890  1.00  0.00    -0.103 C  
HETATM    2  C   UNL     1      -8.270   5.666  73.350  1.00  0.00    -0.113 C  
HETATM    3  N   UNL     1      -8.313   5.743  71.868  1.00  0.00    -0.119 N  
HETATM    4  O   UNL     1     -10.178   4.140  73.456  1.00  0.00    -0.135 OA 
HETATM    5  C   UNL     1      -9.683   5.397  71.416  1.00  0.00    -0.161 C  
HETATM    6  C   UNL     1     -10.215   4.095  72.027  1.00  0.00    -0.129 C  
ENDROOT
BRANCH   3   7
HETATM    7  S   UNL     1      -7.598   7.070  71.116  1.00  0.00    -0.087 SA 
BRANCH   7   8
HETATM    8  C   UNL     1      -8.952   8.173  70.873  1.00  0.00    -0.146 A  
HETATM    9  N   UNL     1      -9.243   8.711  69.710  1.00  0.00    -0.152 NA 
HETATM   10  C   UNL     1     -10.364   9.515  69.838  1.00  0.00    -0.236 A  
HETATM   11  C   UNL     1     -10.983  10.244  68.802  1.00  0.00    -0.285 A  
HETATM   12  C   UNL     1     -12.119  11.014  69.074  1.00  0.00    -0.285 A  
HETATM   13  C   UNL     1     -12.641  11.073  70.361  1.00  0.00    -0.349 A  
HETATM   14  C   UNL     1     -12.044  10.363  71.408  1.00  0.00    -0.424 A  
HETATM   15  C   UNL     1     -10.909   9.587  71.122  1.00  0.00    -0.355 A  
HETATM   16  S   UNL     1      -9.976   8.601  72.179  1.00  0.00    -0.284 SA 
ENDBRANCH   7   8
ENDBRANCH   3   7
TORSDOF 2
ENDMDL
MODEL      200
REMARK 921   NORMALIZED FREE ENERGY PREDICTED BY IDOCK:   -2.73 KCAL/MOL
REMARK 922        TOTAL FREE ENERGY PREDICTED BY IDOCK:   -3.24 KCAL/MOL
REMARK 923 INTER-LIGAND FREE ENERGY PREDICTED BY IDOCK:   -3.01 KCAL/MOL
REMARK 924 INTRA-LIGAND FREE ENERGY PREDICTED BY IDOCK:   -0.23 KCAL/MOL
REMARK 927      BINDING AFFINITY PREDICTED BY RF-SCORE:    0.00 PKD
ROOT
HETATM    1  C   UNL     1     -11.430  14.982  71.622  1.00  0.00    -0.313 C  
HETATM    2  C   UNL     1     -10.310  15.411  70.668  1.00  0.00     0.105 C  
HETATM    3  N   UNL     1     -10.144  14.481  69.523  1.00  0.00     0.003 N  
HETATM    4  O   UNL     1     -12.679  14.871  70.934  1.00  0.00    -0.316 OA 
HETATM    5  C   UNL     1     -11.471  14.264  68.894  1.00  0.00    -0.286 C  
HETATM    6  C   UNL     1     -12.566  13.889  69.900  1.00  0.00    -0.118 C  
ENDROOT
BRANCH   3   7
HETATM    7  S   UNL     1      -8.857  14.736  68.466  1.00  0.00    -0.180 SA 
BRANCH   7   8
HETATM    8  C   UNL     1      -8.921  16.472  68.165  1.00  0.00    -0.207 A  
HETATM    9  N   UNL     1      -9.903  17.055  67.515  1.00  0.00    -0.252 NA 
HETATM   10  C   UNL     1      -9.675  18.419  67.455  1.00  0.00    -0.299 A  
HETATM   11  C   UNL     1     -10.517  19.375  66.850  1.00  0.00    -0.569 A  
HETATM   12  C   UNL     1     -10.164  20.728  66.869  1.00  0.00     0.068 A  
HETATM   13  C   UNL     1      -8.982  21.141  67.475  1.00  0.00     0.081 A  
HETATM   14  C   UNL     1      -8.126  20.214  68.079  1.00  0.00    -0.213 A  
HETATM   15  C   UNL     1      -8.495  18.859  68.060  1.00  0.00    -0.295 A  
HETATM   16  S   UNL     1      -7.671  17.503  68.724  1.00  0.00    -0.218 SA 
ENDBRANCH   7   8
ENDBRANCH   3   7
TORSDOF 2
ENDMDL
MODEL      201
REMARK 921   NORMALIZED FREE ENERGY PREDICTED BY IDOCK:   -2.70 KCAL/MOL
REMARK 922        TOTAL FREE ENERGY PREDICTED BY IDOCK:   -3.21 KCAL/MOL
REMARK 923 INTER-LIGAND FREE ENERGY PREDICTED BY IDOCK:   -3.20 KCAL/MOL
REMARK 924 INTRA-LIGAND FREE ENERGY PREDICTED BY IDOCK:   -0.01 KCAL/MOL
REMARK 927      BINDING AFFINITY PREDICTED BY RF-SCORE:    0.00 PKD
ROOT
HETATM    1  C   UNL     1     -11.705  13.413  67.369  1.00  0.00    -0.373 C  
HETATM    2  C   UNL     1     -11.215  12.745  68.659  1.00  0.00    -0.282 C  
HETATM    3  N   UNL     1     -11.224  11.263  68.576  1.00  0.00    -0.228 N  
HETATM    4  O   UNL     1     -10.916  13.007  66.246  1.00  0.00    -0.279 OA 
HETATM    5  C   UNL     1     -10.518  10.854  67.337  1.00  0.00    -0.224 C  
HETATM    6  C   UNL     1     -11.012  11.589  66.085  1.00  0.00    -0.266 C  
ENDROOT
BRANCH   3   7
HETATM    7  S   UNL     1     -10.853  10.383  69.964  1.00  0.00    -0.265 SA 
BRANCH   7   8
HETATM    8  C   UNL     1     -10.064   8.940  69.328  1.00  0.00    -0.203 A  
HETATM    9  N   UNL     1     -10.723   7.876  68.927  1.00  0.00    -0.134 NA 
HETATM   10  C   UNL     1      -9.830   6.922  68.469  1.00  0.00    -0.144 A  
HETATM   11  C   UNL     1     -10.165   5.657  67.946  1.00  0.00    -0.234 A  
HETATM   12  C   UNL     1      -9.156   4.791  67.512  1.00  0.00    -0.129 A  
HETATM   13  C   UNL     1      -7.820   5.166  67.598  1.00  0.00    -0.095 A  
HETATM   14  C   UNL     1      -7.458   6.414  68.116  1.00  0.00    -0.094 A  
HETATM   15  C   UNL     1      -8.481   7.277  68.541  1.00  0.00    -0.125 A  
HETATM   16  S   UNL     1      -8.356   8.862  69.198  1.00  0.00    -0.126 SA 
ENDBRANCH   7   8
ENDBRANCH   3   7
TORSDOF 2
ENDMDL
MODEL      202
REMARK 921   NORMALIZED FREE ENERGY PREDICTED BY IDOCK:   -2.67 KCAL/MOL
REMARK 922        TOTAL FREE ENERGY PREDICTED BY IDOCK:   -3.18 KCAL/MOL
REMARK 923 INTER-LIGAND FREE ENERGY PREDICTED BY IDOCK:   -3.28 KCAL/MOL
REMARK 924 INTRA-LIGAND FREE ENERGY PREDICTED BY IDOCK:    0.10 KCAL/MOL
REMARK 927      BINDING AFFINITY PREDICTED BY RF-SCORE:    0.00 PKD
ROOT
HETATM    1  C   UNL     1     -11.806  14.677  69.557  1.00  0.00    -0.330 C  
HETATM    2  C   UNL     1     -12.068  13.346  70.272  1.00  0.00    -0.349 C  
HETATM    3  N   UNL     1     -11.979  12.179  69.360  1.00  0.00    -0.295 N  
HETATM    4  O   UNL     1     -10.521  14.680  68.928  1.00  0.00    -0.237 OA 
HETATM    5  C   UNL     1     -10.700  12.261  68.610  1.00  0.00    -0.233 C  
HETATM    6  C   UNL     1     -10.464  13.629  67.959  1.00  0.00    -0.248 C  
ENDROOT
BRANCH   3   7
HETATM    7  S   UNL     1     -12.386  10.660  69.963  1.00  0.00    -0.205 SA 
BRANCH   7   8
HETATM    8  C   UNL     1     -10.890   9.743  69.791  1.00  0.00    -0.257 A  
HETATM    9  N   UNL     1     -10.030   9.577  70.771  1.00  0.00    -0.283 NA 
HETATM   10  C   UNL     1      -8.970   8.802  70.331  1.00  0.00    -0.169 A  
HETATM   11  C   UNL     1      -7.861   8.400  71.103  1.00  0.00    -0.117 A  
HETATM   12  C   UNL     1      -6.861   7.609  70.529  1.00  0.00    -0.047 A  
HETATM   13  C   UNL     1      -6.947   7.218  69.198  1.00  0.00    -0.074 A  
HETATM   14  C   UNL     1      -8.034   7.605  68.407  1.00  0.00    -0.123 A  
HETATM   15  C   UNL     1      -9.035   8.393  68.997  1.00  0.00    -0.147 A  
HETATM   16  S   UNL     1     -10.484   9.005  68.298  1.00  0.00    -0.170 SA 
ENDBRANCH   7   8
ENDBRANCH   3   7
TORSDOF 2
ENDMDL
MODEL      203
REMARK 921   NORMALIZED FREE ENERGY PREDICTED BY IDOCK:   -2.67 KCAL/MOL
REMARK 922        TOTAL FREE ENERGY PREDICTED BY IDOCK:   -3.17 KCAL/MOL
REMARK 923 INTER-LIGAND FREE ENERGY PREDICTED BY IDOCK:   -3.05 KCAL/MOL
REMARK 924 INTRA-LIGAND FREE ENERGY PREDICTED BY IDOCK:   -0.12 KCAL/MOL
REMARK 927      BINDING AFFINITY PREDICTED BY RF-SCORE:    0.00 PKD
ROOT
HETATM    1  C   UNL     1      -7.111  12.048  67.634  1.00  0.00    -0.118 C  
HETATM    2  C   UNL     1      -8.330  11.156  67.367  1.00  0.00    -0.135 C  
HETATM    3  N   UNL     1      -8.384  10.663  65.968  1.00  0.00    -0.156 N  
HETATM    4  O   UNL     1      -5.893  11.358  67.340  1.00  0.00    -0.056 OA 
HETATM    5  C   UNL     1      -7.069  10.068  65.625  1.00  0.00    -0.119 C  
HETATM    6  C   UNL     1      -5.882  10.980  65.960  1.00  0.00    -0.125 C  
ENDROOT
BRANCH   3   7
HETATM    7  S   UNL     1      -9.741   9.793  65.479  1.00  0.00    -0.304 SA 
BRANCH   7   8
HETATM    8  C   UNL     1      -9.911   8.571  66.739  1.00  0.00    -0.257 A  
HETATM    9  N   UNL     1     -10.561   8.781  67.862  1.00  0.00    -0.210 NA 
HETATM   10  C   UNL     1     -10.531   7.633  68.637  1.00  0.00    -0.177 A  
HETATM   11  C   UNL     1     -11.133   7.471  69.901  1.00  0.00    -0.185 A  
HETATM   12  C   UNL     1     -11.029   6.248  70.572  1.00  0.00    -0.374 A  
HETATM   13  C   UNL     1     -10.329   5.189  70.004  1.00  0.00    -0.347 A  
HETATM   14  C   UNL     1      -9.719   5.323  68.753  1.00  0.00    -0.203 A  
HETATM   15  C   UNL     1      -9.837   6.553  68.086  1.00  0.00    -0.131 A  
HETATM   16  S   UNL     1      -9.221   7.014  66.547  1.00  0.00    -0.153 SA 
ENDBRANCH   7   8
ENDBRANCH   3   7
TORSDOF 2
ENDMDL
MODEL      204
REMARK 921   NORMALIZED FREE ENERGY PREDICTED BY IDOCK:   -2.67 KCAL/MOL
REMARK 922        TOTAL FREE ENERGY PREDICTED BY IDOCK:   -3.17 KCAL/MOL
REMARK 923 INTER-LIGAND FREE ENERGY PREDICTED BY IDOCK:   -2.95 KCAL/MOL
REMARK 924 INTRA-LIGAND FREE ENERGY PREDICTED BY IDOCK:   -0.22 KCAL/MOL
REMARK 927      BINDING AFFINITY PREDICTED BY RF-SCORE:    0.00 PKD
ROOT
HETATM    1  C   UNL     1      -8.646   8.788  64.498  1.00  0.00    -0.099 C  
HETATM    2  C   UNL     1      -9.066   9.347  65.862  1.00  0.00    -0.195 C  
HETATM    3  N   UNL     1      -8.206   8.862  66.970  1.00  0.00    -0.106 N  
HETATM    4  O   UNL     1      -7.284   9.114  64.204  1.00  0.00    -0.094 OA 
HETATM    5  C   UNL     1      -6.787   9.081  66.599  1.00  0.00    -0.080 C  
HETATM    6  C   UNL     1      -6.433   8.549  65.205  1.00  0.00    -0.063 C  
ENDROOT
BRANCH   3   7
HETATM    7  S   UNL     1      -8.630   9.270  68.548  1.00  0.00    -0.128 SA 
BRANCH   7   8
HETATM    8  C   UNL     1      -9.198  10.932  68.396  1.00  0.00    -0.168 A  
HETATM    9  N   UNL     1     -10.469  11.266  68.437  1.00  0.00    -0.188 NA 
HETATM   10  C   UNL     1     -10.593  12.639  68.305  1.00  0.00    -0.237 A  
HETATM   11  C   UNL     1     -11.800  13.367  68.318  1.00  0.00    -0.393 A  
HETATM   12  C   UNL     1     -11.777  14.759  68.179  1.00  0.00    -0.353 A  
HETATM   13  C   UNL     1     -10.572  15.433  68.023  1.00  0.00    -0.263 A  
HETATM   14  C   UNL     1      -9.359  14.735  68.003  1.00  0.00    -0.196 A  
HETATM   15  C   UNL     1      -9.394  13.339  68.150  1.00  0.00    -0.220 A  
HETATM   16  S   UNL     1      -8.088  12.220  68.184  1.00  0.00    -0.165 SA 
ENDBRANCH   7   8
ENDBRANCH   3   7
TORSDOF 2
ENDMDL
MODEL      205
REMARK 921   NORMALIZED FREE ENERGY PREDICTED BY IDOCK:   -2.62 KCAL/MOL
REMARK 922        TOTAL FREE ENERGY PREDICTED BY IDOCK:   -3.12 KCAL/MOL
REMARK 923 INTER-LIGAND FREE ENERGY PREDICTED BY IDOCK:   -4.26 KCAL/MOL
REMARK 924 INTRA-LIGAND FREE ENERGY PREDICTED BY IDOCK:    1.14 KCAL/MOL
REMARK 927      BINDING AFFINITY PREDICTED BY RF-SCORE:    0.00 PKD
ROOT
HETATM    1  C   UNL     1     -12.855  13.075  71.112  1.00  0.00    -0.245 C  
HETATM    2  C   UNL     1     -11.986  13.111  69.850  1.00  0.00    -0.317 C  
HETATM    3  N   UNL     1     -12.275  14.285  68.988  1.00  0.00    -0.278 N  
HETATM    4  O   UNL     1     -12.690  14.267  71.886  1.00  0.00    -0.328 OA 
HETATM    5  C   UNL     1     -12.235  15.508  69.828  1.00  0.00    -0.302 C  
HETATM    6  C   UNL     1     -13.079  15.399  71.103  1.00  0.00    -0.498 C  
ENDROOT
BRANCH   3   7
HETATM    7  S   UNL     1     -11.507  14.388  67.493  1.00  0.00    -0.366 SA 
BRANCH   7   8
HETATM    8  C   UNL     1     -10.999  12.728  67.186  1.00  0.00    -0.263 A  
HETATM    9  N   UNL     1      -9.960  12.418  66.443  1.00  0.00    -0.236 NA 
HETATM   10  C   UNL     1      -9.811  11.042  66.404  1.00  0.00    -0.212 A  
HETATM   11  C   UNL     1      -8.799  10.337  65.721  1.00  0.00    -0.179 A  
HETATM   12  C   UNL     1      -8.765   8.940  65.773  1.00  0.00    -0.205 A  
HETATM   13  C   UNL     1      -9.726   8.236  66.490  1.00  0.00    -0.323 A  
HETATM   14  C   UNL     1     -10.743   8.910  67.175  1.00  0.00    -0.203 A  
HETATM   15  C   UNL     1     -10.763  10.313  67.121  1.00  0.00    -0.241 A  
HETATM   16  S   UNL     1     -11.861  11.410  67.864  1.00  0.00    -0.063 SA 
ENDBRANCH   7   8
ENDBRANCH   3   7
TORSDOF 2
ENDMDL
MODEL      206
REMARK 921   NORMALIZED FREE ENERGY PREDICTED BY IDOCK:   -2.58 KCAL/MOL
REMARK 922        TOTAL FREE ENERGY PREDICTED BY IDOCK:   -3.07 KCAL/MOL
REMARK 923 INTER-LIGAND FREE ENERGY PREDICTED BY IDOCK:   -3.19 KCAL/MOL
REMARK 924 INTRA-LIGAND FREE ENERGY PREDICTED BY IDOCK:    0.11 KCAL/MOL
REMARK 927      BINDING AFFINITY PREDICTED BY RF-SCORE:    0.00 PKD
ROOT
HETATM    1  C   UNL     1      -6.209   5.641  69.121  1.00  0.00    -0.029 C  
HETATM    2  C   UNL     1      -7.735   5.776  69.050  1.00  0.00    -0.090 C  
HETATM    3  N   UNL     1      -8.321   5.057  67.892  1.00  0.00    -0.101 N  
HETATM    4  O   UNL     1      -5.816   4.267  69.184  1.00  0.00    -0.020 OA 
HETATM    5  C   UNL     1      -7.802   3.667  67.887  1.00  0.00    -0.069 C  
HETATM    6  C   UNL     1      -6.276   3.587  68.013  1.00  0.00    -0.032 C  
ENDROOT
BRANCH   3   7
HETATM    7  S   UNL     1      -9.970   5.232  67.594  1.00  0.00    -0.163 SA 
BRANCH   7   8
HETATM    8  C   UNL     1     -10.432   6.563  68.654  1.00  0.00    -0.218 A  
HETATM    9  N   UNL     1     -11.218   6.413  69.697  1.00  0.00    -0.395 NA 
HETATM   10  C   UNL     1     -11.381   7.632  70.333  1.00  0.00    -0.219 A  
HETATM   11  C   UNL     1     -12.143   7.864  71.497  1.00  0.00    -0.336 A  
HETATM   12  C   UNL     1     -12.216   9.152  72.038  1.00  0.00    -0.443 A  
HETATM   13  C   UNL     1     -11.546  10.210  71.435  1.00  0.00    -0.315 A  
HETATM   14  C   UNL     1     -10.786  10.010  70.277  1.00  0.00    -0.367 A  
HETATM   15  C   UNL     1     -10.715   8.711  69.747  1.00  0.00    -0.215 A  
HETATM   16  S   UNL     1      -9.858   8.152  68.364  1.00  0.00    -0.177 SA 
ENDBRANCH   7   8
ENDBRANCH   3   7
TORSDOF 2
ENDMDL
MODEL      207
REMARK 921   NORMALIZED FREE ENERGY PREDICTED BY IDOCK:   -2.56 KCAL/MOL
REMARK 922        TOTAL FREE ENERGY PREDICTED BY IDOCK:   -3.05 KCAL/MOL
REMARK 923 INTER-LIGAND FREE ENERGY PREDICTED BY IDOCK:   -3.22 KCAL/MOL
REMARK 924 INTRA-LIGAND FREE ENERGY PREDICTED BY IDOCK:    0.17 KCAL/MOL
REMARK 927      BINDING AFFINITY PREDICTED BY RF-SCORE:    0.00 PKD
ROOT
HETATM    1  C   UNL     1     -11.896  12.012  65.259  1.00  0.00    -0.205 C  
HETATM    2  C   UNL     1     -10.694  12.062  66.209  1.00  0.00    -0.267 C  
HETATM    3  N   UNL     1     -10.001  13.375  66.188  1.00  0.00    -0.291 N  
HETATM    4  O   UNL     1     -12.843  13.039  65.570  1.00  0.00    -0.509 OA 
HETATM    5  C   UNL     1     -11.011  14.445  66.378  1.00  0.00    -0.319 C  
HETATM    6  C   UNL     1     -12.217  14.318  65.439  1.00  0.00    -0.405 C  
ENDROOT
BRANCH   3   7
HETATM    7  S   UNL     1      -8.574  13.539  67.068  1.00  0.00    -0.104 SA 
BRANCH   7   8
HETATM    8  C   UNL     1      -8.299  11.915  67.697  1.00  0.00    -0.152 A  
HETATM    9  N   UNL     1      -9.064  11.356  68.608  1.00  0.00    -0.165 NA 
HETATM   10  C   UNL     1      -8.602  10.080  68.883  1.00  0.00    -0.138 A  
HETATM   11  C   UNL     1      -9.175   9.170  69.795  1.00  0.00    -0.179 A  
HETATM   12  C   UNL     1      -8.605   7.905  69.969  1.00  0.00    -0.135 A  
HETATM   13  C   UNL     1      -7.471   7.536  69.253  1.00  0.00    -0.091 A  
HETATM   14  C   UNL     1      -6.880   8.421  68.344  1.00  0.00    -0.065 A  
HETATM   15  C   UNL     1      -7.466   9.685  68.172  1.00  0.00    -0.082 A  
HETATM   16  S   UNL     1      -6.988  10.967  67.130  1.00  0.00    -0.111 SA 
ENDBRANCH   7   8
ENDBRANCH   3   7
TORSDOF 2
ENDMDL
MODEL      208
REMARK 921   NORMALIZED FREE ENERGY PREDICTED BY IDOCK:   -2.54 KCAL/MOL
REMARK 922        TOTAL FREE ENERGY PREDICTED BY IDOCK:   -3.03 KCAL/MOL
REMARK 923 INTER-LIGAND FREE ENERGY PREDICTED BY IDOCK:   -2.83 KCAL/MOL
REMARK 924 INTRA-LIGAND FREE ENERGY PREDICTED BY IDOCK:   -0.21 KCAL/MOL
REMARK 927      BINDING AFFINITY PREDICTED BY RF-SCORE:    0.00 PKD
ROOT
HETATM    1  C   UNL     1      -6.220   5.477  70.125  1.00  0.00    -0.026 C  
HETATM    2  C   UNL     1      -7.670   5.887  70.410  1.00  0.00    -0.096 C  
HETATM    3  N   UNL     1      -8.584   5.580  69.282  1.00  0.00    -0.103 N  
HETATM    4  O   UNL     1      -6.129   4.081  69.823  1.00  0.00    -0.022 OA 
HETATM    5  C   UNL     1      -8.387   4.164  68.885  1.00  0.00    -0.078 C  
HETATM    6  C   UNL     1      -6.915   3.794  68.664  1.00  0.00    -0.047 C  
ENDROOT
BRANCH   3   7
HETATM    7  S   UNL     1     -10.182   6.104  69.384  1.00  0.00    -0.219 SA 
BRANCH   7   8
HETATM    8  C   UNL     1     -10.205   7.532  68.350  1.00  0.00    -0.185 A  
HETATM    9  N   UNL     1     -10.882   8.620  68.640  1.00  0.00    -0.039 NA 
HETATM   10  C   UNL     1     -10.688   9.565  67.646  1.00  0.00    -0.250 A  
HETATM   11  C   UNL     1     -11.241  10.862  67.617  1.00  0.00    -0.379 A  
HETATM   12  C   UNL     1     -10.955  11.719  66.549  1.00  0.00    -0.342 A  
HETATM   13  C   UNL     1     -10.132  11.300  65.509  1.00  0.00    -0.306 A  
HETATM   14  C   UNL     1      -9.573  10.018  65.511  1.00  0.00    -0.328 A  
HETATM   15  C   UNL     1      -9.862   9.170  66.592  1.00  0.00    -0.240 A  
HETATM   16  S   UNL     1      -9.317   7.564  66.884  1.00  0.00    -0.166 SA 
ENDBRANCH   7   8
ENDBRANCH   3   7
TORSDOF 2
ENDMDL
MODEL      209
REMARK 921   NORMALIZED FREE ENERGY PREDICTED BY IDOCK:   -2.54 KCAL/MOL
REMARK 922        TOTAL FREE ENERGY PREDICTED BY IDOCK:   -3.03 KCAL/MOL
REMARK 923 INTER-LIGAND FREE ENERGY PREDICTED BY IDOCK:   -3.20 KCAL/MOL
REMARK 924 INTRA-LIGAND FREE ENERGY PREDICTED BY IDOCK:    0.17 KCAL/MOL
REMARK 927      BINDING AFFINITY PREDICTED BY RF-SCORE:    0.00 PKD
ROOT
HETATM    1  C   UNL     1     -11.718  11.622  68.720  1.00  0.00    -0.330 C  
HETATM    2  C   UNL     1     -10.306  11.031  68.622  1.00  0.00    -0.193 C  
HETATM    3  N   UNL     1      -9.734  11.137  67.257  1.00  0.00    -0.165 N  
HETATM    4  O   UNL     1     -11.731  12.995  68.319  1.00  0.00    -0.314 OA 
HETATM    5  C   UNL     1      -9.873  12.539  66.793  1.00  0.00    -0.229 C  
HETATM    6  C   UNL     1     -11.291  13.098  66.961  1.00  0.00    -0.312 C  
ENDROOT
BRANCH   3   7
HETATM    7  S   UNL     1      -8.249  10.401  66.954  1.00  0.00    -0.126 SA 
BRANCH   7   8
HETATM    8  C   UNL     1      -8.684   8.716  66.671  1.00  0.00    -0.123 A  
HETATM    9  N   UNL     1      -8.073   7.952  65.793  1.00  0.00    -0.115 NA 
HETATM   10  C   UNL     1      -8.630   6.684  65.815  1.00  0.00    -0.140 A  
HETATM   11  C   UNL     1      -8.227   5.589  65.023  1.00  0.00    -0.139 A  
HETATM   12  C   UNL     1      -8.877   4.358  65.154  1.00  0.00    -0.138 A  
HETATM   13  C   UNL     1      -9.924   4.204  66.056  1.00  0.00    -0.193 A  
HETATM   14  C   UNL     1     -10.346   5.274  66.851  1.00  0.00    -0.303 A  
HETATM   15  C   UNL     1      -9.681   6.504  66.717  1.00  0.00    -0.164 A  
HETATM   16  S   UNL     1      -9.954   7.980  67.556  1.00  0.00    -0.214 SA 
ENDBRANCH   7   8
ENDBRANCH   3   7
TORSDOF 2
ENDMDL
MODEL      210
REMARK 921   NORMALIZED FREE ENERGY PREDICTED BY IDOCK:   -2.48 KCAL/MOL
REMARK 922        TOTAL FREE ENERGY PREDICTED BY IDOCK:   -2.96 KCAL/MOL
REMARK 923 INTER-LIGAND FREE ENERGY PREDICTED BY IDOCK:   -2.75 KCAL/MOL
REMARK 924 INTRA-LIGAND FREE ENERGY PREDICTED BY IDOCK:   -0.21 KCAL/MOL
REMARK 927      BINDING AFFINITY PREDICTED BY RF-SCORE:    0.00 PKD
ROOT
HETATM    1  C   UNL     1     -11.715  12.451  68.177  1.00  0.00    -0.353 C  
HETATM    2  C   UNL     1     -10.194  12.408  68.359  1.00  0.00    -0.225 C  
HETATM    3  N   UNL     1      -9.497  11.765  67.217  1.00  0.00    -0.169 N  
HETATM    4  O   UNL     1     -12.072  13.137  66.972  1.00  0.00    -0.376 OA 
HETATM    5  C   UNL     1      -9.973  12.392  65.959  1.00  0.00    -0.255 C  
HETATM    6  C   UNL     1     -11.501  12.456  65.851  1.00  0.00    -0.374 C  
ENDROOT
BRANCH   3   7
HETATM    7  S   UNL     1      -7.836  11.510  67.335  1.00  0.00    -0.151 SA 
BRANCH   7   8
HETATM    8  C   UNL     1      -7.715  10.151  68.451  1.00  0.00    -0.089 A  
HETATM    9  N   UNL     1      -7.229  10.258  69.667  1.00  0.00    -0.123 NA 
HETATM   10  C   UNL     1      -7.280   9.026  70.298  1.00  0.00    -0.058 A  
HETATM   11  C   UNL     1      -6.862   8.752  71.616  1.00  0.00    -0.085 A  
HETATM   12  C   UNL     1      -6.978   7.456  72.130  1.00  0.00    -0.063 A  
HETATM   13  C   UNL     1      -7.497   6.431  71.348  1.00  0.00    -0.089 A  
HETATM   14  C   UNL     1      -7.917   6.673  70.035  1.00  0.00    -0.116 A  
HETATM   15  C   UNL     1      -7.803   7.980  69.533  1.00  0.00    -0.105 A  
HETATM   16  S   UNL     1      -8.243   8.588  67.985  1.00  0.00    -0.120 SA 
ENDBRANCH   7   8
ENDBRANCH   3   7
TORSDOF 2
ENDMDL
MODEL      211
REMARK 921   NORMALIZED FREE ENERGY PREDICTED BY IDOCK:   -2.47 KCAL/MOL
REMARK 922        TOTAL FREE ENERGY PREDICTED BY IDOCK:   -2.95 KCAL/MOL
REMARK 923 INTER-LIGAND FREE ENERGY PREDICTED BY IDOCK:   -2.80 KCAL/MOL
REMARK 924 INTRA-LIGAND FREE ENERGY PREDICTED BY IDOCK:   -0.15 KCAL/MOL
REMARK 927      BINDING AFFINITY PREDICTED BY RF-SCORE:    0.00 PKD
ROOT
HETATM    1  C   UNL     1     -12.091  12.158  70.610  1.00  0.00    -0.250 C  
HETATM    2  C   UNL     1     -11.352  11.434  69.478  1.00  0.00    -0.289 C  
HETATM    3  N   UNL     1     -10.617  10.233  69.949  1.00  0.00    -0.273 N  
HETATM    4  O   UNL     1     -13.011  11.281  71.268  1.00  0.00    -0.381 OA 
HETATM    5  C   UNL     1     -11.545   9.393  70.745  1.00  0.00    -0.298 C  
HETATM    6  C   UNL     1     -12.296  10.177  71.829  1.00  0.00    -0.310 C  
ENDROOT
BRANCH   3   7
HETATM    7  S   UNL     1      -9.636   9.416  68.850  1.00  0.00    -0.159 SA 
BRANCH   7   8
HETATM    8  C   UNL     1      -8.762   8.269  69.865  1.00  0.00    -0.134 A  
HETATM    9  N   UNL     1      -9.154   7.028  70.052  1.00  0.00    -0.145 NA 
HETATM   10  C   UNL     1      -8.256   6.379  70.882  1.00  0.00    -0.125 A  
HETATM   11  C   UNL     1      -8.334   5.033  71.295  1.00  0.00    -0.117 A  
HETATM   12  C   UNL     1      -7.349   4.503  72.136  1.00  0.00    -0.072 A  
HETATM   13  C   UNL     1      -6.294   5.294  72.573  1.00  0.00    -0.043 A  
HETATM   14  C   UNL     1      -6.193   6.633  72.182  1.00  0.00    -0.042 A  
HETATM   15  C   UNL     1      -7.184   7.153  71.333  1.00  0.00    -0.077 A  
HETATM   16  S   UNL     1      -7.324   8.735  70.673  1.00  0.00    -0.084 SA 
ENDBRANCH   7   8
ENDBRANCH   3   7
TORSDOF 2
ENDMDL
MODEL      212
REMARK 921   NORMALIZED FREE ENERGY PREDICTED BY IDOCK:   -2.40 KCAL/MOL
REMARK 922        TOTAL FREE ENERGY PREDICTED BY IDOCK:   -2.87 KCAL/MOL
REMARK 923 INTER-LIGAND FREE ENERGY PREDICTED BY IDOCK:   -2.86 KCAL/MOL
REMARK 924 INTRA-LIGAND FREE ENERGY PREDICTED BY IDOCK:   -0.01 KCAL/MOL
REMARK 927      BINDING AFFINITY PREDICTED BY RF-SCORE:    0.00 PKD
ROOT
HETATM    1  C   UNL     1      -8.726   6.564  70.709  1.00  0.00    -0.143 C  
HETATM    2  C   UNL     1      -9.110   6.958  69.278  1.00  0.00    -0.140 C  
HETATM    3  N   UNL     1     -10.286   6.207  68.772  1.00  0.00    -0.187 N  
HETATM    4  O   UNL     1      -9.821   6.760  71.609  1.00  0.00    -0.167 OA 
HETATM    5  C   UNL     1     -11.375   6.304  69.776  1.00  0.00    -0.436 C  
HETATM    6  C   UNL     1     -10.925   5.949  71.198  1.00  0.00    -0.260 C  
ENDROOT
BRANCH   3   7
HETATM    7  S   UNL     1     -10.740   6.422  67.164  1.00  0.00    -0.395 SA 
BRANCH   7   8
HETATM    8  C   UNL     1      -9.807   5.192  66.314  1.00  0.00    -0.192 A  
HETATM    9  N   UNL     1     -10.338   4.349  65.457  1.00  0.00    -0.255 NA 
HETATM   10  C   UNL     1      -9.351   3.521  64.948  1.00  0.00    -0.153 A  
HETATM   11  C   UNL     1      -9.536   2.502  63.991  1.00  0.00    -0.140 A  
HETATM   12  C   UNL     1      -8.443   1.742  63.560  1.00  0.00    -0.080 A  
HETATM   13  C   UNL     1      -7.173   1.980  64.072  1.00  0.00    -0.055 A  
HETATM   14  C   UNL     1      -6.961   2.983  65.024  1.00  0.00    -0.053 A  
HETATM   15  C   UNL     1      -8.064   3.743  65.444  1.00  0.00    -0.097 A  
HETATM   16  S   UNL     1      -8.119   5.040  66.573  1.00  0.00    -0.108 SA 
ENDBRANCH   7   8
ENDBRANCH   3   7
TORSDOF 2
ENDMDL
MODEL      213
REMARK 921   NORMALIZED FREE ENERGY PREDICTED BY IDOCK:   -2.40 KCAL/MOL
REMARK 922        TOTAL FREE ENERGY PREDICTED BY IDOCK:   -2.87 KCAL/MOL
REMARK 923 INTER-LIGAND FREE ENERGY PREDICTED BY IDOCK:   -2.68 KCAL/MOL
REMARK 924 INTRA-LIGAND FREE ENERGY PREDICTED BY IDOCK:   -0.19 KCAL/MOL
REMARK 927      BINDING AFFINITY PREDICTED BY RF-SCORE:    0.00 PKD
ROOT
HETATM    1  C   UNL     1      -9.639  10.051  69.542  1.00  0.00    -0.230 C  
HETATM    2  C   UNL     1      -9.712   8.522  69.642  1.00  0.00    -0.179 C  
HETATM    3  N   UNL     1     -10.690   7.932  68.695  1.00  0.00    -0.101 N  
HETATM    4  O   UNL     1      -9.304  10.465  68.214  1.00  0.00    -0.142 OA 
HETATM    5  C   UNL     1     -10.420   8.472  67.339  1.00  0.00    -0.280 C  
HETATM    6  C   UNL     1     -10.305  10.000  67.305  1.00  0.00    -0.237 C  
ENDROOT
BRANCH   3   7
HETATM    7  S   UNL     1     -10.992   6.277  68.786  1.00  0.00    -0.332 SA 
BRANCH   7   8
HETATM    8  C   UNL     1      -9.957   5.608  67.526  1.00  0.00    -0.154 A  
HETATM    9  N   UNL     1     -10.415   5.169  66.375  1.00  0.00    -0.294 NA 
HETATM   10  C   UNL     1      -9.361   4.722  65.596  1.00  0.00    -0.163 A  
HETATM   11  C   UNL     1      -9.460   4.194  64.292  1.00  0.00    -0.160 A  
HETATM   12  C   UNL     1      -8.306   3.785  63.616  1.00  0.00    -0.091 A  
HETATM   13  C   UNL     1      -7.059   3.888  64.221  1.00  0.00    -0.050 A  
HETATM   14  C   UNL     1      -6.932   4.404  65.515  1.00  0.00    -0.059 A  
HETATM   15  C   UNL     1      -8.096   4.819  66.181  1.00  0.00    -0.107 A  
HETATM   16  S   UNL     1      -8.261   5.503  67.751  1.00  0.00    -0.100 SA 
ENDBRANCH   7   8
ENDBRANCH   3   7
TORSDOF 2
ENDMDL
MODEL      214
REMARK 921   NORMALIZED FREE ENERGY PREDICTED BY IDOCK:   -2.35 KCAL/MOL
REMARK 922        TOTAL FREE ENERGY PREDICTED BY IDOCK:   -2.81 KCAL/MOL
REMARK 923 INTER-LIGAND FREE ENERGY PREDICTED BY IDOCK:   -2.93 KCAL/MOL
REMARK 924 INTRA-LIGAND FREE ENERGY PREDICTED BY IDOCK:    0.12 KCAL/MOL
REMARK 927      BINDING AFFINITY PREDICTED BY RF-SCORE:    0.00 PKD
ROOT
HETATM    1  C   UNL     1      -8.359   8.367  71.577  1.00  0.00    -0.154 C  
HETATM    2  C   UNL     1      -9.353   9.393  71.020  1.00  0.00    -0.140 C  
HETATM    3  N   UNL     1      -9.655   9.177  69.583  1.00  0.00    -0.169 N  
HETATM    4  O   UNL     1      -8.843   7.032  71.402  1.00  0.00    -0.129 OA 
HETATM    5  C   UNL     1     -10.028   7.754  69.387  1.00  0.00    -0.188 C  
HETATM    6  C   UNL     1      -9.027   6.772  70.008  1.00  0.00    -0.141 C  
ENDROOT
BRANCH   3   7
HETATM    7  S   UNL     1     -10.617  10.310  68.790  1.00  0.00    -0.223 SA 
BRANCH   7   8
HETATM    8  C   UNL     1     -10.169  10.105  67.098  1.00  0.00    -0.225 A  
HETATM    9  N   UNL     1      -9.481   9.076  66.654  1.00  0.00    -0.177 NA 
HETATM   10  C   UNL     1      -9.303   9.193  65.286  1.00  0.00    -0.156 A  
HETATM   11  C   UNL     1      -8.627   8.274  64.457  1.00  0.00     0.033 A  
HETATM   12  C   UNL     1      -8.527   8.516  63.083  1.00  0.00    -0.061 A  
HETATM   13  C   UNL     1      -9.085   9.661  62.525  1.00  0.00    -0.283 A  
HETATM   14  C   UNL     1      -9.758  10.591  63.324  1.00  0.00    -0.361 A  
HETATM   15  C   UNL     1      -9.858  10.334  64.701  1.00  0.00    -0.327 A  
HETATM   16  S   UNL     1     -10.628  11.267  65.924  1.00  0.00    -0.228 SA 
ENDBRANCH   7   8
ENDBRANCH   3   7
TORSDOF 2
ENDMDL
MODEL      215
REMARK 921   NORMALIZED FREE ENERGY PREDICTED BY IDOCK:   -2.35 KCAL/MOL
REMARK 922        TOTAL FREE ENERGY PREDICTED BY IDOCK:   -2.81 KCAL/MOL
REMARK 923 INTER-LIGAND FREE ENERGY PREDICTED BY IDOCK:   -2.73 KCAL/MOL
REMARK 924 INTRA-LIGAND FREE ENERGY PREDICTED BY IDOCK:   -0.08 KCAL/MOL
REMARK 927      BINDING AFFINITY PREDICTED BY RF-SCORE:    0.00 PKD
ROOT
HETATM    1  C   UNL     1      -8.484   2.729  73.809  1.00  0.00    -0.072 C  
HETATM    2  C   UNL     1      -7.823   3.825  72.964  1.00  0.00    -0.078 C  
HETATM    3  N   UNL     1      -8.080   3.663  71.511  1.00  0.00    -0.064 N  
HETATM    4  O   UNL     1      -9.897   2.693  73.591  1.00  0.00    -0.096 OA 
HETATM    5  C   UNL     1      -9.539   3.490  71.306  1.00  0.00    -0.172 C  
HETATM    6  C   UNL     1     -10.159   2.419  72.212  1.00  0.00    -0.155 C  
ENDROOT
BRANCH   3   7
HETATM    7  S   UNL     1      -7.299   4.703  70.441  1.00  0.00    -0.050 SA 
BRANCH   7   8
HETATM    8  C   UNL     1      -8.392   6.083  70.350  1.00  0.00    -0.124 A  
HETATM    9  N   UNL     1      -8.842   6.717  71.410  1.00  0.00    -0.139 NA 
HETATM   10  C   UNL     1      -9.663   7.759  71.014  1.00  0.00    -0.163 A  
HETATM   11  C   UNL     1     -10.316   8.670  71.869  1.00  0.00    -0.405 A  
HETATM   12  C   UNL     1     -11.115   9.683  71.329  1.00  0.00    -0.426 A  
HETATM   13  C   UNL     1     -11.277   9.797  69.953  1.00  0.00    -0.271 A  
HETATM   14  C   UNL     1     -10.645   8.904  69.082  1.00  0.00    -0.211 A  
HETATM   15  C   UNL     1      -9.839   7.896  69.635  1.00  0.00    -0.179 A  
HETATM   16  S   UNL     1      -8.929   6.675  68.834  1.00  0.00    -0.128 SA 
ENDBRANCH   7   8
ENDBRANCH   3   7
TORSDOF 2
ENDMDL
MODEL      216
REMARK 921   NORMALIZED FREE ENERGY PREDICTED BY IDOCK:   -2.32 KCAL/MOL
REMARK 922        TOTAL FREE ENERGY PREDICTED BY IDOCK:   -2.79 KCAL/MOL
REMARK 923 INTER-LIGAND FREE ENERGY PREDICTED BY IDOCK:   -2.66 KCAL/MOL
REMARK 924 INTRA-LIGAND FREE ENERGY PREDICTED BY IDOCK:   -0.13 KCAL/MOL
REMARK 927      BINDING AFFINITY PREDICTED BY RF-SCORE:    0.00 PKD
ROOT
HETATM    1  C   UNL     1     -12.767   8.741  71.529  1.00  0.00    -0.328 C  
HETATM    2  C   UNL     1     -11.717   7.684  71.167  1.00  0.00    -0.290 C  
HETATM    3  N   UNL     1     -11.213   7.829  69.779  1.00  0.00    -0.088 N  
HETATM    4  O   UNL     1     -12.247  10.063  71.361  1.00  0.00    -0.362 OA 
HETATM    5  C   UNL     1     -10.800   9.238  69.570  1.00  0.00    -0.195 C  
HETATM    6  C   UNL     1     -11.866  10.255  69.996  1.00  0.00    -0.228 C  
ENDROOT
BRANCH   3   7
HETATM    7  S   UNL     1     -10.163   6.654  69.184  1.00  0.00    -0.191 SA 
BRANCH   7   8
HETATM    8  C   UNL     1      -9.290   6.127  70.622  1.00  0.00    -0.165 A  
HETATM    9  N   UNL     1      -9.682   5.124  71.376  1.00  0.00    -0.161 NA 
HETATM   10  C   UNL     1      -8.785   4.947  72.416  1.00  0.00    -0.123 A  
HETATM   11  C   UNL     1      -8.864   3.960  73.419  1.00  0.00    -0.096 A  
HETATM   12  C   UNL     1      -7.880   3.892  74.410  1.00  0.00    -0.082 A  
HETATM   13  C   UNL     1      -6.823   4.795  74.419  1.00  0.00    -0.071 A  
HETATM   14  C   UNL     1      -6.722   5.787  73.438  1.00  0.00    -0.079 A  
HETATM   15  C   UNL     1      -7.712   5.841  72.444  1.00  0.00    -0.102 A  
HETATM   16  S   UNL     1      -7.851   6.920  71.111  1.00  0.00    -0.101 SA 
ENDBRANCH   7   8
ENDBRANCH   3   7
TORSDOF 2
ENDMDL
MODEL      217
REMARK 921   NORMALIZED FREE ENERGY PREDICTED BY IDOCK:   -2.31 KCAL/MOL
REMARK 922        TOTAL FREE ENERGY PREDICTED BY IDOCK:   -2.77 KCAL/MOL
REMARK 923 INTER-LIGAND FREE ENERGY PREDICTED BY IDOCK:   -2.58 KCAL/MOL
REMARK 924 INTRA-LIGAND FREE ENERGY PREDICTED BY IDOCK:   -0.18 KCAL/MOL
REMARK 927      BINDING AFFINITY PREDICTED BY RF-SCORE:    0.00 PKD
ROOT
HETATM    1  C   UNL     1      -8.688   6.604  70.707  1.00  0.00    -0.143 C  
HETATM    2  C   UNL     1      -9.162   7.092  69.333  1.00  0.00    -0.148 C  
HETATM    3  N   UNL     1     -10.356   6.359  68.844  1.00  0.00    -0.183 N  
HETATM    4  O   UNL     1      -9.730   6.716  71.681  1.00  0.00    -0.164 OA 
HETATM    5  C   UNL     1     -11.385   6.364  69.914  1.00  0.00    -0.434 C  
HETATM    6  C   UNL     1     -10.846   5.917  71.278  1.00  0.00    -0.270 C  
ENDROOT
BRANCH   3   7
HETATM    7  S   UNL     1     -10.908   6.679  67.285  1.00  0.00    -0.395 SA 
BRANCH   7   8
HETATM    8  C   UNL     1      -9.669   5.956  66.262  1.00  0.00    -0.096 A  
HETATM    9  N   UNL     1      -8.608   6.610  65.843  1.00  0.00    -0.147 NA 
HETATM   10  C   UNL     1      -7.819   5.771  65.074  1.00  0.00    -0.107 A  
HETATM   11  C   UNL     1      -6.594   6.113  64.466  1.00  0.00    -0.038 A  
HETATM   12  C   UNL     1      -5.896   5.158  63.719  1.00  0.00    -0.017 A  
HETATM   13  C   UNL     1      -6.403   3.873  63.565  1.00  0.00    -0.026 A  
HETATM   14  C   UNL     1      -7.617   3.507  64.155  1.00  0.00    -0.075 A  
HETATM   15  C   UNL     1      -8.306   4.472  64.908  1.00  0.00    -0.121 A  
HETATM   16  S   UNL     1      -9.794   4.322  65.758  1.00  0.00    -0.221 SA 
ENDBRANCH   7   8
ENDBRANCH   3   7
TORSDOF 2
ENDMDL
MODEL      218
REMARK 921   NORMALIZED FREE ENERGY PREDICTED BY IDOCK:   -2.28 KCAL/MOL
REMARK 922        TOTAL FREE ENERGY PREDICTED BY IDOCK:   -2.74 KCAL/MOL
REMARK 923 INTER-LIGAND FREE ENERGY PREDICTED BY IDOCK:   -2.53 KCAL/MOL
REMARK 924 INTRA-LIGAND FREE ENERGY PREDICTED BY IDOCK:   -0.21 KCAL/MOL
REMARK 927      BINDING AFFINITY PREDICTED BY RF-SCORE:    0.00 PKD
ROOT
HETATM    1  C   UNL     1     -10.689   7.804  70.083  1.00  0.00    -0.240 C  
HETATM    2  C   UNL     1     -10.796   8.934  69.053  1.00  0.00    -0.046 C  
HETATM    3  N   UNL     1     -10.384   8.511  67.691  1.00  0.00    -0.242 N  
HETATM    4  O   UNL     1     -11.476   6.674  69.692  1.00  0.00    -0.338 OA 
HETATM    5  C   UNL     1     -11.106   7.261  67.346  1.00  0.00    -0.068 C  
HETATM    6  C   UNL     1     -11.010   6.183  68.433  1.00  0.00    -0.305 C  
ENDROOT
BRANCH   3   7
HETATM    7  S   UNL     1     -10.306   9.679  66.480  1.00  0.00    -0.151 SA 
BRANCH   7   8
HETATM    8  C   UNL     1      -9.314  10.944  67.204  1.00  0.00    -0.159 A  
HETATM    9  N   UNL     1      -9.811  12.061  67.686  1.00  0.00    -0.186 NA 
HETATM   10  C   UNL     1      -8.786  12.842  68.196  1.00  0.00    -0.194 A  
HETATM   11  C   UNL     1      -8.933  14.103  68.810  1.00  0.00    -0.065 A  
HETATM   12  C   UNL     1      -7.807  14.781  69.288  1.00  0.00    -0.122 A  
HETATM   13  C   UNL     1      -6.539  14.224  69.159  1.00  0.00    -0.114 A  
HETATM   14  C   UNL     1      -6.365  12.976  68.551  1.00  0.00    -0.081 A  
HETATM   15  C   UNL     1      -7.503  12.302  68.081  1.00  0.00    -0.112 A  
HETATM   16  S   UNL     1      -7.613  10.765  67.315  1.00  0.00    -0.105 SA 
ENDBRANCH   7   8
ENDBRANCH   3   7
TORSDOF 2
ENDMDL
MODEL      219
REMARK 921   NORMALIZED FREE ENERGY PREDICTED BY IDOCK:   -2.23 KCAL/MOL
REMARK 922        TOTAL FREE ENERGY PREDICTED BY IDOCK:   -2.68 KCAL/MOL
REMARK 923 INTER-LIGAND FREE ENERGY PREDICTED BY IDOCK:   -2.48 KCAL/MOL
REMARK 924 INTRA-LIGAND FREE ENERGY PREDICTED BY IDOCK:   -0.21 KCAL/MOL
REMARK 927      BINDING AFFINITY PREDICTED BY RF-SCORE:    0.00 PKD
ROOT
HETATM    1  C   UNL     1      -6.033   2.983  66.332  1.00  0.00    -0.024 C  
HETATM    2  C   UNL     1      -6.781   4.321  66.320  1.00  0.00    -0.053 C  
HETATM    3  N   UNL     1      -7.517   4.555  65.052  1.00  0.00    -0.072 N  
HETATM    4  O   UNL     1      -6.928   1.890  66.109  1.00  0.00    -0.041 OA 
HETATM    5  C   UNL     1      -8.343   3.358  64.757  1.00  0.00    -0.090 C  
HETATM    6  C   UNL     1      -7.558   2.043  64.834  1.00  0.00    -0.067 C  
ENDROOT
BRANCH   3   7
HETATM    7  S   UNL     1      -8.267   6.046  64.828  1.00  0.00    -0.090 SA 
BRANCH   7   8
HETATM    8  C   UNL     1      -8.991   6.375  66.401  1.00  0.00    -0.153 A  
HETATM    9  N   UNL     1      -8.527   7.282  67.232  1.00  0.00    -0.118 NA 
HETATM   10  C   UNL     1      -9.315   7.313  68.371  1.00  0.00    -0.143 A  
HETATM   11  C   UNL     1      -9.137   8.168  69.478  1.00  0.00    -0.151 A  
HETATM   12  C   UNL     1     -10.016   8.096  70.564  1.00  0.00    -0.195 A  
HETATM   13  C   UNL     1     -11.063   7.181  70.565  1.00  0.00    -0.299 A  
HETATM   14  C   UNL     1     -11.260   6.318  69.482  1.00  0.00    -0.500 A  
HETATM   15  C   UNL     1     -10.376   6.405  68.394  1.00  0.00    -0.194 A  
HETATM   16  S   UNL     1     -10.370   5.504  66.929  1.00  0.00    -0.286 SA 
ENDBRANCH   7   8
ENDBRANCH   3   7
TORSDOF 2
ENDMDL
MODEL      220
REMARK 921   NORMALIZED FREE ENERGY PREDICTED BY IDOCK:   -2.21 KCAL/MOL
REMARK 922        TOTAL FREE ENERGY PREDICTED BY IDOCK:   -2.66 KCAL/MOL
REMARK 923 INTER-LIGAND FREE ENERGY PREDICTED BY IDOCK:   -2.82 KCAL/MOL
REMARK 924 INTRA-LIGAND FREE ENERGY PREDICTED BY IDOCK:    0.16 KCAL/MOL
REMARK 927      BINDING AFFINITY PREDICTED BY RF-SCORE:    0.00 PKD
ROOT
HETATM    1  C   UNL     1      -6.609   5.039  68.643  1.00  0.00    -0.049 C  
HETATM    2  C   UNL     1      -8.077   5.465  68.532  1.00  0.00    -0.095 C  
HETATM    3  N   UNL     1      -8.787   4.792  67.415  1.00  0.00    -0.103 N  
HETATM    4  O   UNL     1      -6.494   3.623  68.810  1.00  0.00    -0.035 OA 
HETATM    5  C   UNL     1      -8.551   3.331  67.518  1.00  0.00    -0.104 C  
HETATM    6  C   UNL     1      -7.071   2.963  67.680  1.00  0.00    -0.050 C  
ENDROOT
BRANCH   3   7
HETATM    7  S   UNL     1     -10.366   5.265  67.072  1.00  0.00    -0.223 SA 
BRANCH   7   8
HETATM    8  C   UNL     1     -10.380   6.973  67.509  1.00  0.00    -0.225 A  
HETATM    9  N   UNL     1     -10.267   7.942  66.628  1.00  0.00    -0.269 NA 
HETATM   10  C   UNL     1     -10.329   9.165  67.274  1.00  0.00    -0.270 A  
HETATM   11  C   UNL     1     -10.259  10.432  66.659  1.00  0.00    -0.292 A  
HETATM   12  C   UNL     1     -10.340  11.591  67.438  1.00  0.00    -0.235 A  
HETATM   13  C   UNL     1     -10.485  11.506  68.818  1.00  0.00    -0.227 A  
HETATM   14  C   UNL     1     -10.554  10.263  69.455  1.00  0.00    -0.262 A  
HETATM   15  C   UNL     1     -10.478   9.106  68.662  1.00  0.00    -0.207 A  
HETATM   16  S   UNL     1     -10.550   7.456  69.144  1.00  0.00    -0.173 SA 
ENDBRANCH   7   8
ENDBRANCH   3   7
TORSDOF 2
ENDMDL
MODEL      221
REMARK 921   NORMALIZED FREE ENERGY PREDICTED BY IDOCK:   -2.16 KCAL/MOL
REMARK 922        TOTAL FREE ENERGY PREDICTED BY IDOCK:   -2.60 KCAL/MOL
REMARK 923 INTER-LIGAND FREE ENERGY PREDICTED BY IDOCK:   -2.52 KCAL/MOL
REMARK 924 INTRA-LIGAND FREE ENERGY PREDICTED BY IDOCK:   -0.09 KCAL/MOL
REMARK 927      BINDING AFFINITY PREDICTED BY RF-SCORE:    0.00 PKD
ROOT
HETATM    1  C   UNL     1      -5.833   2.788  67.506  1.00  0.00    -0.023 C  
HETATM    2  C   UNL     1      -6.515   4.107  67.125  1.00  0.00    -0.042 C  
HETATM    3  N   UNL     1      -7.753   3.904  66.331  1.00  0.00    -0.088 N  
HETATM    4  O   UNL     1      -6.721   1.942  68.242  1.00  0.00    -0.029 OA 
HETATM    5  C   UNL     1      -8.612   2.921  67.037  1.00  0.00    -0.106 C  
HETATM    6  C   UNL     1      -7.867   1.642  67.441  1.00  0.00    -0.060 C  
ENDROOT
BRANCH   3   7
HETATM    7  S   UNL     1      -8.536   5.261  65.712  1.00  0.00    -0.143 SA 
BRANCH   7   8
HETATM    8  C   UNL     1      -9.166   6.056  67.154  1.00  0.00    -0.117 A  
HETATM    9  N   UNL     1     -10.227   5.633  67.805  1.00  0.00    -0.176 NA 
HETATM   10  C   UNL     1     -10.459   6.453  68.896  1.00  0.00    -0.223 A  
HETATM   11  C   UNL     1     -11.498   6.305  69.837  1.00  0.00    -0.459 A  
HETATM   12  C   UNL     1     -11.611   7.209  70.899  1.00  0.00    -0.350 A  
HETATM   13  C   UNL     1     -10.709   8.258  71.033  1.00  0.00    -0.256 A  
HETATM   14  C   UNL     1      -9.671   8.431  70.111  1.00  0.00    -0.175 A  
HETATM   15  C   UNL     1      -9.563   7.514  69.054  1.00  0.00    -0.153 A  
HETATM   16  S   UNL     1      -8.399   7.451  67.788  1.00  0.00    -0.118 SA 
ENDBRANCH   7   8
ENDBRANCH   3   7
TORSDOF 2
ENDMDL
MODEL      222
REMARK 921   NORMALIZED FREE ENERGY PREDICTED BY IDOCK:   -2.13 KCAL/MOL
REMARK 922        TOTAL FREE ENERGY PREDICTED BY IDOCK:   -2.57 KCAL/MOL
REMARK 923 INTER-LIGAND FREE ENERGY PREDICTED BY IDOCK:   -3.40 KCAL/MOL
REMARK 924 INTRA-LIGAND FREE ENERGY PREDICTED BY IDOCK:    0.83 KCAL/MOL
REMARK 927      BINDING AFFINITY PREDICTED BY RF-SCORE:    0.00 PKD
ROOT
HETATM    1  C   UNL     1      -9.678  11.990  66.529  1.00  0.00    -0.216 C  
HETATM    2  C   UNL     1     -10.415  10.677  66.820  1.00  0.00    -0.247 C  
HETATM    3  N   UNL     1      -9.659   9.483  66.366  1.00  0.00    -0.195 N  
HETATM    4  O   UNL     1      -8.385  12.002  67.140  1.00  0.00    -0.167 OA 
HETATM    5  C   UNL     1      -8.275   9.570  66.893  1.00  0.00    -0.113 C  
HETATM    6  C   UNL     1      -7.604  10.922  66.621  1.00  0.00    -0.139 C  
ENDROOT
BRANCH   3   7
HETATM    7  S   UNL     1     -10.402   7.976  66.482  1.00  0.00     0.122 SA 
BRANCH   7   8
HETATM    8  C   UNL     1     -10.644   7.778  68.217  1.00  0.00    -0.117 A  
HETATM    9  N   UNL     1     -10.818   6.608  68.791  1.00  0.00    -0.260 NA 
HETATM   10  C   UNL     1     -10.964   6.779  70.157  1.00  0.00    -0.292 A  
HETATM   11  C   UNL     1     -11.155   5.753  71.105  1.00  0.00    -0.257 A  
HETATM   12  C   UNL     1     -11.282   6.071  72.461  1.00  0.00    -0.333 A  
HETATM   13  C   UNL     1     -11.229   7.394  72.884  1.00  0.00    -0.368 A  
HETATM   14  C   UNL     1     -11.045   8.433  71.965  1.00  0.00    -0.397 A  
HETATM   15  C   UNL     1     -10.911   8.101  70.608  1.00  0.00    -0.233 A  
HETATM   16  S   UNL     1     -10.659   9.139  69.259  1.00  0.00    -0.189 SA 
ENDBRANCH   7   8
ENDBRANCH   3   7
TORSDOF 2
ENDMDL
MODEL      223
REMARK 921   NORMALIZED FREE ENERGY PREDICTED BY IDOCK:   -2.12 KCAL/MOL
REMARK 922        TOTAL FREE ENERGY PREDICTED BY IDOCK:   -2.56 KCAL/MOL
REMARK 923 INTER-LIGAND FREE ENERGY PREDICTED BY IDOCK:   -2.74 KCAL/MOL
REMARK 924 INTRA-LIGAND FREE ENERGY PREDICTED BY IDOCK:    0.19 KCAL/MOL
REMARK 927      BINDING AFFINITY PREDICTED BY RF-SCORE:    0.00 PKD
ROOT
HETATM    1  C   UNL     1      -9.953   7.227  72.541  1.00  0.00    -0.177 C  
HETATM    2  C   UNL     1      -9.901   6.622  71.133  1.00  0.00    -0.181 C  
HETATM    3  N   UNL     1     -11.117   6.921  70.336  1.00  0.00    -0.279 N  
HETATM    4  O   UNL     1     -10.133   8.645  72.487  1.00  0.00    -0.280 OA 
HETATM    5  C   UNL     1     -11.374   8.381  70.395  1.00  0.00    -0.172 C  
HETATM    6  C   UNL     1     -11.364   8.943  71.822  1.00  0.00    -0.361 C  
ENDROOT
BRANCH   3   7
HETATM    7  S   UNL     1     -11.274   6.203  68.820  1.00  0.00    -0.042 SA 
BRANCH   7   8
HETATM    8  C   UNL     1     -10.025   6.999  67.865  1.00  0.00    -0.154 A  
HETATM    9  N   UNL     1     -10.276   7.654  66.753  1.00  0.00    -0.276 NA 
HETATM   10  C   UNL     1      -9.097   8.176  66.246  1.00  0.00    -0.185 A  
HETATM   11  C   UNL     1      -8.971   8.952  65.076  1.00  0.00    -0.160 A  
HETATM   12  C   UNL     1      -7.713   9.422  64.683  1.00  0.00    -0.117 A  
HETATM   13  C   UNL     1      -6.582   9.126  65.435  1.00  0.00    -0.069 A  
HETATM   14  C   UNL     1      -6.678   8.356  66.599  1.00  0.00    -0.061 A  
HETATM   15  C   UNL     1      -7.947   7.896  66.988  1.00  0.00    -0.112 A  
HETATM   16  S   UNL     1      -8.384   6.955  68.360  1.00  0.00    -0.120 SA 
ENDBRANCH   7   8
ENDBRANCH   3   7
TORSDOF 2
ENDMDL
MODEL      224
REMARK 921   NORMALIZED FREE ENERGY PREDICTED BY IDOCK:   -2.10 KCAL/MOL
REMARK 922        TOTAL FREE ENERGY PREDICTED BY IDOCK:   -2.53 KCAL/MOL
REMARK 923 INTER-LIGAND FREE ENERGY PREDICTED BY IDOCK:   -2.32 KCAL/MOL
REMARK 924 INTRA-LIGAND FREE ENERGY PREDICTED BY IDOCK:   -0.21 KCAL/MOL
REMARK 927      BINDING AFFINITY PREDICTED BY RF-SCORE:    0.00 PKD
ROOT
HETATM    1  C   UNL     1      -8.045  12.026  68.161  1.00  0.00    -0.160 C  
HETATM    2  C   UNL     1      -8.492  10.884  69.080  1.00  0.00    -0.105 C  
HETATM    3  N   UNL     1      -9.966  10.821  69.242  1.00  0.00    -0.196 N  
HETATM    4  O   UNL     1      -8.647  11.913  66.867  1.00  0.00    -0.176 OA 
HETATM    5  C   UNL     1     -10.590  10.840  67.895  1.00  0.00    -0.221 C  
HETATM    6  C   UNL     1     -10.070  11.970  66.999  1.00  0.00    -0.203 C  
ENDROOT
BRANCH   3   7
HETATM    7  S   UNL     1     -10.604   9.712  70.337  1.00  0.00    -0.316 SA 
BRANCH   7   8
HETATM    8  C   UNL     1      -9.635   8.266  70.057  1.00  0.00    -0.168 A  
HETATM    9  N   UNL     1      -8.697   7.857  70.881  1.00  0.00    -0.135 NA 
HETATM   10  C   UNL     1      -8.130   6.690  70.396  1.00  0.00    -0.117 A  
HETATM   11  C   UNL     1      -7.102   5.949  71.014  1.00  0.00    -0.069 A  
HETATM   12  C   UNL     1      -6.626   4.780  70.412  1.00  0.00    -0.035 A  
HETATM   13  C   UNL     1      -7.154   4.343  69.202  1.00  0.00    -0.051 A  
HETATM   14  C   UNL     1      -8.171   5.061  68.564  1.00  0.00    -0.085 A  
HETATM   15  C   UNL     1      -8.646   6.229  69.182  1.00  0.00    -0.120 A  
HETATM   16  S   UNL     1      -9.885   7.304  68.661  1.00  0.00    -0.165 SA 
ENDBRANCH   7   8
ENDBRANCH   3   7
TORSDOF 2
ENDMDL
MODEL      225
REMARK 921   NORMALIZED FREE ENERGY PREDICTED BY IDOCK:   -1.98 KCAL/MOL
REMARK 922        TOTAL FREE ENERGY PREDICTED BY IDOCK:   -2.40 KCAL/MOL
REMARK 923 INTER-LIGAND FREE ENERGY PREDICTED BY IDOCK:   -2.22 KCAL/MOL
REMARK 924 INTRA-LIGAND FREE ENERGY PREDICTED BY IDOCK:   -0.18 KCAL/MOL
REMARK 927      BINDING AFFINITY PREDICTED BY RF-SCORE:    0.00 PKD
ROOT
HETATM    1  C   UNL     1      -7.838   2.912  72.842  1.00  0.00    -0.055 C  
HETATM    2  C   UNL     1      -7.220   3.559  71.598  1.00  0.00    -0.039 C  
HETATM    3  N   UNL     1      -8.049   3.370  70.381  1.00  0.00    -0.046 N  
HETATM    4  O   UNL     1      -9.150   3.426  73.093  1.00  0.00    -0.096 OA 
HETATM    5  C   UNL     1      -9.441   3.780  70.689  1.00  0.00    -0.170 C  
HETATM    6  C   UNL     1      -9.993   3.145  71.972  1.00  0.00    -0.152 C  
ENDROOT
BRANCH   3   7
HETATM    7  S   UNL     1      -7.432   3.896  68.904  1.00  0.00    -0.054 SA 
BRANCH   7   8
HETATM    8  C   UNL     1      -8.130   5.505  68.726  1.00  0.00    -0.099 A  
HETATM    9  N   UNL     1      -9.059   5.794  67.842  1.00  0.00    -0.110 NA 
HETATM   10  C   UNL     1      -9.411   7.128  67.957  1.00  0.00    -0.130 A  
HETATM   11  C   UNL     1     -10.385   7.798  67.188  1.00  0.00    -0.389 A  
HETATM   12  C   UNL     1     -10.644   9.153  67.417  1.00  0.00    -0.315 A  
HETATM   13  C   UNL     1      -9.945   9.850  68.396  1.00  0.00    -0.177 A  
HETATM   14  C   UNL     1      -8.971   9.212  69.171  1.00  0.00    -0.144 A  
HETATM   15  C   UNL     1      -8.725   7.849  68.937  1.00  0.00    -0.135 A  
HETATM   16  S   UNL     1      -7.617   6.798  69.728  1.00  0.00    -0.106 SA 
ENDBRANCH   7   8
ENDBRANCH   3   7
TORSDOF 2
ENDMDL
MODEL      226
REMARK 921   NORMALIZED FREE ENERGY PREDICTED BY IDOCK:   -1.89 KCAL/MOL
REMARK 922        TOTAL FREE ENERGY PREDICTED BY IDOCK:   -2.31 KCAL/MOL
REMARK 923 INTER-LIGAND FREE ENERGY PREDICTED BY IDOCK:   -2.26 KCAL/MOL
REMARK 924 INTRA-LIGAND FREE ENERGY PREDICTED BY IDOCK:   -0.04 KCAL/MOL
REMARK 927      BINDING AFFINITY PREDICTED BY RF-SCORE:    0.00 PKD
ROOT
HETATM    1  C   UNL     1      -8.213   9.108  70.817  1.00  0.00    -0.190 C  
HETATM    2  C   UNL     1      -8.321   7.657  71.302  1.00  0.00    -0.107 C  
HETATM    3  N   UNL     1      -9.727   7.200  71.437  1.00  0.00    -0.169 N  
HETATM    4  O   UNL     1      -8.878   9.282  69.562  1.00  0.00    -0.135 OA 
HETATM    5  C   UNL     1     -10.447   7.508  70.176  1.00  0.00    -0.222 C  
HETATM    6  C   UNL     1     -10.263   8.957  69.709  1.00  0.00    -0.202 C  
ENDROOT
BRANCH   3   7
HETATM    7  S   UNL     1     -10.013   5.679  72.100  1.00  0.00    -0.182 SA 
BRANCH   7   8
HETATM    8  C   UNL     1      -9.345   4.581  70.892  1.00  0.00    -0.153 A  
HETATM    9  N   UNL     1      -9.879   4.405  69.705  1.00  0.00    -0.219 NA 
HETATM   10  C   UNL     1      -9.121   3.498  68.984  1.00  0.00    -0.140 A  
HETATM   11  C   UNL     1      -9.373   3.070  67.665  1.00  0.00    -0.242 A  
HETATM   12  C   UNL     1      -8.516   2.148  67.054  1.00  0.00    -0.102 A  
HETATM   13  C   UNL     1      -7.417   1.644  67.740  1.00  0.00    -0.054 A  
HETATM   14  C   UNL     1      -7.145   2.049  69.052  1.00  0.00    -0.039 A  
HETATM   15  C   UNL     1      -8.008   2.979  69.652  1.00  0.00    -0.045 A  
HETATM   16  S   UNL     1      -7.929   3.674  71.224  1.00  0.00    -0.061 SA 
ENDBRANCH   7   8
ENDBRANCH   3   7
TORSDOF 2
ENDMDL
MODEL      227
REMARK 921   NORMALIZED FREE ENERGY PREDICTED BY IDOCK:   -1.77 KCAL/MOL
REMARK 922        TOTAL FREE ENERGY PREDICTED BY IDOCK:   -2.17 KCAL/MOL
REMARK 923 INTER-LIGAND FREE ENERGY PREDICTED BY IDOCK:   -2.07 KCAL/MOL
REMARK 924 INTRA-LIGAND FREE ENERGY PREDICTED BY IDOCK:   -0.10 KCAL/MOL
REMARK 927      BINDING AFFINITY PREDICTED BY RF-SCORE:    0.00 PKD
ROOT
HETATM    1  C   UNL     1      -5.611   2.786  66.192  1.00  0.00    -0.017 C  
HETATM    2  C   UNL     1      -5.714   4.040  67.068  1.00  0.00    -0.022 C  
HETATM    3  N   UNL     1      -6.166   5.233  66.310  1.00  0.00    -0.030 N  
HETATM    4  O   UNL     1      -6.864   2.489  65.568  1.00  0.00    -0.044 OA 
HETATM    5  C   UNL     1      -7.394   4.877  65.557  1.00  0.00    -0.073 C  
HETATM    6  C   UNL     1      -7.254   3.587  64.739  1.00  0.00    -0.066 C  
ENDROOT
BRANCH   3   7
HETATM    7  S   UNL     1      -6.188   6.721  67.100  1.00  0.00    -0.034 SA 
BRANCH   7   8
HETATM    8  C   UNL     1      -7.441   6.511  68.322  1.00  0.00    -0.095 A  
HETATM    9  N   UNL     1      -8.679   6.922  68.162  1.00  0.00    -0.126 NA 
HETATM   10  C   UNL     1      -9.423   6.600  69.285  1.00  0.00    -0.141 A  
HETATM   11  C   UNL     1     -10.794   6.868  69.474  1.00  0.00    -0.287 A  
HETATM   12  C   UNL     1     -11.423   6.479  70.662  1.00  0.00    -0.433 A  
HETATM   13  C   UNL     1     -10.705   5.835  71.663  1.00  0.00    -0.314 A  
HETATM   14  C   UNL     1      -9.343   5.560  71.503  1.00  0.00    -0.172 A  
HETATM   15  C   UNL     1      -8.724   5.948  70.304  1.00  0.00    -0.142 A  
HETATM   16  S   UNL     1      -7.090   5.737  69.810  1.00  0.00    -0.070 SA 
ENDBRANCH   7   8
ENDBRANCH   3   7
TORSDOF 2
ENDMDL
MODEL      228
REMARK 921   NORMALIZED FREE ENERGY PREDICTED BY IDOCK:   13.21 KCAL/MOL
REMARK 922        TOTAL FREE ENERGY PREDICTED BY IDOCK:   14.56 KCAL/MOL
REMARK 923 INTER-LIGAND FREE ENERGY PREDICTED BY IDOCK:   14.23 KCAL/MOL
REMARK 924 INTRA-LIGAND FREE ENERGY PREDICTED BY IDOCK:    0.34 KCAL/MOL
REMARK 927      BINDING AFFINITY PREDICTED BY RF-SCORE:    0.00 PKD
ROOT
HETATM    1  C   UNL     1      -7.301  18.275  64.666  1.00  0.00     3.216 C  
HETATM    2  C   UNL     1      -7.065  18.036  66.162  1.00  0.00    -0.295 C  
HETATM    3  N   UNL     1      -8.309  17.678  66.889  1.00  0.00    -0.227 N  
HETATM    4  O   UNL     1      -7.883  17.124  64.046  1.00  0.00     8.564 OA 
HETATM    5  C   UNL     1      -8.978  16.570  66.163  1.00  0.00    -0.309 C  
HETATM    6  C   UNL     1      -9.142  16.838  64.662  1.00  0.00     4.630 C  
ENDROOT
BRANCH   3   7
HETATM    7  S   UNL     1      -8.240  17.529  68.565  1.00  0.00    -0.268 SA 
BRANCH   7   8
HETATM    8  C   UNL     1      -7.606  15.900  68.799  1.00  0.00    -0.178 A  
HETATM    9  N   UNL     1      -8.165  14.829  68.282  1.00  0.00    -0.135 NA 
HETATM   10  C   UNL     1      -7.430  13.708  68.630  1.00  0.00    -0.113 A  
HETATM   11  C   UNL     1      -7.711  12.381  68.248  1.00  0.00    -0.140 A  
HETATM   12  C   UNL     1      -6.876  11.341  68.669  1.00  0.00    -0.076 A  
HETATM   13  C   UNL     1      -5.770  11.604  69.469  1.00  0.00    -0.072 A  
HETATM   14  C   UNL     1      -5.469  12.911  69.867  1.00  0.00    -0.102 A  
HETATM   15  C   UNL     1      -6.311  13.947  69.432  1.00  0.00    -0.110 A  
HETATM   16  S   UNL     1      -6.195  15.637  69.735  1.00  0.00    -0.161 SA 
ENDBRANCH   7   8
ENDBRANCH   3   7
TORSDOF 2
ENDMDL
