MODEL        1
REMARK 921   NORMALIZED FREE ENERGY PREDICTED BY IDOCK:   -5.79 KCAL/MOL
REMARK 922        TOTAL FREE ENERGY PREDICTED BY IDOCK:   -8.43 KCAL/MOL
REMARK 923 INTER-LIGAND FREE ENERGY PREDICTED BY IDOCK:   -7.82 KCAL/MOL
REMARK 924 INTRA-LIGAND FREE ENERGY PREDICTED BY IDOCK:   -0.61 KCAL/MOL
REMARK 927      BINDING AFFINITY PREDICTED BY RF-SCORE:    0.00 PKD
ROOT
HETATM    1  C   UNL     1      -9.429  11.258  67.173  1.00  0.00    -0.183 C  
HETATM    2  C   UNL     1     -10.763  10.614  67.586  1.00  0.00    -0.315 C  
HETATM    3  C   UNL     1     -10.450   9.124  67.855  1.00  0.00    -0.293 C  
HETATM    4  C   UNL     1     -11.463  11.332  68.753  1.00  0.00    -0.359 A  
HETATM    5  C   UNL     1     -11.541  12.733  68.867  1.00  0.00    -0.316 A  
HETATM    6  C   UNL     1     -12.640  11.155  70.903  1.00  0.00    -0.386 A  
HETATM    7  C   UNL     1     -12.144  13.326  69.992  1.00  0.00    -0.385 A  
HETATM    8  C   UNL     1     -12.673  12.548  71.032  1.00  0.00    -0.316 A  
HETATM    9  C   UNL     1     -12.073  10.568  69.772  1.00  0.00    -0.285 A  
HETATM   10  C   UNL     1     -13.244  13.211  72.249  1.00  0.00    -0.555 C  
ENDROOT
BRANCH   5  11
HETATM   11  O   UNL     1     -11.105  13.496  67.811  1.00  0.00    -0.255 OA 
BRANCH  11  12
HETATM   12  C   UNL     1     -12.137  14.128  67.036  1.00  0.00    -0.414 C  
BRANCH  12  13
HETATM   13  C   UNL     1     -12.470  13.229  65.830  1.00  0.00    -0.417 C  
BRANCH  13  14
HETATM   14  N   UNL     1     -12.555  13.941  64.537  1.00  0.00    -0.663 NA 
HETATM   15  C   UNL     1     -11.835  15.216  64.566  1.00  0.00    -0.330 C  
HETATM   16  C   UNL     1     -12.017  13.098  63.466  1.00  0.00    -0.513 C  
ENDBRANCH  13  14
ENDBRANCH  12  13
ENDBRANCH  11  12
ENDBRANCH   5  11
BRANCH   6  17
HETATM   17  O   UNL     1     -13.159  10.398  71.990  1.00  0.00    -0.455 OA 
BRANCH  17  18
HETATM   18  C   UNL     1     -13.075   9.009  72.164  1.00  0.00    -0.435 C  
HETATM   19  O   UNL     1     -12.130   8.370  72.605  1.00  0.00    -0.390 OA 
HETATM   20  C   UNL     1     -14.382   8.387  71.781  1.00  0.00    -0.558 C  
ENDBRANCH  17  18
ENDBRANCH   6  17
TORSDOF 6
ENDMDL
MODEL        2
REMARK 921   NORMALIZED FREE ENERGY PREDICTED BY IDOCK:   -5.77 KCAL/MOL
REMARK 922        TOTAL FREE ENERGY PREDICTED BY IDOCK:   -8.40 KCAL/MOL
REMARK 923 INTER-LIGAND FREE ENERGY PREDICTED BY IDOCK:   -7.90 KCAL/MOL
REMARK 924 INTRA-LIGAND FREE ENERGY PREDICTED BY IDOCK:   -0.50 KCAL/MOL
REMARK 927      BINDING AFFINITY PREDICTED BY RF-SCORE:    0.00 PKD
ROOT
HETATM    1  C   UNL     1     -11.160  10.216  69.636  1.00  0.00    -0.308 C  
HETATM    2  C   UNL     1     -12.284  11.203  69.992  1.00  0.00    -0.402 C  
HETATM    3  C   UNL     1     -12.694  10.875  71.446  1.00  0.00    -0.539 C  
HETATM    4  C   UNL     1     -11.910  12.677  69.759  1.00  0.00    -0.379 A  
HETATM    5  C   UNL     1     -11.202  13.129  68.629  1.00  0.00    -0.276 A  
HETATM    6  C   UNL     1     -11.903  14.984  70.606  1.00  0.00    -0.313 A  
HETATM    7  C   UNL     1     -10.839  14.484  68.507  1.00  0.00    -0.256 A  
HETATM    8  C   UNL     1     -11.160  15.418  69.503  1.00  0.00    -0.284 A  
HETATM    9  C   UNL     1     -12.292  13.648  70.710  1.00  0.00    -0.446 A  
HETATM   10  C   UNL     1     -10.696  16.838  69.377  1.00  0.00    -0.300 C  
ENDROOT
BRANCH   5  11
HETATM   11  O   UNL     1     -10.965  12.237  67.611  1.00  0.00    -0.225 OA 
BRANCH  11  12
HETATM   12  C   UNL     1     -11.704  12.468  66.401  1.00  0.00    -0.397 C  
BRANCH  12  13
HETATM   13  C   UNL     1     -10.727  12.947  65.309  1.00  0.00    -0.296 C  
BRANCH  13  14
HETATM   14  N   UNL     1     -11.083  12.524  63.938  1.00  0.00    -0.389 NA 
HETATM   15  C   UNL     1     -10.299  11.368  63.500  1.00  0.00    -0.423 C  
HETATM   16  C   UNL     1     -12.511  12.202  63.870  1.00  0.00    -0.478 C  
ENDBRANCH  13  14
ENDBRANCH  12  13
ENDBRANCH  11  12
ENDBRANCH   5  11
BRANCH   6  17
HETATM   17  O   UNL     1     -12.184  15.952  71.611  1.00  0.00    -0.418 OA 
BRANCH  17  18
HETATM   18  C   UNL     1     -13.107  15.832  72.660  1.00  0.00    -0.491 C  
HETATM   19  O   UNL     1     -14.324  15.744  72.574  1.00  0.00    -0.528 OA 
HETATM   20  C   UNL     1     -12.366  15.759  73.959  1.00  0.00    -0.749 C  
ENDBRANCH  17  18
ENDBRANCH   6  17
TORSDOF 6
ENDMDL
MODEL        3
REMARK 921   NORMALIZED FREE ENERGY PREDICTED BY IDOCK:   -5.65 KCAL/MOL
REMARK 922        TOTAL FREE ENERGY PREDICTED BY IDOCK:   -8.24 KCAL/MOL
REMARK 923 INTER-LIGAND FREE ENERGY PREDICTED BY IDOCK:   -7.63 KCAL/MOL
REMARK 924 INTRA-LIGAND FREE ENERGY PREDICTED BY IDOCK:   -0.61 KCAL/MOL
REMARK 927      BINDING AFFINITY PREDICTED BY RF-SCORE:    0.00 PKD
ROOT
HETATM    1  C   UNL     1     -12.220  11.740  70.160  1.00  0.00    -0.342 C  
HETATM    2  C   UNL     1     -11.064  11.628  69.152  1.00  0.00    -0.302 C  
HETATM    3  C   UNL     1     -11.251  10.270  68.438  1.00  0.00    -0.284 C  
HETATM    4  C   UNL     1     -10.956  12.832  68.199  1.00  0.00    -0.273 A  
HETATM    5  C   UNL     1     -11.115  14.167  68.615  1.00  0.00    -0.262 A  
HETATM    6  C   UNL     1     -10.657  13.650  65.901  1.00  0.00    -0.289 A  
HETATM    7  C   UNL     1     -11.062  15.219  67.680  1.00  0.00    -0.323 A  
HETATM    8  C   UNL     1     -10.862  14.971  66.314  1.00  0.00    -0.333 A  
HETATM    9  C   UNL     1     -10.675  12.612  66.833  1.00  0.00    -0.264 A  
HETATM   10  C   UNL     1     -10.883  16.106  65.335  1.00  0.00    -0.319 C  
ENDROOT
BRANCH   5  11
HETATM   11  O   UNL     1     -11.221  14.421  69.961  1.00  0.00    -0.229 OA 
BRANCH  11  12
HETATM   12  C   UNL     1     -12.146  15.458  70.325  1.00  0.00    -0.369 C  
BRANCH  12  13
HETATM   13  C   UNL     1     -11.776  15.980  71.727  1.00  0.00    -0.509 C  
BRANCH  13  14
HETATM   14  N   UNL     1     -12.847  15.843  72.737  1.00  0.00    -0.457 NA 
HETATM   15  C   UNL     1     -13.970  15.047  72.239  1.00  0.00    -0.509 C  
HETATM   16  C   UNL     1     -12.311  15.228  73.953  1.00  0.00    -0.626 C  
ENDBRANCH  13  14
ENDBRANCH  12  13
ENDBRANCH  11  12
ENDBRANCH   5  11
BRANCH   6  17
HETATM   17  O   UNL     1     -10.487  13.434  64.505  1.00  0.00    -0.404 OA 
BRANCH  17  18
HETATM   18  C   UNL     1     -11.332  12.703  63.657  1.00  0.00    -0.481 C  
HETATM   19  O   UNL     1     -12.403  13.059  63.188  1.00  0.00    -0.650 OA 
HETATM   20  C   UNL     1     -10.687  11.390  63.335  1.00  0.00    -0.405 C  
ENDBRANCH  17  18
ENDBRANCH   6  17
TORSDOF 6
ENDMDL
MODEL        4
REMARK 921   NORMALIZED FREE ENERGY PREDICTED BY IDOCK:   -5.56 KCAL/MOL
REMARK 922        TOTAL FREE ENERGY PREDICTED BY IDOCK:   -8.12 KCAL/MOL
REMARK 923 INTER-LIGAND FREE ENERGY PREDICTED BY IDOCK:   -7.37 KCAL/MOL
REMARK 924 INTRA-LIGAND FREE ENERGY PREDICTED BY IDOCK:   -0.75 KCAL/MOL
REMARK 927      BINDING AFFINITY PREDICTED BY RF-SCORE:    0.00 PKD
ROOT
HETATM    1  C   UNL     1     -13.580  15.264  71.238  1.00  0.00    -0.584 C  
HETATM    2  C   UNL     1     -12.563  14.112  71.166  1.00  0.00    -0.439 C  
HETATM    3  C   UNL     1     -13.183  12.945  71.967  1.00  0.00    -0.549 C  
HETATM    4  C   UNL     1     -12.148  13.742  69.731  1.00  0.00    -0.400 A  
HETATM    5  C   UNL     1     -11.880  14.696  68.730  1.00  0.00    -0.313 A  
HETATM    6  C   UNL     1     -11.735  11.978  68.070  1.00  0.00    -0.331 A  
HETATM    7  C   UNL     1     -11.563  14.288  67.420  1.00  0.00    -0.394 A  
HETATM    8  C   UNL     1     -11.514  12.931  67.070  1.00  0.00    -0.390 A  
HETATM    9  C   UNL     1     -12.015  12.382  69.376  1.00  0.00    -0.319 A  
HETATM   10  C   UNL     1     -11.245  12.532  65.650  1.00  0.00    -0.352 C  
ENDROOT
BRANCH   5  11
HETATM   11  O   UNL     1     -11.837  16.021  69.090  1.00  0.00    -0.356 OA 
BRANCH  11  12
HETATM   12  C   UNL     1     -10.542  16.639  69.030  1.00  0.00    -0.340 C  
BRANCH  12  13
HETATM   13  C   UNL     1     -10.645  17.923  68.185  1.00  0.00    -0.340 C  
BRANCH  13  14
HETATM   14  N   UNL     1     -10.492  17.715  66.729  1.00  0.00    -0.320 NA 
HETATM   15  C   UNL     1     -10.590  18.970  65.982  1.00  0.00    -0.423 C  
HETATM   16  C   UNL     1      -9.204  17.076  66.449  1.00  0.00    -0.271 C  
ENDBRANCH  13  14
ENDBRANCH  12  13
ENDBRANCH  11  12
ENDBRANCH   5  11
BRANCH   6  17
HETATM   17  O   UNL     1     -11.708  10.612  67.672  1.00  0.00    -0.480 OA 
BRANCH  17  18
HETATM   18  C   UNL     1     -10.703   9.674  67.950  1.00  0.00    -0.247 C  
HETATM   19  O   UNL     1     -10.251   9.371  69.045  1.00  0.00    -0.191 OA 
HETATM   20  C   UNL     1     -10.282   9.014  66.674  1.00  0.00    -0.333 C  
ENDBRANCH  17  18
ENDBRANCH   6  17
TORSDOF 6
ENDMDL
MODEL        5
REMARK 921   NORMALIZED FREE ENERGY PREDICTED BY IDOCK:   -5.55 KCAL/MOL
REMARK 922        TOTAL FREE ENERGY PREDICTED BY IDOCK:   -8.10 KCAL/MOL
REMARK 923 INTER-LIGAND FREE ENERGY PREDICTED BY IDOCK:   -7.59 KCAL/MOL
REMARK 924 INTRA-LIGAND FREE ENERGY PREDICTED BY IDOCK:   -0.51 KCAL/MOL
REMARK 927      BINDING AFFINITY PREDICTED BY RF-SCORE:    0.00 PKD
ROOT
HETATM    1  C   UNL     1      -9.795  12.628  67.081  1.00  0.00    -0.212 C  
HETATM    2  C   UNL     1     -11.041  11.832  67.506  1.00  0.00    -0.330 C  
HETATM    3  C   UNL     1     -10.599  10.352  67.567  1.00  0.00    -0.312 C  
HETATM    4  C   UNL     1     -11.694  12.349  68.799  1.00  0.00    -0.379 A  
HETATM    5  C   UNL     1     -11.865  13.716  69.089  1.00  0.00    -0.348 A  
HETATM    6  C   UNL     1     -12.677  11.827  70.990  1.00  0.00    -0.275 A  
HETATM    7  C   UNL     1     -12.417  14.123  70.319  1.00  0.00    -0.416 A  
HETATM    8  C   UNL     1     -12.802  13.188  71.291  1.00  0.00    -0.384 A  
HETATM    9  C   UNL     1     -12.163  11.425  69.758  1.00  0.00    -0.332 A  
HETATM   10  C   UNL     1     -13.319  13.655  72.618  1.00  0.00    -0.587 C  
ENDROOT
BRANCH   5  11
HETATM   11  O   UNL     1     -11.573  14.631  68.106  1.00  0.00    -0.305 OA 
BRANCH  11  12
HETATM   12  C   UNL     1     -11.337  15.974  68.559  1.00  0.00    -0.382 C  
BRANCH  12  13
HETATM   13  C   UNL     1     -10.542  16.728  67.475  1.00  0.00    -0.309 C  
BRANCH  13  14
HETATM   14  N   UNL     1     -10.705  18.197  67.506  1.00  0.00    -0.397 NA 
HETATM   15  C   UNL     1      -9.794  18.830  68.460  1.00  0.00    -0.396 C  
HETATM   16  C   UNL     1     -10.477  18.752  66.169  1.00  0.00    -0.446 C  
ENDBRANCH  13  14
ENDBRANCH  12  13
ENDBRANCH  11  12
ENDBRANCH   5  11
BRANCH   6  17
HETATM   17  O   UNL     1     -13.049  10.908  72.011  1.00  0.00    -0.491 OA 
BRANCH  17  18
HETATM   18  C   UNL     1     -12.816   9.525  72.024  1.00  0.00    -0.414 C  
HETATM   19  O   UNL     1     -11.741   8.953  72.126  1.00  0.00    -0.363 OA 
HETATM   20  C   UNL     1     -14.128   8.807  71.959  1.00  0.00    -0.508 C  
ENDBRANCH  17  18
ENDBRANCH   6  17
TORSDOF 6
ENDMDL
MODEL        6
REMARK 921   NORMALIZED FREE ENERGY PREDICTED BY IDOCK:   -5.47 KCAL/MOL
REMARK 922        TOTAL FREE ENERGY PREDICTED BY IDOCK:   -7.99 KCAL/MOL
REMARK 923 INTER-LIGAND FREE ENERGY PREDICTED BY IDOCK:   -7.37 KCAL/MOL
REMARK 924 INTRA-LIGAND FREE ENERGY PREDICTED BY IDOCK:   -0.62 KCAL/MOL
REMARK 927      BINDING AFFINITY PREDICTED BY RF-SCORE:    0.00 PKD
ROOT
HETATM    1  C   UNL     1     -11.106  14.907  66.718  1.00  0.00    -0.335 C  
HETATM    2  C   UNL     1     -10.802  15.131  68.209  1.00  0.00    -0.262 C  
HETATM    3  C   UNL     1     -11.328  16.546  68.543  1.00  0.00    -0.231 C  
HETATM    4  C   UNL     1     -11.347  14.022  69.125  1.00  0.00    -0.323 A  
HETATM    5  C   UNL     1     -11.276  12.652  68.812  1.00  0.00    -0.280 A  
HETATM    6  C   UNL     1     -12.547  13.424  71.185  1.00  0.00    -0.345 A  
HETATM    7  C   UNL     1     -11.849  11.692  69.669  1.00  0.00    -0.419 A  
HETATM    8  C   UNL     1     -12.513  12.067  70.845  1.00  0.00    -0.384 A  
HETATM    9  C   UNL     1     -11.949  14.372  70.354  1.00  0.00    -0.395 A  
HETATM   10  C   UNL     1     -13.174  11.027  71.698  1.00  0.00    -0.461 C  
ENDROOT
BRANCH   5  11
HETATM   11  O   UNL     1     -10.550  12.274  67.709  1.00  0.00    -0.211 OA 
BRANCH  11  12
HETATM   12  C   UNL     1     -11.134  11.235  66.908  1.00  0.00    -0.275 C  
BRANCH  12  13
HETATM   13  C   UNL     1     -10.199  10.942  65.718  1.00  0.00    -0.259 C  
BRANCH  13  14
HETATM   14  N   UNL     1     -10.420  11.803  64.537  1.00  0.00    -0.285 NA 
HETATM   15  C   UNL     1      -9.960  11.167  63.302  1.00  0.00    -0.379 C  
HETATM   16  C   UNL     1     -11.842  12.134  64.419  1.00  0.00    -0.358 C  
ENDBRANCH  13  14
ENDBRANCH  12  13
ENDBRANCH  11  12
ENDBRANCH   5  11
BRANCH   6  17
HETATM   17  O   UNL     1     -13.255  13.771  72.370  1.00  0.00    -0.436 OA 
BRANCH  17  18
HETATM   18  C   UNL     1     -13.380  15.050  72.932  1.00  0.00    -0.485 C  
HETATM   19  O   UNL     1     -14.191  15.916  72.637  1.00  0.00    -0.525 OA 
HETATM   20  C   UNL     1     -12.383  15.199  74.039  1.00  0.00    -0.725 C  
ENDBRANCH  17  18
ENDBRANCH   6  17
TORSDOF 6
ENDMDL
MODEL        7
REMARK 921   NORMALIZED FREE ENERGY PREDICTED BY IDOCK:   -5.46 KCAL/MOL
REMARK 922        TOTAL FREE ENERGY PREDICTED BY IDOCK:   -7.98 KCAL/MOL
REMARK 923 INTER-LIGAND FREE ENERGY PREDICTED BY IDOCK:   -7.36 KCAL/MOL
REMARK 924 INTRA-LIGAND FREE ENERGY PREDICTED BY IDOCK:   -0.63 KCAL/MOL
REMARK 927      BINDING AFFINITY PREDICTED BY RF-SCORE:    0.00 PKD
ROOT
HETATM    1  C   UNL     1      -9.808  12.104  67.108  1.00  0.00    -0.205 C  
HETATM    2  C   UNL     1     -11.101  11.399  67.551  1.00  0.00    -0.339 C  
HETATM    3  C   UNL     1     -10.748   9.899  67.669  1.00  0.00    -0.339 C  
HETATM    4  C   UNL     1     -11.731  12.001  68.819  1.00  0.00    -0.377 A  
HETATM    5  C   UNL     1     -11.822  13.385  69.058  1.00  0.00    -0.335 A  
HETATM    6  C   UNL     1     -12.757  11.618  71.019  1.00  0.00    -0.298 A  
HETATM    7  C   UNL     1     -12.357  13.868  70.268  1.00  0.00    -0.413 A  
HETATM    8  C   UNL     1     -12.803  12.994  71.269  1.00  0.00    -0.370 A  
HETATM    9  C   UNL     1     -12.259  11.141  69.806  1.00  0.00    -0.369 A  
HETATM   10  C   UNL     1     -13.300  13.539  72.574  1.00  0.00    -0.617 C  
ENDROOT
BRANCH   5  11
HETATM   11  O   UNL     1     -11.471  14.245  68.045  1.00  0.00    -0.281 OA 
BRANCH  11  12
HETATM   12  C   UNL     1     -11.523  15.642  68.372  1.00  0.00    -0.369 C  
BRANCH  12  13
HETATM   13  C   UNL     1     -10.730  16.429  67.310  1.00  0.00    -0.257 C  
BRANCH  13  14
HETATM   14  N   UNL     1     -10.087  15.588  66.277  1.00  0.00    -0.277 NA 
HETATM   15  C   UNL     1     -10.754  15.710  64.980  1.00  0.00    -0.436 C  
HETATM   16  C   UNL     1      -8.676  15.958  66.140  1.00  0.00    -0.293 C  
ENDBRANCH  13  14
ENDBRANCH  12  13
ENDBRANCH  11  12
ENDBRANCH   5  11
BRANCH   6  17
HETATM   17  O   UNL     1     -13.190  10.760  72.069  1.00  0.00    -0.484 OA 
BRANCH  17  18
HETATM   18  C   UNL     1     -13.025   9.369  72.141  1.00  0.00    -0.421 C  
HETATM   19  O   UNL     1     -11.986   8.752  72.324  1.00  0.00    -0.365 OA 
HETATM   20  C   UNL     1     -14.364   8.710  72.025  1.00  0.00    -0.512 C  
ENDBRANCH  17  18
ENDBRANCH   6  17
TORSDOF 6
ENDMDL
MODEL        8
REMARK 921   NORMALIZED FREE ENERGY PREDICTED BY IDOCK:   -5.43 KCAL/MOL
REMARK 922        TOTAL FREE ENERGY PREDICTED BY IDOCK:   -7.94 KCAL/MOL
REMARK 923 INTER-LIGAND FREE ENERGY PREDICTED BY IDOCK:   -7.26 KCAL/MOL
REMARK 924 INTRA-LIGAND FREE ENERGY PREDICTED BY IDOCK:   -0.68 KCAL/MOL
REMARK 927      BINDING AFFINITY PREDICTED BY RF-SCORE:    0.00 PKD
ROOT
HETATM    1  C   UNL     1     -13.331   9.499  71.858  1.00  0.00    -0.518 C  
HETATM    2  C   UNL     1     -11.890   9.712  71.366  1.00  0.00    -0.484 C  
HETATM    3  C   UNL     1     -11.425   8.348  70.806  1.00  0.00    -0.277 C  
HETATM    4  C   UNL     1     -11.739  10.883  70.379  1.00  0.00    -0.444 A  
HETATM    5  C   UNL     1     -12.390  12.121  70.539  1.00  0.00    -0.272 A  
HETATM    6  C   UNL     1     -10.800  11.721  68.268  1.00  0.00    -0.220 A  
HETATM    7  C   UNL     1     -12.256  13.130  69.566  1.00  0.00    -0.214 A  
HETATM    8  C   UNL     1     -11.486  12.933  68.411  1.00  0.00    -0.347 A  
HETATM    9  C   UNL     1     -10.905  10.735  69.249  1.00  0.00    -0.287 A  
HETATM   10  C   UNL     1     -11.423  14.000  67.360  1.00  0.00    -0.373 C  
ENDROOT
BRANCH   5  11
HETATM   11  O   UNL     1     -13.070  12.351  71.710  1.00  0.00    -0.416 OA 
BRANCH  11  12
HETATM   12  C   UNL     1     -13.642  13.662  71.848  1.00  0.00    -0.427 C  
BRANCH  12  13
HETATM   13  C   UNL     1     -13.000  14.355  73.066  1.00  0.00    -0.472 C  
BRANCH  13  14
HETATM   14  N   UNL     1     -12.802  15.811  72.910  1.00  0.00    -0.437 NA 
HETATM   15  C   UNL     1     -12.360  16.441  74.155  1.00  0.00    -0.466 C  
HETATM   16  C   UNL     1     -11.822  16.072  71.854  1.00  0.00    -0.534 C  
ENDBRANCH  13  14
ENDBRANCH  12  13
ENDBRANCH  11  12
ENDBRANCH   5  11
BRANCH   6  17
HETATM   17  O   UNL     1     -10.053  11.545  67.070  1.00  0.00    -0.204 OA 
BRANCH  17  18
HETATM   18  C   UNL     1     -10.317  10.629  66.041  1.00  0.00    -0.225 C  
HETATM   19  O   UNL     1     -10.284   9.409  66.104  1.00  0.00    -0.279 OA 
HETATM   20  C   UNL     1     -10.729  11.379  64.812  1.00  0.00    -0.362 C  
ENDBRANCH  17  18
ENDBRANCH   6  17
TORSDOF 6
ENDMDL
MODEL        9
REMARK 921   NORMALIZED FREE ENERGY PREDICTED BY IDOCK:   -5.42 KCAL/MOL
REMARK 922        TOTAL FREE ENERGY PREDICTED BY IDOCK:   -7.92 KCAL/MOL
REMARK 923 INTER-LIGAND FREE ENERGY PREDICTED BY IDOCK:   -7.14 KCAL/MOL
REMARK 924 INTRA-LIGAND FREE ENERGY PREDICTED BY IDOCK:   -0.79 KCAL/MOL
REMARK 927      BINDING AFFINITY PREDICTED BY RF-SCORE:    0.00 PKD
ROOT
HETATM    1  C   UNL     1     -10.446   9.907  70.198  1.00  0.00    -0.339 C  
HETATM    2  C   UNL     1     -11.797  10.630  70.063  1.00  0.00    -0.403 C  
HETATM    3  C   UNL     1     -12.523  10.432  71.413  1.00  0.00    -0.521 C  
HETATM    4  C   UNL     1     -11.671  12.100  69.624  1.00  0.00    -0.396 A  
HETATM    5  C   UNL     1     -10.780  12.539  68.627  1.00  0.00    -0.234 A  
HETATM    6  C   UNL     1     -12.357  14.437  69.951  1.00  0.00    -0.314 A  
HETATM    7  C   UNL     1     -10.672  13.908  68.316  1.00  0.00    -0.261 A  
HETATM    8  C   UNL     1     -11.436  14.872  68.991  1.00  0.00    -0.322 A  
HETATM    9  C   UNL     1     -12.488  13.078  70.234  1.00  0.00    -0.217 A  
HETATM   10  C   UNL     1     -11.245  16.327  68.686  1.00  0.00    -0.354 C  
ENDROOT
BRANCH   5  11
HETATM   11  O   UNL     1     -10.097  11.591  67.903  1.00  0.00    -0.181 OA 
BRANCH  11  12
HETATM   12  C   UNL     1      -9.777  11.957  66.551  1.00  0.00    -0.210 C  
BRANCH  12  13
HETATM   13  C   UNL     1     -10.383  10.907  65.599  1.00  0.00    -0.242 C  
BRANCH  13  14
HETATM   14  N   UNL     1     -11.275  11.463  64.560  1.00  0.00    -0.240 NA 
HETATM   15  C   UNL     1     -12.058  12.595  65.058  1.00  0.00    -0.444 C  
HETATM   16  C   UNL     1     -10.488  11.884  63.398  1.00  0.00    -0.441 C  
ENDBRANCH  13  14
ENDBRANCH  12  13
ENDBRANCH  11  12
ENDBRANCH   5  11
BRANCH   6  17
HETATM   17  O   UNL     1     -13.092  15.445  70.636  1.00  0.00    -0.426 OA 
BRANCH  17  18
HETATM   18  C   UNL     1     -13.229  15.590  72.024  1.00  0.00    -0.459 C  
HETATM   19  O   UNL     1     -14.220  15.359  72.702  1.00  0.00    -0.488 OA 
HETATM   20  C   UNL     1     -11.918  16.024  72.603  1.00  0.00    -0.646 C  
ENDBRANCH  17  18
ENDBRANCH   6  17
TORSDOF 6
ENDMDL
MODEL       10
REMARK 921   NORMALIZED FREE ENERGY PREDICTED BY IDOCK:   -5.41 KCAL/MOL
REMARK 922        TOTAL FREE ENERGY PREDICTED BY IDOCK:   -7.91 KCAL/MOL
REMARK 923 INTER-LIGAND FREE ENERGY PREDICTED BY IDOCK:   -7.38 KCAL/MOL
REMARK 924 INTRA-LIGAND FREE ENERGY PREDICTED BY IDOCK:   -0.53 KCAL/MOL
REMARK 927      BINDING AFFINITY PREDICTED BY RF-SCORE:    0.00 PKD
ROOT
HETATM    1  C   UNL     1     -12.305  13.729  66.555  1.00  0.00    -0.432 C  
HETATM    2  C   UNL     1     -10.884  14.249  66.277  1.00  0.00    -0.310 C  
HETATM    3  C   UNL     1     -10.737  14.282  64.738  1.00  0.00    -0.435 C  
HETATM    4  C   UNL     1     -10.567  15.586  66.970  1.00  0.00    -0.311 A  
HETATM    5  C   UNL     1     -10.946  15.883  68.293  1.00  0.00    -0.329 A  
HETATM    6  C   UNL     1      -9.617  17.846  66.802  1.00  0.00    -0.305 A  
HETATM    7  C   UNL     1     -10.677  17.149  68.847  1.00  0.00    -0.257 A  
HETATM    8  C   UNL     1     -10.038  18.151  68.101  1.00  0.00    -0.388 A  
HETATM    9  C   UNL     1      -9.854  16.580  66.266  1.00  0.00    -0.336 A  
HETATM   10  C   UNL     1      -9.830  19.511  68.696  1.00  0.00    -0.530 C  
ENDROOT
BRANCH   5  11
HETATM   11  O   UNL     1     -11.491  14.878  69.054  1.00  0.00    -0.270 OA 
BRANCH  11  12
HETATM   12  C   UNL     1     -12.314  15.307  70.151  1.00  0.00    -0.353 C  
BRANCH  12  13
HETATM   13  C   UNL     1     -11.959  14.468  71.394  1.00  0.00    -0.315 C  
BRANCH  13  14
HETATM   14  N   UNL     1     -12.581  14.938  72.650  1.00  0.00    -0.353 NA 
HETATM   15  C   UNL     1     -12.060  16.241  73.066  1.00  0.00    -0.530 C  
HETATM   16  C   UNL     1     -14.034  15.021  72.487  1.00  0.00    -0.452 C  
ENDBRANCH  13  14
ENDBRANCH  12  13
ENDBRANCH  11  12
ENDBRANCH   5  11
BRANCH   6  17
HETATM   17  O   UNL     1      -8.999  18.895  66.065  1.00  0.00    -0.470 OA 
BRANCH  17  18
HETATM   18  C   UNL     1      -7.625  19.077  65.852  1.00  0.00    -0.195 C  
HETATM   19  O   UNL     1      -6.873  18.367  65.199  1.00  0.00    -0.512 OA 
HETATM   20  C   UNL     1      -7.192  20.352  66.506  1.00  0.00    -0.299 C  
ENDBRANCH  17  18
ENDBRANCH   6  17
TORSDOF 6
ENDMDL
MODEL       11
REMARK 921   NORMALIZED FREE ENERGY PREDICTED BY IDOCK:   -5.39 KCAL/MOL
REMARK 922        TOTAL FREE ENERGY PREDICTED BY IDOCK:   -7.88 KCAL/MOL
REMARK 923 INTER-LIGAND FREE ENERGY PREDICTED BY IDOCK:   -7.21 KCAL/MOL
REMARK 924 INTRA-LIGAND FREE ENERGY PREDICTED BY IDOCK:   -0.67 KCAL/MOL
REMARK 927      BINDING AFFINITY PREDICTED BY RF-SCORE:    0.00 PKD
ROOT
HETATM    1  C   UNL     1     -10.229  16.725  65.591  1.00  0.00    -0.258 C  
HETATM    2  C   UNL     1     -10.101  17.043  67.090  1.00  0.00    -0.292 C  
HETATM    3  C   UNL     1     -10.781  18.417  67.293  1.00  0.00    -0.389 C  
HETATM    4  C   UNL     1     -10.640  15.931  68.007  1.00  0.00    -0.287 A  
HETATM    5  C   UNL     1     -10.418  14.560  67.778  1.00  0.00    -0.242 A  
HETATM    6  C   UNL     1     -11.990  15.319  69.968  1.00  0.00    -0.343 A  
HETATM    7  C   UNL     1     -10.990  13.591  68.624  1.00  0.00    -0.289 A  
HETATM    8  C   UNL     1     -11.803  13.957  69.707  1.00  0.00    -0.390 A  
HETATM    9  C   UNL     1     -11.394  16.279  69.150  1.00  0.00    -0.291 A  
HETATM   10  C   UNL     1     -12.456  12.899  70.545  1.00  0.00    -0.294 C  
ENDROOT
BRANCH   5  11
HETATM   11  O   UNL     1      -9.551  14.201  66.774  1.00  0.00    -0.261 OA 
BRANCH  11  12
HETATM   12  C   UNL     1      -9.759  12.895  66.212  1.00  0.00    -0.268 C  
BRANCH  12  13
HETATM   13  C   UNL     1     -10.457  13.049  64.847  1.00  0.00    -0.339 C  
BRANCH  13  14
HETATM   14  N   UNL     1     -11.907  12.762  64.862  1.00  0.00    -0.357 NA 
HETATM   15  C   UNL     1     -12.702  13.969  65.095  1.00  0.00    -0.389 C  
HETATM   16  C   UNL     1     -12.307  12.148  63.594  1.00  0.00    -0.568 C  
ENDBRANCH  13  14
ENDBRANCH  12  13
ENDBRANCH  11  12
ENDBRANCH   5  11
BRANCH   6  17
HETATM   17  O   UNL     1     -12.844  15.652  71.056  1.00  0.00    -0.467 OA 
BRANCH  17  18
HETATM   18  C   UNL     1     -12.458  15.911  72.380  1.00  0.00    -0.474 C  
HETATM   19  O   UNL     1     -11.717  16.797  72.778  1.00  0.00    -0.427 OA 
HETATM   20  C   UNL     1     -13.161  14.953  73.291  1.00  0.00    -0.585 C  
ENDBRANCH  17  18
ENDBRANCH   6  17
TORSDOF 6
ENDMDL
MODEL       12
REMARK 921   NORMALIZED FREE ENERGY PREDICTED BY IDOCK:   -5.38 KCAL/MOL
REMARK 922        TOTAL FREE ENERGY PREDICTED BY IDOCK:   -7.87 KCAL/MOL
REMARK 923 INTER-LIGAND FREE ENERGY PREDICTED BY IDOCK:   -7.41 KCAL/MOL
REMARK 924 INTRA-LIGAND FREE ENERGY PREDICTED BY IDOCK:   -0.47 KCAL/MOL
REMARK 927      BINDING AFFINITY PREDICTED BY RF-SCORE:    0.00 PKD
ROOT
HETATM    1  C   UNL     1     -10.188  14.784  65.732  1.00  0.00    -0.359 C  
HETATM    2  C   UNL     1     -11.511  14.335  66.375  1.00  0.00    -0.361 C  
HETATM    3  C   UNL     1     -11.686  12.847  65.996  1.00  0.00    -0.456 C  
HETATM    4  C   UNL     1     -11.591  14.614  67.886  1.00  0.00    -0.373 A  
HETATM    5  C   UNL     1     -11.139  15.808  68.480  1.00  0.00    -0.335 A  
HETATM    6  C   UNL     1     -12.165  13.791  70.130  1.00  0.00    -0.356 A  
HETATM    7  C   UNL     1     -11.186  15.975  69.877  1.00  0.00    -0.361 A  
HETATM    8  C   UNL     1     -11.672  14.962  70.717  1.00  0.00    -0.364 A  
HETATM    9  C   UNL     1     -12.150  13.641  68.743  1.00  0.00    -0.332 A  
HETATM   10  C   UNL     1     -11.642  15.142  72.205  1.00  0.00    -0.490 C  
ENDROOT
BRANCH   5  11
HETATM   11  O   UNL     1     -10.747  16.836  67.656  1.00  0.00    -0.339 OA 
BRANCH  11  12
HETATM   12  C   UNL     1     -10.387  18.058  68.319  1.00  0.00    -0.380 C  
BRANCH  12  13
HETATM   13  C   UNL     1      -8.954  18.444  67.903  1.00  0.00    -0.283 C  
BRANCH  13  14
HETATM   14  N   UNL     1      -8.849  19.731  67.184  1.00  0.00    -0.310 NA 
HETATM   15  C   UNL     1      -7.852  19.681  66.114  1.00  0.00    -0.331 C  
HETATM   16  C   UNL     1     -10.152  20.099  66.624  1.00  0.00    -0.454 C  
ENDBRANCH  13  14
ENDBRANCH  12  13
ENDBRANCH  11  12
ENDBRANCH   5  11
BRANCH   6  17
HETATM   17  O   UNL     1     -12.622  12.773  71.013  1.00  0.00    -0.363 OA 
BRANCH  17  18
HETATM   18  C   UNL     1     -12.293  11.411  70.969  1.00  0.00    -0.343 C  
HETATM   19  O   UNL     1     -11.349  10.892  70.392  1.00  0.00    -0.294 OA 
HETATM   20  C   UNL     1     -13.262  10.646  71.817  1.00  0.00    -0.526 C  
ENDBRANCH  17  18
ENDBRANCH   6  17
TORSDOF 6
ENDMDL
MODEL       13
REMARK 921   NORMALIZED FREE ENERGY PREDICTED BY IDOCK:   -5.36 KCAL/MOL
REMARK 922        TOTAL FREE ENERGY PREDICTED BY IDOCK:   -7.85 KCAL/MOL
REMARK 923 INTER-LIGAND FREE ENERGY PREDICTED BY IDOCK:   -7.21 KCAL/MOL
REMARK 924 INTRA-LIGAND FREE ENERGY PREDICTED BY IDOCK:   -0.64 KCAL/MOL
REMARK 927      BINDING AFFINITY PREDICTED BY RF-SCORE:    0.00 PKD
ROOT
HETATM    1  C   UNL     1     -12.519  13.064  65.398  1.00  0.00    -0.531 C  
HETATM    2  C   UNL     1     -11.269  13.833  65.856  1.00  0.00    -0.305 C  
HETATM    3  C   UNL     1     -11.068  14.970  64.828  1.00  0.00    -0.388 C  
HETATM    4  C   UNL     1     -11.336  14.309  67.318  1.00  0.00    -0.350 A  
HETATM    5  C   UNL     1     -11.836  13.518  68.369  1.00  0.00    -0.373 A  
HETATM    6  C   UNL     1     -10.990  16.126  68.935  1.00  0.00    -0.324 A  
HETATM    7  C   UNL     1     -11.925  14.037  69.675  1.00  0.00    -0.393 A  
HETATM    8  C   UNL     1     -11.531  15.351  69.967  1.00  0.00    -0.335 A  
HETATM    9  C   UNL     1     -10.870  15.600  67.649  1.00  0.00    -0.307 A  
HETATM   10  C   UNL     1     -11.705  15.896  71.352  1.00  0.00    -0.530 C  
ENDROOT
BRANCH   5  11
HETATM   11  O   UNL     1     -12.138  12.203  68.107  1.00  0.00    -0.447 OA 
BRANCH  11  12
HETATM   12  C   UNL     1     -11.366  11.233  68.832  1.00  0.00    -0.275 C  
BRANCH  12  13
HETATM   13  C   UNL     1     -12.323  10.378  69.686  1.00  0.00     0.009 C  
BRANCH  13  14
HETATM   14  N   UNL     1     -12.074  10.446  71.142  1.00  0.00    -0.375 NA 
HETATM   15  C   UNL     1     -13.231  10.965  71.873  1.00  0.00    -0.403 C  
HETATM   16  C   UNL     1     -11.728   9.117  71.651  1.00  0.00    -0.378 C  
ENDBRANCH  13  14
ENDBRANCH  12  13
ENDBRANCH  11  12
ENDBRANCH   5  11
BRANCH   6  17
HETATM   17  O   UNL     1     -10.629  17.464  69.261  1.00  0.00    -0.302 OA 
BRANCH  17  18
HETATM   18  C   UNL     1      -9.670  18.258  68.615  1.00  0.00    -0.361 C  
HETATM   19  O   UNL     1      -8.458  18.094  68.598  1.00  0.00    -0.307 OA 
HETATM   20  C   UNL     1     -10.364  19.348  67.860  1.00  0.00    -0.542 C  
ENDBRANCH  17  18
ENDBRANCH   6  17
TORSDOF 6
ENDMDL
MODEL       14
REMARK 921   NORMALIZED FREE ENERGY PREDICTED BY IDOCK:   -5.36 KCAL/MOL
REMARK 922        TOTAL FREE ENERGY PREDICTED BY IDOCK:   -7.84 KCAL/MOL
REMARK 923 INTER-LIGAND FREE ENERGY PREDICTED BY IDOCK:   -7.33 KCAL/MOL
REMARK 924 INTRA-LIGAND FREE ENERGY PREDICTED BY IDOCK:   -0.51 KCAL/MOL
REMARK 927      BINDING AFFINITY PREDICTED BY RF-SCORE:    0.00 PKD
ROOT
HETATM    1  C   UNL     1     -13.766  15.419  70.837  1.00  0.00    -0.310 C  
HETATM    2  C   UNL     1     -12.795  14.393  71.445  1.00  0.00    -0.410 C  
HETATM    3  C   UNL     1     -13.531  13.776  72.656  1.00  0.00    -0.638 C  
HETATM    4  C   UNL     1     -12.272  13.360  70.431  1.00  0.00    -0.415 A  
HETATM    5  C   UNL     1     -11.878  13.689  69.120  1.00  0.00    -0.348 A  
HETATM    6  C   UNL     1     -11.789  11.006  69.917  1.00  0.00    -0.353 A  
HETATM    7  C   UNL     1     -11.465  12.685  68.224  1.00  0.00    -0.356 A  
HETATM    8  C   UNL     1     -11.443  11.334  68.601  1.00  0.00    -0.362 A  
HETATM    9  C   UNL     1     -12.165  12.005  70.815  1.00  0.00    -0.382 A  
HETATM   10  C   UNL     1     -11.067  10.282  67.602  1.00  0.00    -0.319 C  
ENDROOT
BRANCH   5  11
HETATM   11  O   UNL     1     -11.813  15.018  68.776  1.00  0.00    -0.324 OA 
BRANCH  11  12
HETATM   12  C   UNL     1     -11.186  15.301  67.515  1.00  0.00    -0.317 C  
BRANCH  12  13
HETATM   13  C   UNL     1     -10.114  16.388  67.728  1.00  0.00    -0.262 C  
BRANCH  13  14
HETATM   14  N   UNL     1     -10.609  17.774  67.588  1.00  0.00    -0.391 NA 
HETATM   15  C   UNL     1     -10.018  18.670  68.582  1.00  0.00    -0.388 C  
HETATM   16  C   UNL     1     -10.318  18.274  66.242  1.00  0.00    -0.405 C  
ENDBRANCH  13  14
ENDBRANCH  12  13
ENDBRANCH  11  12
ENDBRANCH   5  11
BRANCH   6  17
HETATM   17  O   UNL     1     -11.784   9.624  70.255  1.00  0.00    -0.240 OA 
BRANCH  17  18
HETATM   18  C   UNL     1     -11.352   9.054  71.462  1.00  0.00    -0.346 C  
HETATM   19  O   UNL     1     -10.200   8.861  71.823  1.00  0.00    -0.303 OA 
HETATM   20  C   UNL     1     -12.544   8.761  72.319  1.00  0.00    -0.460 C  
ENDBRANCH  17  18
ENDBRANCH   6  17
TORSDOF 6
ENDMDL
MODEL       15
REMARK 921   NORMALIZED FREE ENERGY PREDICTED BY IDOCK:   -5.33 KCAL/MOL
REMARK 922        TOTAL FREE ENERGY PREDICTED BY IDOCK:   -7.81 KCAL/MOL
REMARK 923 INTER-LIGAND FREE ENERGY PREDICTED BY IDOCK:   -7.20 KCAL/MOL
REMARK 924 INTRA-LIGAND FREE ENERGY PREDICTED BY IDOCK:   -0.61 KCAL/MOL
REMARK 927      BINDING AFFINITY PREDICTED BY RF-SCORE:    0.00 PKD
ROOT
HETATM    1  C   UNL     1     -11.565  14.326  68.588  1.00  0.00    -0.352 C  
HETATM    2  C   UNL     1     -11.894  12.935  68.020  1.00  0.00    -0.390 C  
HETATM    3  C   UNL     1     -10.967  12.744  66.798  1.00  0.00    -0.301 C  
HETATM    4  C   UNL     1     -11.808  11.805  69.061  1.00  0.00    -0.379 A  
HETATM    5  C   UNL     1     -12.293  11.923  70.377  1.00  0.00    -0.251 A  
HETATM    6  C   UNL     1     -11.028   9.543  69.620  1.00  0.00    -0.212 A  
HETATM    7  C   UNL     1     -12.128  10.871  71.297  1.00  0.00    -0.322 A  
HETATM    8  C   UNL     1     -11.472   9.684  70.939  1.00  0.00    -0.427 A  
HETATM    9  C   UNL     1     -11.223  10.572  68.699  1.00  0.00    -0.328 A  
HETATM   10  C   UNL     1     -11.249   8.612  71.963  1.00  0.00    -0.434 C  
ENDROOT
BRANCH   5  11
HETATM   11  O   UNL     1     -13.015  13.046  70.705  1.00  0.00    -0.121 OA 
BRANCH  11  12
HETATM   12  C   UNL     1     -13.299  13.213  72.104  1.00  0.00    -0.524 C  
BRANCH  12  13
HETATM   13  C   UNL     1     -13.962  14.588  72.312  1.00  0.00    -0.502 C  
BRANCH  13  14
HETATM   14  N   UNL     1     -13.067  15.624  72.869  1.00  0.00    -0.471 NA 
HETATM   15  C   UNL     1     -12.362  15.155  74.063  1.00  0.00    -0.591 C  
HETATM   16  C   UNL     1     -12.093  16.039  71.856  1.00  0.00    -0.514 C  
ENDBRANCH  13  14
ENDBRANCH  12  13
ENDBRANCH  11  12
ENDBRANCH   5  11
BRANCH   6  17
HETATM   17  O   UNL     1     -10.340   8.339  69.300  1.00  0.00    -0.212 OA 
BRANCH  17  18
HETATM   18  C   UNL     1     -10.744   7.356  68.385  1.00  0.00    -0.096 C  
HETATM   19  O   UNL     1     -10.759   7.436  67.165  1.00  0.00    -0.323 OA 
HETATM   20  C   UNL     1     -11.112   6.112  69.133  1.00  0.00    -0.448 C  
ENDBRANCH  17  18
ENDBRANCH   6  17
TORSDOF 6
ENDMDL
MODEL       16
REMARK 921   NORMALIZED FREE ENERGY PREDICTED BY IDOCK:   -5.31 KCAL/MOL
REMARK 922        TOTAL FREE ENERGY PREDICTED BY IDOCK:   -7.78 KCAL/MOL
REMARK 923 INTER-LIGAND FREE ENERGY PREDICTED BY IDOCK:   -7.11 KCAL/MOL
REMARK 924 INTRA-LIGAND FREE ENERGY PREDICTED BY IDOCK:   -0.68 KCAL/MOL
REMARK 927      BINDING AFFINITY PREDICTED BY RF-SCORE:    0.00 PKD
ROOT
HETATM    1  C   UNL     1     -11.869  12.823  65.599  1.00  0.00    -0.472 C  
HETATM    2  C   UNL     1     -11.187  13.440  66.832  1.00  0.00    -0.330 C  
HETATM    3  C   UNL     1     -11.485  14.956  66.769  1.00  0.00    -0.304 C  
HETATM    4  C   UNL     1     -11.588  12.773  68.159  1.00  0.00    -0.380 A  
HETATM    5  C   UNL     1     -11.720  11.380  68.319  1.00  0.00    -0.288 A  
HETATM    6  C   UNL     1     -12.291  13.043  70.498  1.00  0.00    -0.287 A  
HETATM    7  C   UNL     1     -12.148  10.839  69.546  1.00  0.00    -0.344 A  
HETATM    8  C   UNL     1     -12.464  11.662  70.636  1.00  0.00    -0.386 A  
HETATM    9  C   UNL     1     -11.833  13.577  69.293  1.00  0.00    -0.392 A  
HETATM   10  C   UNL     1     -12.986  11.058  71.905  1.00  0.00    -0.485 C  
ENDROOT
BRANCH   5  11
HETATM   11  O   UNL     1     -11.326  10.567  67.284  1.00  0.00    -0.359 OA 
BRANCH  11  12
HETATM   12  C   UNL     1      -9.972  10.092  67.350  1.00  0.00    -0.197 C  
BRANCH  12  13
HETATM   13  C   UNL     1      -9.939   8.624  66.880  1.00  0.00    -0.260 C  
BRANCH  13  14
HETATM   14  N   UNL     1     -10.843   7.721  67.623  1.00  0.00    -0.141 NA 
HETATM   15  C   UNL     1     -10.959   6.411  66.981  1.00  0.00    -0.389 C  
HETATM   16  C   UNL     1     -10.361   7.553  68.997  1.00  0.00    -0.212 C  
ENDBRANCH  13  14
ENDBRANCH  12  13
ENDBRANCH  11  12
ENDBRANCH   5  11
BRANCH   6  17
HETATM   17  O   UNL     1     -12.650  13.850  71.615  1.00  0.00    -0.333 OA 
BRANCH  17  18
HETATM   18  C   UNL     1     -13.073  15.187  71.586  1.00  0.00    -0.388 C  
HETATM   19  O   UNL     1     -14.180  15.610  71.286  1.00  0.00    -0.540 OA 
HETATM   20  C   UNL     1     -11.955  16.064  72.057  1.00  0.00    -0.622 C  
ENDBRANCH  17  18
ENDBRANCH   6  17
TORSDOF 6
ENDMDL
MODEL       17
REMARK 921   NORMALIZED FREE ENERGY PREDICTED BY IDOCK:   -5.30 KCAL/MOL
REMARK 922        TOTAL FREE ENERGY PREDICTED BY IDOCK:   -7.76 KCAL/MOL
REMARK 923 INTER-LIGAND FREE ENERGY PREDICTED BY IDOCK:   -6.82 KCAL/MOL
REMARK 924 INTRA-LIGAND FREE ENERGY PREDICTED BY IDOCK:   -0.94 KCAL/MOL
REMARK 927      BINDING AFFINITY PREDICTED BY RF-SCORE:    0.00 PKD
ROOT
HETATM    1  C   UNL     1     -11.870  12.709  65.621  1.00  0.00    -0.488 C  
HETATM    2  C   UNL     1     -11.169  13.317  66.847  1.00  0.00    -0.332 C  
HETATM    3  C   UNL     1     -11.421  14.840  66.770  1.00  0.00    -0.343 C  
HETATM    4  C   UNL     1     -11.589  12.675  68.181  1.00  0.00    -0.386 A  
HETATM    5  C   UNL     1     -11.763  11.289  68.355  1.00  0.00    -0.294 A  
HETATM    6  C   UNL     1     -12.282  12.990  70.518  1.00  0.00    -0.313 A  
HETATM    7  C   UNL     1     -12.207  10.772  69.587  1.00  0.00    -0.325 A  
HETATM    8  C   UNL     1     -12.497  11.615  70.669  1.00  0.00    -0.386 A  
HETATM    9  C   UNL     1     -11.809  13.497  69.308  1.00  0.00    -0.392 A  
HETATM   10  C   UNL     1     -13.037  11.040  71.944  1.00  0.00    -0.525 C  
ENDROOT
BRANCH   5  11
HETATM   11  O   UNL     1     -11.394  10.454  67.328  1.00  0.00    -0.327 OA 
BRANCH  11  12
HETATM   12  C   UNL     1     -10.291   9.578  67.607  1.00  0.00    -0.244 C  
BRANCH  12  13
HETATM   13  C   UNL     1      -8.990  10.256  67.135  1.00  0.00    -0.135 C  
BRANCH  13  14
HETATM   14  N   UNL     1      -8.037  10.577  68.219  1.00  0.00    -0.111 NA 
HETATM   15  C   UNL     1      -7.905  12.021  68.422  1.00  0.00    -0.147 C  
HETATM   16  C   UNL     1      -8.469   9.944  69.467  1.00  0.00    -0.176 C  
ENDBRANCH  13  14
ENDBRANCH  12  13
ENDBRANCH  11  12
ENDBRANCH   5  11
BRANCH   6  17
HETATM   17  O   UNL     1     -12.616  13.817  71.626  1.00  0.00    -0.332 OA 
BRANCH  17  18
HETATM   18  C   UNL     1     -13.036  15.155  71.582  1.00  0.00    -0.388 C  
HETATM   19  O   UNL     1     -14.128  15.580  71.233  1.00  0.00    -0.548 OA 
HETATM   20  C   UNL     1     -11.940  16.030  72.106  1.00  0.00    -0.629 C  
ENDBRANCH  17  18
ENDBRANCH   6  17
TORSDOF 6
ENDMDL
MODEL       18
REMARK 921   NORMALIZED FREE ENERGY PREDICTED BY IDOCK:   -5.29 KCAL/MOL
REMARK 922        TOTAL FREE ENERGY PREDICTED BY IDOCK:   -7.75 KCAL/MOL
REMARK 923 INTER-LIGAND FREE ENERGY PREDICTED BY IDOCK:   -7.24 KCAL/MOL
REMARK 924 INTRA-LIGAND FREE ENERGY PREDICTED BY IDOCK:   -0.51 KCAL/MOL
REMARK 927      BINDING AFFINITY PREDICTED BY RF-SCORE:    0.00 PKD
ROOT
HETATM    1  C   UNL     1     -11.943  10.467  70.988  1.00  0.00    -0.481 C  
HETATM    2  C   UNL     1     -10.928  10.483  69.833  1.00  0.00    -0.359 C  
HETATM    3  C   UNL     1     -10.791   9.016  69.365  1.00  0.00    -0.152 C  
HETATM    4  C   UNL     1     -11.285  11.473  68.709  1.00  0.00    -0.309 A  
HETATM    5  C   UNL     1     -11.778  12.770  68.946  1.00  0.00    -0.326 A  
HETATM    6  C   UNL     1     -11.502  11.899  66.299  1.00  0.00    -0.301 A  
HETATM    7  C   UNL     1     -12.141  13.604  67.871  1.00  0.00    -0.318 A  
HETATM    8  C   UNL     1     -12.035  13.170  66.542  1.00  0.00    -0.459 A  
HETATM    9  C   UNL     1     -11.110  11.086  67.363  1.00  0.00    -0.370 A  
HETATM   10  C   UNL     1     -12.498  14.055  65.424  1.00  0.00    -0.520 C  
ENDROOT
BRANCH   5  11
HETATM   11  O   UNL     1     -11.799  13.232  70.240  1.00  0.00    -0.307 OA 
BRANCH  11  12
HETATM   12  C   UNL     1     -12.979  13.959  70.619  1.00  0.00    -0.153 C  
BRANCH  12  13
HETATM   13  C   UNL     1     -13.054  14.012  72.157  1.00  0.00    -0.411 C  
BRANCH  13  14
HETATM   14  N   UNL     1     -12.943  15.370  72.732  1.00  0.00    -0.402 NA 
HETATM   15  C   UNL     1     -12.489  15.341  74.123  1.00  0.00    -0.597 C  
HETATM   16  C   UNL     1     -12.018  16.176  71.931  1.00  0.00    -0.507 C  
ENDBRANCH  13  14
ENDBRANCH  12  13
ENDBRANCH  11  12
ENDBRANCH   5  11
BRANCH   6  17
HETATM   17  O   UNL     1     -11.436  11.480  64.940  1.00  0.00    -0.187 OA 
BRANCH  17  18
HETATM   18  C   UNL     1     -10.325  11.557  64.089  1.00  0.00    -0.334 C  
HETATM   19  O   UNL     1      -9.998  12.494  63.375  1.00  0.00    -0.380 OA 
HETATM   20  C   UNL     1      -9.516  10.304  64.224  1.00  0.00    -0.365 C  
ENDBRANCH  17  18
ENDBRANCH   6  17
TORSDOF 6
ENDMDL
MODEL       19
REMARK 921   NORMALIZED FREE ENERGY PREDICTED BY IDOCK:   -5.25 KCAL/MOL
REMARK 922        TOTAL FREE ENERGY PREDICTED BY IDOCK:   -7.70 KCAL/MOL
REMARK 923 INTER-LIGAND FREE ENERGY PREDICTED BY IDOCK:   -6.92 KCAL/MOL
REMARK 924 INTRA-LIGAND FREE ENERGY PREDICTED BY IDOCK:   -0.77 KCAL/MOL
REMARK 927      BINDING AFFINITY PREDICTED BY RF-SCORE:    0.00 PKD
ROOT
HETATM    1  C   UNL     1     -12.626  13.142  65.082  1.00  0.00    -0.525 C  
HETATM    2  C   UNL     1     -11.351  13.901  65.488  1.00  0.00    -0.310 C  
HETATM    3  C   UNL     1     -11.196  15.050  64.465  1.00  0.00    -0.276 C  
HETATM    4  C   UNL     1     -11.345  14.359  66.957  1.00  0.00    -0.357 A  
HETATM    5  C   UNL     1     -11.796  13.557  68.022  1.00  0.00    -0.365 A  
HETATM    6  C   UNL     1     -10.913  16.156  68.577  1.00  0.00    -0.338 A  
HETATM    7  C   UNL     1     -11.819  14.060  69.337  1.00  0.00    -0.381 A  
HETATM    8  C   UNL     1     -11.406  15.369  69.624  1.00  0.00    -0.315 A  
HETATM    9  C   UNL     1     -10.858  15.644  67.280  1.00  0.00    -0.298 A  
HETATM   10  C   UNL     1     -11.510  15.899  71.023  1.00  0.00    -0.461 C  
ENDROOT
BRANCH   5  11
HETATM   11  O   UNL     1     -12.116  12.247  67.758  1.00  0.00    -0.478 OA 
BRANCH  11  12
HETATM   12  C   UNL     1     -11.538  11.277  68.646  1.00  0.00    -0.318 C  
BRANCH  12  13
HETATM   13  C   UNL     1     -10.717  10.273  67.814  1.00  0.00    -0.275 C  
BRANCH  13  14
HETATM   14  N   UNL     1     -10.050  10.856  66.631  1.00  0.00    -0.211 NA 
HETATM   15  C   UNL     1      -8.788  11.510  66.979  1.00  0.00    -0.173 C  
HETATM   16  C   UNL     1      -9.803   9.813  65.632  1.00  0.00    -0.301 C  
ENDBRANCH  13  14
ENDBRANCH  12  13
ENDBRANCH  11  12
ENDBRANCH   5  11
BRANCH   6  17
HETATM   17  O   UNL     1     -10.531  17.488  68.900  1.00  0.00    -0.349 OA 
BRANCH  17  18
HETATM   18  C   UNL     1     -10.166  18.501  68.001  1.00  0.00    -0.383 C  
HETATM   19  O   UNL     1     -10.902  19.152  67.275  1.00  0.00    -0.476 OA 
HETATM   20  C   UNL     1      -8.690  18.734  68.100  1.00  0.00    -0.335 C  
ENDBRANCH  17  18
ENDBRANCH   6  17
TORSDOF 6
ENDMDL
MODEL       20
REMARK 921   NORMALIZED FREE ENERGY PREDICTED BY IDOCK:   -5.25 KCAL/MOL
REMARK 922        TOTAL FREE ENERGY PREDICTED BY IDOCK:   -7.69 KCAL/MOL
REMARK 923 INTER-LIGAND FREE ENERGY PREDICTED BY IDOCK:   -7.05 KCAL/MOL
REMARK 924 INTRA-LIGAND FREE ENERGY PREDICTED BY IDOCK:   -0.64 KCAL/MOL
REMARK 927      BINDING AFFINITY PREDICTED BY RF-SCORE:    0.00 PKD
ROOT
HETATM    1  C   UNL     1     -11.192  13.969  66.548  1.00  0.00    -0.326 C  
HETATM    2  C   UNL     1     -11.661  12.513  66.392  1.00  0.00    -0.449 C  
HETATM    3  C   UNL     1     -10.977  11.980  65.112  1.00  0.00    -0.359 C  
HETATM    4  C   UNL     1     -11.421  11.648  67.642  1.00  0.00    -0.373 A  
HETATM    5  C   UNL     1     -11.655  12.099  68.955  1.00  0.00    -0.324 A  
HETATM    6  C   UNL     1     -10.621   9.524  68.584  1.00  0.00    -0.210 A  
HETATM    7  C   UNL     1     -11.357  11.277  70.058  1.00  0.00    -0.292 A  
HETATM    8  C   UNL     1     -10.813   9.996  69.887  1.00  0.00    -0.328 A  
HETATM    9  C   UNL     1     -10.948  10.326  67.491  1.00  0.00    -0.344 A  
HETATM   10  C   UNL     1     -10.440   9.173  71.084  1.00  0.00    -0.385 C  
ENDROOT
BRANCH   5  11
HETATM   11  O   UNL     1     -12.271  13.316  69.124  1.00  0.00    -0.266 OA 
BRANCH  11  12
HETATM   12  C   UNL     1     -11.998  13.982  70.367  1.00  0.00    -0.328 C  
BRANCH  12  13
HETATM   13  C   UNL     1     -13.100  15.029  70.619  1.00  0.00    -0.319 C  
BRANCH  13  14
HETATM   14  N   UNL     1     -13.900  14.797  71.841  1.00  0.00    -0.400 NA 
HETATM   15  C   UNL     1     -13.773  13.422  72.326  1.00  0.00    -0.607 C  
HETATM   16  C   UNL     1     -13.487  15.729  72.893  1.00  0.00    -0.580 C  
ENDBRANCH  13  14
ENDBRANCH  12  13
ENDBRANCH  11  12
ENDBRANCH   5  11
BRANCH   6  17
HETATM   17  O   UNL     1     -10.038   8.232  68.449  1.00  0.00    -0.189 OA 
BRANCH  17  18
HETATM   18  C   UNL     1     -10.686   7.055  68.046  1.00  0.00    -0.194 C  
HETATM   19  O   UNL     1     -11.123   6.790  66.935  1.00  0.00    -0.397 OA 
HETATM   20  C   UNL     1     -10.714   6.094  69.193  1.00  0.00    -0.381 C  
ENDBRANCH  17  18
ENDBRANCH   6  17
TORSDOF 6
ENDMDL
MODEL       21
REMARK 921   NORMALIZED FREE ENERGY PREDICTED BY IDOCK:   -5.23 KCAL/MOL
REMARK 922        TOTAL FREE ENERGY PREDICTED BY IDOCK:   -7.68 KCAL/MOL
REMARK 923 INTER-LIGAND FREE ENERGY PREDICTED BY IDOCK:   -7.06 KCAL/MOL
REMARK 924 INTRA-LIGAND FREE ENERGY PREDICTED BY IDOCK:   -0.61 KCAL/MOL
REMARK 927      BINDING AFFINITY PREDICTED BY RF-SCORE:    0.00 PKD
ROOT
HETATM    1  C   UNL     1      -9.454  10.739  66.198  1.00  0.00    -0.221 C  
HETATM    2  C   UNL     1     -10.187   9.670  67.027  1.00  0.00    -0.308 C  
HETATM    3  C   UNL     1      -9.116   8.624  67.414  1.00  0.00    -0.148 C  
HETATM    4  C   UNL     1     -10.970  10.243  68.222  1.00  0.00    -0.315 A  
HETATM    5  C   UNL     1     -11.738  11.420  68.154  1.00  0.00    -0.284 A  
HETATM    6  C   UNL     1     -11.547  10.081  70.605  1.00  0.00    -0.340 A  
HETATM    7  C   UNL     1     -12.382  11.922  69.301  1.00  0.00    -0.016 A  
HETATM    8  C   UNL     1     -12.271  11.276  70.541  1.00  0.00    -0.474 A  
HETATM    9  C   UNL     1     -10.938   9.566  69.461  1.00  0.00    -0.217 A  
HETATM   10  C   UNL     1     -12.909  11.875  71.758  1.00  0.00    -0.389 C  
ENDROOT
BRANCH   5  11
HETATM   11  O   UNL     1     -11.923  12.005  66.924  1.00  0.00    -0.612 OA 
BRANCH  11  12
HETATM   12  C   UNL     1     -11.907  13.441  66.912  1.00  0.00    -0.403 C  
BRANCH  12  13
HETATM   13  C   UNL     1     -12.739  13.935  65.713  1.00  0.00    -0.461 C  
BRANCH  13  14
HETATM   14  N   UNL     1     -11.948  14.250  64.504  1.00  0.00    -0.444 NA 
HETATM   15  C   UNL     1     -10.605  14.728  64.837  1.00  0.00    -0.406 C  
HETATM   16  C   UNL     1     -11.849  13.064  63.650  1.00  0.00    -0.516 C  
ENDBRANCH  13  14
ENDBRANCH  12  13
ENDBRANCH  11  12
ENDBRANCH   5  11
BRANCH   6  17
HETATM   17  O   UNL     1     -11.430   9.470  71.885  1.00  0.00    -0.355 OA 
BRANCH  17  18
HETATM   18  C   UNL     1     -11.803   8.163  72.231  1.00  0.00    -0.382 C  
HETATM   19  O   UNL     1     -12.771   7.534  71.827  1.00  0.00    -0.322 OA 
HETATM   20  C   UNL     1     -10.775   7.588  73.155  1.00  0.00    -0.452 C  
ENDBRANCH  17  18
ENDBRANCH   6  17
TORSDOF 6
ENDMDL
MODEL       22
REMARK 921   NORMALIZED FREE ENERGY PREDICTED BY IDOCK:   -5.23 KCAL/MOL
REMARK 922        TOTAL FREE ENERGY PREDICTED BY IDOCK:   -7.67 KCAL/MOL
REMARK 923 INTER-LIGAND FREE ENERGY PREDICTED BY IDOCK:   -7.15 KCAL/MOL
REMARK 924 INTRA-LIGAND FREE ENERGY PREDICTED BY IDOCK:   -0.53 KCAL/MOL
REMARK 927      BINDING AFFINITY PREDICTED BY RF-SCORE:    0.00 PKD
ROOT
HETATM    1  C   UNL     1     -13.168  10.351  72.022  1.00  0.00    -0.497 C  
HETATM    2  C   UNL     1     -11.839   9.908  71.388  1.00  0.00    -0.476 C  
HETATM    3  C   UNL     1     -11.836   8.363  71.442  1.00  0.00    -0.339 C  
HETATM    4  C   UNL     1     -11.597  10.491  69.985  1.00  0.00    -0.392 A  
HETATM    5  C   UNL     1     -11.883  11.825  69.639  1.00  0.00    -0.339 A  
HETATM    6  C   UNL     1     -10.899  10.105  67.660  1.00  0.00    -0.290 A  
HETATM    7  C   UNL     1     -11.693  12.278  68.319  1.00  0.00    -0.392 A  
HETATM    8  C   UNL     1     -11.228  11.420  67.313  1.00  0.00    -0.370 A  
HETATM    9  C   UNL     1     -11.053   9.667  68.976  1.00  0.00    -0.104 A  
HETATM   10  C   UNL     1     -11.106  11.914  65.903  1.00  0.00    -0.365 C  
ENDROOT
BRANCH   5  11
HETATM   11  O   UNL     1     -12.252  12.691  70.640  1.00  0.00    -0.374 OA 
BRANCH  11  12
HETATM   12  C   UNL     1     -12.499  14.045  70.228  1.00  0.00    -0.338 C  
BRANCH  12  13
HETATM   13  C   UNL     1     -11.877  14.999  71.267  1.00  0.00    -0.337 C  
BRANCH  13  14
HETATM   14  N   UNL     1     -12.852  15.630  72.182  1.00  0.00    -0.410 NA 
HETATM   15  C   UNL     1     -14.227  15.234  71.875  1.00  0.00    -0.581 C  
HETATM   16  C   UNL     1     -12.537  15.276  73.568  1.00  0.00    -0.554 C  
ENDBRANCH  13  14
ENDBRANCH  12  13
ENDBRANCH  11  12
ENDBRANCH   5  11
BRANCH   6  17
HETATM   17  O   UNL     1     -10.458   9.254  66.608  1.00  0.00    -0.237 OA 
BRANCH  17  18
HETATM   18  C   UNL     1     -10.221   7.874  66.685  1.00  0.00    -0.233 C  
HETATM   19  O   UNL     1     -11.044   6.986  66.851  1.00  0.00    -0.359 OA 
HETATM   20  C   UNL     1      -8.763   7.615  66.459  1.00  0.00    -0.161 C  
ENDBRANCH  17  18
ENDBRANCH   6  17
TORSDOF 6
ENDMDL
MODEL       23
REMARK 921   NORMALIZED FREE ENERGY PREDICTED BY IDOCK:   -5.22 KCAL/MOL
REMARK 922        TOTAL FREE ENERGY PREDICTED BY IDOCK:   -7.66 KCAL/MOL
REMARK 923 INTER-LIGAND FREE ENERGY PREDICTED BY IDOCK:   -6.95 KCAL/MOL
REMARK 924 INTRA-LIGAND FREE ENERGY PREDICTED BY IDOCK:   -0.71 KCAL/MOL
REMARK 927      BINDING AFFINITY PREDICTED BY RF-SCORE:    0.00 PKD
ROOT
HETATM    1  C   UNL     1     -10.308  10.043  69.894  1.00  0.00    -0.315 C  
HETATM    2  C   UNL     1     -11.371  10.545  68.904  1.00  0.00    -0.313 C  
HETATM    3  C   UNL     1     -11.797  11.943  69.408  1.00  0.00    -0.389 C  
HETATM    4  C   UNL     1     -10.912  10.518  67.435  1.00  0.00    -0.352 A  
HETATM    5  C   UNL     1     -10.180   9.456  66.871  1.00  0.00    -0.248 A  
HETATM    6  C   UNL     1     -10.768  11.680  65.275  1.00  0.00    -0.291 A  
HETATM    7  C   UNL     1      -9.739   9.521  65.535  1.00  0.00    -0.344 A  
HETATM    8  C   UNL     1     -10.002  10.642  64.734  1.00  0.00    -0.391 A  
HETATM    9  C   UNL     1     -11.235  11.599  66.587  1.00  0.00    -0.362 A  
HETATM   10  C   UNL     1      -9.457  10.711  63.339  1.00  0.00    -0.352 C  
ENDROOT
BRANCH   5  11
HETATM   11  O   UNL     1      -9.998   8.320  67.622  1.00  0.00    -0.166 OA 
BRANCH  11  12
HETATM   12  C   UNL     1     -10.420   7.093  67.005  1.00  0.00    -0.322 C  
BRANCH  12  13
HETATM   13  C   UNL     1     -11.011   6.171  68.090  1.00  0.00    -0.307 C  
BRANCH  13  14
HETATM   14  N   UNL     1     -10.487   6.411  69.451  1.00  0.00    -0.207 NA 
HETATM   15  C   UNL     1     -11.561   6.562  70.433  1.00  0.00    -0.407 C  
HETATM   16  C   UNL     1      -9.609   5.308  69.850  1.00  0.00    -0.177 C  
ENDBRANCH  13  14
ENDBRANCH  12  13
ENDBRANCH  11  12
ENDBRANCH   5  11
BRANCH   6  17
HETATM   17  O   UNL     1     -10.990  12.814  64.443  1.00  0.00    -0.319 OA 
BRANCH  17  18
HETATM   18  C   UNL     1     -12.201  13.199  63.850  1.00  0.00    -0.433 C  
HETATM   19  O   UNL     1     -12.630  14.334  63.704  1.00  0.00    -0.831 OA 
HETATM   20  C   UNL     1     -12.903  11.980  63.336  1.00  0.00    -0.427 C  
ENDBRANCH  17  18
ENDBRANCH   6  17
TORSDOF 6
ENDMDL
MODEL       24
REMARK 921   NORMALIZED FREE ENERGY PREDICTED BY IDOCK:   -5.15 KCAL/MOL
REMARK 922        TOTAL FREE ENERGY PREDICTED BY IDOCK:   -7.56 KCAL/MOL
REMARK 923 INTER-LIGAND FREE ENERGY PREDICTED BY IDOCK:   -6.95 KCAL/MOL
REMARK 924 INTRA-LIGAND FREE ENERGY PREDICTED BY IDOCK:   -0.61 KCAL/MOL
REMARK 927      BINDING AFFINITY PREDICTED BY RF-SCORE:    0.00 PKD
ROOT
HETATM    1  C   UNL     1     -12.355  11.523  70.638  1.00  0.00    -0.457 C  
HETATM    2  C   UNL     1     -11.264  11.289  69.580  1.00  0.00    -0.337 C  
HETATM    3  C   UNL     1     -11.213   9.761  69.352  1.00  0.00    -0.154 C  
HETATM    4  C   UNL     1     -11.462  12.112  68.294  1.00  0.00    -0.360 A  
HETATM    5  C   UNL     1     -11.866  13.460  68.290  1.00  0.00    -0.358 A  
HETATM    6  C   UNL     1     -11.477  12.167  65.838  1.00  0.00    -0.363 A  
HETATM    7  C   UNL     1     -12.086  14.138  67.076  1.00  0.00    -0.449 A  
HETATM    8  C   UNL     1     -11.922  13.493  65.841  1.00  0.00    -0.444 A  
HETATM    9  C   UNL     1     -11.225  11.507  67.041  1.00  0.00    -0.365 A  
HETATM   10  C   UNL     1     -12.235  14.221  64.568  1.00  0.00    -0.476 C  
ENDROOT
BRANCH   5  11
HETATM   11  O   UNL     1     -11.941  14.120  69.494  1.00  0.00    -0.301 OA 
BRANCH  11  12
HETATM   12  C   UNL     1     -12.150  15.539  69.411  1.00  0.00    -0.277 C  
BRANCH  12  13
HETATM   13  C   UNL     1     -10.835  16.255  69.777  1.00  0.00    -0.356 C  
BRANCH  13  14
HETATM   14  N   UNL     1      -9.980  16.599  68.621  1.00  0.00    -0.248 NA 
HETATM   15  C   UNL     1     -10.162  17.989  68.200  1.00  0.00    -0.384 C  
HETATM   16  C   UNL     1      -8.572  16.368  68.955  1.00  0.00    -0.250 C  
ENDBRANCH  13  14
ENDBRANCH  12  13
ENDBRANCH  11  12
ENDBRANCH   5  11
BRANCH   6  17
HETATM   17  O   UNL     1     -11.350  11.536  64.568  1.00  0.00    -0.276 OA 
BRANCH  17  18
HETATM   18  C   UNL     1     -10.172  11.366  63.826  1.00  0.00    -0.382 C  
HETATM   19  O   UNL     1      -9.697  12.132  63.000  1.00  0.00    -0.347 OA 
HETATM   20  C   UNL     1      -9.508  10.092  64.247  1.00  0.00    -0.366 C  
ENDBRANCH  17  18
ENDBRANCH   6  17
TORSDOF 6
ENDMDL
MODEL       25
REMARK 921   NORMALIZED FREE ENERGY PREDICTED BY IDOCK:   -5.13 KCAL/MOL
REMARK 922        TOTAL FREE ENERGY PREDICTED BY IDOCK:   -7.54 KCAL/MOL
REMARK 923 INTER-LIGAND FREE ENERGY PREDICTED BY IDOCK:   -6.88 KCAL/MOL
REMARK 924 INTRA-LIGAND FREE ENERGY PREDICTED BY IDOCK:   -0.66 KCAL/MOL
REMARK 927      BINDING AFFINITY PREDICTED BY RF-SCORE:    0.00 PKD
ROOT
HETATM    1  C   UNL     1     -10.958   9.498  67.787  1.00  0.00    -0.165 C  
HETATM    2  C   UNL     1     -10.393  10.795  68.391  1.00  0.00    -0.199 C  
HETATM    3  C   UNL     1     -10.105  11.731  67.195  1.00  0.00    -0.224 C  
HETATM    4  C   UNL     1     -11.291  11.416  69.475  1.00  0.00    -0.357 A  
HETATM    5  C   UNL     1     -11.946  10.661  70.466  1.00  0.00    -0.352 A  
HETATM    6  C   UNL     1     -12.351  13.431  70.400  1.00  0.00    -0.312 A  
HETATM    7  C   UNL     1     -12.802  11.286  71.393  1.00  0.00    -0.515 A  
HETATM    8  C   UNL     1     -13.035  12.669  71.354  1.00  0.00    -0.353 A  
HETATM    9  C   UNL     1     -11.477  12.815  69.505  1.00  0.00    -0.293 A  
HETATM   10  C   UNL     1     -14.007  13.293  72.309  1.00  0.00    -0.559 C  
ENDROOT
BRANCH   5  11
HETATM   11  O   UNL     1     -11.651   9.322  70.565  1.00  0.00    -0.267 OA 
BRANCH  11  12
HETATM   12  C   UNL     1     -12.445   8.580  71.504  1.00  0.00    -0.317 C  
BRANCH  12  13
HETATM   13  C   UNL     1     -12.340   7.081  71.164  1.00  0.00    -0.378 C  
BRANCH  13  14
HETATM   14  N   UNL     1     -11.007   6.650  70.691  1.00  0.00    -0.262 NA 
HETATM   15  C   UNL     1     -10.411   5.645  71.572  1.00  0.00    -0.222 C  
HETATM   16  C   UNL     1     -11.109   6.112  69.332  1.00  0.00    -0.409 C  
ENDBRANCH  13  14
ENDBRANCH  12  13
ENDBRANCH  11  12
ENDBRANCH   5  11
BRANCH   6  17
HETATM   17  O   UNL     1     -12.635  14.825  70.370  1.00  0.00    -0.343 OA 
BRANCH  17  18
HETATM   18  C   UNL     1     -11.760  15.870  70.703  1.00  0.00    -0.384 C  
HETATM   19  O   UNL     1     -11.064  16.527  69.944  1.00  0.00    -0.345 OA 
HETATM   20  C   UNL     1     -11.845  16.129  72.175  1.00  0.00    -0.626 C  
ENDBRANCH  17  18
ENDBRANCH   6  17
TORSDOF 6
ENDMDL
MODEL       26
REMARK 921   NORMALIZED FREE ENERGY PREDICTED BY IDOCK:   -5.13 KCAL/MOL
REMARK 922        TOTAL FREE ENERGY PREDICTED BY IDOCK:   -7.54 KCAL/MOL
REMARK 923 INTER-LIGAND FREE ENERGY PREDICTED BY IDOCK:   -6.91 KCAL/MOL
REMARK 924 INTRA-LIGAND FREE ENERGY PREDICTED BY IDOCK:   -0.63 KCAL/MOL
REMARK 927      BINDING AFFINITY PREDICTED BY RF-SCORE:    0.00 PKD
ROOT
HETATM    1  C   UNL     1     -10.842  15.253  66.263  1.00  0.00    -0.312 C  
HETATM    2  C   UNL     1     -11.501  13.904  65.930  1.00  0.00    -0.328 C  
HETATM    3  C   UNL     1     -10.782  13.379  64.666  1.00  0.00    -0.425 C  
HETATM    4  C   UNL     1     -11.510  12.913  67.108  1.00  0.00    -0.388 A  
HETATM    5  C   UNL     1     -11.801  13.286  68.434  1.00  0.00    -0.360 A  
HETATM    6  C   UNL     1     -11.121  10.622  67.906  1.00  0.00    -0.308 A  
HETATM    7  C   UNL     1     -11.733  12.340  69.474  1.00  0.00    -0.398 A  
HETATM    8  C   UNL     1     -11.367  11.009  69.228  1.00  0.00    -0.350 A  
HETATM    9  C   UNL     1     -11.222  11.551  66.871  1.00  0.00    -0.363 A  
HETATM   10  C   UNL     1     -11.234  10.044  70.367  1.00  0.00    -0.393 C  
ENDROOT
BRANCH   5  11
HETATM   11  O   UNL     1     -12.247  14.565  68.666  1.00  0.00    -0.243 OA 
BRANCH  11  12
HETATM   12  C   UNL     1     -11.824  15.153  69.906  1.00  0.00    -0.330 C  
BRANCH  12  13
HETATM   13  C   UNL     1     -13.067  15.421  70.776  1.00  0.00    -0.424 C  
BRANCH  13  14
HETATM   14  N   UNL     1     -12.983  14.883  72.151  1.00  0.00    -0.316 NA 
HETATM   15  C   UNL     1     -13.409  15.864  73.151  1.00  0.00    -0.587 C  
HETATM   16  C   UNL     1     -13.805  13.676  72.266  1.00  0.00    -0.590 C  
ENDBRANCH  13  14
ENDBRANCH  12  13
ENDBRANCH  11  12
ENDBRANCH   5  11
BRANCH   6  17
HETATM   17  O   UNL     1     -10.722   9.271  67.697  1.00  0.00    -0.269 OA 
BRANCH  17  18
HETATM   18  C   UNL     1      -9.416   8.801  67.497  1.00  0.00    -0.141 C  
HETATM   19  O   UNL     1      -8.508   8.758  68.313  1.00  0.00    -0.128 OA 
HETATM   20  C   UNL     1      -9.295   8.271  66.101  1.00  0.00    -0.254 C  
ENDBRANCH  17  18
ENDBRANCH   6  17
TORSDOF 6
ENDMDL
MODEL       27
REMARK 921   NORMALIZED FREE ENERGY PREDICTED BY IDOCK:   -5.13 KCAL/MOL
REMARK 922        TOTAL FREE ENERGY PREDICTED BY IDOCK:   -7.53 KCAL/MOL
REMARK 923 INTER-LIGAND FREE ENERGY PREDICTED BY IDOCK:   -6.82 KCAL/MOL
REMARK 924 INTRA-LIGAND FREE ENERGY PREDICTED BY IDOCK:   -0.71 KCAL/MOL
REMARK 927      BINDING AFFINITY PREDICTED BY RF-SCORE:    0.00 PKD
ROOT
HETATM    1  C   UNL     1     -13.305  15.135  70.486  1.00  0.00    -0.200 C  
HETATM    2  C   UNL     1     -12.659  14.007  71.308  1.00  0.00    -0.444 C  
HETATM    3  C   UNL     1     -13.717  13.582  72.353  1.00  0.00    -0.704 C  
HETATM    4  C   UNL     1     -12.118  12.849  70.452  1.00  0.00    -0.385 A  
HETATM    5  C   UNL     1     -11.417  13.037  69.245  1.00  0.00    -0.289 A  
HETATM    6  C   UNL     1     -11.933  10.423  70.106  1.00  0.00    -0.276 A  
HETATM    7  C   UNL     1     -11.001  11.931  68.479  1.00  0.00    -0.277 A  
HETATM    8  C   UNL     1     -11.277  10.618  68.885  1.00  0.00    -0.333 A  
HETATM    9  C   UNL     1     -12.314  11.518  70.881  1.00  0.00    -0.460 A  
HETATM   10  C   UNL     1     -10.884   9.465  68.011  1.00  0.00    -0.197 C  
ENDROOT
BRANCH   5  11
HETATM   11  O   UNL     1     -11.067  14.318  68.890  1.00  0.00    -0.242 OA 
BRANCH  11  12
HETATM   12  C   UNL     1     -10.374  14.446  67.639  1.00  0.00    -0.237 C  
BRANCH  12  13
HETATM   13  C   UNL     1     -11.278  15.207  66.649  1.00  0.00    -0.274 C  
BRANCH  13  14
HETATM   14  N   UNL     1     -11.511  14.507  65.368  1.00  0.00    -0.340 NA 
HETATM   15  C   UNL     1     -10.331  13.762  64.927  1.00  0.00    -0.398 C  
HETATM   16  C   UNL     1     -12.648  13.592  65.499  1.00  0.00    -0.481 C  
ENDBRANCH  13  14
ENDBRANCH  12  13
ENDBRANCH  11  12
ENDBRANCH   5  11
BRANCH   6  17
HETATM   17  O   UNL     1     -12.223   9.078  70.471  1.00  0.00    -0.068 OA 
BRANCH  17  18
HETATM   18  C   UNL     1     -12.539   8.603  71.752  1.00  0.00    -0.349 C  
HETATM   19  O   UNL     1     -11.769   8.395  72.679  1.00  0.00    -0.386 OA 
HETATM   20  C   UNL     1     -14.023   8.438  71.861  1.00  0.00    -0.483 C  
ENDBRANCH  17  18
ENDBRANCH   6  17
TORSDOF 6
ENDMDL
MODEL       28
REMARK 921   NORMALIZED FREE ENERGY PREDICTED BY IDOCK:   -5.13 KCAL/MOL
REMARK 922        TOTAL FREE ENERGY PREDICTED BY IDOCK:   -7.53 KCAL/MOL
REMARK 923 INTER-LIGAND FREE ENERGY PREDICTED BY IDOCK:   -7.11 KCAL/MOL
REMARK 924 INTRA-LIGAND FREE ENERGY PREDICTED BY IDOCK:   -0.42 KCAL/MOL
REMARK 927      BINDING AFFINITY PREDICTED BY RF-SCORE:    0.00 PKD
ROOT
HETATM    1  C   UNL     1     -10.440   9.238  69.314  1.00  0.00    -0.228 C  
HETATM    2  C   UNL     1     -11.686   9.923  69.901  1.00  0.00    -0.131 C  
HETATM    3  C   UNL     1     -11.667   9.614  71.415  1.00  0.00    -0.478 C  
HETATM    4  C   UNL     1     -11.787  11.421  69.563  1.00  0.00    -0.426 A  
HETATM    5  C   UNL     1     -11.489  11.952  68.294  1.00  0.00    -0.311 A  
HETATM    6  C   UNL     1     -12.225  13.708  70.347  1.00  0.00    -0.363 A  
HETATM    7  C   UNL     1     -11.544  13.341  68.069  1.00  0.00    -0.371 A  
HETATM    8  C   UNL     1     -11.884  14.233  69.096  1.00  0.00    -0.368 A  
HETATM    9  C   UNL     1     -12.204  12.330  70.559  1.00  0.00    -0.387 A  
HETATM   10  C   UNL     1     -11.863  15.711  68.842  1.00  0.00    -0.368 C  
ENDROOT
BRANCH   5  11
HETATM   11  O   UNL     1     -11.244  11.076  67.264  1.00  0.00    -0.308 OA 
BRANCH  11  12
HETATM   12  C   UNL     1     -10.264  11.504  66.305  1.00  0.00    -0.230 C  
BRANCH  12  13
HETATM   13  C   UNL     1     -10.117  10.413  65.227  1.00  0.00    -0.300 C  
BRANCH  13  14
HETATM   14  N   UNL     1      -9.035  10.658  64.249  1.00  0.00    -0.200 NA 
HETATM   15  C   UNL     1      -8.281   9.440  63.950  1.00  0.00    -0.165 C  
HETATM   16  C   UNL     1      -9.595  11.205  63.011  1.00  0.00    -0.369 C  
ENDBRANCH  13  14
ENDBRANCH  12  13
ENDBRANCH  11  12
ENDBRANCH   5  11
BRANCH   6  17
HETATM   17  O   UNL     1     -12.535  14.645  71.373  1.00  0.00    -0.307 OA 
BRANCH  17  18
HETATM   18  C   UNL     1     -13.196  14.381  72.581  1.00  0.00    -0.497 C  
HETATM   19  O   UNL     1     -14.219  13.733  72.743  1.00  0.00    -0.650 OA 
HETATM   20  C   UNL     1     -12.408  14.973  73.709  1.00  0.00    -0.654 C  
ENDBRANCH  17  18
ENDBRANCH   6  17
TORSDOF 6
ENDMDL
MODEL       29
REMARK 921   NORMALIZED FREE ENERGY PREDICTED BY IDOCK:   -5.11 KCAL/MOL
REMARK 922        TOTAL FREE ENERGY PREDICTED BY IDOCK:   -7.51 KCAL/MOL
REMARK 923 INTER-LIGAND FREE ENERGY PREDICTED BY IDOCK:   -6.88 KCAL/MOL
REMARK 924 INTRA-LIGAND FREE ENERGY PREDICTED BY IDOCK:   -0.62 KCAL/MOL
REMARK 927      BINDING AFFINITY PREDICTED BY RF-SCORE:    0.00 PKD
ROOT
HETATM    1  C   UNL     1     -10.908   9.812  67.461  1.00  0.00    -0.286 C  
HETATM    2  C   UNL     1     -10.355  11.086  68.122  1.00  0.00    -0.204 C  
HETATM    3  C   UNL     1     -10.161  12.109  66.979  1.00  0.00    -0.225 C  
HETATM    4  C   UNL     1     -11.216  11.601  69.289  1.00  0.00    -0.328 A  
HETATM    5  C   UNL     1     -11.794  10.759  70.258  1.00  0.00    -0.349 A  
HETATM    6  C   UNL     1     -12.294  13.510  70.399  1.00  0.00    -0.327 A  
HETATM    7  C   UNL     1     -12.621  11.290  71.266  1.00  0.00    -0.487 A  
HETATM    8  C   UNL     1     -12.902  12.662  71.332  1.00  0.00    -0.358 A  
HETATM    9  C   UNL     1     -11.447  12.987  69.422  1.00  0.00    -0.323 A  
HETATM   10  C   UNL     1     -13.844  13.186  72.374  1.00  0.00    -0.583 C  
ENDROOT
BRANCH   5  11
HETATM   11  O   UNL     1     -11.449   9.428  70.251  1.00  0.00    -0.244 OA 
BRANCH  11  12
HETATM   12  C   UNL     1     -12.137   8.605  71.206  1.00  0.00    -0.290 C  
BRANCH  12  13
HETATM   13  C   UNL     1     -11.185   7.485  71.670  1.00  0.00    -0.243 C  
BRANCH  13  14
HETATM   14  N   UNL     1     -10.509   7.748  72.958  1.00  0.00    -0.349 NA 
HETATM   15  C   UNL     1     -10.482   6.561  73.815  1.00  0.00    -0.315 C  
HETATM   16  C   UNL     1      -9.140   8.211  72.718  1.00  0.00    -0.259 C  
ENDBRANCH  13  14
ENDBRANCH  12  13
ENDBRANCH  11  12
ENDBRANCH   5  11
BRANCH   6  17
HETATM   17  O   UNL     1     -12.626  14.892  70.477  1.00  0.00    -0.333 OA 
BRANCH  17  18
HETATM   18  C   UNL     1     -11.780  15.940  70.868  1.00  0.00    -0.420 C  
HETATM   19  O   UNL     1     -11.028  16.593  70.158  1.00  0.00    -0.321 OA 
HETATM   20  C   UNL     1     -11.975  16.210  72.327  1.00  0.00    -0.637 C  
ENDBRANCH  17  18
ENDBRANCH   6  17
TORSDOF 6
ENDMDL
MODEL       30
REMARK 921   NORMALIZED FREE ENERGY PREDICTED BY IDOCK:   -5.10 KCAL/MOL
REMARK 922        TOTAL FREE ENERGY PREDICTED BY IDOCK:   -7.49 KCAL/MOL
REMARK 923 INTER-LIGAND FREE ENERGY PREDICTED BY IDOCK:   -6.77 KCAL/MOL
REMARK 924 INTRA-LIGAND FREE ENERGY PREDICTED BY IDOCK:   -0.71 KCAL/MOL
REMARK 927      BINDING AFFINITY PREDICTED BY RF-SCORE:    0.00 PKD
ROOT
HETATM    1  C   UNL     1     -11.783  12.355  64.045  1.00  0.00    -0.498 C  
HETATM    2  C   UNL     1     -11.128  13.328  65.041  1.00  0.00    -0.327 C  
HETATM    3  C   UNL     1     -11.670  14.731  64.684  1.00  0.00    -0.426 C  
HETATM    4  C   UNL     1     -11.326  12.932  66.515  1.00  0.00    -0.361 A  
HETATM    5  C   UNL     1     -11.221  11.608  66.983  1.00  0.00    -0.314 A  
HETATM    6  C   UNL     1     -11.905  13.627  68.799  1.00  0.00    -0.360 A  
HETATM    7  C   UNL     1     -11.473  11.306  68.335  1.00  0.00    -0.377 A  
HETATM    8  C   UNL     1     -11.843  12.303  69.249  1.00  0.00    -0.363 A  
HETATM    9  C   UNL     1     -11.621  13.930  67.468  1.00  0.00    -0.392 A  
HETATM   10  C   UNL     1     -12.175  11.937  70.664  1.00  0.00    -0.424 C  
ENDROOT
BRANCH   5  11
HETATM   11  O   UNL     1     -10.771  10.644  66.113  1.00  0.00    -0.180 OA 
BRANCH  11  12
HETATM   12  C   UNL     1      -9.520  10.031  66.460  1.00  0.00    -0.175 C  
BRANCH  12  13
HETATM   13  C   UNL     1      -9.662   8.503  66.318  1.00  0.00    -0.229 C  
BRANCH  13  14
HETATM   14  N   UNL     1     -10.556   7.874  67.314  1.00  0.00    -0.310 NA 
HETATM   15  C   UNL     1     -10.771   6.453  67.037  1.00  0.00    -0.363 C  
HETATM   16  C   UNL     1      -9.995   8.032  68.658  1.00  0.00    -0.189 C  
ENDBRANCH  13  14
ENDBRANCH  12  13
ENDBRANCH  11  12
ENDBRANCH   5  11
BRANCH   6  17
HETATM   17  O   UNL     1     -12.313  14.607  69.747  1.00  0.00    -0.311 OA 
BRANCH  17  18
HETATM   18  C   UNL     1     -11.490  15.523  70.419  1.00  0.00    -0.345 C  
HETATM   19  O   UNL     1     -10.592  16.203  69.944  1.00  0.00    -0.301 OA 
HETATM   20  C   UNL     1     -11.919  15.608  71.850  1.00  0.00    -0.530 C  
ENDBRANCH  17  18
ENDBRANCH   6  17
TORSDOF 6
ENDMDL
MODEL       31
REMARK 921   NORMALIZED FREE ENERGY PREDICTED BY IDOCK:   -5.07 KCAL/MOL
REMARK 922        TOTAL FREE ENERGY PREDICTED BY IDOCK:   -7.46 KCAL/MOL
REMARK 923 INTER-LIGAND FREE ENERGY PREDICTED BY IDOCK:   -6.89 KCAL/MOL
REMARK 924 INTRA-LIGAND FREE ENERGY PREDICTED BY IDOCK:   -0.57 KCAL/MOL
REMARK 927      BINDING AFFINITY PREDICTED BY RF-SCORE:    0.00 PKD
ROOT
HETATM    1  C   UNL     1     -11.577  15.147  68.439  1.00  0.00    -0.356 C  
HETATM    2  C   UNL     1     -12.133  13.944  67.657  1.00  0.00    -0.342 C  
HETATM    3  C   UNL     1     -11.559  14.063  66.227  1.00  0.00    -0.379 C  
HETATM    4  C   UNL     1     -11.865  12.588  68.334  1.00  0.00    -0.353 A  
HETATM    5  C   UNL     1     -11.994  12.374  69.719  1.00  0.00    -0.289 A  
HETATM    6  C   UNL     1     -11.126  10.256  68.106  1.00  0.00    -0.264 A  
HETATM    7  C   UNL     1     -11.676  11.123  70.282  1.00  0.00    -0.431 A  
HETATM    8  C   UNL     1     -11.213  10.063  69.489  1.00  0.00    -0.254 A  
HETATM    9  C   UNL     1     -11.476  11.484  67.545  1.00  0.00    -0.355 A  
HETATM   10  C   UNL     1     -10.814   8.767  70.128  1.00  0.00    -0.241 C  
ENDROOT
BRANCH   5  11
HETATM   11  O   UNL     1     -12.532  13.380  70.486  1.00  0.00    -0.323 OA 
BRANCH  11  12
HETATM   12  C   UNL     1     -13.076  12.972  71.751  1.00  0.00    -0.373 C  
BRANCH  12  13
HETATM   13  C   UNL     1     -13.384  14.230  72.586  1.00  0.00    -0.525 C  
BRANCH  13  14
HETATM   14  N   UNL     1     -12.199  15.048  72.924  1.00  0.00    -0.351 NA 
HETATM   15  C   UNL     1     -12.033  16.177  72.008  1.00  0.00    -0.526 C  
HETATM   16  C   UNL     1     -12.311  15.543  74.299  1.00  0.00    -0.671 C  
ENDBRANCH  13  14
ENDBRANCH  12  13
ENDBRANCH  11  12
ENDBRANCH   5  11
BRANCH   6  17
HETATM   17  O   UNL     1     -10.625   9.169  67.337  1.00  0.00    -0.272 OA 
BRANCH  17  18
HETATM   18  C   UNL     1      -9.585   9.211  66.397  1.00  0.00    -0.245 C  
HETATM   19  O   UNL     1      -9.679   9.378  65.190  1.00  0.00    -0.229 OA 
HETATM   20  C   UNL     1      -8.275   9.085  67.111  1.00  0.00    -0.110 C  
ENDBRANCH  17  18
ENDBRANCH   6  17
TORSDOF 6
ENDMDL
MODEL       32
REMARK 921   NORMALIZED FREE ENERGY PREDICTED BY IDOCK:   -5.06 KCAL/MOL
REMARK 922        TOTAL FREE ENERGY PREDICTED BY IDOCK:   -7.44 KCAL/MOL
REMARK 923 INTER-LIGAND FREE ENERGY PREDICTED BY IDOCK:   -6.81 KCAL/MOL
REMARK 924 INTRA-LIGAND FREE ENERGY PREDICTED BY IDOCK:   -0.63 KCAL/MOL
REMARK 927      BINDING AFFINITY PREDICTED BY RF-SCORE:    0.00 PKD
ROOT
HETATM    1  C   UNL     1     -10.522   8.047  67.256  1.00  0.00    -0.384 C  
HETATM    2  C   UNL     1      -9.823   9.387  66.971  1.00  0.00    -0.258 C  
HETATM    3  C   UNL     1      -9.822   9.548  65.434  1.00  0.00    -0.248 C  
HETATM    4  C   UNL     1     -10.434  10.577  67.731  1.00  0.00    -0.263 A  
HETATM    5  C   UNL     1     -10.840  10.514  69.077  1.00  0.00    -0.232 A  
HETATM    6  C   UNL     1     -11.234  12.900  67.666  1.00  0.00    -0.278 A  
HETATM    7  C   UNL     1     -11.448  11.624  69.695  1.00  0.00    -0.359 A  
HETATM    8  C   UNL     1     -11.677  12.815  68.991  1.00  0.00    -0.371 A  
HETATM    9  C   UNL     1     -10.601  11.812  67.066  1.00  0.00    -0.267 A  
HETATM   10  C   UNL     1     -12.391  13.953  69.656  1.00  0.00    -0.301 C  
ENDROOT
BRANCH   5  11
HETATM   11  O   UNL     1     -10.537   9.381  69.794  1.00  0.00    -0.212 OA 
BRANCH  11  12
HETATM   12  C   UNL     1     -10.670   9.496  71.220  1.00  0.00    -0.316 C  
BRANCH  12  13
HETATM   13  C   UNL     1     -11.236   8.174  71.772  1.00  0.00    -0.272 C  
BRANCH  13  14
HETATM   14  N   UNL     1     -12.632   8.256  72.252  1.00  0.00    -0.330 NA 
HETATM   15  C   UNL     1     -13.169   9.613  72.144  1.00  0.00    -0.444 C  
HETATM   16  C   UNL     1     -13.477   7.332  71.490  1.00  0.00    -0.363 C  
ENDBRANCH  13  14
ENDBRANCH  12  13
ENDBRANCH  11  12
ENDBRANCH   5  11
BRANCH   6  17
HETATM   17  O   UNL     1     -11.510  14.113  66.975  1.00  0.00    -0.319 OA 
BRANCH  17  18
HETATM   18  C   UNL     1     -12.048  14.244  65.686  1.00  0.00    -0.393 C  
HETATM   19  O   UNL     1     -13.136  13.850  65.291  1.00  0.00    -0.777 OA 
HETATM   20  C   UNL     1     -11.095  15.023  64.834  1.00  0.00    -0.425 C  
ENDBRANCH  17  18
ENDBRANCH   6  17
TORSDOF 6
ENDMDL
MODEL       33
REMARK 921   NORMALIZED FREE ENERGY PREDICTED BY IDOCK:   -4.97 KCAL/MOL
REMARK 922        TOTAL FREE ENERGY PREDICTED BY IDOCK:   -7.32 KCAL/MOL
REMARK 923 INTER-LIGAND FREE ENERGY PREDICTED BY IDOCK:   -6.69 KCAL/MOL
REMARK 924 INTRA-LIGAND FREE ENERGY PREDICTED BY IDOCK:   -0.63 KCAL/MOL
REMARK 927      BINDING AFFINITY PREDICTED BY RF-SCORE:    0.00 PKD
ROOT
HETATM    1  C   UNL     1     -10.998   9.544  70.868  1.00  0.00    -0.407 C  
HETATM    2  C   UNL     1     -12.275  10.364  70.619  1.00  0.00    -0.441 C  
HETATM    3  C   UNL     1     -13.071  10.327  71.943  1.00  0.00    -0.568 C  
HETATM    4  C   UNL     1     -12.005  11.782  70.084  1.00  0.00    -0.421 A  
HETATM    5  C   UNL     1     -11.039  12.071  69.102  1.00  0.00    -0.215 A  
HETATM    6  C   UNL     1     -12.500  14.186  70.212  1.00  0.00    -0.353 A  
HETATM    7  C   UNL     1     -10.801  13.399  68.701  1.00  0.00    -0.287 A  
HETATM    8  C   UNL     1     -11.507  14.470  69.269  1.00  0.00    -0.322 A  
HETATM    9  C   UNL     1     -12.759  12.866  70.584  1.00  0.00    -0.157 A  
HETATM   10  C   UNL     1     -11.180  15.878  68.872  1.00  0.00    -0.343 C  
ENDROOT
BRANCH   5  11
HETATM   11  O   UNL     1     -10.410  11.019  68.480  1.00  0.00    -0.174 OA 
BRANCH  11  12
HETATM   12  C   UNL     1     -10.977  10.614  67.224  1.00  0.00    -0.284 C  
BRANCH  12  13
HETATM   13  C   UNL     1      -9.832  10.247  66.260  1.00  0.00    -0.219 C  
BRANCH  13  14
HETATM   14  N   UNL     1      -9.769   8.814  65.898  1.00  0.00    -0.206 NA 
HETATM   15  C   UNL     1      -8.466   8.446  65.342  1.00  0.00    -0.176 C  
HETATM   16  C   UNL     1     -10.051   7.990  67.076  1.00  0.00    -0.279 C  
ENDBRANCH  13  14
ENDBRANCH  12  13
ENDBRANCH  11  12
ENDBRANCH   5  11
BRANCH   6  17
HETATM   17  O   UNL     1     -13.175  15.299  70.789  1.00  0.00    -0.426 OA 
BRANCH  17  18
HETATM   18  C   UNL     1     -13.304  15.589  72.155  1.00  0.00    -0.467 C  
HETATM   19  O   UNL     1     -14.253  15.336  72.882  1.00  0.00    -0.318 OA 
HETATM   20  C   UNL     1     -12.037  16.221  72.643  1.00  0.00    -0.628 C  
ENDBRANCH  17  18
ENDBRANCH   6  17
TORSDOF 6
ENDMDL
MODEL       34
REMARK 921   NORMALIZED FREE ENERGY PREDICTED BY IDOCK:   -4.96 KCAL/MOL
REMARK 922        TOTAL FREE ENERGY PREDICTED BY IDOCK:   -7.30 KCAL/MOL
REMARK 923 INTER-LIGAND FREE ENERGY PREDICTED BY IDOCK:   -6.65 KCAL/MOL
REMARK 924 INTRA-LIGAND FREE ENERGY PREDICTED BY IDOCK:   -0.65 KCAL/MOL
REMARK 927      BINDING AFFINITY PREDICTED BY RF-SCORE:    0.00 PKD
ROOT
HETATM    1  C   UNL     1     -10.412   8.030  66.938  1.00  0.00    -0.387 C  
HETATM    2  C   UNL     1      -9.796   9.426  66.747  1.00  0.00    -0.280 C  
HETATM    3  C   UNL     1      -9.868   9.719  65.230  1.00  0.00    -0.335 C  
HETATM    4  C   UNL     1     -10.436  10.512  67.630  1.00  0.00    -0.276 A  
HETATM    5  C   UNL     1     -10.781  10.310  68.980  1.00  0.00    -0.227 A  
HETATM    6  C   UNL     1     -11.358  12.783  67.800  1.00  0.00    -0.294 A  
HETATM    7  C   UNL     1     -11.420  11.327  69.715  1.00  0.00    -0.386 A  
HETATM    8  C   UNL     1     -11.740  12.560  69.128  1.00  0.00    -0.375 A  
HETATM    9  C   UNL     1     -10.695  11.787  67.083  1.00  0.00    -0.283 A  
HETATM   10  C   UNL     1     -12.484  13.595  69.916  1.00  0.00    -0.226 C  
ENDROOT
BRANCH   5  11
HETATM   11  O   UNL     1     -10.389   9.139  69.583  1.00  0.00    -0.203 OA 
BRANCH  11  12
HETATM   12  C   UNL     1      -9.969   9.257  70.951  1.00  0.00    -0.297 C  
BRANCH  12  13
HETATM   13  C   UNL     1     -10.775   8.258  71.804  1.00  0.00    -0.266 C  
BRANCH  13  14
HETATM   14  N   UNL     1     -11.416   7.171  71.034  1.00  0.00    -0.284 NA 
HETATM   15  C   UNL     1     -10.706   5.900  71.184  1.00  0.00    -0.265 C  
HETATM   16  C   UNL     1     -12.808   7.009  71.463  1.00  0.00    -0.372 C  
ENDBRANCH  13  14
ENDBRANCH  12  13
ENDBRANCH  11  12
ENDBRANCH   5  11
BRANCH   6  17
HETATM   17  O   UNL     1     -11.726  14.034  67.229  1.00  0.00    -0.346 OA 
BRANCH  17  18
HETATM   18  C   UNL     1     -11.991  14.296  65.877  1.00  0.00    -0.391 C  
HETATM   19  O   UNL     1     -12.959  13.934  65.224  1.00  0.00    -0.747 OA 
HETATM   20  C   UNL     1     -10.911  15.176  65.328  1.00  0.00    -0.414 C  
ENDBRANCH  17  18
ENDBRANCH   6  17
TORSDOF 6
ENDMDL
MODEL       35
REMARK 921   NORMALIZED FREE ENERGY PREDICTED BY IDOCK:   -4.87 KCAL/MOL
REMARK 922        TOTAL FREE ENERGY PREDICTED BY IDOCK:   -7.19 KCAL/MOL
REMARK 923 INTER-LIGAND FREE ENERGY PREDICTED BY IDOCK:   -6.51 KCAL/MOL
REMARK 924 INTRA-LIGAND FREE ENERGY PREDICTED BY IDOCK:   -0.68 KCAL/MOL
REMARK 927      BINDING AFFINITY PREDICTED BY RF-SCORE:    0.00 PKD
ROOT
HETATM    1  C   UNL     1      -8.162  13.790  67.823  1.00  0.00    -0.174 C  
HETATM    2  C   UNL     1      -8.460  14.980  68.750  1.00  0.00    -0.180 C  
HETATM    3  C   UNL     1      -7.139  15.282  69.494  1.00  0.00    -0.201 C  
HETATM    4  C   UNL     1      -9.067  16.194  68.024  1.00  0.00    -0.190 A  
HETATM    5  C   UNL     1     -10.058  16.088  67.030  1.00  0.00    -0.271 A  
HETATM    6  C   UNL     1      -9.067  18.626  67.674  1.00  0.00    -0.278 A  
HETATM    7  C   UNL     1     -10.527  17.235  66.362  1.00  0.00    -0.263 A  
HETATM    8  C   UNL     1     -10.019  18.509  66.656  1.00  0.00    -0.394 A  
HETATM    9  C   UNL     1      -8.628  17.493  68.359  1.00  0.00    -0.275 A  
HETATM   10  C   UNL     1     -10.487  19.701  65.876  1.00  0.00    -0.591 C  
ENDROOT
BRANCH   5  11
HETATM   11  O   UNL     1     -10.622  14.855  66.803  1.00  0.00    -0.293 OA 
BRANCH  11  12
HETATM   12  C   UNL     1     -11.152  14.650  65.484  1.00  0.00    -0.345 C  
BRANCH  12  13
HETATM   13  C   UNL     1     -12.421  13.782  65.591  1.00  0.00    -0.503 C  
BRANCH  13  14
HETATM   14  N   UNL     1     -12.308  12.449  64.963  1.00  0.00    -0.536 NA 
HETATM   15  C   UNL     1     -12.168  12.538  63.509  1.00  0.00    -0.558 C  
HETATM   16  C   UNL     1     -11.162  11.728  65.523  1.00  0.00    -0.258 C  
ENDBRANCH  13  14
ENDBRANCH  12  13
ENDBRANCH  11  12
ENDBRANCH   5  11
BRANCH   6  17
HETATM   17  O   UNL     1      -8.552  19.930  67.924  1.00  0.00    -0.308 OA 
BRANCH  17  18
HETATM   18  C   UNL     1      -7.211  20.333  67.853  1.00  0.00    -0.284 C  
HETATM   19  O   UNL     1      -6.412  20.425  68.773  1.00  0.00    -0.310 OA 
HETATM   20  C   UNL     1      -6.851  20.585  66.421  1.00  0.00    -0.301 C  
ENDBRANCH  17  18
ENDBRANCH   6  17
TORSDOF 6
ENDMDL
MODEL       36
REMARK 921   NORMALIZED FREE ENERGY PREDICTED BY IDOCK:   -4.87 KCAL/MOL
REMARK 922        TOTAL FREE ENERGY PREDICTED BY IDOCK:   -7.18 KCAL/MOL
REMARK 923 INTER-LIGAND FREE ENERGY PREDICTED BY IDOCK:   -6.55 KCAL/MOL
REMARK 924 INTRA-LIGAND FREE ENERGY PREDICTED BY IDOCK:   -0.63 KCAL/MOL
REMARK 927      BINDING AFFINITY PREDICTED BY RF-SCORE:    0.00 PKD
ROOT
HETATM    1  C   UNL     1     -11.928  12.412  63.685  1.00  0.00    -0.626 C  
HETATM    2  C   UNL     1     -11.376  13.453  64.672  1.00  0.00    -0.372 C  
HETATM    3  C   UNL     1     -12.153  14.760  64.392  1.00  0.00    -0.457 C  
HETATM    4  C   UNL     1     -11.418  12.997  66.141  1.00  0.00    -0.381 A  
HETATM    5  C   UNL     1     -11.078  11.697  66.560  1.00  0.00    -0.301 A  
HETATM    6  C   UNL     1     -11.960  13.538  68.476  1.00  0.00    -0.344 A  
HETATM    7  C   UNL     1     -11.196  11.327  67.914  1.00  0.00    -0.353 A  
HETATM    8  C   UNL     1     -11.663  12.231  68.879  1.00  0.00    -0.380 A  
HETATM    9  C   UNL     1     -11.809  13.914  67.141  1.00  0.00    -0.445 A  
HETATM   10  C   UNL     1     -11.846  11.785  70.298  1.00  0.00    -0.382 C  
ENDROOT
BRANCH   5  11
HETATM   11  O   UNL     1     -10.536  10.837  65.635  1.00  0.00    -0.243 OA 
BRANCH  11  12
HETATM   12  C   UNL     1     -10.147   9.549  66.139  1.00  0.00    -0.256 C  
BRANCH  12  13
HETATM   13  C   UNL     1      -8.995   9.006  65.272  1.00  0.00    -0.183 C  
BRANCH  13  14
HETATM   14  N   UNL     1      -8.123  10.047  64.686  1.00  0.00    -0.150 NA 
HETATM   15  C   UNL     1      -6.894  10.231  65.459  1.00  0.00    -0.134 C  
HETATM   16  C   UNL     1      -7.786   9.696  63.304  1.00  0.00    -0.135 C  
ENDBRANCH  13  14
ENDBRANCH  12  13
ENDBRANCH  11  12
ENDBRANCH   5  11
BRANCH   6  17
HETATM   17  O   UNL     1     -12.459  14.419  69.476  1.00  0.00    -0.273 OA 
BRANCH  17  18
HETATM   18  C   UNL     1     -11.781  15.498  70.062  1.00  0.00    -0.346 C  
HETATM   19  O   UNL     1     -11.018  16.282  69.517  1.00  0.00    -0.304 OA 
HETATM   20  C   UNL     1     -12.186  15.608  71.500  1.00  0.00    -0.487 C  
ENDBRANCH  17  18
ENDBRANCH   6  17
TORSDOF 6
ENDMDL
MODEL       37
REMARK 921   NORMALIZED FREE ENERGY PREDICTED BY IDOCK:   -4.85 KCAL/MOL
REMARK 922        TOTAL FREE ENERGY PREDICTED BY IDOCK:   -7.16 KCAL/MOL
REMARK 923 INTER-LIGAND FREE ENERGY PREDICTED BY IDOCK:   -6.53 KCAL/MOL
REMARK 924 INTRA-LIGAND FREE ENERGY PREDICTED BY IDOCK:   -0.63 KCAL/MOL
REMARK 927      BINDING AFFINITY PREDICTED BY RF-SCORE:    0.00 PKD
ROOT
HETATM    1  C   UNL     1     -12.280  12.596  65.635  1.00  0.00    -0.474 C  
HETATM    2  C   UNL     1     -11.357  13.566  64.879  1.00  0.00    -0.347 C  
HETATM    3  C   UNL     1     -12.278  14.406  63.965  1.00  0.00    -0.300 C  
HETATM    4  C   UNL     1     -10.451  14.403  65.801  1.00  0.00    -0.329 A  
HETATM    5  C   UNL     1      -9.790  13.875  66.926  1.00  0.00    -0.268 A  
HETATM    6  C   UNL     1      -9.519  16.605  66.365  1.00  0.00    -0.280 A  
HETATM    7  C   UNL     1      -9.024  14.710  67.762  1.00  0.00    -0.181 A  
HETATM    8  C   UNL     1      -8.903  16.084  67.508  1.00  0.00    -0.198 A  
HETATM    9  C   UNL     1     -10.250  15.771  65.519  1.00  0.00    -0.407 A  
HETATM   10  C   UNL     1      -8.139  16.957  68.457  1.00  0.00    -0.244 C  
ENDROOT
BRANCH   5  11
HETATM   11  O   UNL     1      -9.832  12.517  67.127  1.00  0.00    -0.205 OA 
BRANCH  11  12
HETATM   12  C   UNL     1      -9.918  12.095  68.498  1.00  0.00    -0.175 C  
BRANCH  12  13
HETATM   13  C   UNL     1     -11.387  12.185  68.952  1.00  0.00    -0.283 C  
BRANCH  13  14
HETATM   14  N   UNL     1     -11.835  11.066  69.808  1.00  0.00    -0.316 NA 
HETATM   15  C   UNL     1     -10.729  10.183  70.179  1.00  0.00    -0.300 C  
HETATM   16  C   UNL     1     -12.472  11.588  71.020  1.00  0.00    -0.356 C  
ENDBRANCH  13  14
ENDBRANCH  12  13
ENDBRANCH  11  12
ENDBRANCH   5  11
BRANCH   6  17
HETATM   17  O   UNL     1      -9.401  18.008  66.156  1.00  0.00    -0.468 OA 
BRANCH  17  18
HETATM   18  C   UNL     1     -10.448  18.929  66.010  1.00  0.00    -0.446 C  
HETATM   19  O   UNL     1     -11.056  19.209  64.987  1.00  0.00    -0.363 OA 
HETATM   20  C   UNL     1     -10.784  19.505  67.351  1.00  0.00    -0.589 C  
ENDBRANCH  17  18
ENDBRANCH   6  17
TORSDOF 6
ENDMDL
MODEL       38
REMARK 921   NORMALIZED FREE ENERGY PREDICTED BY IDOCK:   -4.84 KCAL/MOL
REMARK 922        TOTAL FREE ENERGY PREDICTED BY IDOCK:   -7.15 KCAL/MOL
REMARK 923 INTER-LIGAND FREE ENERGY PREDICTED BY IDOCK:   -6.32 KCAL/MOL
REMARK 924 INTRA-LIGAND FREE ENERGY PREDICTED BY IDOCK:   -0.83 KCAL/MOL
REMARK 927      BINDING AFFINITY PREDICTED BY RF-SCORE:    0.00 PKD
ROOT
HETATM    1  C   UNL     1     -10.346   9.957  70.005  1.00  0.00    -0.320 C  
HETATM    2  C   UNL     1     -11.692  10.700  69.968  1.00  0.00    -0.405 C  
HETATM    3  C   UNL     1     -12.336  10.484  71.357  1.00  0.00    -0.477 C  
HETATM    4  C   UNL     1     -11.574  12.176  69.550  1.00  0.00    -0.382 A  
HETATM    5  C   UNL     1     -10.740  12.622  68.507  1.00  0.00    -0.248 A  
HETATM    6  C   UNL     1     -12.204  14.515  69.962  1.00  0.00    -0.342 A  
HETATM    7  C   UNL     1     -10.633  13.996  68.215  1.00  0.00    -0.253 A  
HETATM    8  C   UNL     1     -11.339  14.956  68.954  1.00  0.00    -0.301 A  
HETATM    9  C   UNL     1     -12.336  13.152  70.227  1.00  0.00    -0.319 A  
HETATM   10  C   UNL     1     -11.147  16.414  68.665  1.00  0.00    -0.352 C  
ENDROOT
BRANCH   5  11
HETATM   11  O   UNL     1     -10.117  11.680  67.724  1.00  0.00    -0.182 OA 
BRANCH  11  12
HETATM   12  C   UNL     1      -9.194  12.195  66.751  1.00  0.00    -0.207 C  
BRANCH  12  13
HETATM   13  C   UNL     1      -7.883  11.390  66.838  1.00  0.00    -0.158 C  
BRANCH  13  14
HETATM   14  N   UNL     1      -6.808  12.050  67.609  1.00  0.00    -0.103 NA 
HETATM   15  C   UNL     1      -6.947  13.507  67.608  1.00  0.00    -0.167 C  
HETATM   16  C   UNL     1      -6.808  11.557  68.989  1.00  0.00    -0.107 C  
ENDBRANCH  13  14
ENDBRANCH  12  13
ENDBRANCH  11  12
ENDBRANCH   5  11
BRANCH   6  17
HETATM   17  O   UNL     1     -12.881  15.518  70.710  1.00  0.00    -0.458 OA 
BRANCH  17  18
HETATM   18  C   UNL     1     -13.168  15.495  72.083  1.00  0.00    -0.450 C  
HETATM   19  O   UNL     1     -14.122  14.965  72.634  1.00  0.00    -0.435 OA 
HETATM   20  C   UNL     1     -12.065  16.182  72.826  1.00  0.00    -0.653 C  
ENDBRANCH  17  18
ENDBRANCH   6  17
TORSDOF 6
ENDMDL
MODEL       39
REMARK 921   NORMALIZED FREE ENERGY PREDICTED BY IDOCK:   -4.83 KCAL/MOL
REMARK 922        TOTAL FREE ENERGY PREDICTED BY IDOCK:   -7.13 KCAL/MOL
REMARK 923 INTER-LIGAND FREE ENERGY PREDICTED BY IDOCK:   -6.42 KCAL/MOL
REMARK 924 INTRA-LIGAND FREE ENERGY PREDICTED BY IDOCK:   -0.71 KCAL/MOL
REMARK 927      BINDING AFFINITY PREDICTED BY RF-SCORE:    0.00 PKD
ROOT
HETATM    1  C   UNL     1     -10.615   9.738  70.608  1.00  0.00    -0.382 C  
HETATM    2  C   UNL     1     -11.605  10.316  69.582  1.00  0.00    -0.267 C  
HETATM    3  C   UNL     1     -11.965  11.731  70.089  1.00  0.00    -0.421 C  
HETATM    4  C   UNL     1     -11.088  10.277  68.133  1.00  0.00    -0.324 A  
HETATM    5  C   UNL     1     -10.400   9.179  67.584  1.00  0.00    -0.255 A  
HETATM    6  C   UNL     1     -10.786  11.453  65.997  1.00  0.00    -0.263 A  
HETATM    7  C   UNL     1      -9.901   9.232  66.268  1.00  0.00    -0.361 A  
HETATM    8  C   UNL     1     -10.063  10.376  65.473  1.00  0.00    -0.352 A  
HETATM    9  C   UNL     1     -11.310  11.386  67.288  1.00  0.00    -0.347 A  
HETATM   10  C   UNL     1      -9.457  10.428  64.102  1.00  0.00    -0.353 C  
ENDROOT
BRANCH   5  11
HETATM   11  O   UNL     1     -10.318   8.026  68.327  1.00  0.00    -0.201 OA 
BRANCH  11  12
HETATM   12  C   UNL     1     -10.824   6.841  67.691  1.00  0.00    -0.289 C  
BRANCH  12  13
HETATM   13  C   UNL     1      -9.819   5.694  67.912  1.00  0.00    -0.133 C  
BRANCH  13  14
HETATM   14  N   UNL     1      -9.438   4.966  66.683  1.00  0.00    -0.138 NA 
HETATM   15  C   UNL     1     -10.605   4.595  65.881  1.00  0.00    -0.223 C  
HETATM   16  C   UNL     1      -8.530   5.787  65.878  1.00  0.00    -0.139 C  
ENDBRANCH  13  14
ENDBRANCH  12  13
ENDBRANCH  11  12
ENDBRANCH   5  11
BRANCH   6  17
HETATM   17  O   UNL     1     -10.904  12.608  65.173  1.00  0.00    -0.278 OA 
BRANCH  17  18
HETATM   18  C   UNL     1     -12.081  13.122  64.608  1.00  0.00    -0.408 C  
HETATM   19  O   UNL     1     -12.671  14.145  64.921  1.00  0.00    -0.645 OA 
HETATM   20  C   UNL     1     -12.504  12.242  63.473  1.00  0.00    -0.642 C  
ENDBRANCH  17  18
ENDBRANCH   6  17
TORSDOF 6
ENDMDL
MODEL       40
REMARK 921   NORMALIZED FREE ENERGY PREDICTED BY IDOCK:   -4.82 KCAL/MOL
REMARK 922        TOTAL FREE ENERGY PREDICTED BY IDOCK:   -7.12 KCAL/MOL
REMARK 923 INTER-LIGAND FREE ENERGY PREDICTED BY IDOCK:   -6.29 KCAL/MOL
REMARK 924 INTRA-LIGAND FREE ENERGY PREDICTED BY IDOCK:   -0.82 KCAL/MOL
REMARK 927      BINDING AFFINITY PREDICTED BY RF-SCORE:    0.00 PKD
ROOT
HETATM    1  C   UNL     1     -10.343  15.378  65.396  1.00  0.00    -0.422 C  
HETATM    2  C   UNL     1     -11.318  14.189  65.337  1.00  0.00    -0.322 C  
HETATM    3  C   UNL     1     -10.773  13.247  64.239  1.00  0.00    -0.408 C  
HETATM    4  C   UNL     1     -11.546  13.507  66.697  1.00  0.00    -0.396 A  
HETATM    5  C   UNL     1     -11.712  14.216  67.902  1.00  0.00    -0.367 A  
HETATM    6  C   UNL     1     -11.713  11.416  67.978  1.00  0.00    -0.254 A  
HETATM    7  C   UNL     1     -11.858  13.528  69.122  1.00  0.00    -0.386 A  
HETATM    8  C   UNL     1     -11.832  12.127  69.177  1.00  0.00    -0.361 A  
HETATM    9  C   UNL     1     -11.604  12.098  66.766  1.00  0.00    -0.412 A  
HETATM   10  C   UNL     1     -11.917  11.427  70.500  1.00  0.00    -0.451 C  
ENDROOT
BRANCH   5  11
HETATM   11  O   UNL     1     -11.828  15.583  67.841  1.00  0.00    -0.240 OA 
BRANCH  11  12
HETATM   12  C   UNL     1     -11.224  16.306  68.926  1.00  0.00    -0.337 C  
BRANCH  12  13
HETATM   13  C   UNL     1     -10.478  17.526  68.353  1.00  0.00    -0.372 C  
BRANCH  13  14
HETATM   14  N   UNL     1      -9.019  17.523  68.596  1.00  0.00    -0.278 NA 
HETATM   15  C   UNL     1      -8.491  16.166  68.743  1.00  0.00    -0.236 C  
HETATM   16  C   UNL     1      -8.329  18.202  67.497  1.00  0.00    -0.237 C  
ENDBRANCH  13  14
ENDBRANCH  12  13
ENDBRANCH  11  12
ENDBRANCH   5  11
BRANCH   6  17
HETATM   17  O   UNL     1     -11.661   9.997  68.075  1.00  0.00    -0.166 OA 
BRANCH  17  18
HETATM   18  C   UNL     1     -10.634   9.160  67.614  1.00  0.00    -0.242 C  
HETATM   19  O   UNL     1     -10.524   8.660  66.504  1.00  0.00    -0.249 OA 
HETATM   20  C   UNL     1      -9.609   9.002  68.694  1.00  0.00    -0.158 C  
ENDBRANCH  17  18
ENDBRANCH   6  17
TORSDOF 6
ENDMDL
MODEL       41
REMARK 921   NORMALIZED FREE ENERGY PREDICTED BY IDOCK:   -4.81 KCAL/MOL
REMARK 922        TOTAL FREE ENERGY PREDICTED BY IDOCK:   -7.11 KCAL/MOL
REMARK 923 INTER-LIGAND FREE ENERGY PREDICTED BY IDOCK:   -6.86 KCAL/MOL
REMARK 924 INTRA-LIGAND FREE ENERGY PREDICTED BY IDOCK:   -0.25 KCAL/MOL
REMARK 927      BINDING AFFINITY PREDICTED BY RF-SCORE:    0.00 PKD
ROOT
HETATM    1  C   UNL     1     -10.342  16.933  67.684  1.00  0.00    -0.317 C  
HETATM    2  C   UNL     1     -11.230  15.952  66.901  1.00  0.00     0.007 C  
HETATM    3  C   UNL     1     -10.594  15.828  65.498  1.00  0.00    -0.424 C  
HETATM    4  C   UNL     1     -11.447  14.607  67.617  1.00  0.00    -0.364 A  
HETATM    5  C   UNL     1     -11.693  14.494  68.998  1.00  0.00    -0.311 A  
HETATM    6  C   UNL     1     -11.504  12.155  67.471  1.00  0.00    -0.340 A  
HETATM    7  C   UNL     1     -11.823  13.228  69.601  1.00  0.00    -0.391 A  
HETATM    8  C   UNL     1     -11.703  12.048  68.852  1.00  0.00    -0.383 A  
HETATM    9  C   UNL     1     -11.410  13.410  66.870  1.00  0.00    -0.351 A  
HETATM   10  C   UNL     1     -11.774  10.716  69.535  1.00  0.00    -0.356 C  
ENDROOT
BRANCH   5  11
HETATM   11  O   UNL     1     -11.900  15.646  69.718  1.00  0.00    -0.332 OA 
BRANCH  11  12
HETATM   12  C   UNL     1     -11.006  15.857  70.822  1.00  0.00    -0.241 C  
BRANCH  12  13
HETATM   13  C   UNL     1     -11.614  15.211  72.082  1.00  0.00    -0.400 C  
BRANCH  13  14
HETATM   14  N   UNL     1     -12.657  16.022  72.746  1.00  0.00    -0.457 NA 
HETATM   15  C   UNL     1     -14.005  15.549  72.427  1.00  0.00    -0.560 C  
HETATM   16  C   UNL     1     -12.459  15.999  74.197  1.00  0.00    -0.620 C  
ENDBRANCH  13  14
ENDBRANCH  12  13
ENDBRANCH  11  12
ENDBRANCH   5  11
BRANCH   6  17
HETATM   17  O   UNL     1     -11.357  10.937  66.748  1.00  0.00    -0.288 OA 
BRANCH  17  18
HETATM   18  C   UNL     1     -10.310  10.595  65.880  1.00  0.00    -0.224 C  
HETATM   19  O   UNL     1     -10.299  10.673  64.661  1.00  0.00    -0.345 OA 
HETATM   20  C   UNL     1      -9.126  10.162  66.689  1.00  0.00    -0.164 C  
ENDBRANCH  17  18
ENDBRANCH   6  17
TORSDOF 6
ENDMDL
MODEL       42
REMARK 921   NORMALIZED FREE ENERGY PREDICTED BY IDOCK:   -4.78 KCAL/MOL
REMARK 922        TOTAL FREE ENERGY PREDICTED BY IDOCK:   -7.06 KCAL/MOL
REMARK 923 INTER-LIGAND FREE ENERGY PREDICTED BY IDOCK:   -6.43 KCAL/MOL
REMARK 924 INTRA-LIGAND FREE ENERGY PREDICTED BY IDOCK:   -0.63 KCAL/MOL
REMARK 927      BINDING AFFINITY PREDICTED BY RF-SCORE:    0.00 PKD
ROOT
HETATM    1  C   UNL     1     -13.676   9.001  71.797  1.00  0.00    -0.474 C  
HETATM    2  C   UNL     1     -12.171   9.147  72.080  1.00  0.00    -0.443 C  
HETATM    3  C   UNL     1     -11.661   7.727  72.417  1.00  0.00    -0.394 C  
HETATM    4  C   UNL     1     -11.394   9.845  70.950  1.00  0.00    -0.446 A  
HETATM    5  C   UNL     1     -11.873  10.975  70.261  1.00  0.00    -0.367 A  
HETATM    6  C   UNL     1      -9.414   9.877  69.495  1.00  0.00    -0.223 A  
HETATM    7  C   UNL     1     -11.137  11.529  69.196  1.00  0.00    -0.316 A  
HETATM    8  C   UNL     1      -9.918  10.972  68.784  1.00  0.00    -0.215 A  
HETATM    9  C   UNL     1     -10.126   9.351  70.572  1.00  0.00    -0.335 A  
HETATM   10  C   UNL     1      -9.195  11.542  67.601  1.00  0.00    -0.171 C  
ENDROOT
BRANCH   5  11
HETATM   11  O   UNL     1     -13.021  11.576  70.718  1.00  0.00    -0.182 OA 
BRANCH  11  12
HETATM   12  C   UNL     1     -12.883  12.948  71.122  1.00  0.00    -0.238 C  
BRANCH  12  13
HETATM   13  C   UNL     1     -13.655  13.155  72.440  1.00  0.00    -0.567 C  
BRANCH  13  14
HETATM   14  N   UNL     1     -13.852  14.570  72.821  1.00  0.00    -0.563 NA 
HETATM   15  C   UNL     1     -12.718  15.095  73.583  1.00  0.00    -0.546 C  
HETATM   16  C   UNL     1     -14.057  15.386  71.621  1.00  0.00    -0.514 C  
ENDBRANCH  13  14
ENDBRANCH  12  13
ENDBRANCH  11  12
ENDBRANCH   5  11
BRANCH   6  17
HETATM   17  O   UNL     1      -8.189   9.320  69.031  1.00  0.00    -0.106 OA 
BRANCH  17  18
HETATM   18  C   UNL     1      -8.017   8.089  68.381  1.00  0.00    -0.120 C  
HETATM   19  O   UNL     1      -8.326   7.805  67.233  1.00  0.00    -0.116 OA 
HETATM   20  C   UNL     1      -7.313   7.143  69.303  1.00  0.00    -0.091 C  
ENDBRANCH  17  18
ENDBRANCH   6  17
TORSDOF 6
ENDMDL
MODEL       43
REMARK 921   NORMALIZED FREE ENERGY PREDICTED BY IDOCK:   -4.77 KCAL/MOL
REMARK 922        TOTAL FREE ENERGY PREDICTED BY IDOCK:   -7.04 KCAL/MOL
REMARK 923 INTER-LIGAND FREE ENERGY PREDICTED BY IDOCK:   -6.54 KCAL/MOL
REMARK 924 INTRA-LIGAND FREE ENERGY PREDICTED BY IDOCK:   -0.50 KCAL/MOL
REMARK 927      BINDING AFFINITY PREDICTED BY RF-SCORE:    0.00 PKD
ROOT
HETATM    1  C   UNL     1     -10.698  17.971  68.273  1.00  0.00    -0.208 C  
HETATM    2  C   UNL     1     -10.360  16.513  68.626  1.00  0.00    -0.287 C  
HETATM    3  C   UNL     1     -11.238  16.154  69.846  1.00  0.00    -0.349 C  
HETATM    4  C   UNL     1     -10.500  15.541  67.441  1.00  0.00    -0.281 A  
HETATM    5  C   UNL     1     -10.067  15.841  66.135  1.00  0.00    -0.318 A  
HETATM    6  C   UNL     1     -11.324  13.383  66.602  1.00  0.00    -0.323 A  
HETATM    7  C   UNL     1     -10.280  14.930  65.083  1.00  0.00    -0.409 A  
HETATM    8  C   UNL     1     -10.933  13.708  65.298  1.00  0.00    -0.314 A  
HETATM    9  C   UNL     1     -11.082  14.272  67.650  1.00  0.00    -0.305 A  
HETATM   10  C   UNL     1     -11.208  12.791  64.144  1.00  0.00    -0.435 C  
ENDROOT
BRANCH   5  11
HETATM   11  O   UNL     1      -9.348  16.996  65.938  1.00  0.00    -0.498 OA 
BRANCH  11  12
HETATM   12  C   UNL     1      -7.946  16.911  66.238  1.00  0.00    -0.315 C  
BRANCH  12  13
HETATM   13  C   UNL     1      -7.274  18.239  65.837  1.00  0.00    -0.235 C  
BRANCH  13  14
HETATM   14  N   UNL     1      -6.698  19.001  66.965  1.00  0.00    -0.197 NA 
HETATM   15  C   UNL     1      -5.552  19.812  66.550  1.00  0.00    -0.171 C  
HETATM   16  C   UNL     1      -7.722  19.865  67.557  1.00  0.00    -0.287 C  
ENDBRANCH  13  14
ENDBRANCH  12  13
ENDBRANCH  11  12
ENDBRANCH   5  11
BRANCH   6  17
HETATM   17  O   UNL     1     -12.011  12.149  66.777  1.00  0.00    -0.606 OA 
BRANCH  17  18
HETATM   18  C   UNL     1     -11.728  11.156  67.726  1.00  0.00    -0.139 C  
HETATM   19  O   UNL     1     -12.275  10.981  68.805  1.00  0.00    -0.546 OA 
HETATM   20  C   UNL     1     -10.660  10.255  67.188  1.00  0.00    -0.320 C  
ENDBRANCH  17  18
ENDBRANCH   6  17
TORSDOF 6
ENDMDL
MODEL       44
REMARK 921   NORMALIZED FREE ENERGY PREDICTED BY IDOCK:   -4.75 KCAL/MOL
REMARK 922        TOTAL FREE ENERGY PREDICTED BY IDOCK:   -7.03 KCAL/MOL
REMARK 923 INTER-LIGAND FREE ENERGY PREDICTED BY IDOCK:   -6.39 KCAL/MOL
REMARK 924 INTRA-LIGAND FREE ENERGY PREDICTED BY IDOCK:   -0.64 KCAL/MOL
REMARK 927      BINDING AFFINITY PREDICTED BY RF-SCORE:    0.00 PKD
ROOT
HETATM    1  C   UNL     1      -8.016  16.267  68.658  1.00  0.00    -0.215 C  
HETATM    2  C   UNL     1      -7.731  15.021  67.803  1.00  0.00    -0.168 C  
HETATM    3  C   UNL     1      -7.415  13.883  68.800  1.00  0.00    -0.114 C  
HETATM    4  C   UNL     1      -8.851  14.689  66.801  1.00  0.00    -0.269 A  
HETATM    5  C   UNL     1      -9.524  15.663  66.039  1.00  0.00    -0.355 A  
HETATM    6  C   UNL     1     -10.307  12.986  65.792  1.00  0.00    -0.286 A  
HETATM    7  C   UNL     1     -10.581  15.297  65.184  1.00  0.00    -0.453 A  
HETATM    8  C   UNL     1     -11.002  13.964  65.072  1.00  0.00    -0.371 A  
HETATM    9  C   UNL     1      -9.237  13.344  66.613  1.00  0.00    -0.223 A  
HETATM   10  C   UNL     1     -12.177  13.617  64.208  1.00  0.00    -0.445 C  
ENDROOT
BRANCH   5  11
HETATM   11  O   UNL     1      -9.058  16.955  66.076  1.00  0.00    -0.448 OA 
BRANCH  11  12
HETATM   12  C   UNL     1     -10.059  17.979  65.970  1.00  0.00    -0.266 C  
BRANCH  12  13
HETATM   13  C   UNL     1     -10.631  18.260  67.373  1.00  0.00    -0.401 C  
BRANCH  13  14
HETATM   14  N   UNL     1     -10.303  19.597  67.913  1.00  0.00    -0.440 NA 
HETATM   15  C   UNL     1      -9.821  19.527  69.293  1.00  0.00    -0.278 C  
HETATM   16  C   UNL     1      -9.291  20.241  67.072  1.00  0.00    -0.395 C  
ENDBRANCH  13  14
ENDBRANCH  12  13
ENDBRANCH  11  12
ENDBRANCH   5  11
BRANCH   6  17
HETATM   17  O   UNL     1     -10.780  11.648  65.678  1.00  0.00    -0.266 OA 
BRANCH  17  18
HETATM   18  C   UNL     1     -10.191  10.607  64.947  1.00  0.00    -0.324 C  
HETATM   19  O   UNL     1     -10.032  10.545  63.736  1.00  0.00    -0.323 OA 
HETATM   20  C   UNL     1      -9.700   9.558  65.896  1.00  0.00    -0.352 C  
ENDBRANCH  17  18
ENDBRANCH   6  17
TORSDOF 6
ENDMDL
MODEL       45
REMARK 921   NORMALIZED FREE ENERGY PREDICTED BY IDOCK:   -4.75 KCAL/MOL
REMARK 922        TOTAL FREE ENERGY PREDICTED BY IDOCK:   -7.02 KCAL/MOL
REMARK 923 INTER-LIGAND FREE ENERGY PREDICTED BY IDOCK:   -6.36 KCAL/MOL
REMARK 924 INTRA-LIGAND FREE ENERGY PREDICTED BY IDOCK:   -0.66 KCAL/MOL
REMARK 927      BINDING AFFINITY PREDICTED BY RF-SCORE:    0.00 PKD
ROOT
HETATM    1  C   UNL     1     -12.026  13.798  68.138  1.00  0.00    -0.394 C  
HETATM    2  C   UNL     1     -11.333  13.057  69.294  1.00  0.00    -0.310 C  
HETATM    3  C   UNL     1     -12.241  13.252  70.530  1.00  0.00    -0.416 C  
HETATM    4  C   UNL     1     -11.005  11.587  68.978  1.00  0.00    -0.285 A  
HETATM    5  C   UNL     1     -10.490  11.155  67.741  1.00  0.00    -0.193 A  
HETATM    6  C   UNL     1     -11.029   9.243  69.714  1.00  0.00    -0.196 A  
HETATM    7  C   UNL     1     -10.268   9.787  67.497  1.00  0.00    -0.271 A  
HETATM    8  C   UNL     1     -10.560   8.816  68.467  1.00  0.00    -0.171 A  
HETATM    9  C   UNL     1     -11.216  10.602  69.967  1.00  0.00    -0.382 A  
HETATM   10  C   UNL     1     -10.380   7.362  68.150  1.00  0.00    -0.235 C  
ENDROOT
BRANCH   5  11
HETATM   11  O   UNL     1     -10.118  12.108  66.824  1.00  0.00    -0.199 OA 
BRANCH  11  12
HETATM   12  C   UNL     1      -9.961  11.642  65.474  1.00  0.00    -0.242 C  
BRANCH  12  13
HETATM   13  C   UNL     1     -10.472  12.731  64.511  1.00  0.00    -0.368 C  
BRANCH  13  14
HETATM   14  N   UNL     1     -11.933  12.950  64.551  1.00  0.00    -0.372 NA 
HETATM   15  C   UNL     1     -12.286  14.347  64.295  1.00  0.00    -0.423 C  
HETATM   16  C   UNL     1     -12.594  12.089  63.567  1.00  0.00    -0.507 C  
ENDBRANCH  13  14
ENDBRANCH  12  13
ENDBRANCH  11  12
ENDBRANCH   5  11
BRANCH   6  17
HETATM   17  O   UNL     1     -11.343   8.229  70.662  1.00  0.00    -0.264 OA 
BRANCH  17  18
HETATM   18  C   UNL     1     -11.737   8.416  71.995  1.00  0.00    -0.352 C  
HETATM   19  O   UNL     1     -12.833   8.768  72.404  1.00  0.00    -0.385 OA 
HETATM   20  C   UNL     1     -10.600   8.047  72.898  1.00  0.00    -0.399 C  
ENDBRANCH  17  18
ENDBRANCH   6  17
TORSDOF 6
ENDMDL
MODEL       46
REMARK 921   NORMALIZED FREE ENERGY PREDICTED BY IDOCK:   -4.74 KCAL/MOL
REMARK 922        TOTAL FREE ENERGY PREDICTED BY IDOCK:   -7.02 KCAL/MOL
REMARK 923 INTER-LIGAND FREE ENERGY PREDICTED BY IDOCK:   -6.46 KCAL/MOL
REMARK 924 INTRA-LIGAND FREE ENERGY PREDICTED BY IDOCK:   -0.56 KCAL/MOL
REMARK 927      BINDING AFFINITY PREDICTED BY RF-SCORE:    0.00 PKD
ROOT
HETATM    1  C   UNL     1     -12.373  14.528  64.467  1.00  0.00    -0.434 C  
HETATM    2  C   UNL     1     -12.510  13.047  64.857  1.00  0.00    -0.512 C  
HETATM    3  C   UNL     1     -12.394  12.247  63.539  1.00  0.00    -0.670 C  
HETATM    4  C   UNL     1     -11.526  12.603  65.953  1.00  0.00    -0.407 A  
HETATM    5  C   UNL     1     -11.223  13.381  67.087  1.00  0.00    -0.302 A  
HETATM    6  C   UNL     1      -9.914  10.929  66.752  1.00  0.00    -0.205 A  
HETATM    7  C   UNL     1     -10.268  12.941  68.023  1.00  0.00    -0.229 A  
HETATM    8  C   UNL     1      -9.584  11.728  67.852  1.00  0.00    -0.187 A  
HETATM    9  C   UNL     1     -10.886  11.349  65.844  1.00  0.00    -0.292 A  
HETATM   10  C   UNL     1      -8.521  11.323  68.828  1.00  0.00    -0.112 C  
ENDROOT
BRANCH   5  11
HETATM   11  O   UNL     1     -11.954  14.524  67.304  1.00  0.00    -0.405 OA 
BRANCH  11  12
HETATM   12  C   UNL     1     -11.330  15.509  68.143  1.00  0.00    -0.345 C  
BRANCH  12  13
HETATM   13  C   UNL     1     -10.475  16.440  67.261  1.00  0.00    -0.303 C  
BRANCH  13  14
HETATM   14  N   UNL     1     -10.684  17.883  67.509  1.00  0.00    -0.371 NA 
HETATM   15  C   UNL     1      -9.769  18.403  68.526  1.00  0.00    -0.361 C  
HETATM   16  C   UNL     1     -10.510  18.633  66.263  1.00  0.00    -0.424 C  
ENDBRANCH  13  14
ENDBRANCH  12  13
ENDBRANCH  11  12
ENDBRANCH   5  11
BRANCH   6  17
HETATM   17  O   UNL     1      -9.179   9.720  66.595  1.00  0.00    -0.144 OA 
BRANCH  17  18
HETATM   18  C   UNL     1      -9.687   8.413  66.645  1.00  0.00    -0.251 C  
HETATM   19  O   UNL     1     -10.776   8.055  67.069  1.00  0.00    -0.328 OA 
HETATM   20  C   UNL     1      -8.698   7.479  66.020  1.00  0.00    -0.178 C  
ENDBRANCH  17  18
ENDBRANCH   6  17
TORSDOF 6
ENDMDL
MODEL       47
REMARK 921   NORMALIZED FREE ENERGY PREDICTED BY IDOCK:   -4.73 KCAL/MOL
REMARK 922        TOTAL FREE ENERGY PREDICTED BY IDOCK:   -7.00 KCAL/MOL
REMARK 923 INTER-LIGAND FREE ENERGY PREDICTED BY IDOCK:   -6.35 KCAL/MOL
REMARK 924 INTRA-LIGAND FREE ENERGY PREDICTED BY IDOCK:   -0.65 KCAL/MOL
REMARK 927      BINDING AFFINITY PREDICTED BY RF-SCORE:    0.00 PKD
ROOT
HETATM    1  C   UNL     1      -7.957  13.761  68.329  1.00  0.00    -0.146 C  
HETATM    2  C   UNL     1      -7.540  15.034  69.084  1.00  0.00    -0.176 C  
HETATM    3  C   UNL     1      -6.037  15.235  68.783  1.00  0.00    -0.087 C  
HETATM    4  C   UNL     1      -8.416  16.259  68.764  1.00  0.00    -0.240 A  
HETATM    5  C   UNL     1      -9.817  16.200  68.642  1.00  0.00    -0.226 A  
HETATM    6  C   UNL     1      -8.532  18.648  68.204  1.00  0.00    -0.312 A  
HETATM    7  C   UNL     1     -10.553  17.347  68.289  1.00  0.00    -0.366 A  
HETATM    8  C   UNL     1      -9.919  18.572  68.039  1.00  0.00    -0.385 A  
HETATM    9  C   UNL     1      -7.807  17.520  68.588  1.00  0.00    -0.272 A  
HETATM   10  C   UNL     1     -10.724  19.756  67.595  1.00  0.00    -0.460 C  
ENDROOT
BRANCH   5  11
HETATM   11  O   UNL     1     -10.450  15.025  68.973  1.00  0.00    -0.229 OA 
BRANCH  11  12
HETATM   12  C   UNL     1     -11.874  15.016  68.789  1.00  0.00    -0.301 C  
BRANCH  12  13
HETATM   13  C   UNL     1     -12.537  14.521  70.089  1.00  0.00    -0.288 C  
BRANCH  13  14
HETATM   14  N   UNL     1     -13.009  15.597  70.987  1.00  0.00    -0.491 NA 
HETATM   15  C   UNL     1     -14.127  15.161  71.825  1.00  0.00    -0.548 C  
HETATM   16  C   UNL     1     -11.908  16.055  71.838  1.00  0.00    -0.534 C  
ENDBRANCH  13  14
ENDBRANCH  12  13
ENDBRANCH  11  12
ENDBRANCH   5  11
BRANCH   6  17
HETATM   17  O   UNL     1      -7.919  19.900  67.913  1.00  0.00    -0.291 OA 
BRANCH  17  18
HETATM   18  C   UNL     1      -7.240  20.251  66.738  1.00  0.00    -0.267 C  
HETATM   19  O   UNL     1      -7.491  19.890  65.597  1.00  0.00    -0.328 OA 
HETATM   20  C   UNL     1      -6.155  21.227  67.072  1.00  0.00    -0.408 C  
ENDBRANCH  17  18
ENDBRANCH   6  17
TORSDOF 6
ENDMDL
MODEL       48
REMARK 921   NORMALIZED FREE ENERGY PREDICTED BY IDOCK:   -4.71 KCAL/MOL
REMARK 922        TOTAL FREE ENERGY PREDICTED BY IDOCK:   -6.97 KCAL/MOL
REMARK 923 INTER-LIGAND FREE ENERGY PREDICTED BY IDOCK:   -6.59 KCAL/MOL
REMARK 924 INTRA-LIGAND FREE ENERGY PREDICTED BY IDOCK:   -0.37 KCAL/MOL
REMARK 927      BINDING AFFINITY PREDICTED BY RF-SCORE:    0.00 PKD
ROOT
HETATM    1  C   UNL     1      -7.371  11.260  68.675  1.00  0.00    -0.109 C  
HETATM    2  C   UNL     1      -7.763  12.722  68.401  1.00  0.00    -0.132 C  
HETATM    3  C   UNL     1      -6.559  13.355  67.666  1.00  0.00    -0.174 C  
HETATM    4  C   UNL     1      -9.104  12.875  67.662  1.00  0.00    -0.194 A  
HETATM    5  C   UNL     1     -10.248  12.110  67.963  1.00  0.00    -0.201 A  
HETATM    6  C   UNL     1     -10.379  13.955  65.860  1.00  0.00    -0.311 A  
HETATM    7  C   UNL     1     -11.427  12.259  67.208  1.00  0.00    -0.426 A  
HETATM    8  C   UNL     1     -11.497  13.159  66.134  1.00  0.00    -0.366 A  
HETATM    9  C   UNL     1      -9.223  13.831  66.630  1.00  0.00    -0.238 A  
HETATM   10  C   UNL     1     -12.743  13.242  65.305  1.00  0.00    -0.474 C  
ENDROOT
BRANCH   5  11
HETATM   11  O   UNL     1     -10.212  11.295  69.068  1.00  0.00    -0.205 OA 
BRANCH  11  12
HETATM   12  C   UNL     1     -11.350  10.436  69.242  1.00  0.00    -0.235 C  
BRANCH  12  13
HETATM   13  C   UNL     1     -11.806  10.511  70.712  1.00  0.00    -0.365 C  
BRANCH  13  14
HETATM   14  N   UNL     1     -11.509   9.302  71.509  1.00  0.00    -0.358 NA 
HETATM   15  C   UNL     1     -12.706   8.766  72.159  1.00  0.00    -0.400 C  
HETATM   16  C   UNL     1     -10.913   8.273  70.653  1.00  0.00    -0.240 C  
ENDBRANCH  13  14
ENDBRANCH  12  13
ENDBRANCH  11  12
ENDBRANCH   5  11
BRANCH   6  17
HETATM   17  O   UNL     1     -10.476  14.834  64.745  1.00  0.00    -0.406 OA 
BRANCH  17  18
HETATM   18  C   UNL     1     -10.996  16.137  64.744  1.00  0.00    -0.313 C  
HETATM   19  O   UNL     1     -11.775  16.626  63.939  1.00  0.00    -1.153 OA 
HETATM   20  C   UNL     1     -10.495  16.865  65.953  1.00  0.00    -0.294 C  
ENDBRANCH  17  18
ENDBRANCH   6  17
TORSDOF 6
ENDMDL
MODEL       49
REMARK 921   NORMALIZED FREE ENERGY PREDICTED BY IDOCK:   -4.71 KCAL/MOL
REMARK 922        TOTAL FREE ENERGY PREDICTED BY IDOCK:   -6.97 KCAL/MOL
REMARK 923 INTER-LIGAND FREE ENERGY PREDICTED BY IDOCK:   -6.27 KCAL/MOL
REMARK 924 INTRA-LIGAND FREE ENERGY PREDICTED BY IDOCK:   -0.69 KCAL/MOL
REMARK 927      BINDING AFFINITY PREDICTED BY RF-SCORE:    0.00 PKD
ROOT
HETATM    1  C   UNL     1     -10.304  12.892  64.039  1.00  0.00    -0.346 C  
HETATM    2  C   UNL     1     -10.768  11.453  64.323  1.00  0.00    -0.420 C  
HETATM    3  C   UNL     1      -9.774  10.532  63.580  1.00  0.00    -0.374 C  
HETATM    4  C   UNL     1     -10.923  11.136  65.821  1.00  0.00    -0.160 A  
HETATM    5  C   UNL     1     -11.498  12.027  66.747  1.00  0.00    -0.345 A  
HETATM    6  C   UNL     1     -10.504   9.579  67.675  1.00  0.00    -0.263 A  
HETATM    7  C   UNL     1     -11.555  11.699  68.115  1.00  0.00    -0.389 A  
HETATM    8  C   UNL     1     -11.035  10.488  68.597  1.00  0.00    -0.294 A  
HETATM    9  C   UNL     1     -10.479   9.891  66.316  1.00  0.00    -0.171 A  
HETATM   10  C   UNL     1     -11.046  10.200  70.068  1.00  0.00    -0.368 C  
ENDROOT
BRANCH   5  11
HETATM   11  O   UNL     1     -12.088  13.172  66.267  1.00  0.00    -0.403 OA 
BRANCH  11  12
HETATM   12  C   UNL     1     -12.151  14.270  67.191  1.00  0.00    -0.377 C  
BRANCH  12  13
HETATM   13  C   UNL     1     -10.919  15.170  66.973  1.00  0.00    -0.322 C  
BRANCH  13  14
HETATM   14  N   UNL     1     -10.554  16.005  68.137  1.00  0.00    -0.275 NA 
HETATM   15  C   UNL     1     -10.647  17.435  67.838  1.00  0.00    -0.383 C  
HETATM   16  C   UNL     1     -11.422  15.684  69.273  1.00  0.00    -0.362 C  
ENDBRANCH  13  14
ENDBRANCH  12  13
ENDBRANCH  11  12
ENDBRANCH   5  11
BRANCH   6  17
HETATM   17  O   UNL     1      -9.959   8.375  68.203  1.00  0.00    -0.177 OA 
BRANCH  17  18
HETATM   18  C   UNL     1     -10.485   7.083  68.067  1.00  0.00    -0.208 C  
HETATM   19  O   UNL     1     -10.786   6.507  67.032  1.00  0.00    -0.328 OA 
HETATM   20  C   UNL     1     -10.573   6.445  69.419  1.00  0.00    -0.310 C  
ENDBRANCH  17  18
ENDBRANCH   6  17
TORSDOF 6
ENDMDL
MODEL       50
REMARK 921   NORMALIZED FREE ENERGY PREDICTED BY IDOCK:   -4.68 KCAL/MOL
REMARK 922        TOTAL FREE ENERGY PREDICTED BY IDOCK:   -6.93 KCAL/MOL
REMARK 923 INTER-LIGAND FREE ENERGY PREDICTED BY IDOCK:   -6.13 KCAL/MOL
REMARK 924 INTRA-LIGAND FREE ENERGY PREDICTED BY IDOCK:   -0.80 KCAL/MOL
REMARK 927      BINDING AFFINITY PREDICTED BY RF-SCORE:    0.00 PKD
ROOT
HETATM    1  C   UNL     1     -12.113  12.597  65.964  1.00  0.00    -0.429 C  
HETATM    2  C   UNL     1     -11.372  13.588  65.051  1.00  0.00    -0.334 C  
HETATM    3  C   UNL     1     -12.470  14.404  64.329  1.00  0.00    -0.303 C  
HETATM    4  C   UNL     1     -10.329  14.447  65.787  1.00  0.00    -0.340 A  
HETATM    5  C   UNL     1      -9.455  13.937  66.766  1.00  0.00    -0.279 A  
HETATM    6  C   UNL     1      -9.360  16.672  66.172  1.00  0.00    -0.284 A  
HETATM    7  C   UNL     1      -8.564  14.791  67.444  1.00  0.00    -0.210 A  
HETATM    8  C   UNL     1      -8.526  16.167  67.177  1.00  0.00    -0.218 A  
HETATM    9  C   UNL     1     -10.217  15.820  65.477  1.00  0.00    -0.407 A  
HETATM   10  C   UNL     1      -7.618  17.059  67.967  1.00  0.00    -0.183 C  
ENDROOT
BRANCH   5  11
HETATM   11  O   UNL     1      -9.426  12.578  66.966  1.00  0.00    -0.204 OA 
BRANCH  11  12
HETATM   12  C   UNL     1      -8.447  12.111  67.908  1.00  0.00    -0.163 C  
BRANCH  12  13
HETATM   13  C   UNL     1      -9.095  11.036  68.803  1.00  0.00    -0.157 C  
BRANCH  13  14
HETATM   14  N   UNL     1     -10.415  10.563  68.337  1.00  0.00    -0.176 NA 
HETATM   15  C   UNL     1     -10.349   9.208  67.787  1.00  0.00    -0.245 C  
HETATM   16  C   UNL     1     -11.377  10.598  69.442  1.00  0.00    -0.284 C  
ENDBRANCH  13  14
ENDBRANCH  12  13
ENDBRANCH  11  12
ENDBRANCH   5  11
BRANCH   6  17
HETATM   17  O   UNL     1      -9.316  18.077  65.949  1.00  0.00    -0.520 OA 
BRANCH  17  18
HETATM   18  C   UNL     1     -10.385  18.979  66.049  1.00  0.00    -0.446 C  
HETATM   19  O   UNL     1     -11.078  19.415  65.141  1.00  0.00    -0.365 OA 
HETATM   20  C   UNL     1     -10.618  19.303  67.492  1.00  0.00    -0.581 C  
ENDBRANCH  17  18
ENDBRANCH   6  17
TORSDOF 6
ENDMDL
MODEL       51
REMARK 921   NORMALIZED FREE ENERGY PREDICTED BY IDOCK:   -4.68 KCAL/MOL
REMARK 922        TOTAL FREE ENERGY PREDICTED BY IDOCK:   -6.93 KCAL/MOL
REMARK 923 INTER-LIGAND FREE ENERGY PREDICTED BY IDOCK:   -6.09 KCAL/MOL
REMARK 924 INTRA-LIGAND FREE ENERGY PREDICTED BY IDOCK:   -0.84 KCAL/MOL
REMARK 927      BINDING AFFINITY PREDICTED BY RF-SCORE:    0.00 PKD
ROOT
HETATM    1  C   UNL     1     -13.024  10.994  71.697  1.00  0.00    -0.561 C  
HETATM    2  C   UNL     1     -11.745  10.480  71.014  1.00  0.00    -0.384 C  
HETATM    3  C   UNL     1     -11.796   8.938  71.121  1.00  0.00    -0.353 C  
HETATM    4  C   UNL     1     -11.553  11.007  69.581  1.00  0.00    -0.390 A  
HETATM    5  C   UNL     1     -11.807  12.339  69.204  1.00  0.00    -0.301 A  
HETATM    6  C   UNL     1     -10.989  10.519  67.240  1.00  0.00    -0.260 A  
HETATM    7  C   UNL     1     -11.669  12.741  67.862  1.00  0.00    -0.408 A  
HETATM    8  C   UNL     1     -11.287  11.833  66.864  1.00  0.00    -0.386 A  
HETATM    9  C   UNL     1     -11.093  10.130  68.575  1.00  0.00    -0.266 A  
HETATM   10  C   UNL     1     -11.218  12.276  65.433  1.00  0.00    -0.372 C  
ENDROOT
BRANCH   5  11
HETATM   11  O   UNL     1     -12.094  13.251  70.191  1.00  0.00    -0.336 OA 
BRANCH  11  12
HETATM   12  C   UNL     1     -12.243  14.611  69.754  1.00  0.00    -0.302 C  
BRANCH  12  13
HETATM   13  C   UNL     1     -11.127  15.461  70.394  1.00  0.00    -0.328 C  
BRANCH  13  14
HETATM   14  N   UNL     1     -10.134  15.991  69.437  1.00  0.00    -0.256 NA 
HETATM   15  C   UNL     1      -8.959  15.124  69.329  1.00  0.00    -0.202 C  
HETATM   16  C   UNL     1     -10.748  16.151  68.116  1.00  0.00    -0.315 C  
ENDBRANCH  13  14
ENDBRANCH  12  13
ENDBRANCH  11  12
ENDBRANCH   5  11
BRANCH   6  17
HETATM   17  O   UNL     1     -10.634   9.618  66.197  1.00  0.00    -0.101 OA 
BRANCH  17  18
HETATM   18  C   UNL     1      -9.422   8.925  66.059  1.00  0.00    -0.252 C  
HETATM   19  O   UNL     1      -9.233   7.724  66.188  1.00  0.00    -0.174 OA 
HETATM   20  C   UNL     1      -8.351   9.888  65.650  1.00  0.00    -0.140 C  
ENDBRANCH  17  18
ENDBRANCH   6  17
TORSDOF 6
ENDMDL
MODEL       52
REMARK 921   NORMALIZED FREE ENERGY PREDICTED BY IDOCK:   -4.66 KCAL/MOL
REMARK 922        TOTAL FREE ENERGY PREDICTED BY IDOCK:   -6.91 KCAL/MOL
REMARK 923 INTER-LIGAND FREE ENERGY PREDICTED BY IDOCK:   -6.20 KCAL/MOL
REMARK 924 INTRA-LIGAND FREE ENERGY PREDICTED BY IDOCK:   -0.70 KCAL/MOL
REMARK 927      BINDING AFFINITY PREDICTED BY RF-SCORE:    0.00 PKD
ROOT
HETATM    1  C   UNL     1      -9.365  11.404  65.870  1.00  0.00    -0.247 C  
HETATM    2  C   UNL     1      -9.985  10.110  66.425  1.00  0.00    -0.295 C  
HETATM    3  C   UNL     1      -8.824   9.096  66.537  1.00  0.00    -0.156 C  
HETATM    4  C   UNL     1     -10.774  10.312  67.730  1.00  0.00    -0.324 A  
HETATM    5  C   UNL     1     -11.635  11.403  67.956  1.00  0.00    -0.286 A  
HETATM    6  C   UNL     1     -11.264   9.536  70.010  1.00  0.00    -0.209 A  
HETATM    7  C   UNL     1     -12.282  11.559  69.197  1.00  0.00    -0.221 A  
HETATM    8  C   UNL     1     -12.083  10.647  70.243  1.00  0.00    -0.423 A  
HETATM    9  C   UNL     1     -10.652   9.363  68.769  1.00  0.00    -0.234 A  
HETATM   10  C   UNL     1     -12.729  10.881  71.576  1.00  0.00    -0.533 C  
ENDROOT
BRANCH   5  11
HETATM   11  O   UNL     1     -11.903  12.248  66.906  1.00  0.00    -0.524 OA 
BRANCH  11  12
HETATM   12  C   UNL     1     -12.203  13.606  67.264  1.00  0.00    -0.275 C  
BRANCH  12  13
HETATM   13  C   UNL     1     -11.441  14.548  66.312  1.00  0.00    -0.358 C  
BRANCH  13  14
HETATM   14  N   UNL     1     -10.381  15.349  66.960  1.00  0.00    -0.274 NA 
HETATM   15  C   UNL     1      -9.728  14.617  68.046  1.00  0.00    -0.216 C  
HETATM   16  C   UNL     1      -9.380  15.748  65.967  1.00  0.00    -0.349 C  
ENDBRANCH  13  14
ENDBRANCH  12  13
ENDBRANCH  11  12
ENDBRANCH   5  11
BRANCH   6  17
HETATM   17  O   UNL     1     -11.061   8.648  71.103  1.00  0.00    -0.242 OA 
BRANCH  17  18
HETATM   18  C   UNL     1      -9.935   8.583  71.937  1.00  0.00    -0.294 C  
HETATM   19  O   UNL     1      -8.880   9.188  71.811  1.00  0.00    -0.341 OA 
HETATM   20  C   UNL     1     -10.234   7.682  73.095  1.00  0.00    -0.401 C  
ENDBRANCH  17  18
ENDBRANCH   6  17
TORSDOF 6
ENDMDL
MODEL       53
REMARK 921   NORMALIZED FREE ENERGY PREDICTED BY IDOCK:   -4.65 KCAL/MOL
REMARK 922        TOTAL FREE ENERGY PREDICTED BY IDOCK:   -6.89 KCAL/MOL
REMARK 923 INTER-LIGAND FREE ENERGY PREDICTED BY IDOCK:   -6.19 KCAL/MOL
REMARK 924 INTRA-LIGAND FREE ENERGY PREDICTED BY IDOCK:   -0.70 KCAL/MOL
REMARK 927      BINDING AFFINITY PREDICTED BY RF-SCORE:    0.00 PKD
ROOT
HETATM    1  C   UNL     1     -13.223  10.715  71.471  1.00  0.00    -0.460 C  
HETATM    2  C   UNL     1     -11.826  10.073  71.472  1.00  0.00    -0.406 C  
HETATM    3  C   UNL     1     -11.954   8.775  72.302  1.00  0.00    -0.415 C  
HETATM    4  C   UNL     1     -11.239   9.865  70.064  1.00  0.00    -0.327 A  
HETATM    5  C   UNL     1     -11.338  10.819  69.034  1.00  0.00    -0.284 A  
HETATM    6  C   UNL     1     -10.082   8.377  68.488  1.00  0.00    -0.197 A  
HETATM    7  C   UNL     1     -10.830  10.541  67.750  1.00  0.00    -0.347 A  
HETATM    8  C   UNL     1     -10.224   9.311  67.456  1.00  0.00    -0.300 A  
HETATM    9  C   UNL     1     -10.553   8.667  69.768  1.00  0.00    -0.224 A  
HETATM   10  C   UNL     1      -9.759   9.018  66.061  1.00  0.00    -0.339 C  
ENDROOT
BRANCH   5  11
HETATM   11  O   UNL     1     -11.849  12.057  69.341  1.00  0.00    -0.306 OA 
BRANCH  11  12
HETATM   12  C   UNL     1     -11.132  13.176  68.796  1.00  0.00    -0.269 C  
BRANCH  12  13
HETATM   13  C   UNL     1     -12.117  14.057  68.004  1.00  0.00    -0.277 C  
BRANCH  13  14
HETATM   14  N   UNL     1     -11.685  14.375  66.626  1.00  0.00    -0.385 NA 
HETATM   15  C   UNL     1     -10.361  13.830  66.327  1.00  0.00    -0.294 C  
HETATM   16  C   UNL     1     -12.659  13.853  65.665  1.00  0.00    -0.517 C  
ENDBRANCH  13  14
ENDBRANCH  12  13
ENDBRANCH  11  12
ENDBRANCH   5  11
BRANCH   6  17
HETATM   17  O   UNL     1      -9.489   7.129  68.146  1.00  0.00    -0.133 OA 
BRANCH  17  18
HETATM   18  C   UNL     1     -10.104   5.868  68.177  1.00  0.00    -0.166 C  
HETATM   19  O   UNL     1     -10.435   5.226  69.163  1.00  0.00    -0.219 OA 
HETATM   20  C   UNL     1     -10.373   5.420  66.774  1.00  0.00    -0.321 C  
ENDBRANCH  17  18
ENDBRANCH   6  17
TORSDOF 6
ENDMDL
MODEL       54
REMARK 921   NORMALIZED FREE ENERGY PREDICTED BY IDOCK:   -4.59 KCAL/MOL
REMARK 922        TOTAL FREE ENERGY PREDICTED BY IDOCK:   -6.80 KCAL/MOL
REMARK 923 INTER-LIGAND FREE ENERGY PREDICTED BY IDOCK:   -6.37 KCAL/MOL
REMARK 924 INTRA-LIGAND FREE ENERGY PREDICTED BY IDOCK:   -0.44 KCAL/MOL
REMARK 927      BINDING AFFINITY PREDICTED BY RF-SCORE:    0.00 PKD
ROOT
HETATM    1  C   UNL     1     -10.587   7.696  67.222  1.00  0.00    -0.388 C  
HETATM    2  C   UNL     1      -9.618   8.853  66.926  1.00  0.00    -0.248 C  
HETATM    3  C   UNL     1      -9.151   8.654  65.465  1.00  0.00    -0.190 C  
HETATM    4  C   UNL     1     -10.209  10.244  67.215  1.00  0.00    -0.267 A  
HETATM    5  C   UNL     1     -10.987  10.536  68.352  1.00  0.00    -0.261 A  
HETATM    6  C   UNL     1     -10.550  12.560  66.467  1.00  0.00    -0.242 A  
HETATM    7  C   UNL     1     -11.547  11.816  68.526  1.00  0.00    -0.380 A  
HETATM    8  C   UNL     1     -11.360  12.830  67.576  1.00  0.00    -0.361 A  
HETATM    9  C   UNL     1      -9.966  11.302  66.313  1.00  0.00    -0.260 A  
HETATM   10  C   UNL     1     -12.029  14.159  67.755  1.00  0.00    -0.389 C  
ENDROOT
BRANCH   5  11
HETATM   11  O   UNL     1     -11.098   9.574  69.327  1.00  0.00    -0.190 OA 
BRANCH  11  12
HETATM   12  C   UNL     1     -11.190  10.066  70.674  1.00  0.00    -0.350 C  
BRANCH  12  13
HETATM   13  C   UNL     1     -10.481   9.070  71.613  1.00  0.00    -0.355 C  
BRANCH  13  14
HETATM   14  N   UNL     1     -11.392   8.270  72.459  1.00  0.00    -0.391 NA 
HETATM   15  C   UNL     1     -12.452   7.635  71.676  1.00  0.00    -0.335 C  
HETATM   16  C   UNL     1     -10.632   7.244  73.178  1.00  0.00    -0.355 C  
ENDBRANCH  13  14
ENDBRANCH  12  13
ENDBRANCH  11  12
ENDBRANCH   5  11
BRANCH   6  17
HETATM   17  O   UNL     1     -10.406  13.602  65.508  1.00  0.00    -0.290 OA 
BRANCH  17  18
HETATM   18  C   UNL     1     -11.174  13.793  64.350  1.00  0.00    -0.352 C  
HETATM   19  O   UNL     1     -11.443  12.965  63.492  1.00  0.00    -0.463 OA 
HETATM   20  C   UNL     1     -11.700  15.194  64.336  1.00  0.00    -0.301 C  
ENDBRANCH  17  18
ENDBRANCH   6  17
TORSDOF 6
ENDMDL
MODEL       55
REMARK 921   NORMALIZED FREE ENERGY PREDICTED BY IDOCK:   -4.52 KCAL/MOL
REMARK 922        TOTAL FREE ENERGY PREDICTED BY IDOCK:   -6.72 KCAL/MOL
REMARK 923 INTER-LIGAND FREE ENERGY PREDICTED BY IDOCK:   -6.15 KCAL/MOL
REMARK 924 INTRA-LIGAND FREE ENERGY PREDICTED BY IDOCK:   -0.56 KCAL/MOL
REMARK 927      BINDING AFFINITY PREDICTED BY RF-SCORE:    0.00 PKD
ROOT
HETATM    1  C   UNL     1     -11.134   6.116  68.959  1.00  0.00    -0.437 C  
HETATM    2  C   UNL     1     -10.311   7.400  69.159  1.00  0.00    -0.208 C  
HETATM    3  C   UNL     1      -9.868   7.847  67.747  1.00  0.00    -0.204 C  
HETATM    4  C   UNL     1     -11.047   8.487  69.962  1.00  0.00    -0.152 A  
HETATM    5  C   UNL     1     -11.819   8.217  71.108  1.00  0.00    -0.279 A  
HETATM    6  C   UNL     1     -11.670  10.855  70.180  1.00  0.00    -0.347 A  
HETATM    7  C   UNL     1     -12.516   9.251  71.762  1.00  0.00    -0.458 A  
HETATM    8  C   UNL     1     -12.472  10.572  71.291  1.00  0.00    -0.524 A  
HETATM    9  C   UNL     1     -10.952   9.835  69.554  1.00  0.00    -0.256 A  
HETATM   10  C   UNL     1     -13.282  11.636  71.967  1.00  0.00    -0.443 C  
ENDROOT
BRANCH   5  11
HETATM   11  O   UNL     1     -11.793   6.944  71.624  1.00  0.00    -0.287 OA 
BRANCH  11  12
HETATM   12  C   UNL     1     -11.105   6.797  72.877  1.00  0.00    -0.243 C  
BRANCH  12  13
HETATM   13  C   UNL     1      -9.785   6.041  72.632  1.00  0.00    -0.156 C  
BRANCH  13  14
HETATM   14  N   UNL     1      -9.851   4.588  72.901  1.00  0.00    -0.140 NA 
HETATM   15  C   UNL     1     -11.040   4.227  73.674  1.00  0.00    -0.267 C  
HETATM   16  C   UNL     1      -9.842   3.846  71.638  1.00  0.00    -0.177 C  
ENDBRANCH  13  14
ENDBRANCH  12  13
ENDBRANCH  11  12
ENDBRANCH   5  11
BRANCH   6  17
HETATM   17  O   UNL     1     -11.673  12.199  69.712  1.00  0.00    -0.310 OA 
BRANCH  17  18
HETATM   18  C   UNL     1     -11.848  12.629  68.389  1.00  0.00    -0.301 C  
HETATM   19  O   UNL     1     -12.051  11.936  67.402  1.00  0.00    -0.577 OA 
HETATM   20  C   UNL     1     -11.817  14.126  68.352  1.00  0.00    -0.388 C  
ENDBRANCH  17  18
ENDBRANCH   6  17
TORSDOF 6
ENDMDL
MODEL       56
REMARK 921   NORMALIZED FREE ENERGY PREDICTED BY IDOCK:   -4.52 KCAL/MOL
REMARK 922        TOTAL FREE ENERGY PREDICTED BY IDOCK:   -6.71 KCAL/MOL
REMARK 923 INTER-LIGAND FREE ENERGY PREDICTED BY IDOCK:   -6.03 KCAL/MOL
REMARK 924 INTRA-LIGAND FREE ENERGY PREDICTED BY IDOCK:   -0.69 KCAL/MOL
REMARK 927      BINDING AFFINITY PREDICTED BY RF-SCORE:    0.00 PKD
ROOT
HETATM    1  C   UNL     1     -10.660  10.316  69.840  1.00  0.00    -0.324 C  
HETATM    2  C   UNL     1     -11.576  11.025  68.828  1.00  0.00    -0.386 C  
HETATM    3  C   UNL     1     -11.766  12.464  69.361  1.00  0.00    -0.384 C  
HETATM    4  C   UNL     1     -11.070  10.952  67.377  1.00  0.00    -0.373 A  
HETATM    5  C   UNL     1     -10.518   9.790  66.806  1.00  0.00    -0.189 A  
HETATM    6  C   UNL     1     -10.635  12.122  65.261  1.00  0.00    -0.281 A  
HETATM    7  C   UNL     1     -10.018   9.808  65.489  1.00  0.00    -0.329 A  
HETATM    8  C   UNL     1     -10.045  10.977  64.715  1.00  0.00    -0.367 A  
HETATM    9  C   UNL     1     -11.160  12.094  66.552  1.00  0.00    -0.352 A  
HETATM   10  C   UNL     1      -9.440  10.982  63.343  1.00  0.00    -0.331 C  
ENDROOT
BRANCH   5  11
HETATM   11  O   UNL     1     -10.571   8.622  67.527  1.00  0.00    -0.263 OA 
BRANCH  11  12
HETATM   12  C   UNL     1      -9.759   7.547  67.029  1.00  0.00    -0.198 C  
BRANCH  12  13
HETATM   13  C   UNL     1      -8.407   7.564  67.768  1.00  0.00    -0.119 C  
BRANCH  13  14
HETATM   14  N   UNL     1      -7.227   7.684  66.886  1.00  0.00    -0.086 NA 
HETATM   15  C   UNL     1      -7.527   7.284  65.510  1.00  0.00    -0.085 C  
HETATM   16  C   UNL     1      -6.731   9.063  66.899  1.00  0.00    -0.072 C  
ENDBRANCH  13  14
ENDBRANCH  12  13
ENDBRANCH  11  12
ENDBRANCH   5  11
BRANCH   6  17
HETATM   17  O   UNL     1     -10.617  13.297  64.458  1.00  0.00    -0.379 OA 
BRANCH  17  18
HETATM   18  C   UNL     1     -11.456  14.415  64.582  1.00  0.00    -0.387 C  
HETATM   19  O   UNL     1     -12.660  14.467  64.378  1.00  0.00    -0.665 OA 
HETATM   20  C   UNL     1     -10.654  15.575  65.086  1.00  0.00    -0.455 C  
ENDBRANCH  17  18
ENDBRANCH   6  17
TORSDOF 6
ENDMDL
MODEL       57
REMARK 921   NORMALIZED FREE ENERGY PREDICTED BY IDOCK:   -4.51 KCAL/MOL
REMARK 922        TOTAL FREE ENERGY PREDICTED BY IDOCK:   -6.70 KCAL/MOL
REMARK 923 INTER-LIGAND FREE ENERGY PREDICTED BY IDOCK:   -6.06 KCAL/MOL
REMARK 924 INTRA-LIGAND FREE ENERGY PREDICTED BY IDOCK:   -0.64 KCAL/MOL
REMARK 927      BINDING AFFINITY PREDICTED BY RF-SCORE:    0.00 PKD
ROOT
HETATM    1  C   UNL     1     -12.400  14.037  65.600  1.00  0.00    -0.502 C  
HETATM    2  C   UNL     1     -12.335  12.712  64.821  1.00  0.00    -0.556 C  
HETATM    3  C   UNL     1     -12.088  13.099  63.344  1.00  0.00    -0.558 C  
HETATM    4  C   UNL     1     -11.316  11.709  65.389  1.00  0.00    -0.218 A  
HETATM    5  C   UNL     1     -11.142  11.476  66.766  1.00  0.00    -0.302 A  
HETATM    6  C   UNL     1      -9.499  10.113  64.954  1.00  0.00    -0.289 A  
HETATM    7  C   UNL     1     -10.149  10.587  67.222  1.00  0.00    -0.242 A  
HETATM    8  C   UNL     1      -9.301   9.920  66.326  1.00  0.00    -0.224 A  
HETATM    9  C   UNL     1     -10.505  10.966  64.503  1.00  0.00    -0.393 A  
HETATM   10  C   UNL     1      -8.207   9.037  66.846  1.00  0.00    -0.116 C  
ENDROOT
BRANCH   5  11
HETATM   11  O   UNL     1     -12.028  12.057  67.641  1.00  0.00    -0.547 OA 
BRANCH  11  12
HETATM   12  C   UNL     1     -11.475  12.470  68.901  1.00  0.00    -0.307 C  
BRANCH  12  13
HETATM   13  C   UNL     1     -10.668  13.766  68.686  1.00  0.00    -0.256 C  
BRANCH  13  14
HETATM   14  N   UNL     1     -11.143  14.923  69.475  1.00  0.00    -0.271 NA 
HETATM   15  C   UNL     1     -11.584  16.025  68.619  1.00  0.00    -0.343 C  
HETATM   16  C   UNL     1     -12.241  14.512  70.352  1.00  0.00    -0.329 C  
ENDBRANCH  13  14
ENDBRANCH  12  13
ENDBRANCH  11  12
ENDBRANCH   5  11
BRANCH   6  17
HETATM   17  O   UNL     1      -8.601   9.443  64.076  1.00  0.00    -0.188 OA 
BRANCH  17  18
HETATM   18  C   UNL     1      -7.626  10.034  63.259  1.00  0.00    -0.140 C  
HETATM   19  O   UNL     1      -7.802  10.824  62.344  1.00  0.00    -0.170 OA 
HETATM   20  C   UNL     1      -6.270   9.596  63.720  1.00  0.00    -0.108 C  
ENDBRANCH  17  18
ENDBRANCH   6  17
TORSDOF 6
ENDMDL
MODEL       58
REMARK 921   NORMALIZED FREE ENERGY PREDICTED BY IDOCK:   -4.51 KCAL/MOL
REMARK 922        TOTAL FREE ENERGY PREDICTED BY IDOCK:   -6.70 KCAL/MOL
REMARK 923 INTER-LIGAND FREE ENERGY PREDICTED BY IDOCK:   -6.03 KCAL/MOL
REMARK 924 INTRA-LIGAND FREE ENERGY PREDICTED BY IDOCK:   -0.66 KCAL/MOL
REMARK 927      BINDING AFFINITY PREDICTED BY RF-SCORE:    0.00 PKD
ROOT
HETATM    1  C   UNL     1     -11.764  12.107  67.359  1.00  0.00    -0.374 C  
HETATM    2  C   UNL     1     -11.456  13.025  66.164  1.00  0.00    -0.381 C  
HETATM    3  C   UNL     1     -12.772  13.774  65.853  1.00  0.00    -0.452 C  
HETATM    4  C   UNL     1     -10.244  13.946  66.387  1.00  0.00    -0.292 A  
HETATM    5  C   UNL     1      -9.049  13.522  66.998  1.00  0.00    -0.244 A  
HETATM    6  C   UNL     1      -9.281  16.200  66.216  1.00  0.00    -0.331 A  
HETATM    7  C   UNL     1      -7.999  14.433  67.226  1.00  0.00    -0.204 A  
HETATM    8  C   UNL     1      -8.113  15.783  66.865  1.00  0.00    -0.292 A  
HETATM    9  C   UNL     1     -10.306  15.290  65.959  1.00  0.00    -0.327 A  
HETATM   10  C   UNL     1      -7.007  16.741  67.186  1.00  0.00    -0.226 C  
ENDROOT
BRANCH   5  11
HETATM   11  O   UNL     1      -8.898  12.184  67.272  1.00  0.00    -0.171 OA 
BRANCH  11  12
HETATM   12  C   UNL     1      -8.257  11.410  66.245  1.00  0.00    -0.088 C  
BRANCH  12  13
HETATM   13  C   UNL     1      -8.968  10.047  66.137  1.00  0.00    -0.149 C  
BRANCH  13  14
HETATM   14  N   UNL     1      -9.249   9.610  64.752  1.00  0.00    -0.244 NA 
HETATM   15  C   UNL     1      -9.753  10.706  63.923  1.00  0.00    -0.321 C  
HETATM   16  C   UNL     1      -8.036   9.055  64.148  1.00  0.00    -0.144 C  
ENDBRANCH  13  14
ENDBRANCH  12  13
ENDBRANCH  11  12
ENDBRANCH   5  11
BRANCH   6  17
HETATM   17  O   UNL     1      -9.374  17.583  65.891  1.00  0.00    -0.516 OA 
BRANCH  17  18
HETATM   18  C   UNL     1     -10.136  18.554  66.555  1.00  0.00    -0.400 C  
HETATM   19  O   UNL     1     -11.006  18.371  67.395  1.00  0.00    -0.351 OA 
HETATM   20  C   UNL     1      -9.676  19.914  66.129  1.00  0.00    -0.527 C  
ENDBRANCH  17  18
ENDBRANCH   6  17
TORSDOF 6
ENDMDL
MODEL       59
REMARK 921   NORMALIZED FREE ENERGY PREDICTED BY IDOCK:   -4.50 KCAL/MOL
REMARK 922        TOTAL FREE ENERGY PREDICTED BY IDOCK:   -6.68 KCAL/MOL
REMARK 923 INTER-LIGAND FREE ENERGY PREDICTED BY IDOCK:   -6.01 KCAL/MOL
REMARK 924 INTRA-LIGAND FREE ENERGY PREDICTED BY IDOCK:   -0.67 KCAL/MOL
REMARK 927      BINDING AFFINITY PREDICTED BY RF-SCORE:    0.00 PKD
ROOT
HETATM    1  C   UNL     1      -7.672  11.253  69.010  1.00  0.00    -0.095 C  
HETATM    2  C   UNL     1      -8.042   9.811  69.399  1.00  0.00    -0.129 C  
HETATM    3  C   UNL     1      -6.870   9.290  70.263  1.00  0.00    -0.071 C  
HETATM    4  C   UNL     1      -9.423   9.684  70.066  1.00  0.00    -0.277 A  
HETATM    5  C   UNL     1     -10.564  10.380  69.625  1.00  0.00    -0.253 A  
HETATM    6  C   UNL     1     -10.779   8.739  71.884  1.00  0.00    -0.359 A  
HETATM    7  C   UNL     1     -11.785  10.264  70.318  1.00  0.00    -0.388 A  
HETATM    8  C   UNL     1     -11.899   9.468  71.467  1.00  0.00    -0.478 A  
HETATM    9  C   UNL     1      -9.581   8.826  71.176  1.00  0.00    -0.309 A  
HETATM   10  C   UNL     1     -13.192   9.423  72.223  1.00  0.00    -0.528 C  
ENDROOT
BRANCH   5  11
HETATM   11  O   UNL     1     -10.480  11.088  68.451  1.00  0.00    -0.165 OA 
BRANCH  11  12
HETATM   12  C   UNL     1     -11.408  12.176  68.316  1.00  0.00    -0.289 C  
BRANCH  12  13
HETATM   13  C   UNL     1     -11.717  12.380  66.820  1.00  0.00    -0.362 C  
BRANCH  13  14
HETATM   14  N   UNL     1     -11.590  13.777  66.351  1.00  0.00    -0.344 NA 
HETATM   15  C   UNL     1     -12.468  14.056  65.214  1.00  0.00    -0.475 C  
HETATM   16  C   UNL     1     -11.896  14.701  67.446  1.00  0.00    -0.348 C  
ENDBRANCH  13  14
ENDBRANCH  12  13
ENDBRANCH  11  12
ENDBRANCH   5  11
BRANCH   6  17
HETATM   17  O   UNL     1     -10.923   7.965  73.070  1.00  0.00    -0.393 OA 
BRANCH  17  18
HETATM   18  C   UNL     1     -10.681   6.591  73.214  1.00  0.00    -0.274 C  
HETATM   19  O   UNL     1      -9.895   6.050  73.978  1.00  0.00    -0.171 OA 
HETATM   20  C   UNL     1     -11.604   5.835  72.309  1.00  0.00    -0.300 C  
ENDBRANCH  17  18
ENDBRANCH   6  17
TORSDOF 6
ENDMDL
MODEL       60
REMARK 921   NORMALIZED FREE ENERGY PREDICTED BY IDOCK:   -4.49 KCAL/MOL
REMARK 922        TOTAL FREE ENERGY PREDICTED BY IDOCK:   -6.67 KCAL/MOL
REMARK 923 INTER-LIGAND FREE ENERGY PREDICTED BY IDOCK:   -6.18 KCAL/MOL
REMARK 924 INTRA-LIGAND FREE ENERGY PREDICTED BY IDOCK:   -0.49 KCAL/MOL
REMARK 927      BINDING AFFINITY PREDICTED BY RF-SCORE:    0.00 PKD
ROOT
HETATM    1  C   UNL     1     -11.238  13.947  67.560  1.00  0.00    -0.323 C  
HETATM    2  C   UNL     1     -11.435  13.175  66.244  1.00  0.00    -0.372 C  
HETATM    3  C   UNL     1     -10.712  14.000  65.154  1.00  0.00    -0.393 C  
HETATM    4  C   UNL     1     -10.993  11.703  66.318  1.00  0.00    -0.338 A  
HETATM    5  C   UNL     1     -11.258  10.868  67.419  1.00  0.00    -0.273 A  
HETATM    6  C   UNL     1      -9.779   9.837  65.276  1.00  0.00    -0.300 A  
HETATM    7  C   UNL     1     -10.772   9.546  67.448  1.00  0.00    -0.297 A  
HETATM    8  C   UNL     1     -10.006   9.027  66.394  1.00  0.00    -0.370 A  
HETATM    9  C   UNL     1     -10.289  11.135  65.234  1.00  0.00    -0.336 A  
HETATM   10  C   UNL     1      -9.444   7.641  66.488  1.00  0.00    -0.250 C  
ENDROOT
BRANCH   5  11
HETATM   11  O   UNL     1     -12.082  11.342  68.412  1.00  0.00    -0.598 OA 
BRANCH  11  12
HETATM   12  C   UNL     1     -11.568  11.233  69.749  1.00  0.00    -0.333 C  
BRANCH  12  13
HETATM   13  C   UNL     1     -12.651  10.599  70.644  1.00  0.00    -0.365 C  
BRANCH  13  14
HETATM   14  N   UNL     1     -12.282   9.288  71.219  1.00  0.00    -0.320 NA 
HETATM   15  C   UNL     1     -10.861   9.220  71.562  1.00  0.00    -0.372 C  
HETATM   16  C   UNL     1     -13.088   9.023  72.414  1.00  0.00    -0.423 C  
ENDBRANCH  13  14
ENDBRANCH  12  13
ENDBRANCH  11  12
ENDBRANCH   5  11
BRANCH   6  17
HETATM   17  O   UNL     1      -8.973   9.288  64.240  1.00  0.00    -0.193 OA 
BRANCH  17  18
HETATM   18  C   UNL     1      -7.572   9.282  64.177  1.00  0.00    -0.113 C  
HETATM   19  O   UNL     1      -6.798  10.032  64.753  1.00  0.00    -0.123 OA 
HETATM   20  C   UNL     1      -7.125   8.138  63.320  1.00  0.00    -0.087 C  
ENDBRANCH  17  18
ENDBRANCH   6  17
TORSDOF 6
ENDMDL
MODEL       61
REMARK 921   NORMALIZED FREE ENERGY PREDICTED BY IDOCK:   -4.49 KCAL/MOL
REMARK 922        TOTAL FREE ENERGY PREDICTED BY IDOCK:   -6.67 KCAL/MOL
REMARK 923 INTER-LIGAND FREE ENERGY PREDICTED BY IDOCK:   -6.04 KCAL/MOL
REMARK 924 INTRA-LIGAND FREE ENERGY PREDICTED BY IDOCK:   -0.63 KCAL/MOL
REMARK 927      BINDING AFFINITY PREDICTED BY RF-SCORE:    0.00 PKD
ROOT
HETATM    1  C   UNL     1     -11.737  13.287  67.769  1.00  0.00    -0.398 C  
HETATM    2  C   UNL     1     -11.358  12.930  69.216  1.00  0.00    -0.303 C  
HETATM    3  C   UNL     1     -12.480  13.511  70.106  1.00  0.00    -0.276 C  
HETATM    4  C   UNL     1     -11.092  11.430  69.434  1.00  0.00    -0.301 A  
HETATM    5  C   UNL     1     -10.372  10.629  68.528  1.00  0.00    -0.183 A  
HETATM    6  C   UNL     1     -11.456   9.429  70.814  1.00  0.00    -0.300 A  
HETATM    7  C   UNL     1     -10.216   9.249  68.760  1.00  0.00    -0.223 A  
HETATM    8  C   UNL     1     -10.778   8.631  69.886  1.00  0.00    -0.227 A  
HETATM    9  C   UNL     1     -11.580  10.802  70.601  1.00  0.00    -0.388 A  
HETATM   10  C   UNL     1     -10.656   7.147  70.066  1.00  0.00    -0.248 C  
ENDROOT
BRANCH   5  11
HETATM   11  O   UNL     1      -9.744  11.246  67.473  1.00  0.00    -0.175 OA 
BRANCH  11  12
HETATM   12  C   UNL     1      -9.841  10.566  66.211  1.00  0.00    -0.217 C  
BRANCH  12  13
HETATM   13  C   UNL     1      -9.726  11.605  65.079  1.00  0.00    -0.211 C  
BRANCH  13  14
HETATM   14  N   UNL     1     -10.457  11.252  63.844  1.00  0.00    -0.363 NA 
HETATM   15  C   UNL     1     -11.676  12.045  63.682  1.00  0.00    -0.493 C  
HETATM   16  C   UNL     1      -9.589  11.442  62.678  1.00  0.00    -0.135 C  
ENDBRANCH  13  14
ENDBRANCH  12  13
ENDBRANCH  11  12
ENDBRANCH   5  11
BRANCH   6  17
HETATM   17  O   UNL     1     -12.039   8.763  71.928  1.00  0.00    -0.315 OA 
BRANCH  17  18
HETATM   18  C   UNL     1     -13.406   8.652  72.222  1.00  0.00    -0.375 C  
HETATM   19  O   UNL     1     -14.099   9.443  72.847  1.00  0.00    -0.381 OA 
HETATM   20  C   UNL     1     -13.945   7.410  71.583  1.00  0.00    -0.523 C  
ENDBRANCH  17  18
ENDBRANCH   6  17
TORSDOF 6
ENDMDL
MODEL       62
REMARK 921   NORMALIZED FREE ENERGY PREDICTED BY IDOCK:   -4.48 KCAL/MOL
REMARK 922        TOTAL FREE ENERGY PREDICTED BY IDOCK:   -6.65 KCAL/MOL
REMARK 923 INTER-LIGAND FREE ENERGY PREDICTED BY IDOCK:   -6.02 KCAL/MOL
REMARK 924 INTRA-LIGAND FREE ENERGY PREDICTED BY IDOCK:   -0.64 KCAL/MOL
REMARK 927      BINDING AFFINITY PREDICTED BY RF-SCORE:    0.00 PKD
ROOT
HETATM    1  C   UNL     1      -9.748   9.611  66.682  1.00  0.00    -0.266 C  
HETATM    2  C   UNL     1     -11.016  10.403  67.044  1.00  0.00    -0.222 C  
HETATM    3  C   UNL     1     -11.077  10.425  68.589  1.00  0.00    -0.313 C  
HETATM    4  C   UNL     1     -11.085  11.794  66.390  1.00  0.00    -0.360 A  
HETATM    5  C   UNL     1     -10.719  12.042  65.054  1.00  0.00    -0.296 A  
HETATM    6  C   UNL     1     -11.541  14.196  66.644  1.00  0.00    -0.384 A  
HETATM    7  C   UNL     1     -10.749  13.351  64.535  1.00  0.00    -0.434 A  
HETATM    8  C   UNL     1     -11.132  14.442  65.329  1.00  0.00    -0.344 A  
HETATM    9  C   UNL     1     -11.544  12.894  67.147  1.00  0.00    -0.421 A  
HETATM   10  C   UNL     1     -11.084  15.831  64.768  1.00  0.00    -0.413 C  
ENDROOT
BRANCH   5  11
HETATM   11  O   UNL     1     -10.431  10.967  64.248  1.00  0.00    -0.362 OA 
BRANCH  11  12
HETATM   12  C   UNL     1      -9.494  11.220  63.189  1.00  0.00    -0.353 C  
BRANCH  12  13
HETATM   13  C   UNL     1      -9.236   9.902  62.432  1.00  0.00    -0.284 C  
BRANCH  13  14
HETATM   14  N   UNL     1      -7.881   9.341  62.621  1.00  0.00    -0.118 NA 
HETATM   15  C   UNL     1      -7.162   9.999  63.712  1.00  0.00    -0.128 C  
HETATM   16  C   UNL     1      -7.969   7.903  62.889  1.00  0.00    -0.145 C  
ENDBRANCH  13  14
ENDBRANCH  12  13
ENDBRANCH  11  12
ENDBRANCH   5  11
BRANCH   6  17
HETATM   17  O   UNL     1     -11.893  15.329  67.429  1.00  0.00    -0.215 OA 
BRANCH  17  18
HETATM   18  C   UNL     1     -11.121  15.932  68.432  1.00  0.00    -0.345 C  
HETATM   19  O   UNL     1     -10.109  16.603  68.290  1.00  0.00    -0.248 OA 
HETATM   20  C   UNL     1     -11.765  15.685  69.761  1.00  0.00    -0.368 C  
ENDBRANCH  17  18
ENDBRANCH   6  17
TORSDOF 6
ENDMDL
MODEL       63
REMARK 921   NORMALIZED FREE ENERGY PREDICTED BY IDOCK:   -4.46 KCAL/MOL
REMARK 922        TOTAL FREE ENERGY PREDICTED BY IDOCK:   -6.63 KCAL/MOL
REMARK 923 INTER-LIGAND FREE ENERGY PREDICTED BY IDOCK:   -6.00 KCAL/MOL
REMARK 924 INTRA-LIGAND FREE ENERGY PREDICTED BY IDOCK:   -0.63 KCAL/MOL
REMARK 927      BINDING AFFINITY PREDICTED BY RF-SCORE:    0.00 PKD
ROOT
HETATM    1  C   UNL     1     -11.300   7.751  72.918  1.00  0.00    -0.406 C  
HETATM    2  C   UNL     1     -12.243   8.350  71.861  1.00  0.00    -0.395 C  
HETATM    3  C   UNL     1     -13.406   8.997  72.647  1.00  0.00    -0.391 C  
HETATM    4  C   UNL     1     -11.543   9.301  70.874  1.00  0.00    -0.364 A  
HETATM    5  C   UNL     1     -10.279   9.042  70.311  1.00  0.00    -0.201 A  
HETATM    6  C   UNL     1     -11.565  11.447  69.678  1.00  0.00    -0.330 A  
HETATM    7  C   UNL     1      -9.668   9.983  69.460  1.00  0.00    -0.253 A  
HETATM    8  C   UNL     1     -10.289  11.204  69.157  1.00  0.00    -0.186 A  
HETATM    9  C   UNL     1     -12.184  10.499  70.492  1.00  0.00    -0.435 A  
HETATM   10  C   UNL     1      -9.581  12.215  68.307  1.00  0.00    -0.210 C  
ENDROOT
BRANCH   5  11
HETATM   11  O   UNL     1      -9.709   7.811  70.532  1.00  0.00    -0.175 OA 
BRANCH  11  12
HETATM   12  C   UNL     1      -9.459   7.024  69.357  1.00  0.00    -0.145 C  
BRANCH  12  13
HETATM   13  C   UNL     1     -10.780   6.371  68.909  1.00  0.00    -0.288 C  
BRANCH  13  14
HETATM   14  N   UNL     1     -11.040   6.445  67.455  1.00  0.00    -0.357 NA 
HETATM   15  C   UNL     1     -10.426   7.628  66.849  1.00  0.00    -0.318 C  
HETATM   16  C   UNL     1     -10.535   5.238  66.796  1.00  0.00    -0.273 C  
ENDBRANCH  13  14
ENDBRANCH  12  13
ENDBRANCH  11  12
ENDBRANCH   5  11
BRANCH   6  17
HETATM   17  O   UNL     1     -12.151  12.708  69.374  1.00  0.00    -0.264 OA 
BRANCH  17  18
HETATM   18  C   UNL     1     -12.047  13.888  70.125  1.00  0.00    -0.349 C  
HETATM   19  O   UNL     1     -11.364  14.870  69.876  1.00  0.00    -0.254 OA 
HETATM   20  C   UNL     1     -12.977  13.807  71.296  1.00  0.00    -0.409 C  
ENDBRANCH  17  18
ENDBRANCH   6  17
TORSDOF 6
ENDMDL
MODEL       64
REMARK 921   NORMALIZED FREE ENERGY PREDICTED BY IDOCK:   -4.46 KCAL/MOL
REMARK 922        TOTAL FREE ENERGY PREDICTED BY IDOCK:   -6.63 KCAL/MOL
REMARK 923 INTER-LIGAND FREE ENERGY PREDICTED BY IDOCK:   -6.07 KCAL/MOL
REMARK 924 INTRA-LIGAND FREE ENERGY PREDICTED BY IDOCK:   -0.56 KCAL/MOL
REMARK 927      BINDING AFFINITY PREDICTED BY RF-SCORE:    0.00 PKD
ROOT
HETATM    1  C   UNL     1     -10.705   9.369  67.354  1.00  0.00    -0.280 C  
HETATM    2  C   UNL     1      -9.968  10.665  67.733  1.00  0.00    -0.192 C  
HETATM    3  C   UNL     1      -9.551  11.323  66.398  1.00  0.00    -0.223 C  
HETATM    4  C   UNL     1     -10.774  11.585  68.666  1.00  0.00    -0.242 A  
HETATM    5  C   UNL     1     -11.529  11.115  69.757  1.00  0.00    -0.312 A  
HETATM    6  C   UNL     1     -11.550  13.857  69.190  1.00  0.00    -0.313 A  
HETATM    7  C   UNL     1     -12.293  12.006  70.535  1.00  0.00    -0.369 A  
HETATM    8  C   UNL     1     -12.334  13.378  70.245  1.00  0.00    -0.354 A  
HETATM    9  C   UNL     1     -10.766  12.979  68.441  1.00  0.00    -0.273 A  
HETATM   10  C   UNL     1     -13.213  14.288  71.048  1.00  0.00    -0.367 C  
ENDROOT
BRANCH   5  11
HETATM   11  O   UNL     1     -11.421   9.789  70.099  1.00  0.00    -0.245 OA 
BRANCH  11  12
HETATM   12  C   UNL     1     -11.530   9.500  71.502  1.00  0.00    -0.395 C  
BRANCH  12  13
HETATM   13  C   UNL     1     -12.595   8.403  71.699  1.00  0.00    -0.332 C  
BRANCH  13  14
HETATM   14  N   UNL     1     -12.047   7.062  71.996  1.00  0.00    -0.305 NA 
HETATM   15  C   UNL     1     -11.550   6.394  70.791  1.00  0.00    -0.338 C  
HETATM   16  C   UNL     1     -10.965   7.170  72.978  1.00  0.00    -0.317 C  
ENDBRANCH  13  14
ENDBRANCH  12  13
ENDBRANCH  11  12
ENDBRANCH   5  11
BRANCH   6  17
HETATM   17  O   UNL     1     -11.639  15.249  68.905  1.00  0.00    -0.310 OA 
BRANCH  17  18
HETATM   18  C   UNL     1     -10.814  15.987  68.044  1.00  0.00    -0.335 C  
HETATM   19  O   UNL     1     -10.836  15.998  66.822  1.00  0.00    -0.294 OA 
HETATM   20  C   UNL     1      -9.902  16.850  68.860  1.00  0.00    -0.267 C  
ENDBRANCH  17  18
ENDBRANCH   6  17
TORSDOF 6
ENDMDL
MODEL       65
REMARK 921   NORMALIZED FREE ENERGY PREDICTED BY IDOCK:   -4.46 KCAL/MOL
REMARK 922        TOTAL FREE ENERGY PREDICTED BY IDOCK:   -6.63 KCAL/MOL
REMARK 923 INTER-LIGAND FREE ENERGY PREDICTED BY IDOCK:   -6.09 KCAL/MOL
REMARK 924 INTRA-LIGAND FREE ENERGY PREDICTED BY IDOCK:   -0.53 KCAL/MOL
REMARK 927      BINDING AFFINITY PREDICTED BY RF-SCORE:    0.00 PKD
ROOT
HETATM    1  C   UNL     1     -11.420   9.583  70.925  1.00  0.00    -0.405 C  
HETATM    2  C   UNL     1     -12.446  10.624  70.447  1.00  0.00    -0.421 C  
HETATM    3  C   UNL     1     -12.967  11.326  71.722  1.00  0.00    -0.519 C  
HETATM    4  C   UNL     1     -11.899  11.585  69.376  1.00  0.00    -0.417 A  
HETATM    5  C   UNL     1     -11.086  11.171  68.304  1.00  0.00    -0.251 A  
HETATM    6  C   UNL     1     -11.683  13.894  68.564  1.00  0.00    -0.355 A  
HETATM    7  C   UNL     1     -10.569  12.112  67.393  1.00  0.00    -0.253 A  
HETATM    8  C   UNL     1     -10.838  13.482  67.528  1.00  0.00    -0.276 A  
HETATM    9  C   UNL     1     -12.222  12.957  69.446  1.00  0.00    -0.145 A  
HETATM   10  C   UNL     1     -10.215  14.465  66.584  1.00  0.00    -0.277 C  
ENDROOT
BRANCH   5  11
HETATM   11  O   UNL     1     -10.894   9.823  68.116  1.00  0.00    -0.242 OA 
BRANCH  11  12
HETATM   12  C   UNL     1      -9.595   9.442  67.635  1.00  0.00    -0.134 C  
BRANCH  12  13
HETATM   13  C   UNL     1      -9.754   8.794  66.246  1.00  0.00    -0.272 C  
BRANCH  13  14
HETATM   14  N   UNL     1      -8.909   9.392  65.189  1.00  0.00    -0.184 NA 
HETATM   15  C   UNL     1      -9.666  10.311  64.337  1.00  0.00    -0.315 C  
HETATM   16  C   UNL     1      -7.781  10.103  65.795  1.00  0.00    -0.136 C  
ENDBRANCH  13  14
ENDBRANCH  12  13
ENDBRANCH  11  12
ENDBRANCH   5  11
BRANCH   6  17
HETATM   17  O   UNL     1     -11.909  15.294  68.689  1.00  0.00    -0.346 OA 
BRANCH  17  18
HETATM   18  C   UNL     1     -11.255  16.178  69.559  1.00  0.00    -0.337 C  
HETATM   19  O   UNL     1     -10.507  17.098  69.260  1.00  0.00    -0.337 OA 
HETATM   20  C   UNL     1     -11.663  15.872  70.966  1.00  0.00    -0.473 C  
ENDBRANCH  17  18
ENDBRANCH   6  17
TORSDOF 6
ENDMDL
MODEL       66
REMARK 921   NORMALIZED FREE ENERGY PREDICTED BY IDOCK:   -4.44 KCAL/MOL
REMARK 922        TOTAL FREE ENERGY PREDICTED BY IDOCK:   -6.61 KCAL/MOL
REMARK 923 INTER-LIGAND FREE ENERGY PREDICTED BY IDOCK:   -6.06 KCAL/MOL
REMARK 924 INTRA-LIGAND FREE ENERGY PREDICTED BY IDOCK:   -0.55 KCAL/MOL
REMARK 927      BINDING AFFINITY PREDICTED BY RF-SCORE:    0.00 PKD
ROOT
HETATM    1  C   UNL     1     -11.380   9.602  71.128  1.00  0.00    -0.456 C  
HETATM    2  C   UNL     1     -12.392  10.595  70.533  1.00  0.00    -0.448 C  
HETATM    3  C   UNL     1     -12.953  11.399  71.729  1.00  0.00    -0.519 C  
HETATM    4  C   UNL     1     -11.814  11.466  69.403  1.00  0.00    -0.419 A  
HETATM    5  C   UNL     1     -10.968  10.967  68.395  1.00  0.00    -0.230 A  
HETATM    6  C   UNL     1     -11.577  13.700  68.408  1.00  0.00    -0.342 A  
HETATM    7  C   UNL     1     -10.426  11.831  67.424  1.00  0.00    -0.238 A  
HETATM    8  C   UNL     1     -10.700  13.206  67.436  1.00  0.00    -0.262 A  
HETATM    9  C   UNL     1     -12.142  12.838  69.348  1.00  0.00    -0.248 A  
HETATM   10  C   UNL     1     -10.050  14.110  66.433  1.00  0.00    -0.299 C  
ENDROOT
BRANCH   5  11
HETATM   11  O   UNL     1     -10.769   9.609  68.326  1.00  0.00    -0.231 OA 
BRANCH  11  12
HETATM   12  C   UNL     1     -10.196   9.128  67.100  1.00  0.00    -0.261 C  
BRANCH  12  13
HETATM   13  C   UNL     1      -9.240   7.963  67.424  1.00  0.00    -0.140 C  
BRANCH  13  14
HETATM   14  N   UNL     1      -9.715   6.637  66.975  1.00  0.00    -0.150 NA 
HETATM   15  C   UNL     1      -8.722   5.589  67.219  1.00  0.00    -0.107 C  
HETATM   16  C   UNL     1     -10.965   6.296  67.658  1.00  0.00    -0.342 C  
ENDBRANCH  13  14
ENDBRANCH  12  13
ENDBRANCH  11  12
ENDBRANCH   5  11
BRANCH   6  17
HETATM   17  O   UNL     1     -11.809  15.104  68.409  1.00  0.00    -0.328 OA 
BRANCH  17  18
HETATM   18  C   UNL     1     -11.363  16.031  69.362  1.00  0.00    -0.355 C  
HETATM   19  O   UNL     1     -11.674  16.091  70.543  1.00  0.00    -0.357 OA 
HETATM   20  C   UNL     1     -10.358  16.941  68.727  1.00  0.00    -0.324 C  
ENDBRANCH  17  18
ENDBRANCH   6  17
TORSDOF 6
ENDMDL
MODEL       67
REMARK 921   NORMALIZED FREE ENERGY PREDICTED BY IDOCK:   -4.44 KCAL/MOL
REMARK 922        TOTAL FREE ENERGY PREDICTED BY IDOCK:   -6.61 KCAL/MOL
REMARK 923 INTER-LIGAND FREE ENERGY PREDICTED BY IDOCK:   -6.12 KCAL/MOL
REMARK 924 INTRA-LIGAND FREE ENERGY PREDICTED BY IDOCK:   -0.49 KCAL/MOL
REMARK 927      BINDING AFFINITY PREDICTED BY RF-SCORE:    0.00 PKD
ROOT
HETATM    1  C   UNL     1     -10.603  12.144  65.987  1.00  0.00    -0.292 C  
HETATM    2  C   UNL     1     -10.405  13.233  67.055  1.00  0.00    -0.246 C  
HETATM    3  C   UNL     1     -10.875  14.555  66.408  1.00  0.00    -0.318 C  
HETATM    4  C   UNL     1     -11.084  12.912  68.399  1.00  0.00    -0.293 A  
HETATM    5  C   UNL     1     -11.066  11.635  68.992  1.00  0.00    -0.241 A  
HETATM    6  C   UNL     1     -12.474  13.691  70.269  1.00  0.00    -0.265 A  
HETATM    7  C   UNL     1     -11.758  11.395  70.194  1.00  0.00    -0.414 A  
HETATM    8  C   UNL     1     -12.490  12.409  70.829  1.00  0.00    -0.356 A  
HETATM    9  C   UNL     1     -11.759  13.936  69.096  1.00  0.00    -0.382 A  
HETATM   10  C   UNL     1     -13.275  12.103  72.069  1.00  0.00    -0.496 C  
ENDROOT
BRANCH   5  11
HETATM   11  O   UNL     1     -10.277  10.665  68.422  1.00  0.00    -0.161 OA 
BRANCH  11  12
HETATM   12  C   UNL     1     -10.729   9.313  68.604  1.00  0.00    -0.143 C  
BRANCH  12  13
HETATM   13  C   UNL     1      -9.686   8.553  69.446  1.00  0.00    -0.177 C  
BRANCH  13  14
HETATM   14  N   UNL     1     -10.260   7.615  70.434  1.00  0.00    -0.201 NA 
HETATM   15  C   UNL     1      -9.276   6.634  70.895  1.00  0.00    -0.157 C  
HETATM   16  C   UNL     1     -10.785   8.359  71.582  1.00  0.00    -0.265 C  
ENDBRANCH  13  14
ENDBRANCH  12  13
ENDBRANCH  11  12
ENDBRANCH   5  11
BRANCH   6  17
HETATM   17  O   UNL     1     -13.252  14.687  70.924  1.00  0.00    -0.368 OA 
BRANCH  17  18
HETATM   18  C   UNL     1     -12.830  15.545  71.949  1.00  0.00    -0.427 C  
HETATM   19  O   UNL     1     -11.702  15.975  72.143  1.00  0.00    -0.455 OA 
HETATM   20  C   UNL     1     -14.014  15.937  72.778  1.00  0.00    -0.461 C  
ENDBRANCH  17  18
ENDBRANCH   6  17
TORSDOF 6
ENDMDL
MODEL       68
REMARK 921   NORMALIZED FREE ENERGY PREDICTED BY IDOCK:   -4.42 KCAL/MOL
REMARK 922        TOTAL FREE ENERGY PREDICTED BY IDOCK:   -6.58 KCAL/MOL
REMARK 923 INTER-LIGAND FREE ENERGY PREDICTED BY IDOCK:   -5.83 KCAL/MOL
REMARK 924 INTRA-LIGAND FREE ENERGY PREDICTED BY IDOCK:   -0.75 KCAL/MOL
REMARK 927      BINDING AFFINITY PREDICTED BY RF-SCORE:    0.00 PKD
ROOT
HETATM    1  C   UNL     1      -7.501  11.675  67.463  1.00  0.00    -0.123 C  
HETATM    2  C   UNL     1      -7.855  13.080  67.980  1.00  0.00    -0.146 C  
HETATM    3  C   UNL     1      -6.512  13.829  68.133  1.00  0.00    -0.124 C  
HETATM    4  C   UNL     1      -8.892  13.815  67.112  1.00  0.00    -0.240 A  
HETATM    5  C   UNL     1     -10.031  13.191  66.569  1.00  0.00    -0.268 A  
HETATM    6  C   UNL     1      -9.568  15.890  65.983  1.00  0.00    -0.350 A  
HETATM    7  C   UNL     1     -10.909  13.908  65.733  1.00  0.00    -0.289 A  
HETATM    8  C   UNL     1     -10.673  15.252  65.409  1.00  0.00    -0.407 A  
HETATM    9  C   UNL     1      -8.718  15.189  66.838  1.00  0.00    -0.289 A  
HETATM   10  C   UNL     1     -11.588  15.966  64.459  1.00  0.00    -0.232 C  
ENDROOT
BRANCH   5  11
HETATM   11  O   UNL     1     -10.314  11.903  66.955  1.00  0.00    -0.208 OA 
BRANCH  11  12
HETATM   12  C   UNL     1     -11.595  11.709  67.575  1.00  0.00    -0.272 C  
BRANCH  12  13
HETATM   13  C   UNL     1     -11.421  11.779  69.104  1.00  0.00    -0.297 C  
BRANCH  13  14
HETATM   14  N   UNL     1     -11.661  10.502  69.809  1.00  0.00    -0.278 NA 
HETATM   15  C   UNL     1     -10.412   9.855  70.212  1.00  0.00    -0.291 C  
HETATM   16  C   UNL     1     -12.496  10.733  70.990  1.00  0.00    -0.420 C  
ENDBRANCH  13  14
ENDBRANCH  12  13
ENDBRANCH  11  12
ENDBRANCH   5  11
BRANCH   6  17
HETATM   17  O   UNL     1      -9.343  17.244  65.608  1.00  0.00    -0.506 OA 
BRANCH  17  18
HETATM   18  C   UNL     1      -9.327  18.361  66.456  1.00  0.00    -0.309 C  
HETATM   19  O   UNL     1      -8.413  18.733  67.178  1.00  0.00    -0.264 OA 
HETATM   20  C   UNL     1     -10.614  19.110  66.305  1.00  0.00    -0.521 C  
ENDBRANCH  17  18
ENDBRANCH   6  17
TORSDOF 6
ENDMDL
MODEL       69
REMARK 921   NORMALIZED FREE ENERGY PREDICTED BY IDOCK:   -4.42 KCAL/MOL
REMARK 922        TOTAL FREE ENERGY PREDICTED BY IDOCK:   -6.57 KCAL/MOL
REMARK 923 INTER-LIGAND FREE ENERGY PREDICTED BY IDOCK:   -6.01 KCAL/MOL
REMARK 924 INTRA-LIGAND FREE ENERGY PREDICTED BY IDOCK:   -0.56 KCAL/MOL
REMARK 927      BINDING AFFINITY PREDICTED BY RF-SCORE:    0.00 PKD
ROOT
HETATM    1  C   UNL     1      -8.479  13.644  67.751  1.00  0.00    -0.183 C  
HETATM    2  C   UNL     1      -8.002  14.687  68.775  1.00  0.00    -0.151 C  
HETATM    3  C   UNL     1      -6.458  14.696  68.685  1.00  0.00    -0.085 C  
HETATM    4  C   UNL     1      -8.651  16.071  68.598  1.00  0.00    -0.206 A  
HETATM    5  C   UNL     1     -10.017  16.256  68.313  1.00  0.00    -0.236 A  
HETATM    6  C   UNL     1      -8.364  18.509  68.492  1.00  0.00    -0.334 A  
HETATM    7  C   UNL     1     -10.536  17.549  68.104  1.00  0.00    -0.386 A  
HETATM    8  C   UNL     1      -9.713  18.683  68.163  1.00  0.00    -0.372 A  
HETATM    9  C   UNL     1      -7.859  17.232  68.733  1.00  0.00    -0.254 A  
HETATM   10  C   UNL     1     -10.281  20.038  67.865  1.00  0.00    -0.545 C  
ENDROOT
BRANCH   5  11
HETATM   11  O   UNL     1     -10.842  15.158  68.343  1.00  0.00    -0.241 OA 
BRANCH  11  12
HETATM   12  C   UNL     1     -12.112  15.354  68.985  1.00  0.00    -0.226 C  
BRANCH  12  13
HETATM   13  C   UNL     1     -11.927  15.191  70.506  1.00  0.00    -0.325 C  
BRANCH  13  14
HETATM   14  N   UNL     1     -13.171  14.893  71.248  1.00  0.00    -0.380 NA 
HETATM   15  C   UNL     1     -13.271  13.477  71.606  1.00  0.00    -0.366 C  
HETATM   16  C   UNL     1     -13.237  15.712  72.461  1.00  0.00    -0.497 C  
ENDBRANCH  13  14
ENDBRANCH  12  13
ENDBRANCH  11  12
ENDBRANCH   5  11
BRANCH   6  17
HETATM   17  O   UNL     1      -7.553  19.679  68.513  1.00  0.00    -0.330 OA 
BRANCH  17  18
HETATM   18  C   UNL     1      -6.374  19.872  69.247  1.00  0.00    -0.330 C  
HETATM   19  O   UNL     1      -6.273  20.134  70.436  1.00  0.00    -0.365 OA 
HETATM   20  C   UNL     1      -5.197  19.640  68.351  1.00  0.00    -0.203 C  
ENDBRANCH  17  18
ENDBRANCH   6  17
TORSDOF 6
ENDMDL
MODEL       70
REMARK 921   NORMALIZED FREE ENERGY PREDICTED BY IDOCK:   -4.38 KCAL/MOL
REMARK 922        TOTAL FREE ENERGY PREDICTED BY IDOCK:   -6.53 KCAL/MOL
REMARK 923 INTER-LIGAND FREE ENERGY PREDICTED BY IDOCK:   -5.82 KCAL/MOL
REMARK 924 INTRA-LIGAND FREE ENERGY PREDICTED BY IDOCK:   -0.71 KCAL/MOL
REMARK 927      BINDING AFFINITY PREDICTED BY RF-SCORE:    0.00 PKD
ROOT
HETATM    1  C   UNL     1     -13.088  10.483  71.352  1.00  0.00    -0.509 C  
HETATM    2  C   UNL     1     -11.610  10.131  71.115  1.00  0.00    -0.430 C  
HETATM    3  C   UNL     1     -11.394   8.742  71.758  1.00  0.00    -0.409 C  
HETATM    4  C   UNL     1     -11.182  10.217  69.639  1.00  0.00    -0.310 A  
HETATM    5  C   UNL     1     -11.583  11.252  68.773  1.00  0.00    -0.316 A  
HETATM    6  C   UNL     1      -9.989   9.188  67.753  1.00  0.00    -0.189 A  
HETATM    7  C   UNL     1     -11.204  11.237  67.417  1.00  0.00    -0.370 A  
HETATM    8  C   UNL     1     -10.430  10.195  66.887  1.00  0.00    -0.286 A  
HETATM    9  C   UNL     1     -10.336   9.221  69.103  1.00  0.00    -0.222 A  
HETATM   10  C   UNL     1     -10.104  10.172  65.424  1.00  0.00    -0.342 C  
ENDROOT
BRANCH   5  11
HETATM   11  O   UNL     1     -12.265  12.318  69.308  1.00  0.00    -0.198 OA 
BRANCH  11  12
HETATM   12  C   UNL     1     -12.022  13.587  68.679  1.00  0.00    -0.343 C  
BRANCH  12  13
HETATM   13  C   UNL     1     -11.417  14.547  69.722  1.00  0.00    -0.279 C  
BRANCH  13  14
HETATM   14  N   UNL     1     -10.151  15.188  69.305  1.00  0.00    -0.238 NA 
HETATM   15  C   UNL     1      -9.582  14.555  68.114  1.00  0.00    -0.212 C  
HETATM   16  C   UNL     1     -10.376  16.612  69.043  1.00  0.00    -0.317 C  
ENDBRANCH  13  14
ENDBRANCH  12  13
ENDBRANCH  11  12
ENDBRANCH   5  11
BRANCH   6  17
HETATM   17  O   UNL     1      -9.231   8.132  67.174  1.00  0.00    -0.137 OA 
BRANCH  17  18
HETATM   18  C   UNL     1      -9.477   6.756  67.293  1.00  0.00    -0.135 C  
HETATM   19  O   UNL     1      -8.696   5.889  67.656  1.00  0.00    -0.107 OA 
HETATM   20  C   UNL     1     -10.912   6.485  66.961  1.00  0.00    -0.466 C  
ENDBRANCH  17  18
ENDBRANCH   6  17
TORSDOF 6
ENDMDL
MODEL       71
REMARK 921   NORMALIZED FREE ENERGY PREDICTED BY IDOCK:   -4.38 KCAL/MOL
REMARK 922        TOTAL FREE ENERGY PREDICTED BY IDOCK:   -6.52 KCAL/MOL
REMARK 923 INTER-LIGAND FREE ENERGY PREDICTED BY IDOCK:   -5.87 KCAL/MOL
REMARK 924 INTRA-LIGAND FREE ENERGY PREDICTED BY IDOCK:   -0.64 KCAL/MOL
REMARK 927      BINDING AFFINITY PREDICTED BY RF-SCORE:    0.00 PKD
ROOT
HETATM    1  C   UNL     1      -7.873  14.879  69.191  1.00  0.00    -0.171 C  
HETATM    2  C   UNL     1      -7.465  16.362  69.208  1.00  0.00    -0.202 C  
HETATM    3  C   UNL     1      -5.971  16.398  68.810  1.00  0.00    -0.124 C  
HETATM    4  C   UNL     1      -8.369  17.263  68.349  1.00  0.00    -0.261 A  
HETATM    5  C   UNL     1      -9.771  17.142  68.307  1.00  0.00    -0.280 A  
HETATM    6  C   UNL     1      -8.538  19.064  66.685  1.00  0.00    -0.313 A  
HETATM    7  C   UNL     1     -10.534  17.960  67.452  1.00  0.00    -0.390 A  
HETATM    8  C   UNL     1      -9.927  18.907  66.614  1.00  0.00    -0.416 A  
HETATM    9  C   UNL     1      -7.786  18.277  67.558  1.00  0.00    -0.228 A  
HETATM   10  C   UNL     1     -10.761  19.712  65.664  1.00  0.00    -0.428 C  
ENDROOT
BRANCH   5  11
HETATM   11  O   UNL     1     -10.375  16.280  69.190  1.00  0.00    -0.237 OA 
BRANCH  11  12
HETATM   12  C   UNL     1     -11.680  15.815  68.807  1.00  0.00    -0.378 C  
BRANCH  12  13
HETATM   13  C   UNL     1     -11.926  14.442  69.461  1.00  0.00    -0.330 C  
BRANCH  13  14
HETATM   14  N   UNL     1     -11.300  13.304  68.754  1.00  0.00    -0.271 NA 
HETATM   15  C   UNL     1     -11.674  12.018  69.345  1.00  0.00    -0.340 C  
HETATM   16  C   UNL     1     -11.681  13.324  67.340  1.00  0.00    -0.373 C  
ENDBRANCH  13  14
ENDBRANCH  12  13
ENDBRANCH  11  12
ENDBRANCH   5  11
BRANCH   6  17
HETATM   17  O   UNL     1      -7.954  20.013  65.800  1.00  0.00    -0.326 OA 
BRANCH  17  18
HETATM   18  C   UNL     1      -6.591  20.320  65.675  1.00  0.00    -0.254 C  
HETATM   19  O   UNL     1      -5.941  21.103  66.352  1.00  0.00    -0.246 OA 
HETATM   20  C   UNL     1      -5.995  19.473  64.594  1.00  0.00    -0.307 C  
ENDBRANCH  17  18
ENDBRANCH   6  17
TORSDOF 6
ENDMDL
MODEL       72
REMARK 921   NORMALIZED FREE ENERGY PREDICTED BY IDOCK:   -4.35 KCAL/MOL
REMARK 922        TOTAL FREE ENERGY PREDICTED BY IDOCK:   -6.49 KCAL/MOL
REMARK 923 INTER-LIGAND FREE ENERGY PREDICTED BY IDOCK:   -5.84 KCAL/MOL
REMARK 924 INTRA-LIGAND FREE ENERGY PREDICTED BY IDOCK:   -0.65 KCAL/MOL
REMARK 927      BINDING AFFINITY PREDICTED BY RF-SCORE:    0.00 PKD
ROOT
HETATM    1  C   UNL     1     -12.263  14.676  64.228  1.00  0.00    -0.432 C  
HETATM    2  C   UNL     1     -12.176  13.391  65.068  1.00  0.00    -0.463 C  
HETATM    3  C   UNL     1     -12.516  12.230  64.106  1.00  0.00    -0.530 C  
HETATM    4  C   UNL     1     -10.837  13.224  65.808  1.00  0.00    -0.286 A  
HETATM    5  C   UNL     1     -10.175  14.281  66.462  1.00  0.00    -0.276 A  
HETATM    6  C   UNL     1      -8.967  11.755  66.428  1.00  0.00    -0.201 A  
HETATM    7  C   UNL     1      -8.922  14.073  67.069  1.00  0.00    -0.248 A  
HETATM    8  C   UNL     1      -8.293  12.820  67.035  1.00  0.00    -0.123 A  
HETATM    9  C   UNL     1     -10.224  11.953  65.856  1.00  0.00    -0.270 A  
HETATM   10  C   UNL     1      -6.927  12.650  67.629  1.00  0.00    -0.140 C  
ENDROOT
BRANCH   5  11
HETATM   11  O   UNL     1     -10.827  15.485  66.575  1.00  0.00    -0.313 OA 
BRANCH  11  12
HETATM   12  C   UNL     1      -9.982  16.632  66.762  1.00  0.00    -0.279 C  
BRANCH  12  13
HETATM   13  C   UNL     1     -10.583  17.513  67.875  1.00  0.00    -0.390 C  
BRANCH  13  14
HETATM   14  N   UNL     1     -10.873  18.904  67.469  1.00  0.00    -0.428 NA 
HETATM   15  C   UNL     1     -10.074  19.873  68.221  1.00  0.00    -0.447 C  
HETATM   16  C   UNL     1     -10.620  19.068  66.035  1.00  0.00    -0.423 C  
ENDBRANCH  13  14
ENDBRANCH  12  13
ENDBRANCH  11  12
ENDBRANCH   5  11
BRANCH   6  17
HETATM   17  O   UNL     1      -8.286  10.506  66.385  1.00  0.00    -0.135 OA 
BRANCH  17  18
HETATM   18  C   UNL     1      -8.345   9.550  65.361  1.00  0.00    -0.139 C  
HETATM   19  O   UNL     1      -8.948   8.486  65.369  1.00  0.00    -0.178 OA 
HETATM   20  C   UNL     1      -7.587  10.058  64.173  1.00  0.00    -0.140 C  
ENDBRANCH  17  18
ENDBRANCH   6  17
TORSDOF 6
ENDMDL
MODEL       73
REMARK 921   NORMALIZED FREE ENERGY PREDICTED BY IDOCK:   -4.33 KCAL/MOL
REMARK 922        TOTAL FREE ENERGY PREDICTED BY IDOCK:   -6.46 KCAL/MOL
REMARK 923 INTER-LIGAND FREE ENERGY PREDICTED BY IDOCK:   -6.20 KCAL/MOL
REMARK 924 INTRA-LIGAND FREE ENERGY PREDICTED BY IDOCK:   -0.26 KCAL/MOL
REMARK 927      BINDING AFFINITY PREDICTED BY RF-SCORE:    0.00 PKD
ROOT
HETATM    1  C   UNL     1      -7.178  10.977  67.214  1.00  0.00    -0.102 C  
HETATM    2  C   UNL     1      -8.470  11.667  67.680  1.00  0.00    -0.142 C  
HETATM    3  C   UNL     1      -8.027  12.972  68.380  1.00  0.00    -0.135 C  
HETATM    4  C   UNL     1      -9.502  11.873  66.558  1.00  0.00    -0.226 A  
HETATM    5  C   UNL     1      -9.792  10.900  65.582  1.00  0.00    -0.241 A  
HETATM    6  C   UNL     1     -11.093  13.376  65.439  1.00  0.00    -0.287 A  
HETATM    7  C   UNL     1     -10.705  11.175  64.546  1.00  0.00    -0.368 A  
HETATM    8  C   UNL     1     -11.342  12.421  64.447  1.00  0.00    -0.396 A  
HETATM    9  C   UNL     1     -10.215  13.090  66.485  1.00  0.00    -0.270 A  
HETATM   10  C   UNL     1     -12.253  12.708  63.291  1.00  0.00    -0.512 C  
ENDROOT
BRANCH   5  11
HETATM   11  O   UNL     1      -9.240   9.650  65.727  1.00  0.00    -0.177 OA 
BRANCH  11  12
HETATM   12  C   UNL     1     -10.023   8.710  66.481  1.00  0.00    -0.282 C  
BRANCH  12  13
HETATM   13  C   UNL     1      -9.360   7.322  66.381  1.00  0.00    -0.150 C  
BRANCH  13  14
HETATM   14  N   UNL     1     -10.217   6.200  66.817  1.00  0.00    -0.197 NA 
HETATM   15  C   UNL     1      -9.505   4.921  66.784  1.00  0.00    -0.148 C  
HETATM   16  C   UNL     1     -10.714   6.449  68.173  1.00  0.00    -0.291 C  
ENDBRANCH  13  14
ENDBRANCH  12  13
ENDBRANCH  11  12
ENDBRANCH   5  11
BRANCH   6  17
HETATM   17  O   UNL     1     -11.733  14.638  65.290  1.00  0.00    -0.353 OA 
BRANCH  17  18
HETATM   18  C   UNL     1     -11.152  15.826  64.824  1.00  0.00    -0.400 C  
HETATM   19  O   UNL     1     -11.482  16.482  63.847  1.00  0.00    -1.145 OA 
HETATM   20  C   UNL     1     -10.063  16.240  65.764  1.00  0.00    -0.373 C  
ENDBRANCH  17  18
ENDBRANCH   6  17
TORSDOF 6
ENDMDL
MODEL       74
REMARK 921   NORMALIZED FREE ENERGY PREDICTED BY IDOCK:   -4.30 KCAL/MOL
REMARK 922        TOTAL FREE ENERGY PREDICTED BY IDOCK:   -6.42 KCAL/MOL
REMARK 923 INTER-LIGAND FREE ENERGY PREDICTED BY IDOCK:   -5.83 KCAL/MOL
REMARK 924 INTRA-LIGAND FREE ENERGY PREDICTED BY IDOCK:   -0.59 KCAL/MOL
REMARK 927      BINDING AFFINITY PREDICTED BY RF-SCORE:    0.00 PKD
ROOT
HETATM    1  C   UNL     1     -10.674  17.067  69.422  1.00  0.00    -0.184 C  
HETATM    2  C   UNL     1     -10.577  15.684  70.086  1.00  0.00    -0.348 C  
HETATM    3  C   UNL     1     -11.700  15.641  71.147  1.00  0.00    -0.461 C  
HETATM    4  C   UNL     1     -10.610  14.514  69.086  1.00  0.00    -0.242 A  
HETATM    5  C   UNL     1      -9.913  14.519  67.863  1.00  0.00    -0.226 A  
HETATM    6  C   UNL     1     -11.511  12.307  68.491  1.00  0.00    -0.303 A  
HETATM    7  C   UNL     1     -10.034  13.440  66.967  1.00  0.00    -0.246 A  
HETATM    8  C   UNL     1     -10.852  12.339  67.256  1.00  0.00    -0.283 A  
HETATM    9  C   UNL     1     -11.363  13.360  69.393  1.00  0.00    -0.286 A  
HETATM   10  C   UNL     1     -11.015  11.240  66.250  1.00  0.00    -0.265 C  
ENDROOT
BRANCH   5  11
HETATM   11  O   UNL     1      -9.041  15.552  67.616  1.00  0.00    -0.180 OA 
BRANCH  11  12
HETATM   12  C   UNL     1      -9.046  16.059  66.272  1.00  0.00    -0.344 C  
BRANCH  12  13
HETATM   13  C   UNL     1      -8.984  17.598  66.323  1.00  0.00    -0.183 C  
BRANCH  13  14
HETATM   14  N   UNL     1      -7.742  18.181  65.772  1.00  0.00    -0.538 NA 
HETATM   15  C   UNL     1      -7.670  19.626  65.993  1.00  0.00    -0.326 C  
HETATM   16  C   UNL     1      -6.575  17.534  66.377  1.00  0.00    -0.255 C  
ENDBRANCH  13  14
ENDBRANCH  12  13
ENDBRANCH  11  12
ENDBRANCH   5  11
BRANCH   6  17
HETATM   17  O   UNL     1     -12.356  11.188  68.738  1.00  0.00    -0.539 OA 
BRANCH  17  18
HETATM   18  C   UNL     1     -12.437  10.440  69.921  1.00  0.00    -0.056 C  
HETATM   19  O   UNL     1     -13.414  10.288  70.640  1.00  0.00    -0.234 OA 
HETATM   20  C   UNL     1     -11.122   9.766  70.165  1.00  0.00    -0.335 C  
ENDBRANCH  17  18
ENDBRANCH   6  17
TORSDOF 6
ENDMDL
MODEL       75
REMARK 921   NORMALIZED FREE ENERGY PREDICTED BY IDOCK:   -4.30 KCAL/MOL
REMARK 922        TOTAL FREE ENERGY PREDICTED BY IDOCK:   -6.42 KCAL/MOL
REMARK 923 INTER-LIGAND FREE ENERGY PREDICTED BY IDOCK:   -5.71 KCAL/MOL
REMARK 924 INTRA-LIGAND FREE ENERGY PREDICTED BY IDOCK:   -0.70 KCAL/MOL
REMARK 927      BINDING AFFINITY PREDICTED BY RF-SCORE:    0.00 PKD
ROOT
HETATM    1  C   UNL     1     -10.351   8.096  66.819  1.00  0.00    -0.361 C  
HETATM    2  C   UNL     1      -9.592   9.427  66.696  1.00  0.00    -0.250 C  
HETATM    3  C   UNL     1      -9.445   9.695  65.180  1.00  0.00    -0.332 C  
HETATM    4  C   UNL     1     -10.237  10.583  67.481  1.00  0.00    -0.245 A  
HETATM    5  C   UNL     1     -10.766  10.440  68.777  1.00  0.00    -0.225 A  
HETATM    6  C   UNL     1     -10.963  12.930  67.513  1.00  0.00    -0.255 A  
HETATM    7  C   UNL     1     -11.397  11.524  69.416  1.00  0.00    -0.355 A  
HETATM    8  C   UNL     1     -11.527  12.769  68.783  1.00  0.00    -0.347 A  
HETATM    9  C   UNL     1     -10.307  11.865  66.895  1.00  0.00    -0.238 A  
HETATM   10  C   UNL     1     -12.268  13.882  69.461  1.00  0.00    -0.356 C  
ENDROOT
BRANCH   5  11
HETATM   11  O   UNL     1     -10.561   9.251  69.435  1.00  0.00    -0.218 OA 
BRANCH  11  12
HETATM   12  C   UNL     1     -10.017   9.362  70.760  1.00  0.00    -0.289 C  
BRANCH  12  13
HETATM   13  C   UNL     1      -8.481   9.431  70.660  1.00  0.00    -0.193 C  
BRANCH  13  14
HETATM   14  N   UNL     1      -7.846   8.210  70.119  1.00  0.00    -0.096 NA 
HETATM   15  C   UNL     1      -6.385   8.281  70.179  1.00  0.00    -0.035 C  
HETATM   16  C   UNL     1      -8.311   7.035  70.859  1.00  0.00    -0.129 C  
ENDBRANCH  13  14
ENDBRANCH  12  13
ENDBRANCH  11  12
ENDBRANCH   5  11
BRANCH   6  17
HETATM   17  O   UNL     1     -11.140  14.197  66.888  1.00  0.00    -0.296 OA 
BRANCH  17  18
HETATM   18  C   UNL     1     -11.788  14.452  65.671  1.00  0.00    -0.355 C  
HETATM   19  O   UNL     1     -12.848  13.985  65.280  1.00  0.00    -0.686 OA 
HETATM   20  C   UNL     1     -11.003  15.470  64.902  1.00  0.00    -0.452 C  
ENDBRANCH  17  18
ENDBRANCH   6  17
TORSDOF 6
ENDMDL
MODEL       76
REMARK 921   NORMALIZED FREE ENERGY PREDICTED BY IDOCK:   -4.27 KCAL/MOL
REMARK 922        TOTAL FREE ENERGY PREDICTED BY IDOCK:   -6.38 KCAL/MOL
REMARK 923 INTER-LIGAND FREE ENERGY PREDICTED BY IDOCK:   -5.80 KCAL/MOL
REMARK 924 INTRA-LIGAND FREE ENERGY PREDICTED BY IDOCK:   -0.58 KCAL/MOL
REMARK 927      BINDING AFFINITY PREDICTED BY RF-SCORE:    0.00 PKD
ROOT
HETATM    1  C   UNL     1     -12.010  13.003  65.357  1.00  0.00    -0.457 C  
HETATM    2  C   UNL     1     -11.327  13.235  66.715  1.00  0.00    -0.359 C  
HETATM    3  C   UNL     1     -12.156  14.328  67.428  1.00  0.00    -0.371 C  
HETATM    4  C   UNL     1     -11.136  11.949  67.539  1.00  0.00    -0.332 A  
HETATM    5  C   UNL     1     -10.718  10.726  66.983  1.00  0.00    -0.265 A  
HETATM    6  C   UNL     1     -11.319  10.824  69.716  1.00  0.00    -0.300 A  
HETATM    7  C   UNL     1     -10.621   9.572  67.784  1.00  0.00    -0.318 A  
HETATM    8  C   UNL     1     -10.946   9.601  69.148  1.00  0.00    -0.177 A  
HETATM    9  C   UNL     1     -11.381  11.975  68.930  1.00  0.00    -0.333 A  
HETATM   10  C   UNL     1     -10.902   8.340  69.957  1.00  0.00    -0.232 C  
ENDROOT
BRANCH   5  11
HETATM   11  O   UNL     1     -10.313  10.713  65.670  1.00  0.00    -0.255 OA 
BRANCH  11  12
HETATM   12  C   UNL     1      -9.487   9.602  65.287  1.00  0.00    -0.275 C  
BRANCH  12  13
HETATM   13  C   UNL     1      -8.091  10.132  64.904  1.00  0.00    -0.153 C  
BRANCH  13  14
HETATM   14  N   UNL     1      -7.529   9.545  63.669  1.00  0.00    -0.111 NA 
HETATM   15  C   UNL     1      -8.538   9.410  62.617  1.00  0.00    -0.220 C  
HETATM   16  C   UNL     1      -6.422  10.371  63.182  1.00  0.00    -0.095 C  
ENDBRANCH  13  14
ENDBRANCH  12  13
ENDBRANCH  11  12
ENDBRANCH   5  11
BRANCH   6  17
HETATM   17  O   UNL     1     -11.670  10.810  71.095  1.00  0.00    -0.268 OA 
BRANCH  17  18
HETATM   18  C   UNL     1     -12.965  10.790  71.634  1.00  0.00    -0.476 C  
HETATM   19  O   UNL     1     -13.674   9.814  71.830  1.00  0.00    -0.336 OA 
HETATM   20  C   UNL     1     -13.359  12.184  72.015  1.00  0.00    -0.470 C  
ENDBRANCH  17  18
ENDBRANCH   6  17
TORSDOF 6
ENDMDL
MODEL       77
REMARK 921   NORMALIZED FREE ENERGY PREDICTED BY IDOCK:   -4.26 KCAL/MOL
REMARK 922        TOTAL FREE ENERGY PREDICTED BY IDOCK:   -6.36 KCAL/MOL
REMARK 923 INTER-LIGAND FREE ENERGY PREDICTED BY IDOCK:   -5.75 KCAL/MOL
REMARK 924 INTRA-LIGAND FREE ENERGY PREDICTED BY IDOCK:   -0.61 KCAL/MOL
REMARK 927      BINDING AFFINITY PREDICTED BY RF-SCORE:    0.00 PKD
ROOT
HETATM    1  C   UNL     1      -7.893   7.946  65.567  1.00  0.00    -0.112 C  
HETATM    2  C   UNL     1      -8.978   7.399  66.510  1.00  0.00    -0.184 C  
HETATM    3  C   UNL     1      -8.273   6.363  67.415  1.00  0.00    -0.116 C  
HETATM    4  C   UNL     1      -9.739   8.494  67.278  1.00  0.00    -0.239 A  
HETATM    5  C   UNL     1     -10.164   9.701  66.693  1.00  0.00    -0.232 A  
HETATM    6  C   UNL     1     -10.649   9.287  69.419  1.00  0.00    -0.223 A  
HETATM    7  C   UNL     1     -10.803  10.687  67.468  1.00  0.00    -0.351 A  
HETATM    8  C   UNL     1     -11.027  10.503  68.841  1.00  0.00    -0.291 A  
HETATM    9  C   UNL     1     -10.046   8.297  68.642  1.00  0.00    -0.212 A  
HETATM   10  C   UNL     1     -11.645  11.601  69.653  1.00  0.00    -0.401 C  
ENDROOT
BRANCH   5  11
HETATM   11  O   UNL     1     -10.027   9.847  65.333  1.00  0.00    -0.313 OA 
BRANCH  11  12
HETATM   12  C   UNL     1      -9.607  11.146  64.888  1.00  0.00    -0.239 C  
BRANCH  12  13
HETATM   13  C   UNL     1     -10.545  11.609  63.756  1.00  0.00    -0.416 C  
BRANCH  13  14
HETATM   14  N   UNL     1     -10.947  13.030  63.835  1.00  0.00    -0.383 NA 
HETATM   15  C   UNL     1     -12.389  13.202  63.649  1.00  0.00    -0.404 C  
HETATM   16  C   UNL     1     -10.549  13.591  65.128  1.00  0.00    -0.355 C  
ENDBRANCH  13  14
ENDBRANCH  12  13
ENDBRANCH  11  12
ENDBRANCH   5  11
BRANCH   6  17
HETATM   17  O   UNL     1     -10.864   9.148  70.819  1.00  0.00    -0.229 OA 
BRANCH  17  18
HETATM   18  C   UNL     1      -9.949   8.668  71.768  1.00  0.00    -0.301 C  
HETATM   19  O   UNL     1      -8.740   8.845  71.791  1.00  0.00    -0.312 OA 
HETATM   20  C   UNL     1     -10.694   7.928  72.835  1.00  0.00    -0.440 C  
ENDBRANCH  17  18
ENDBRANCH   6  17
TORSDOF 6
ENDMDL
MODEL       78
REMARK 921   NORMALIZED FREE ENERGY PREDICTED BY IDOCK:   -4.26 KCAL/MOL
REMARK 922        TOTAL FREE ENERGY PREDICTED BY IDOCK:   -6.36 KCAL/MOL
REMARK 923 INTER-LIGAND FREE ENERGY PREDICTED BY IDOCK:   -5.70 KCAL/MOL
REMARK 924 INTRA-LIGAND FREE ENERGY PREDICTED BY IDOCK:   -0.65 KCAL/MOL
REMARK 927      BINDING AFFINITY PREDICTED BY RF-SCORE:    0.00 PKD
ROOT
HETATM    1  C   UNL     1     -11.999  12.512  66.101  1.00  0.00    -0.432 C  
HETATM    2  C   UNL     1     -11.320  13.547  65.188  1.00  0.00    -0.315 C  
HETATM    3  C   UNL     1     -12.461  14.403  64.592  1.00  0.00    -0.364 C  
HETATM    4  C   UNL     1     -10.220  14.363  65.889  1.00  0.00    -0.341 A  
HETATM    5  C   UNL     1      -9.280  13.800  66.773  1.00  0.00    -0.244 A  
HETATM    6  C   UNL     1      -9.210  16.562  66.317  1.00  0.00    -0.310 A  
HETATM    7  C   UNL     1      -8.336  14.615  67.428  1.00  0.00    -0.223 A  
HETATM    8  C   UNL     1      -8.308  16.003  67.230  1.00  0.00    -0.205 A  
HETATM    9  C   UNL     1     -10.122  15.750  65.643  1.00  0.00    -0.401 A  
HETATM   10  C   UNL     1      -7.338  16.851  67.996  1.00  0.00    -0.175 C  
ENDROOT
BRANCH   5  11
HETATM   11  O   UNL     1      -9.246  12.432  66.901  1.00  0.00    -0.197 OA 
BRANCH  11  12
HETATM   12  C   UNL     1      -7.937  11.840  66.878  1.00  0.00    -0.149 C  
BRANCH  12  13
HETATM   13  C   UNL     1      -8.048  10.419  66.293  1.00  0.00    -0.136 C  
BRANCH  13  14
HETATM   14  N   UNL     1      -7.618   9.342  67.211  1.00  0.00    -0.091 NA 
HETATM   15  C   UNL     1      -8.230   9.473  68.534  1.00  0.00    -0.113 C  
HETATM   16  C   UNL     1      -7.956   8.036  66.641  1.00  0.00    -0.102 C  
ENDBRANCH  13  14
ENDBRANCH  12  13
ENDBRANCH  11  12
ENDBRANCH   5  11
BRANCH   6  17
HETATM   17  O   UNL     1      -9.173  17.977  66.164  1.00  0.00    -0.471 OA 
BRANCH  17  18
HETATM   18  C   UNL     1     -10.272  18.845  66.097  1.00  0.00    -0.433 C  
HETATM   19  O   UNL     1     -10.805  19.295  65.093  1.00  0.00    -0.445 OA 
HETATM   20  C   UNL     1     -10.772  19.109  67.484  1.00  0.00    -0.555 C  
ENDBRANCH  17  18
ENDBRANCH   6  17
TORSDOF 6
ENDMDL
MODEL       79
REMARK 921   NORMALIZED FREE ENERGY PREDICTED BY IDOCK:   -4.24 KCAL/MOL
REMARK 922        TOTAL FREE ENERGY PREDICTED BY IDOCK:   -6.33 KCAL/MOL
REMARK 923 INTER-LIGAND FREE ENERGY PREDICTED BY IDOCK:   -5.88 KCAL/MOL
REMARK 924 INTRA-LIGAND FREE ENERGY PREDICTED BY IDOCK:   -0.45 KCAL/MOL
REMARK 927      BINDING AFFINITY PREDICTED BY RF-SCORE:    0.00 PKD
ROOT
HETATM    1  C   UNL     1      -7.084   9.515  68.632  1.00  0.00    -0.069 C  
HETATM    2  C   UNL     1      -8.348   8.673  68.872  1.00  0.00    -0.124 C  
HETATM    3  C   UNL     1      -7.905   7.478  69.747  1.00  0.00    -0.108 C  
HETATM    4  C   UNL     1      -9.527   9.476  69.451  1.00  0.00    -0.182 A  
HETATM    5  C   UNL     1      -9.876  10.767  69.013  1.00  0.00    -0.194 A  
HETATM    6  C   UNL     1     -11.341   9.615  71.103  1.00  0.00    -0.386 A  
HETATM    7  C   UNL     1     -10.929  11.471  69.627  1.00  0.00    -0.129 A  
HETATM    8  C   UNL     1     -11.653  10.917  70.693  1.00  0.00    -0.341 A  
HETATM    9  C   UNL     1     -10.320   8.906  70.471  1.00  0.00    -0.246 A  
HETATM   10  C   UNL     1     -12.721  11.720  71.373  1.00  0.00    -0.413 C  
ENDROOT
BRANCH   5  11
HETATM   11  O   UNL     1      -9.230  11.276  67.912  1.00  0.00    -0.149 OA 
BRANCH  11  12
HETATM   12  C   UNL     1      -9.932  12.311  67.205  1.00  0.00    -0.204 C  
BRANCH  12  13
HETATM   13  C   UNL     1     -10.589  11.698  65.953  1.00  0.00    -0.271 C  
BRANCH  13  14
HETATM   14  N   UNL     1     -11.913  12.261  65.616  1.00  0.00    -0.538 NA 
HETATM   15  C   UNL     1     -12.059  13.639  66.088  1.00  0.00    -0.436 C  
HETATM   16  C   UNL     1     -12.121  12.215  64.166  1.00  0.00    -0.409 C  
ENDBRANCH  13  14
ENDBRANCH  12  13
ENDBRANCH  11  12
ENDBRANCH   5  11
BRANCH   6  17
HETATM   17  O   UNL     1     -12.075   9.097  72.206  1.00  0.00    -0.330 OA 
BRANCH  17  18
HETATM   18  C   UNL     1     -13.339   8.492  72.166  1.00  0.00    -0.351 C  
HETATM   19  O   UNL     1     -14.399   8.957  72.559  1.00  0.00    -0.579 OA 
HETATM   20  C   UNL     1     -13.225   7.162  71.487  1.00  0.00    -0.419 C  
ENDBRANCH  17  18
ENDBRANCH   6  17
TORSDOF 6
ENDMDL
MODEL       80
REMARK 921   NORMALIZED FREE ENERGY PREDICTED BY IDOCK:   -4.22 KCAL/MOL
REMARK 922        TOTAL FREE ENERGY PREDICTED BY IDOCK:   -6.31 KCAL/MOL
REMARK 923 INTER-LIGAND FREE ENERGY PREDICTED BY IDOCK:   -5.85 KCAL/MOL
REMARK 924 INTRA-LIGAND FREE ENERGY PREDICTED BY IDOCK:   -0.46 KCAL/MOL
REMARK 927      BINDING AFFINITY PREDICTED BY RF-SCORE:    0.00 PKD
ROOT
HETATM    1  C   UNL     1      -9.295   7.455  66.230  1.00  0.00    -0.166 C  
HETATM    2  C   UNL     1     -10.475   6.754  66.923  1.00  0.00    -0.350 C  
HETATM    3  C   UNL     1     -10.190   5.238  66.819  1.00  0.00    -0.287 C  
HETATM    4  C   UNL     1     -10.735   7.250  68.356  1.00  0.00    -0.165 A  
HETATM    5  C   UNL     1     -10.685   8.607  68.729  1.00  0.00    -0.064 A  
HETATM    6  C   UNL     1     -11.203   6.689  70.703  1.00  0.00    -0.317 A  
HETATM    7  C   UNL     1     -10.875   8.988  70.071  1.00  0.00    -0.247 A  
HETATM    8  C   UNL     1     -11.106   8.035  71.074  1.00  0.00    -0.275 A  
HETATM    9  C   UNL     1     -11.050   6.316  69.367  1.00  0.00    -0.477 A  
HETATM   10  C   UNL     1     -11.232   8.467  72.504  1.00  0.00    -0.406 C  
ENDROOT
BRANCH   5  11
HETATM   11  O   UNL     1     -10.548   9.549  67.738  1.00  0.00    -0.243 OA 
BRANCH  11  12
HETATM   12  C   UNL     1     -11.318  10.749  67.912  1.00  0.00    -0.299 C  
BRANCH  12  13
HETATM   13  C   UNL     1     -10.908  11.762  66.825  1.00  0.00    -0.270 C  
BRANCH  13  14
HETATM   14  N   UNL     1     -12.040  12.458  66.177  1.00  0.00    -0.641 NA 
HETATM   15  C   UNL     1     -12.113  13.867  66.568  1.00  0.00    -0.449 C  
HETATM   16  C   UNL     1     -11.918  12.359  64.720  1.00  0.00    -0.398 C  
ENDBRANCH  13  14
ENDBRANCH  12  13
ENDBRANCH  11  12
ENDBRANCH   5  11
BRANCH   6  17
HETATM   17  O   UNL     1     -11.409   5.748  71.750  1.00  0.00    -0.253 OA 
BRANCH  17  18
HETATM   18  C   UNL     1     -10.421   5.066  72.476  1.00  0.00    -0.215 C  
HETATM   19  O   UNL     1      -9.889   5.417  73.519  1.00  0.00    -0.155 OA 
HETATM   20  C   UNL     1     -10.136   3.758  71.805  1.00  0.00    -0.174 C  
ENDBRANCH  17  18
ENDBRANCH   6  17
TORSDOF 6
ENDMDL
MODEL       81
REMARK 921   NORMALIZED FREE ENERGY PREDICTED BY IDOCK:   -4.20 KCAL/MOL
REMARK 922        TOTAL FREE ENERGY PREDICTED BY IDOCK:   -6.28 KCAL/MOL
REMARK 923 INTER-LIGAND FREE ENERGY PREDICTED BY IDOCK:   -5.61 KCAL/MOL
REMARK 924 INTRA-LIGAND FREE ENERGY PREDICTED BY IDOCK:   -0.67 KCAL/MOL
REMARK 927      BINDING AFFINITY PREDICTED BY RF-SCORE:    0.00 PKD
ROOT
HETATM    1  C   UNL     1     -10.553  12.053  67.948  1.00  0.00    -0.227 C  
HETATM    2  C   UNL     1     -11.036  10.599  67.815  1.00  0.00    -0.385 C  
HETATM    3  C   UNL     1     -10.087   9.926  66.798  1.00  0.00    -0.292 C  
HETATM    4  C   UNL     1     -11.148   9.859  69.160  1.00  0.00    -0.197 A  
HETATM    5  C   UNL     1     -11.674  10.444  70.327  1.00  0.00    -0.321 A  
HETATM    6  C   UNL     1     -10.699   7.822  70.461  1.00  0.00    -0.236 A  
HETATM    7  C   UNL     1     -11.692   9.730  71.540  1.00  0.00    -0.450 A  
HETATM    8  C   UNL     1     -11.181   8.427  71.627  1.00  0.00    -0.343 A  
HETATM    9  C   UNL     1     -10.714   8.518  69.252  1.00  0.00    -0.147 A  
HETATM   10  C   UNL     1     -11.149   7.720  72.949  1.00  0.00    -0.457 C  
ENDROOT
BRANCH   5  11
HETATM   11  O   UNL     1     -12.256  11.685  70.226  1.00  0.00    -0.331 OA 
BRANCH  11  12
HETATM   12  C   UNL     1     -12.830  12.200  71.438  1.00  0.00    -0.276 C  
BRANCH  12  13
HETATM   13  C   UNL     1     -12.376  13.662  71.617  1.00  0.00    -0.070 C  
BRANCH  13  14
HETATM   14  N   UNL     1     -13.234  14.659  70.942  1.00  0.00    -0.367 NA 
HETATM   15  C   UNL     1     -14.207  15.255  71.858  1.00  0.00    -0.581 C  
HETATM   16  C   UNL     1     -12.405  15.713  70.352  1.00  0.00    -0.391 C  
ENDBRANCH  13  14
ENDBRANCH  12  13
ENDBRANCH  11  12
ENDBRANCH   5  11
BRANCH   6  17
HETATM   17  O   UNL     1     -10.161   6.511  70.592  1.00  0.00    -0.184 OA 
BRANCH  17  18
HETATM   18  C   UNL     1      -8.858   6.100  70.277  1.00  0.00    -0.149 C  
HETATM   19  O   UNL     1      -8.488   5.505  69.276  1.00  0.00    -0.100 OA 
HETATM   20  C   UNL     1      -7.924   6.568  71.350  1.00  0.00    -0.108 C  
ENDBRANCH  17  18
ENDBRANCH   6  17
TORSDOF 6
ENDMDL
MODEL       82
REMARK 921   NORMALIZED FREE ENERGY PREDICTED BY IDOCK:   -4.19 KCAL/MOL
REMARK 922        TOTAL FREE ENERGY PREDICTED BY IDOCK:   -6.27 KCAL/MOL
REMARK 923 INTER-LIGAND FREE ENERGY PREDICTED BY IDOCK:   -5.59 KCAL/MOL
REMARK 924 INTRA-LIGAND FREE ENERGY PREDICTED BY IDOCK:   -0.68 KCAL/MOL
REMARK 927      BINDING AFFINITY PREDICTED BY RF-SCORE:    0.00 PKD
ROOT
HETATM    1  C   UNL     1     -11.040   9.475  71.452  1.00  0.00    -0.438 C  
HETATM    2  C   UNL     1     -12.138  10.146  70.610  1.00  0.00    -0.411 C  
HETATM    3  C   UNL     1     -12.692  11.301  71.475  1.00  0.00    -0.481 C  
HETATM    4  C   UNL     1     -11.669  10.576  69.209  1.00  0.00    -0.281 A  
HETATM    5  C   UNL     1     -10.840   9.784  68.391  1.00  0.00    -0.201 A  
HETATM    6  C   UNL     1     -11.617  12.312  67.471  1.00  0.00    -0.353 A  
HETATM    7  C   UNL     1     -10.398  10.264  67.144  1.00  0.00    -0.292 A  
HETATM    8  C   UNL     1     -10.757  11.540  66.684  1.00  0.00    -0.311 A  
HETATM    9  C   UNL     1     -12.083  11.822  68.691  1.00  0.00    -0.164 A  
HETATM   10  C   UNL     1     -10.211  12.049  65.384  1.00  0.00    -0.295 C  
ENDROOT
BRANCH   5  11
HETATM   11  O   UNL     1     -10.561   8.502  68.797  1.00  0.00    -0.208 OA 
BRANCH  11  12
HETATM   12  C   UNL     1      -9.256   8.012  68.449  1.00  0.00    -0.135 C  
BRANCH  12  13
HETATM   13  C   UNL     1      -8.674   7.252  69.657  1.00  0.00    -0.141 C  
BRANCH  13  14
HETATM   14  N   UNL     1      -8.890   5.789  69.624  1.00  0.00    -0.121 NA 
HETATM   15  C   UNL     1     -10.115   5.400  70.323  1.00  0.00    -0.248 C  
HETATM   16  C   UNL     1      -8.949   5.325  68.235  1.00  0.00    -0.109 C  
ENDBRANCH  13  14
ENDBRANCH  12  13
ENDBRANCH  11  12
ENDBRANCH   5  11
BRANCH   6  17
HETATM   17  O   UNL     1     -11.936  13.612  66.987  1.00  0.00    -0.388 OA 
BRANCH  17  18
HETATM   18  C   UNL     1     -11.550  14.838  67.550  1.00  0.00    -0.361 C  
HETATM   19  O   UNL     1     -11.827  15.266  68.661  1.00  0.00    -0.346 OA 
HETATM   20  C   UNL     1     -10.659  15.560  66.588  1.00  0.00    -0.307 C  
ENDBRANCH  17  18
ENDBRANCH   6  17
TORSDOF 6
ENDMDL
MODEL       83
REMARK 921   NORMALIZED FREE ENERGY PREDICTED BY IDOCK:   -4.12 KCAL/MOL
REMARK 922        TOTAL FREE ENERGY PREDICTED BY IDOCK:   -6.17 KCAL/MOL
REMARK 923 INTER-LIGAND FREE ENERGY PREDICTED BY IDOCK:   -5.47 KCAL/MOL
REMARK 924 INTRA-LIGAND FREE ENERGY PREDICTED BY IDOCK:   -0.69 KCAL/MOL
REMARK 927      BINDING AFFINITY PREDICTED BY RF-SCORE:    0.00 PKD
ROOT
HETATM    1  C   UNL     1     -11.910  10.947  69.152  1.00  0.00    -0.389 C  
HETATM    2  C   UNL     1     -10.439  11.114  68.733  1.00  0.00    -0.227 C  
HETATM    3  C   UNL     1      -9.653  10.020  69.492  1.00  0.00    -0.249 C  
HETATM    4  C   UNL     1     -10.225  11.102  67.209  1.00  0.00    -0.227 A  
HETATM    5  C   UNL     1     -11.071  11.766  66.301  1.00  0.00    -0.311 A  
HETATM    6  C   UNL     1      -8.927  10.272  65.294  1.00  0.00    -0.186 A  
HETATM    7  C   UNL     1     -10.852  11.665  64.914  1.00  0.00    -0.359 A  
HETATM    8  C   UNL     1      -9.799  10.897  64.395  1.00  0.00    -0.365 A  
HETATM    9  C   UNL     1      -9.125  10.401  66.669  1.00  0.00    -0.169 A  
HETATM   10  C   UNL     1      -9.636  10.751  62.912  1.00  0.00    -0.366 C  
ENDROOT
BRANCH   5  11
HETATM   11  O   UNL     1     -12.047  12.591  66.806  1.00  0.00    -0.546 OA 
BRANCH  11  12
HETATM   12  C   UNL     1     -11.993  13.957  66.365  1.00  0.00    -0.438 C  
BRANCH  12  13
HETATM   13  C   UNL     1     -10.914  14.697  67.179  1.00  0.00    -0.316 C  
BRANCH  13  14
HETATM   14  N   UNL     1     -10.432  15.951  66.562  1.00  0.00    -0.300 NA 
HETATM   15  C   UNL     1     -10.541  17.089  67.476  1.00  0.00    -0.310 C  
HETATM   16  C   UNL     1      -9.038  15.795  66.138  1.00  0.00    -0.342 C  
ENDBRANCH  13  14
ENDBRANCH  12  13
ENDBRANCH  11  12
ENDBRANCH   5  11
BRANCH   6  17
HETATM   17  O   UNL     1      -7.889   9.477  64.732  1.00  0.00    -0.111 OA 
BRANCH  17  18
HETATM   18  C   UNL     1      -7.220   8.409  65.348  1.00  0.00    -0.082 C  
HETATM   19  O   UNL     1      -6.214   8.462  66.041  1.00  0.00    -0.051 OA 
HETATM   20  C   UNL     1      -7.973   7.142  65.086  1.00  0.00    -0.128 C  
ENDBRANCH  17  18
ENDBRANCH   6  17
TORSDOF 6
ENDMDL
MODEL       84
REMARK 921   NORMALIZED FREE ENERGY PREDICTED BY IDOCK:   -4.10 KCAL/MOL
REMARK 922        TOTAL FREE ENERGY PREDICTED BY IDOCK:   -6.14 KCAL/MOL
REMARK 923 INTER-LIGAND FREE ENERGY PREDICTED BY IDOCK:   -5.54 KCAL/MOL
REMARK 924 INTRA-LIGAND FREE ENERGY PREDICTED BY IDOCK:   -0.60 KCAL/MOL
REMARK 927      BINDING AFFINITY PREDICTED BY RF-SCORE:    0.00 PKD
ROOT
HETATM    1  C   UNL     1     -12.234  11.273  69.834  1.00  0.00    -0.358 C  
HETATM    2  C   UNL     1     -11.316  10.193  70.430  1.00  0.00    -0.401 C  
HETATM    3  C   UNL     1     -12.054   9.646  71.674  1.00  0.00    -0.481 C  
HETATM    4  C   UNL     1     -10.896   9.111  69.420  1.00  0.00    -0.165 A  
HETATM    5  C   UNL     1     -10.523   9.392  68.092  1.00  0.00    -0.220 A  
HETATM    6  C   UNL     1     -10.591   6.722  68.932  1.00  0.00    -0.228 A  
HETATM    7  C   UNL     1     -10.207   8.348  67.201  1.00  0.00    -0.362 A  
HETATM    8  C   UNL     1     -10.265   7.005  67.601  1.00  0.00    -0.245 A  
HETATM    9  C   UNL     1     -10.870   7.758  69.823  1.00  0.00    -0.211 A  
HETATM   10  C   UNL     1      -9.993   5.915  66.608  1.00  0.00    -0.214 C  
ENDROOT
BRANCH   5  11
HETATM   11  O   UNL     1     -10.378  10.708  67.722  1.00  0.00    -0.185 OA 
BRANCH  11  12
HETATM   12  C   UNL     1     -10.482  10.971  66.314  1.00  0.00    -0.254 C  
BRANCH  12  13
HETATM   13  C   UNL     1     -10.113  12.445  66.058  1.00  0.00    -0.251 C  
BRANCH  13  14
HETATM   14  N   UNL     1     -11.228  13.280  65.560  1.00  0.00    -0.286 NA 
HETATM   15  C   UNL     1     -12.377  12.471  65.152  1.00  0.00    -0.429 C  
HETATM   16  C   UNL     1     -11.640  14.231  66.595  1.00  0.00    -0.383 C  
ENDBRANCH  13  14
ENDBRANCH  12  13
ENDBRANCH  11  12
ENDBRANCH   5  11
BRANCH   6  17
HETATM   17  O   UNL     1     -10.669   5.347  69.294  1.00  0.00    -0.248 OA 
BRANCH  17  18
HETATM   18  C   UNL     1      -9.850   4.670  70.209  1.00  0.00    -0.243 C  
HETATM   19  O   UNL     1      -9.544   5.026  71.338  1.00  0.00    -0.151 OA 
HETATM   20  C   UNL     1      -9.432   3.360  69.616  1.00  0.00    -0.223 C  
ENDBRANCH  17  18
ENDBRANCH   6  17
TORSDOF 6
ENDMDL
MODEL       85
REMARK 921   NORMALIZED FREE ENERGY PREDICTED BY IDOCK:   -4.05 KCAL/MOL
REMARK 922        TOTAL FREE ENERGY PREDICTED BY IDOCK:   -6.08 KCAL/MOL
REMARK 923 INTER-LIGAND FREE ENERGY PREDICTED BY IDOCK:   -5.35 KCAL/MOL
REMARK 924 INTRA-LIGAND FREE ENERGY PREDICTED BY IDOCK:   -0.73 KCAL/MOL
REMARK 927      BINDING AFFINITY PREDICTED BY RF-SCORE:    0.00 PKD
ROOT
HETATM    1  C   UNL     1     -12.059   8.470  72.556  1.00  0.00    -0.395 C  
HETATM    2  C   UNL     1     -12.568   9.288  71.358  1.00  0.00    -0.411 C  
HETATM    3  C   UNL     1     -13.241  10.545  71.955  1.00  0.00    -0.526 C  
HETATM    4  C   UNL     1     -11.483   9.591  70.309  1.00  0.00    -0.256 A  
HETATM    5  C   UNL     1     -10.527   8.647  69.887  1.00  0.00    -0.218 A  
HETATM    6  C   UNL     1     -10.413  11.240  68.835  1.00  0.00    -0.206 A  
HETATM    7  C   UNL     1      -9.524   9.008  68.967  1.00  0.00    -0.155 A  
HETATM    8  C   UNL     1      -9.438  10.310  68.454  1.00  0.00    -0.149 A  
HETATM    9  C   UNL     1     -11.427  10.872  69.719  1.00  0.00    -0.390 A  
HETATM   10  C   UNL     1      -8.316  10.681  67.533  1.00  0.00    -0.115 C  
ENDROOT
BRANCH   5  11
HETATM   11  O   UNL     1     -10.661   7.349  70.317  1.00  0.00    -0.227 OA 
BRANCH  11  12
HETATM   12  C   UNL     1     -11.207   6.431  69.357  1.00  0.00    -0.394 C  
BRANCH  12  13
HETATM   13  C   UNL     1     -10.302   5.185  69.293  1.00  0.00    -0.178 C  
BRANCH  13  14
HETATM   14  N   UNL     1      -9.591   5.008  68.009  1.00  0.00    -0.135 NA 
HETATM   15  C   UNL     1      -9.100   3.640  67.839  1.00  0.00    -0.155 C  
HETATM   16  C   UNL     1     -10.477   5.354  66.895  1.00  0.00    -0.277 C  
ENDBRANCH  13  14
ENDBRANCH  12  13
ENDBRANCH  11  12
ENDBRANCH   5  11
BRANCH   6  17
HETATM   17  O   UNL     1     -10.277  12.559  68.318  1.00  0.00    -0.224 OA 
BRANCH  17  18
HETATM   18  C   UNL     1     -11.267  13.317  67.676  1.00  0.00    -0.280 C  
HETATM   19  O   UNL     1     -12.088  14.060  68.194  1.00  0.00    -0.355 OA 
HETATM   20  C   UNL     1     -11.137  13.139  66.195  1.00  0.00    -0.301 C  
ENDBRANCH  17  18
ENDBRANCH   6  17
TORSDOF 6
ENDMDL
MODEL       86
REMARK 921   NORMALIZED FREE ENERGY PREDICTED BY IDOCK:   -4.04 KCAL/MOL
REMARK 922        TOTAL FREE ENERGY PREDICTED BY IDOCK:   -6.07 KCAL/MOL
REMARK 923 INTER-LIGAND FREE ENERGY PREDICTED BY IDOCK:   -5.37 KCAL/MOL
REMARK 924 INTRA-LIGAND FREE ENERGY PREDICTED BY IDOCK:   -0.70 KCAL/MOL
REMARK 927      BINDING AFFINITY PREDICTED BY RF-SCORE:    0.00 PKD
ROOT
HETATM    1  C   UNL     1     -12.205  12.223  64.799  1.00  0.00    -0.438 C  
HETATM    2  C   UNL     1     -11.287  13.400  64.430  1.00  0.00    -0.419 C  
HETATM    3  C   UNL     1     -12.225  14.570  64.053  1.00  0.00    -0.262 C  
HETATM    4  C   UNL     1     -10.256  13.745  65.519  1.00  0.00    -0.332 A  
HETATM    5  C   UNL     1      -9.539  12.775  66.244  1.00  0.00    -0.242 A  
HETATM    6  C   UNL     1      -9.139  15.477  66.857  1.00  0.00    -0.241 A  
HETATM    7  C   UNL     1      -8.653  13.157  67.269  1.00  0.00    -0.210 A  
HETATM    8  C   UNL     1      -8.465  14.506  67.605  1.00  0.00    -0.189 A  
HETATM    9  C   UNL     1      -9.991  15.099  65.819  1.00  0.00    -0.375 A  
HETATM   10  C   UNL     1      -7.569  14.876  68.749  1.00  0.00    -0.135 C  
ENDROOT
BRANCH   5  11
HETATM   11  O   UNL     1      -9.652  11.460  65.859  1.00  0.00    -0.213 OA 
BRANCH  11  12
HETATM   12  C   UNL     1      -9.197  10.492  66.817  1.00  0.00    -0.155 C  
BRANCH  12  13
HETATM   13  C   UNL     1     -10.317   9.458  67.044  1.00  0.00    -0.252 C  
BRANCH  13  14
HETATM   14  N   UNL     1     -10.090   8.153  66.386  1.00  0.00    -0.204 NA 
HETATM   15  C   UNL     1      -8.678   7.770  66.401  1.00  0.00    -0.150 C  
HETATM   16  C   UNL     1     -10.887   7.116  67.046  1.00  0.00    -0.312 C  
ENDBRANCH  13  14
ENDBRANCH  12  13
ENDBRANCH  11  12
ENDBRANCH   5  11
BRANCH   6  17
HETATM   17  O   UNL     1      -8.948  16.833  67.246  1.00  0.00    -0.207 OA 
BRANCH  17  18
HETATM   18  C   UNL     1      -8.543  17.895  66.424  1.00  0.00    -0.227 C  
HETATM   19  O   UNL     1      -9.208  18.857  66.069  1.00  0.00    -0.468 OA 
HETATM   20  C   UNL     1      -7.097  17.720  66.075  1.00  0.00    -0.335 C  
ENDBRANCH  17  18
ENDBRANCH   6  17
TORSDOF 6
ENDMDL
MODEL       87
REMARK 921   NORMALIZED FREE ENERGY PREDICTED BY IDOCK:   -4.00 KCAL/MOL
REMARK 922        TOTAL FREE ENERGY PREDICTED BY IDOCK:   -6.01 KCAL/MOL
REMARK 923 INTER-LIGAND FREE ENERGY PREDICTED BY IDOCK:   -5.20 KCAL/MOL
REMARK 924 INTRA-LIGAND FREE ENERGY PREDICTED BY IDOCK:   -0.81 KCAL/MOL
REMARK 927      BINDING AFFINITY PREDICTED BY RF-SCORE:    0.00 PKD
ROOT
HETATM    1  C   UNL     1     -11.548  12.628  67.416  1.00  0.00    -0.421 C  
HETATM    2  C   UNL     1     -11.189  12.313  68.878  1.00  0.00    -0.323 C  
HETATM    3  C   UNL     1     -12.238  13.051  69.742  1.00  0.00    -0.242 C  
HETATM    4  C   UNL     1     -11.072  10.808  69.177  1.00  0.00    -0.304 A  
HETATM    5  C   UNL     1     -10.445   9.892  68.312  1.00  0.00    -0.210 A  
HETATM    6  C   UNL     1     -11.618   8.931  70.666  1.00  0.00    -0.215 A  
HETATM    7  C   UNL     1     -10.425   8.518  68.618  1.00  0.00    -0.200 A  
HETATM    8  C   UNL     1     -11.034   8.020  69.779  1.00  0.00    -0.138 A  
HETATM    9  C   UNL     1     -11.607  10.296  70.379  1.00  0.00    -0.411 A  
HETATM   10  C   UNL     1     -11.058   6.544  70.040  1.00  0.00    -0.422 C  
ENDROOT
BRANCH   5  11
HETATM   11  O   UNL     1      -9.771  10.385  67.220  1.00  0.00    -0.160 OA 
BRANCH  11  12
HETATM   12  C   UNL     1      -8.339  10.304  67.288  1.00  0.00    -0.121 C  
BRANCH  12  13
HETATM   13  C   UNL     1      -7.794   9.985  65.882  1.00  0.00    -0.122 C  
BRANCH  13  14
HETATM   14  N   UNL     1      -7.247   8.620  65.730  1.00  0.00    -0.079 NA 
HETATM   15  C   UNL     1      -6.914   8.017  67.021  1.00  0.00    -0.074 C  
HETATM   16  C   UNL     1      -8.210   7.771  65.026  1.00  0.00    -0.120 C  
ENDBRANCH  13  14
ENDBRANCH  12  13
ENDBRANCH  11  12
ENDBRANCH   5  11
BRANCH   6  17
HETATM   17  O   UNL     1     -12.252   8.388  71.819  1.00  0.00    -0.295 OA 
BRANCH  17  18
HETATM   18  C   UNL     1     -13.602   8.515  72.175  1.00  0.00    -0.364 C  
HETATM   19  O   UNL     1     -14.116   9.405  72.838  1.00  0.00    -0.381 OA 
HETATM   20  C   UNL     1     -14.381   7.397  71.553  1.00  0.00    -0.594 C  
ENDBRANCH  17  18
ENDBRANCH   6  17
TORSDOF 6
ENDMDL
MODEL       88
REMARK 921   NORMALIZED FREE ENERGY PREDICTED BY IDOCK:   -4.00 KCAL/MOL
REMARK 922        TOTAL FREE ENERGY PREDICTED BY IDOCK:   -6.01 KCAL/MOL
REMARK 923 INTER-LIGAND FREE ENERGY PREDICTED BY IDOCK:   -5.63 KCAL/MOL
REMARK 924 INTRA-LIGAND FREE ENERGY PREDICTED BY IDOCK:   -0.37 KCAL/MOL
REMARK 927      BINDING AFFINITY PREDICTED BY RF-SCORE:    0.00 PKD
ROOT
HETATM    1  C   UNL     1      -6.996  12.389  67.644  1.00  0.00    -0.132 C  
HETATM    2  C   UNL     1      -7.632  13.697  68.145  1.00  0.00    -0.137 C  
HETATM    3  C   UNL     1      -6.456  14.663  68.421  1.00  0.00    -0.104 C  
HETATM    4  C   UNL     1      -8.705  14.265  67.200  1.00  0.00    -0.243 A  
HETATM    5  C   UNL     1      -9.670  13.469  66.554  1.00  0.00    -0.283 A  
HETATM    6  C   UNL     1      -9.637  16.221  66.041  1.00  0.00    -0.337 A  
HETATM    7  C   UNL     1     -10.587  14.045  65.654  1.00  0.00    -0.313 A  
HETATM    8  C   UNL     1     -10.563  15.418  65.367  1.00  0.00    -0.430 A  
HETATM    9  C   UNL     1      -8.751  15.655  66.958  1.00  0.00    -0.256 A  
HETATM   10  C   UNL     1     -11.506  15.988  64.351  1.00  0.00    -0.246 C  
ENDROOT
BRANCH   5  11
HETATM   11  O   UNL     1      -9.755  12.142  66.900  1.00  0.00    -0.199 OA 
BRANCH  11  12
HETATM   12  C   UNL     1     -10.712  11.368  66.159  1.00  0.00    -0.267 C  
BRANCH  12  13
HETATM   13  C   UNL     1      -9.954  10.376  65.255  1.00  0.00    -0.309 C  
BRANCH  13  14
HETATM   14  N   UNL     1     -10.349  10.418  63.831  1.00  0.00    -0.027 NA 
HETATM   15  C   UNL     1     -10.874  11.729  63.446  1.00  0.00    -0.388 C  
HETATM   16  C   UNL     1      -9.201  10.081  62.985  1.00  0.00    -0.286 C  
ENDBRANCH  13  14
ENDBRANCH  12  13
ENDBRANCH  11  12
ENDBRANCH   5  11
BRANCH   6  17
HETATM   17  O   UNL     1      -9.621  17.604  65.702  1.00  0.00    -0.503 OA 
BRANCH  17  18
HETATM   18  C   UNL     1      -9.867  18.684  66.563  1.00  0.00    -0.364 C  
HETATM   19  O   UNL     1      -9.447  18.839  67.700  1.00  0.00    -0.294 OA 
HETATM   20  C   UNL     1     -10.700  19.701  65.846  1.00  0.00    -0.515 C  
ENDBRANCH  17  18
ENDBRANCH   6  17
TORSDOF 6
ENDMDL
MODEL       89
REMARK 921   NORMALIZED FREE ENERGY PREDICTED BY IDOCK:   -3.97 KCAL/MOL
REMARK 922        TOTAL FREE ENERGY PREDICTED BY IDOCK:   -5.97 KCAL/MOL
REMARK 923 INTER-LIGAND FREE ENERGY PREDICTED BY IDOCK:   -5.34 KCAL/MOL
REMARK 924 INTRA-LIGAND FREE ENERGY PREDICTED BY IDOCK:   -0.63 KCAL/MOL
REMARK 927      BINDING AFFINITY PREDICTED BY RF-SCORE:    0.00 PKD
ROOT
HETATM    1  C   UNL     1      -7.801  12.280  67.149  1.00  0.00    -0.149 C  
HETATM    2  C   UNL     1      -7.755  13.351  68.251  1.00  0.00    -0.141 C  
HETATM    3  C   UNL     1      -6.488  13.050  69.085  1.00  0.00    -0.108 C  
HETATM    4  C   UNL     1      -7.830  14.793  67.718  1.00  0.00    -0.163 A  
HETATM    5  C   UNL     1      -8.697  15.193  66.683  1.00  0.00    -0.272 A  
HETATM    6  C   UNL     1      -6.954  17.087  67.783  1.00  0.00    -0.145 A  
HETATM    7  C   UNL     1      -8.674  16.515  66.201  1.00  0.00    -0.335 A  
HETATM    8  C   UNL     1      -7.786  17.467  66.724  1.00  0.00    -0.273 A  
HETATM    9  C   UNL     1      -7.003  15.786  68.284  1.00  0.00    -0.120 A  
HETATM   10  C   UNL     1      -7.735  18.846  66.140  1.00  0.00    -0.281 C  
ENDROOT
BRANCH   5  11
HETATM   11  O   UNL     1      -9.629  14.290  66.231  1.00  0.00    -0.289 OA 
BRANCH  11  12
HETATM   12  C   UNL     1     -11.000  14.635  66.483  1.00  0.00    -0.318 C  
BRANCH  12  13
HETATM   13  C   UNL     1     -11.686  13.451  67.192  1.00  0.00    -0.379 C  
BRANCH  13  14
HETATM   14  N   UNL     1     -12.152  12.379  66.286  1.00  0.00    -0.630 NA 
HETATM   15  C   UNL     1     -12.500  12.894  64.961  1.00  0.00    -0.492 C  
HETATM   16  C   UNL     1     -11.117  11.351  66.156  1.00  0.00    -0.198 C  
ENDBRANCH  13  14
ENDBRANCH  12  13
ENDBRANCH  11  12
ENDBRANCH   5  11
BRANCH   6  17
HETATM   17  O   UNL     1      -6.045  18.070  68.269  1.00  0.00    -0.173 OA 
BRANCH  17  18
HETATM   18  C   UNL     1      -5.966  18.569  69.577  1.00  0.00    -0.254 C  
HETATM   19  O   UNL     1      -5.451  18.034  70.548  1.00  0.00    -0.250 OA 
HETATM   20  C   UNL     1      -6.566  19.941  69.614  1.00  0.00    -0.373 C  
ENDBRANCH  17  18
ENDBRANCH   6  17
TORSDOF 6
ENDMDL
MODEL       90
REMARK 921   NORMALIZED FREE ENERGY PREDICTED BY IDOCK:   -3.96 KCAL/MOL
REMARK 922        TOTAL FREE ENERGY PREDICTED BY IDOCK:   -5.96 KCAL/MOL
REMARK 923 INTER-LIGAND FREE ENERGY PREDICTED BY IDOCK:   -5.60 KCAL/MOL
REMARK 924 INTRA-LIGAND FREE ENERGY PREDICTED BY IDOCK:   -0.36 KCAL/MOL
REMARK 927      BINDING AFFINITY PREDICTED BY RF-SCORE:    0.00 PKD
ROOT
HETATM    1  C   UNL     1     -12.619  14.058  65.063  1.00  0.00    -0.416 C  
HETATM    2  C   UNL     1     -12.237  12.571  64.970  1.00  0.00    -0.519 C  
HETATM    3  C   UNL     1     -12.217  12.231  63.463  1.00  0.00    -0.669 C  
HETATM    4  C   UNL     1     -10.937  12.219  65.715  1.00  0.00    -0.338 A  
HETATM    5  C   UNL     1     -10.606  12.730  66.983  1.00  0.00    -0.240 A  
HETATM    6  C   UNL     1      -8.778  11.046  65.695  1.00  0.00    -0.157 A  
HETATM    7  C   UNL     1      -9.372  12.414  67.583  1.00  0.00    -0.188 A  
HETATM    8  C   UNL     1      -8.435  11.594  66.936  1.00  0.00    -0.168 A  
HETATM    9  C   UNL     1     -10.015  11.332  65.118  1.00  0.00    -0.312 A  
HETATM   10  C   UNL     1      -7.101  11.335  67.569  1.00  0.00    -0.099 C  
ENDROOT
BRANCH   5  11
HETATM   11  O   UNL     1     -11.555  13.459  67.658  1.00  0.00    -0.300 OA 
BRANCH  11  12
HETATM   12  C   UNL     1     -11.699  13.149  69.054  1.00  0.00    -0.321 C  
BRANCH  12  13
HETATM   13  C   UNL     1     -12.043  11.653  69.195  1.00  0.00    -0.251 C  
BRANCH  13  14
HETATM   14  N   UNL     1     -11.742  11.076  70.522  1.00  0.00    -0.334 NA 
HETATM   15  C   UNL     1     -12.945  10.574  71.187  1.00  0.00    -0.411 C  
HETATM   16  C   UNL     1     -10.768   9.990  70.384  1.00  0.00    -0.307 C  
ENDBRANCH  13  14
ENDBRANCH  12  13
ENDBRANCH  11  12
ENDBRANCH   5  11
BRANCH   6  17
HETATM   17  O   UNL     1      -7.792  10.243  65.054  1.00  0.00    -0.139 OA 
BRANCH  17  18
HETATM   18  C   UNL     1      -7.845   9.724  63.753  1.00  0.00    -0.143 C  
HETATM   19  O   UNL     1      -7.726  10.337  62.702  1.00  0.00    -0.137 OA 
HETATM   20  C   UNL     1      -8.011   8.237  63.825  1.00  0.00    -0.149 C  
ENDBRANCH  17  18
ENDBRANCH   6  17
TORSDOF 6
ENDMDL
MODEL       91
REMARK 921   NORMALIZED FREE ENERGY PREDICTED BY IDOCK:   -3.95 KCAL/MOL
REMARK 922        TOTAL FREE ENERGY PREDICTED BY IDOCK:   -5.94 KCAL/MOL
REMARK 923 INTER-LIGAND FREE ENERGY PREDICTED BY IDOCK:   -5.60 KCAL/MOL
REMARK 924 INTRA-LIGAND FREE ENERGY PREDICTED BY IDOCK:   -0.34 KCAL/MOL
REMARK 927      BINDING AFFINITY PREDICTED BY RF-SCORE:    0.00 PKD
ROOT
HETATM    1  C   UNL     1     -10.072   9.417  66.729  1.00  0.00    -0.325 C  
HETATM    2  C   UNL     1     -10.088  10.582  67.733  1.00  0.00    -0.205 C  
HETATM    3  C   UNL     1     -10.622  11.806  66.955  1.00  0.00    -0.267 C  
HETATM    4  C   UNL     1     -10.860  10.272  69.028  1.00  0.00    -0.265 A  
HETATM    5  C   UNL     1     -10.773   9.042  69.707  1.00  0.00    -0.225 A  
HETATM    6  C   UNL     1     -12.496  11.011  70.706  1.00  0.00    -0.396 A  
HETATM    7  C   UNL     1     -11.552   8.803  70.856  1.00  0.00    -0.320 A  
HETATM    8  C   UNL     1     -12.440   9.769  71.350  1.00  0.00    -0.482 A  
HETATM    9  C   UNL     1     -11.698  11.259  69.589  1.00  0.00    -0.420 A  
HETATM   10  C   UNL     1     -13.308   9.457  72.531  1.00  0.00    -0.420 C  
ENDROOT
BRANCH   5  11
HETATM   11  O   UNL     1      -9.841   8.128  69.280  1.00  0.00    -0.175 OA 
BRANCH  11  12
HETATM   12  C   UNL     1     -10.190   6.748  69.477  1.00  0.00    -0.184 C  
BRANCH  12  13
HETATM   13  C   UNL     1      -9.071   5.866  68.888  1.00  0.00    -0.120 C  
BRANCH  13  14
HETATM   14  N   UNL     1      -9.542   4.815  67.961  1.00  0.00    -0.144 NA 
HETATM   15  C   UNL     1     -10.343   5.367  66.868  1.00  0.00    -0.260 C  
HETATM   16  C   UNL     1      -8.396   4.086  67.411  1.00  0.00    -0.098 C  
ENDBRANCH  13  14
ENDBRANCH  12  13
ENDBRANCH  11  12
ENDBRANCH   5  11
BRANCH   6  17
HETATM   17  O   UNL     1     -13.429  11.956  71.216  1.00  0.00     0.052 OA 
BRANCH  17  18
HETATM   18  C   UNL     1     -13.135  13.146  71.897  1.00  0.00    -0.385 C  
HETATM   19  O   UNL     1     -13.363  13.409  73.069  1.00  0.00    -0.518 OA 
HETATM   20  C   UNL     1     -12.409  14.073  70.972  1.00  0.00    -0.443 C  
ENDBRANCH  17  18
ENDBRANCH   6  17
TORSDOF 6
ENDMDL
MODEL       92
REMARK 921   NORMALIZED FREE ENERGY PREDICTED BY IDOCK:   -3.93 KCAL/MOL
REMARK 922        TOTAL FREE ENERGY PREDICTED BY IDOCK:   -5.92 KCAL/MOL
REMARK 923 INTER-LIGAND FREE ENERGY PREDICTED BY IDOCK:   -5.47 KCAL/MOL
REMARK 924 INTRA-LIGAND FREE ENERGY PREDICTED BY IDOCK:   -0.44 KCAL/MOL
REMARK 927      BINDING AFFINITY PREDICTED BY RF-SCORE:    0.00 PKD
ROOT
HETATM    1  C   UNL     1      -8.391   7.809  64.457  1.00  0.00     0.001 C  
HETATM    2  C   UNL     1      -8.470   9.343  64.529  1.00  0.00    -0.189 C  
HETATM    3  C   UNL     1      -8.939   9.812  63.133  1.00  0.00    -0.270 C  
HETATM    4  C   UNL     1      -9.332   9.864  65.693  1.00  0.00    -0.269 A  
HETATM    5  C   UNL     1      -9.302   9.314  66.988  1.00  0.00    -0.144 A  
HETATM    6  C   UNL     1     -11.077  11.414  66.461  1.00  0.00    -0.251 A  
HETATM    7  C   UNL     1     -10.161   9.801  67.992  1.00  0.00    -0.204 A  
HETATM    8  C   UNL     1     -11.075  10.833  67.733  1.00  0.00    -0.381 A  
HETATM    9  C   UNL     1     -10.202  10.956  65.477  1.00  0.00    -0.332 A  
HETATM   10  C   UNL     1     -12.025  11.278  68.803  1.00  0.00    -0.350 C  
ENDROOT
BRANCH   5  11
HETATM   11  O   UNL     1      -8.347   8.367  67.270  1.00  0.00    -0.121 OA 
BRANCH  11  12
HETATM   12  C   UNL     1      -8.842   7.129  67.806  1.00  0.00    -0.124 C  
BRANCH  12  13
HETATM   13  C   UNL     1      -8.241   6.924  69.211  1.00  0.00    -0.125 C  
BRANCH  13  14
HETATM   14  N   UNL     1      -9.150   6.274  70.178  1.00  0.00    -0.152 NA 
HETATM   15  C   UNL     1      -9.711   5.028  69.653  1.00  0.00    -0.196 C  
HETATM   16  C   UNL     1      -8.436   6.001  71.428  1.00  0.00    -0.128 C  
ENDBRANCH  13  14
ENDBRANCH  12  13
ENDBRANCH  11  12
ENDBRANCH   5  11
BRANCH   6  17
HETATM   17  O   UNL     1     -12.038  12.438  66.225  1.00  0.00    -0.612 OA 
BRANCH  17  18
HETATM   18  C   UNL     1     -12.650  12.753  65.004  1.00  0.00    -0.468 C  
HETATM   19  O   UNL     1     -13.501  12.106  64.410  1.00  0.00    -0.675 OA 
HETATM   20  C   UNL     1     -12.148  14.082  64.532  1.00  0.00    -0.484 C  
ENDBRANCH  17  18
ENDBRANCH   6  17
TORSDOF 6
ENDMDL
MODEL       93
REMARK 921   NORMALIZED FREE ENERGY PREDICTED BY IDOCK:   -3.92 KCAL/MOL
REMARK 922        TOTAL FREE ENERGY PREDICTED BY IDOCK:   -5.90 KCAL/MOL
REMARK 923 INTER-LIGAND FREE ENERGY PREDICTED BY IDOCK:   -5.18 KCAL/MOL
REMARK 924 INTRA-LIGAND FREE ENERGY PREDICTED BY IDOCK:   -0.73 KCAL/MOL
REMARK 927      BINDING AFFINITY PREDICTED BY RF-SCORE:    0.00 PKD
ROOT
HETATM    1  C   UNL     1      -6.460  11.541  66.713  1.00  0.00    -0.128 C  
HETATM    2  C   UNL     1      -7.292  12.415  67.666  1.00  0.00    -0.132 C  
HETATM    3  C   UNL     1      -6.436  13.670  67.951  1.00  0.00    -0.159 C  
HETATM    4  C   UNL     1      -8.708  12.722  67.147  1.00  0.00    -0.202 A  
HETATM    5  C   UNL     1      -9.528  11.767  66.518  1.00  0.00    -0.214 A  
HETATM    6  C   UNL     1     -10.474  14.390  66.775  1.00  0.00    -0.273 A  
HETATM    7  C   UNL     1     -10.791  12.130  66.012  1.00  0.00    -0.318 A  
HETATM    8  C   UNL     1     -11.265  13.447  66.109  1.00  0.00    -0.311 A  
HETATM    9  C   UNL     1      -9.238  14.021  67.306  1.00  0.00    -0.231 A  
HETATM   10  C   UNL     1     -12.582  13.817  65.497  1.00  0.00    -0.551 C  
ENDROOT
BRANCH   5  11
HETATM   11  O   UNL     1      -9.107  10.459  66.501  1.00  0.00    -0.152 OA 
BRANCH  11  12
HETATM   12  C   UNL     1      -9.858   9.577  65.651  1.00  0.00    -0.272 C  
BRANCH  12  13
HETATM   13  C   UNL     1      -8.985   9.193  64.441  1.00  0.00    -0.055 C  
BRANCH  13  14
HETATM   14  N   UNL     1      -8.349  10.337  63.754  1.00  0.00    -0.164 NA 
HETATM   15  C   UNL     1      -7.021   9.999  63.240  1.00  0.00    -0.130 C  
HETATM   16  C   UNL     1      -9.200  10.793  62.652  1.00  0.00    -0.324 C  
ENDBRANCH  13  14
ENDBRANCH  12  13
ENDBRANCH  11  12
ENDBRANCH   5  11
BRANCH   6  17
HETATM   17  O   UNL     1     -10.973  15.722  66.828  1.00  0.00    -0.293 OA 
BRANCH  17  18
HETATM   18  C   UNL     1     -10.486  16.832  66.122  1.00  0.00    -0.277 C  
HETATM   19  O   UNL     1     -10.769  17.171  64.982  1.00  0.00    -0.712 OA 
HETATM   20  C   UNL     1      -9.580  17.622  67.015  1.00  0.00    -0.276 C  
ENDBRANCH  17  18
ENDBRANCH   6  17
TORSDOF 6
ENDMDL
MODEL       94
REMARK 921   NORMALIZED FREE ENERGY PREDICTED BY IDOCK:   -3.91 KCAL/MOL
REMARK 922        TOTAL FREE ENERGY PREDICTED BY IDOCK:   -5.89 KCAL/MOL
REMARK 923 INTER-LIGAND FREE ENERGY PREDICTED BY IDOCK:   -5.39 KCAL/MOL
REMARK 924 INTRA-LIGAND FREE ENERGY PREDICTED BY IDOCK:   -0.50 KCAL/MOL
REMARK 927      BINDING AFFINITY PREDICTED BY RF-SCORE:    0.00 PKD
ROOT
HETATM    1  C   UNL     1      -8.274  17.302  66.764  1.00  0.00    -0.279 C  
HETATM    2  C   UNL     1      -8.768  17.478  68.210  1.00  0.00    -0.270 C  
HETATM    3  C   UNL     1      -9.453  18.862  68.260  1.00  0.00    -0.395 C  
HETATM    4  C   UNL     1      -9.649  16.319  68.708  1.00  0.00    -0.242 A  
HETATM    5  C   UNL     1      -9.370  14.964  68.447  1.00  0.00    -0.197 A  
HETATM    6  C   UNL     1     -11.691  15.607  69.875  1.00  0.00    -0.362 A  
HETATM    7  C   UNL     1     -10.251  13.955  68.882  1.00  0.00    -0.135 A  
HETATM    8  C   UNL     1     -11.431  14.266  69.573  1.00  0.00    -0.336 A  
HETATM    9  C   UNL     1     -10.800  16.603  69.475  1.00  0.00    -0.285 A  
HETATM   10  C   UNL     1     -12.384  13.174  69.959  1.00  0.00    -0.241 C  
ENDROOT
BRANCH   5  11
HETATM   11  O   UNL     1      -8.173  14.650  67.850  1.00  0.00    -0.133 OA 
BRANCH  11  12
HETATM   12  C   UNL     1      -8.120  13.369  67.202  1.00  0.00    -0.083 C  
BRANCH  12  13
HETATM   13  C   UNL     1      -6.948  12.563  67.794  1.00  0.00    -0.121 C  
BRANCH  13  14
HETATM   14  N   UNL     1      -7.014  12.366  69.257  1.00  0.00    -0.034 NA 
HETATM   15  C   UNL     1      -7.132  10.952  69.615  1.00  0.00    -0.116 C  
HETATM   16  C   UNL     1      -5.823  12.936  69.892  1.00  0.00    -0.132 C  
ENDBRANCH  13  14
ENDBRANCH  12  13
ENDBRANCH  11  12
ENDBRANCH   5  11
BRANCH   6  17
HETATM   17  O   UNL     1     -12.912  15.888  70.551  1.00  0.00    -0.438 OA 
BRANCH  17  18
HETATM   18  C   UNL     1     -13.140  15.835  71.934  1.00  0.00    -0.417 C  
HETATM   19  O   UNL     1     -14.134  15.415  72.509  1.00  0.00    -0.527 OA 
HETATM   20  C   UNL     1     -11.919  16.325  72.650  1.00  0.00    -0.644 C  
ENDBRANCH  17  18
ENDBRANCH   6  17
TORSDOF 6
ENDMDL
MODEL       95
REMARK 921   NORMALIZED FREE ENERGY PREDICTED BY IDOCK:   -3.90 KCAL/MOL
REMARK 922        TOTAL FREE ENERGY PREDICTED BY IDOCK:   -5.87 KCAL/MOL
REMARK 923 INTER-LIGAND FREE ENERGY PREDICTED BY IDOCK:   -5.15 KCAL/MOL
REMARK 924 INTRA-LIGAND FREE ENERGY PREDICTED BY IDOCK:   -0.72 KCAL/MOL
REMARK 927      BINDING AFFINITY PREDICTED BY RF-SCORE:    0.00 PKD
ROOT
HETATM    1  C   UNL     1     -10.217   8.816  66.856  1.00  0.00    -0.357 C  
HETATM    2  C   UNL     1     -10.960   7.780  67.717  1.00  0.00     0.008 C  
HETATM    3  C   UNL     1     -10.682   6.406  67.066  1.00  0.00    -0.434 C  
HETATM    4  C   UNL     1     -10.607   7.852  69.214  1.00  0.00    -0.195 A  
HETATM    5  C   UNL     1     -10.461   9.061  69.920  1.00  0.00    -0.215 A  
HETATM    6  C   UNL     1     -10.009   6.651  71.273  1.00  0.00    -0.180 A  
HETATM    7  C   UNL     1     -10.078   9.056  71.275  1.00  0.00    -0.384 A  
HETATM    8  C   UNL     1      -9.821   7.857  71.956  1.00  0.00    -0.250 A  
HETATM    9  C   UNL     1     -10.422   6.655  69.940  1.00  0.00    -0.247 A  
HETATM   10  C   UNL     1      -9.345   7.890  73.377  1.00  0.00    -0.348 C  
ENDROOT
BRANCH   5  11
HETATM   11  O   UNL     1     -10.798  10.230  69.282  1.00  0.00    -0.211 OA 
BRANCH  11  12
HETATM   12  C   UNL     1     -12.122  10.721  69.546  1.00  0.00    -0.272 C  
BRANCH  12  13
HETATM   13  C   UNL     1     -12.013  12.087  70.250  1.00  0.00    -0.314 C  
BRANCH  13  14
HETATM   14  N   UNL     1     -12.534  12.109  71.633  1.00  0.00    -0.063 NA 
HETATM   15  C   UNL     1     -13.446  13.232  71.858  1.00  0.00    -0.438 C  
HETATM   16  C   UNL     1     -13.224  10.851  71.927  1.00  0.00    -0.403 C  
ENDBRANCH  13  14
ENDBRANCH  12  13
ENDBRANCH  11  12
ENDBRANCH   5  11
BRANCH   6  17
HETATM   17  O   UNL     1      -9.710   5.456  71.986  1.00  0.00    -0.157 OA 
BRANCH  17  18
HETATM   18  C   UNL     1     -10.628   4.584  72.589  1.00  0.00    -0.179 C  
HETATM   19  O   UNL     1     -11.677   4.876  73.145  1.00  0.00    -0.315 OA 
HETATM   20  C   UNL     1     -10.164   3.174  72.395  1.00  0.00    -0.197 C  
ENDBRANCH  17  18
ENDBRANCH   6  17
TORSDOF 6
ENDMDL
MODEL       96
REMARK 921   NORMALIZED FREE ENERGY PREDICTED BY IDOCK:   -3.88 KCAL/MOL
REMARK 922        TOTAL FREE ENERGY PREDICTED BY IDOCK:   -5.85 KCAL/MOL
REMARK 923 INTER-LIGAND FREE ENERGY PREDICTED BY IDOCK:   -5.22 KCAL/MOL
REMARK 924 INTRA-LIGAND FREE ENERGY PREDICTED BY IDOCK:   -0.63 KCAL/MOL
REMARK 927      BINDING AFFINITY PREDICTED BY RF-SCORE:    0.00 PKD
ROOT
HETATM    1  C   UNL     1     -12.231  13.381  67.146  1.00  0.00    -0.306 C  
HETATM    2  C   UNL     1     -11.346  12.969  68.335  1.00  0.00    -0.326 C  
HETATM    3  C   UNL     1     -12.021  13.561  69.593  1.00  0.00    -0.397 C  
HETATM    4  C   UNL     1     -11.081  11.455  68.414  1.00  0.00    -0.296 A  
HETATM    5  C   UNL     1     -10.793  10.657  67.290  1.00  0.00    -0.287 A  
HETATM    6  C   UNL     1     -10.979   9.427  69.798  1.00  0.00    -0.215 A  
HETATM    7  C   UNL     1     -10.620   9.267  67.425  1.00  0.00    -0.324 A  
HETATM    8  C   UNL     1     -10.738   8.634  68.671  1.00  0.00    -0.092 A  
HETATM    9  C   UNL     1     -11.116  10.809  69.669  1.00  0.00    -0.339 A  
HETATM   10  C   UNL     1     -10.620   7.143  68.769  1.00  0.00    -0.219 C  
ENDROOT
BRANCH   5  11
HETATM   11  O   UNL     1     -10.588  11.284  66.084  1.00  0.00    -0.251 OA 
BRANCH  11  12
HETATM   12  C   UNL     1      -9.214  11.462  65.704  1.00  0.00    -0.193 C  
BRANCH  12  13
HETATM   13  C   UNL     1      -8.927  10.590  64.466  1.00  0.00    -0.209 C  
BRANCH  13  14
HETATM   14  N   UNL     1      -7.797   9.651  64.625  1.00  0.00    -0.126 NA 
HETATM   15  C   UNL     1      -8.217   8.257  64.474  1.00  0.00    -0.135 C  
HETATM   16  C   UNL     1      -6.751   9.957  63.645  1.00  0.00    -0.125 C  
ENDBRANCH  13  14
ENDBRANCH  12  13
ENDBRANCH  11  12
ENDBRANCH   5  11
BRANCH   6  17
HETATM   17  O   UNL     1     -11.123   8.748  71.041  1.00  0.00    -0.245 OA 
BRANCH  17  18
HETATM   18  C   UNL     1     -10.123   8.526  71.999  1.00  0.00    -0.316 C  
HETATM   19  O   UNL     1      -8.994   8.993  72.018  1.00  0.00    -0.374 OA 
HETATM   20  C   UNL     1     -10.669   7.648  73.082  1.00  0.00    -0.445 C  
ENDBRANCH  17  18
ENDBRANCH   6  17
TORSDOF 6
ENDMDL
MODEL       97
REMARK 921   NORMALIZED FREE ENERGY PREDICTED BY IDOCK:   -3.88 KCAL/MOL
REMARK 922        TOTAL FREE ENERGY PREDICTED BY IDOCK:   -5.85 KCAL/MOL
REMARK 923 INTER-LIGAND FREE ENERGY PREDICTED BY IDOCK:   -5.29 KCAL/MOL
REMARK 924 INTRA-LIGAND FREE ENERGY PREDICTED BY IDOCK:   -0.56 KCAL/MOL
REMARK 927      BINDING AFFINITY PREDICTED BY RF-SCORE:    0.00 PKD
ROOT
HETATM    1  C   UNL     1      -7.496  15.480  69.342  1.00  0.00    -0.219 C  
HETATM    2  C   UNL     1      -7.474  14.662  68.040  1.00  0.00    -0.137 C  
HETATM    3  C   UNL     1      -7.581  13.180  68.466  1.00  0.00    -0.122 C  
HETATM    4  C   UNL     1      -8.535  15.102  67.015  1.00  0.00    -0.259 A  
HETATM    5  C   UNL     1      -8.838  16.449  66.741  1.00  0.00    -0.225 A  
HETATM    6  C   UNL     1     -10.287  14.450  65.420  1.00  0.00    -0.378 A  
HETATM    7  C   UNL     1      -9.862  16.782  65.834  1.00  0.00    -0.276 A  
HETATM    8  C   UNL     1     -10.614  15.791  65.187  1.00  0.00    -0.436 A  
HETATM    9  C   UNL     1      -9.249  14.122  66.292  1.00  0.00    -0.152 A  
HETATM   10  C   UNL     1     -11.745  16.179  64.283  1.00  0.00     0.003 C  
ENDROOT
BRANCH   5  11
HETATM   11  O   UNL     1      -8.045  17.421  67.304  1.00  0.00    -0.195 OA 
BRANCH  11  12
HETATM   12  C   UNL     1      -8.746  18.524  67.900  1.00  0.00    -0.284 C  
BRANCH  12  13
HETATM   13  C   UNL     1      -7.774  19.287  68.821  1.00  0.00    -0.362 C  
BRANCH  13  14
HETATM   14  N   UNL     1      -6.707  20.025  68.111  1.00  0.00    -0.281 NA 
HETATM   15  C   UNL     1      -7.248  21.083  67.256  1.00  0.00    -0.301 C  
HETATM   16  C   UNL     1      -5.773  20.606  69.078  1.00  0.00    -0.358 C  
ENDBRANCH  13  14
ENDBRANCH  12  13
ENDBRANCH  11  12
ENDBRANCH   5  11
BRANCH   6  17
HETATM   17  O   UNL     1     -11.090  13.472  64.770  1.00  0.00    -0.326 OA 
BRANCH  17  18
HETATM   18  C   UNL     1     -10.842  12.094  64.695  1.00  0.00    -0.306 C  
HETATM   19  O   UNL     1     -11.091  11.246  65.540  1.00  0.00    -0.191 OA 
HETATM   20  C   UNL     1     -10.264  11.773  63.352  1.00  0.00    -0.482 C  
ENDBRANCH  17  18
ENDBRANCH   6  17
TORSDOF 6
ENDMDL
MODEL       98
REMARK 921   NORMALIZED FREE ENERGY PREDICTED BY IDOCK:   -3.84 KCAL/MOL
REMARK 922        TOTAL FREE ENERGY PREDICTED BY IDOCK:   -5.79 KCAL/MOL
REMARK 923 INTER-LIGAND FREE ENERGY PREDICTED BY IDOCK:   -5.21 KCAL/MOL
REMARK 924 INTRA-LIGAND FREE ENERGY PREDICTED BY IDOCK:   -0.59 KCAL/MOL
REMARK 927      BINDING AFFINITY PREDICTED BY RF-SCORE:    0.00 PKD
ROOT
HETATM    1  C   UNL     1      -7.639   7.299  69.701  1.00  0.00    -0.099 C  
HETATM    2  C   UNL     1      -7.918   8.779  69.390  1.00  0.00    -0.100 C  
HETATM    3  C   UNL     1      -7.758   8.930  67.860  1.00  0.00    -0.101 C  
HETATM    4  C   UNL     1      -9.266   9.283  69.936  1.00  0.00    -0.209 A  
HETATM    5  C   UNL     1      -9.760   8.950  71.211  1.00  0.00    -0.289 A  
HETATM    6  C   UNL     1     -11.335  10.546  69.534  1.00  0.00    -0.278 A  
HETATM    7  C   UNL     1     -11.029   9.397  71.626  1.00  0.00    -0.382 A  
HETATM    8  C   UNL     1     -11.840  10.173  70.785  1.00  0.00    -0.443 A  
HETATM    9  C   UNL     1     -10.063  10.132  69.138  1.00  0.00    -0.226 A  
HETATM   10  C   UNL     1     -13.215  10.572  71.229  1.00  0.00    -0.399 C  
ENDROOT
BRANCH   5  11
HETATM   11  O   UNL     1      -8.933   8.267  72.070  1.00  0.00    -0.156 OA 
BRANCH  11  12
HETATM   12  C   UNL     1      -9.396   8.165  73.426  1.00  0.00    -0.197 C  
BRANCH  12  13
HETATM   13  C   UNL     1     -10.053   6.785  73.622  1.00  0.00    -0.296 C  
BRANCH  13  14
HETATM   14  N   UNL     1      -9.400   5.683  72.884  1.00  0.00    -0.141 NA 
HETATM   15  C   UNL     1      -8.649   4.796  73.774  1.00  0.00    -0.103 C  
HETATM   16  C   UNL     1     -10.405   4.908  72.152  1.00  0.00    -0.200 C  
ENDBRANCH  13  14
ENDBRANCH  12  13
ENDBRANCH  11  12
ENDBRANCH   5  11
BRANCH   6  17
HETATM   17  O   UNL     1     -12.197  11.308  68.696  1.00  0.00    -0.562 OA 
BRANCH  17  18
HETATM   18  C   UNL     1     -11.989  12.620  68.247  1.00  0.00    -0.222 C  
HETATM   19  O   UNL     1     -11.978  13.643  68.917  1.00  0.00    -0.340 OA 
HETATM   20  C   UNL     1     -11.705  12.595  66.777  1.00  0.00    -0.460 C  
ENDBRANCH  17  18
ENDBRANCH   6  17
TORSDOF 6
ENDMDL
MODEL       99
REMARK 921   NORMALIZED FREE ENERGY PREDICTED BY IDOCK:   -3.84 KCAL/MOL
REMARK 922        TOTAL FREE ENERGY PREDICTED BY IDOCK:   -5.79 KCAL/MOL
REMARK 923 INTER-LIGAND FREE ENERGY PREDICTED BY IDOCK:   -5.05 KCAL/MOL
REMARK 924 INTRA-LIGAND FREE ENERGY PREDICTED BY IDOCK:   -0.74 KCAL/MOL
REMARK 927      BINDING AFFINITY PREDICTED BY RF-SCORE:    0.00 PKD
ROOT
HETATM    1  C   UNL     1      -9.918  11.510  67.390  1.00  0.00    -0.209 C  
HETATM    2  C   UNL     1     -10.482  10.284  66.653  1.00  0.00    -0.260 C  
HETATM    3  C   UNL     1      -9.934  10.366  65.209  1.00  0.00    -0.376 C  
HETATM    4  C   UNL     1     -10.193   8.949  67.362  1.00  0.00    -0.313 A  
HETATM    5  C   UNL     1     -10.296   8.772  68.754  1.00  0.00    -0.213 A  
HETATM    6  C   UNL     1      -9.445   6.615  67.184  1.00  0.00    -0.136 A  
HETATM    7  C   UNL     1      -9.960   7.539  69.346  1.00  0.00    -0.178 A  
HETATM    8  C   UNL     1      -9.505   6.460  68.574  1.00  0.00    -0.120 A  
HETATM    9  C   UNL     1      -9.812   7.825  66.596  1.00  0.00    -0.295 A  
HETATM   10  C   UNL     1      -9.087   5.184  69.241  1.00  0.00    -0.140 C  
ENDROOT
BRANCH   5  11
HETATM   11  O   UNL     1     -10.825   9.796  69.503  1.00  0.00    -0.226 OA 
BRANCH  11  12
HETATM   12  C   UNL     1     -10.679   9.664  70.925  1.00  0.00    -0.332 C  
BRANCH  12  13
HETATM   13  C   UNL     1     -12.080   9.595  71.563  1.00  0.00    -0.401 C  
BRANCH  13  14
HETATM   14  N   UNL     1     -12.337   8.371  72.352  1.00  0.00    -0.373 NA 
HETATM   15  C   UNL     1     -12.926   7.307  71.538  1.00  0.00    -0.389 C  
HETATM   16  C   UNL     1     -11.089   7.895  72.954  1.00  0.00    -0.379 C  
ENDBRANCH  13  14
ENDBRANCH  12  13
ENDBRANCH  11  12
ENDBRANCH   5  11
BRANCH   6  17
HETATM   17  O   UNL     1      -8.952   5.509  66.436  1.00  0.00    -0.124 OA 
BRANCH  17  18
HETATM   18  C   UNL     1      -9.684   4.685  65.570  1.00  0.00    -0.181 C  
HETATM   19  O   UNL     1     -10.893   4.501  65.563  1.00  0.00    -0.280 OA 
HETATM   20  C   UNL     1      -8.753   4.081  64.565  1.00  0.00    -0.124 C  
ENDBRANCH  17  18
ENDBRANCH   6  17
TORSDOF 6
ENDMDL
MODEL      100
REMARK 921   NORMALIZED FREE ENERGY PREDICTED BY IDOCK:   -3.84 KCAL/MOL
REMARK 922        TOTAL FREE ENERGY PREDICTED BY IDOCK:   -5.79 KCAL/MOL
REMARK 923 INTER-LIGAND FREE ENERGY PREDICTED BY IDOCK:   -5.18 KCAL/MOL
REMARK 924 INTRA-LIGAND FREE ENERGY PREDICTED BY IDOCK:   -0.62 KCAL/MOL
REMARK 927      BINDING AFFINITY PREDICTED BY RF-SCORE:    0.00 PKD
ROOT
HETATM    1  C   UNL     1     -11.315  15.575  64.555  1.00  0.00    -0.322 C  
HETATM    2  C   UNL     1     -11.726  14.641  65.706  1.00  0.00    -0.302 C  
HETATM    3  C   UNL     1     -12.784  13.680  65.118  1.00  0.00    -0.443 C  
HETATM    4  C   UNL     1     -10.539  13.934  66.383  1.00  0.00    -0.280 A  
HETATM    5  C   UNL     1      -9.322  14.575  66.685  1.00  0.00    -0.281 A  
HETATM    6  C   UNL     1      -9.584  11.849  67.267  1.00  0.00    -0.177 A  
HETATM    7  C   UNL     1      -8.254  13.854  67.251  1.00  0.00    -0.176 A  
HETATM    8  C   UNL     1      -8.362  12.482  67.521  1.00  0.00    -0.175 A  
HETATM    9  C   UNL     1     -10.653  12.572  66.738  1.00  0.00    -0.253 A  
HETATM   10  C   UNL     1      -7.183  11.728  68.057  1.00  0.00    -0.084 C  
ENDROOT
BRANCH   5  11
HETATM   11  O   UNL     1      -9.243  15.936  66.505  1.00  0.00    -0.230 OA 
BRANCH  11  12
HETATM   12  C   UNL     1      -7.919  16.490  66.548  1.00  0.00    -0.310 C  
BRANCH  12  13
HETATM   13  C   UNL     1      -8.018  18.021  66.395  1.00  0.00    -0.262 C  
BRANCH  13  14
HETATM   14  N   UNL     1      -7.897  18.774  67.661  1.00  0.00    -0.238 NA 
HETATM   15  C   UNL     1      -9.152  19.429  68.032  1.00  0.00    -0.328 C  
HETATM   16  C   UNL     1      -7.476  17.875  68.739  1.00  0.00    -0.268 C  
ENDBRANCH  13  14
ENDBRANCH  12  13
ENDBRANCH  11  12
ENDBRANCH   5  11
BRANCH   6  17
HETATM   17  O   UNL     1      -9.648  10.451  67.525  1.00  0.00    -0.154 OA 
BRANCH  17  18
HETATM   18  C   UNL     1      -9.798   9.426  66.579  1.00  0.00    -0.258 C  
HETATM   19  O   UNL     1      -9.492   9.456  65.396  1.00  0.00    -0.261 OA 
HETATM   20  C   UNL     1     -10.348   8.210  67.258  1.00  0.00    -0.373 C  
ENDBRANCH  17  18
ENDBRANCH   6  17
TORSDOF 6
ENDMDL
MODEL      101
REMARK 921   NORMALIZED FREE ENERGY PREDICTED BY IDOCK:   -3.81 KCAL/MOL
REMARK 922        TOTAL FREE ENERGY PREDICTED BY IDOCK:   -5.75 KCAL/MOL
REMARK 923 INTER-LIGAND FREE ENERGY PREDICTED BY IDOCK:   -5.02 KCAL/MOL
REMARK 924 INTRA-LIGAND FREE ENERGY PREDICTED BY IDOCK:   -0.73 KCAL/MOL
REMARK 927      BINDING AFFINITY PREDICTED BY RF-SCORE:    0.00 PKD
ROOT
HETATM    1  C   UNL     1      -6.614  15.245  68.722  1.00  0.00    -0.102 C  
HETATM    2  C   UNL     1      -6.903  14.119  67.715  1.00  0.00    -0.188 C  
HETATM    3  C   UNL     1      -6.499  12.804  68.419  1.00  0.00    -0.080 C  
HETATM    4  C   UNL     1      -8.342  14.129  67.172  1.00  0.00    -0.189 A  
HETATM    5  C   UNL     1      -9.025  15.303  66.801  1.00  0.00    -0.262 A  
HETATM    6  C   UNL     1     -10.371  12.854  66.624  1.00  0.00    -0.251 A  
HETATM    7  C   UNL     1     -10.363  15.246  66.368  1.00  0.00    -0.296 A  
HETATM    8  C   UNL     1     -11.058  14.030  66.301  1.00  0.00    -0.307 A  
HETATM    9  C   UNL     1      -9.034  12.907  67.020  1.00  0.00    -0.225 A  
HETATM   10  C   UNL     1     -12.503  14.012  65.905  1.00  0.00    -0.513 C  
ENDROOT
BRANCH   5  11
HETATM   11  O   UNL     1      -8.322  16.483  66.779  1.00  0.00    -0.189 OA 
BRANCH  11  12
HETATM   12  C   UNL     1      -9.072  17.644  66.387  1.00  0.00    -0.234 C  
BRANCH  12  13
HETATM   13  C   UNL     1      -8.843  18.756  67.429  1.00  0.00    -0.270 C  
BRANCH  13  14
HETATM   14  N   UNL     1      -7.438  19.194  67.562  1.00  0.00    -0.230 NA 
HETATM   15  C   UNL     1      -7.183  20.445  66.847  1.00  0.00    -0.283 C  
HETATM   16  C   UNL     1      -7.099  19.360  68.978  1.00  0.00    -0.362 C  
ENDBRANCH  13  14
ENDBRANCH  12  13
ENDBRANCH  11  12
ENDBRANCH   5  11
BRANCH   6  17
HETATM   17  O   UNL     1     -11.115  11.642  66.574  1.00  0.00    -0.289 OA 
BRANCH  17  18
HETATM   18  C   UNL     1     -11.355  10.757  67.635  1.00  0.00    -0.252 C  
HETATM   19  O   UNL     1     -10.982   9.598  67.736  1.00  0.00    -0.260 OA 
HETATM   20  C   UNL     1     -12.111  11.475  68.710  1.00  0.00    -0.234 C  
ENDBRANCH  17  18
ENDBRANCH   6  17
TORSDOF 6
ENDMDL
MODEL      102
REMARK 921   NORMALIZED FREE ENERGY PREDICTED BY IDOCK:   -3.80 KCAL/MOL
REMARK 922        TOTAL FREE ENERGY PREDICTED BY IDOCK:   -5.73 KCAL/MOL
REMARK 923 INTER-LIGAND FREE ENERGY PREDICTED BY IDOCK:   -4.95 KCAL/MOL
REMARK 924 INTRA-LIGAND FREE ENERGY PREDICTED BY IDOCK:   -0.78 KCAL/MOL
REMARK 927      BINDING AFFINITY PREDICTED BY RF-SCORE:    0.00 PKD
ROOT
HETATM    1  C   UNL     1     -10.005  10.720  62.862  1.00  0.00    -0.229 C  
HETATM    2  C   UNL     1     -10.065  11.639  64.094  1.00  0.00    -0.338 C  
HETATM    3  C   UNL     1     -11.249  12.602  63.849  1.00  0.00    -0.497 C  
HETATM    4  C   UNL     1     -10.137  10.879  65.431  1.00  0.00    -0.336 A  
HETATM    5  C   UNL     1      -9.371   9.732  65.713  1.00  0.00    -0.221 A  
HETATM    6  C   UNL     1     -11.185  10.645  67.641  1.00  0.00    -0.290 A  
HETATM    7  C   UNL     1      -9.528   9.049  66.934  1.00  0.00    -0.219 A  
HETATM    8  C   UNL     1     -10.453   9.479  67.896  1.00  0.00    -0.293 A  
HETATM    9  C   UNL     1     -11.003  11.340  66.446  1.00  0.00    -0.285 A  
HETATM   10  C   UNL     1     -10.649   8.689  69.155  1.00  0.00    -0.193 C  
ENDROOT
BRANCH   5  11
HETATM   11  O   UNL     1      -8.401   9.360  64.813  1.00  0.00    -0.135 OA 
BRANCH  11  12
HETATM   12  C   UNL     1      -7.067   9.790  65.126  1.00  0.00    -0.121 C  
BRANCH  12  13
HETATM   13  C   UNL     1      -6.192   8.546  65.372  1.00  0.00    -0.049 C  
BRANCH  13  14
HETATM   14  N   UNL     1      -5.631   8.451  66.737  1.00  0.00    -0.036 NA 
HETATM   15  C   UNL     1      -5.864   9.670  67.512  1.00  0.00    -0.047 C  
HETATM   16  C   UNL     1      -6.215   7.304  67.438  1.00  0.00    -0.050 C  
ENDBRANCH  13  14
ENDBRANCH  12  13
ENDBRANCH  11  12
ENDBRANCH   5  11
BRANCH   6  17
HETATM   17  O   UNL     1     -12.135  11.034  68.626  1.00  0.00    -0.551 OA 
BRANCH  17  18
HETATM   18  C   UNL     1     -11.961  12.000  69.628  1.00  0.00    -0.293 C  
HETATM   19  O   UNL     1     -11.592  13.157  69.489  1.00  0.00    -0.285 OA 
HETATM   20  C   UNL     1     -12.369  11.418  70.946  1.00  0.00    -0.483 C  
ENDBRANCH  17  18
ENDBRANCH   6  17
TORSDOF 6
ENDMDL
MODEL      103
REMARK 921   NORMALIZED FREE ENERGY PREDICTED BY IDOCK:   -3.79 KCAL/MOL
REMARK 922        TOTAL FREE ENERGY PREDICTED BY IDOCK:   -5.73 KCAL/MOL
REMARK 923 INTER-LIGAND FREE ENERGY PREDICTED BY IDOCK:   -5.14 KCAL/MOL
REMARK 924 INTRA-LIGAND FREE ENERGY PREDICTED BY IDOCK:   -0.59 KCAL/MOL
REMARK 927      BINDING AFFINITY PREDICTED BY RF-SCORE:    0.00 PKD
ROOT
HETATM    1  C   UNL     1      -9.820   8.955  66.863  1.00  0.00    -0.288 C  
HETATM    2  C   UNL     1      -9.828  10.243  67.703  1.00  0.00    -0.199 C  
HETATM    3  C   UNL     1     -10.225  11.381  66.735  1.00  0.00    -0.258 C  
HETATM    4  C   UNL     1     -10.705  10.154  68.965  1.00  0.00    -0.249 A  
HETATM    5  C   UNL     1     -10.747   9.023  69.802  1.00  0.00    -0.225 A  
HETATM    6  C   UNL     1     -12.400  11.202  70.402  1.00  0.00    -0.344 A  
HETATM    7  C   UNL     1     -11.617   8.984  70.909  1.00  0.00    -0.344 A  
HETATM    8  C   UNL     1     -12.470  10.057  71.204  1.00  0.00    -0.480 A  
HETATM    9  C   UNL     1     -11.513  11.253  69.327  1.00  0.00    -0.369 A  
HETATM   10  C   UNL     1     -13.436   9.956  72.346  1.00  0.00    -0.301 C  
ENDROOT
BRANCH   5  11
HETATM   11  O   UNL     1      -9.849   8.009  69.570  1.00  0.00    -0.176 OA 
BRANCH  11  12
HETATM   12  C   UNL     1      -9.618   7.121  70.675  1.00  0.00    -0.165 C  
BRANCH  12  13
HETATM   13  C   UNL     1     -10.290   5.768  70.372  1.00  0.00    -0.244 C  
BRANCH  13  14
HETATM   14  N   UNL     1     -10.527   4.919  71.559  1.00  0.00    -0.154 NA 
HETATM   15  C   UNL     1      -9.317   4.206  71.973  1.00  0.00    -0.130 C  
HETATM   16  C   UNL     1     -11.016   5.740  72.670  1.00  0.00    -0.268 C  
ENDBRANCH  13  14
ENDBRANCH  12  13
ENDBRANCH  11  12
ENDBRANCH   5  11
BRANCH   6  17
HETATM   17  O   UNL     1     -13.301  12.259  70.712  1.00  0.00     0.300 OA 
BRANCH  17  18
HETATM   18  C   UNL     1     -12.966  13.562  71.108  1.00  0.00    -0.262 C  
HETATM   19  O   UNL     1     -12.468  14.443  70.422  1.00  0.00    -0.327 OA 
HETATM   20  C   UNL     1     -13.379  13.763  72.533  1.00  0.00    -0.656 C  
ENDBRANCH  17  18
ENDBRANCH   6  17
TORSDOF 6
ENDMDL
MODEL      104
REMARK 921   NORMALIZED FREE ENERGY PREDICTED BY IDOCK:   -3.79 KCAL/MOL
REMARK 922        TOTAL FREE ENERGY PREDICTED BY IDOCK:   -5.72 KCAL/MOL
REMARK 923 INTER-LIGAND FREE ENERGY PREDICTED BY IDOCK:   -4.95 KCAL/MOL
REMARK 924 INTRA-LIGAND FREE ENERGY PREDICTED BY IDOCK:   -0.77 KCAL/MOL
REMARK 927      BINDING AFFINITY PREDICTED BY RF-SCORE:    0.00 PKD
ROOT
HETATM    1  C   UNL     1     -10.153   9.602  66.234  1.00  0.00    -0.322 C  
HETATM    2  C   UNL     1      -9.776  10.008  67.668  1.00  0.00    -0.185 C  
HETATM    3  C   UNL     1     -10.315  11.444  67.860  1.00  0.00    -0.204 C  
HETATM    4  C   UNL     1     -10.247   9.009  68.739  1.00  0.00    -0.226 A  
HETATM    5  C   UNL     1     -10.162   7.612  68.588  1.00  0.00    -0.199 A  
HETATM    6  C   UNL     1     -11.322   8.644  70.918  1.00  0.00    -0.272 A  
HETATM    7  C   UNL     1     -10.667   6.753  69.583  1.00  0.00    -0.290 A  
HETATM    8  C   UNL     1     -11.276   7.256  70.741  1.00  0.00    -0.300 A  
HETATM    9  C   UNL     1     -10.790   9.494  69.949  1.00  0.00    -0.272 A  
HETATM   10  C   UNL     1     -11.868   6.315  71.747  1.00  0.00    -0.342 C  
ENDROOT
BRANCH   5  11
HETATM   11  O   UNL     1      -9.487   7.116  67.499  1.00  0.00    -0.123 OA 
BRANCH  11  12
HETATM   12  C   UNL     1      -8.233   6.476  67.785  1.00  0.00    -0.115 C  
BRANCH  12  13
HETATM   13  C   UNL     1      -7.116   7.213  67.022  1.00  0.00    -0.090 C  
BRANCH  13  14
HETATM   14  N   UNL     1      -6.542   8.371  67.741  1.00  0.00    -0.060 NA 
HETATM   15  C   UNL     1      -5.344   8.006  68.499  1.00  0.00    -0.032 C  
HETATM   16  C   UNL     1      -6.216   9.437  66.791  1.00  0.00    -0.065 C  
ENDBRANCH  13  14
ENDBRANCH  12  13
ENDBRANCH  11  12
ENDBRANCH   5  11
BRANCH   6  17
HETATM   17  O   UNL     1     -11.973   9.119  72.091  1.00  0.00    -0.354 OA 
BRANCH  17  18
HETATM   18  C   UNL     1     -13.277   9.628  72.182  1.00  0.00    -0.444 C  
HETATM   19  O   UNL     1     -14.293   9.020  72.485  1.00  0.00    -0.570 OA 
HETATM   20  C   UNL     1     -13.248  11.100  71.910  1.00  0.00    -0.488 C  
ENDBRANCH  17  18
ENDBRANCH   6  17
TORSDOF 6
ENDMDL
MODEL      105
REMARK 921   NORMALIZED FREE ENERGY PREDICTED BY IDOCK:   -3.78 KCAL/MOL
REMARK 922        TOTAL FREE ENERGY PREDICTED BY IDOCK:   -5.71 KCAL/MOL
REMARK 923 INTER-LIGAND FREE ENERGY PREDICTED BY IDOCK:   -5.09 KCAL/MOL
REMARK 924 INTRA-LIGAND FREE ENERGY PREDICTED BY IDOCK:   -0.62 KCAL/MOL
REMARK 927      BINDING AFFINITY PREDICTED BY RF-SCORE:    0.00 PKD
ROOT
HETATM    1  C   UNL     1      -6.837  10.805  67.400  1.00  0.00    -0.078 C  
HETATM    2  C   UNL     1      -7.796  11.620  68.285  1.00  0.00    -0.136 C  
HETATM    3  C   UNL     1      -6.975  12.822  68.807  1.00  0.00    -0.096 C  
HETATM    4  C   UNL     1      -9.107  12.009  67.581  1.00  0.00    -0.179 A  
HETATM    5  C   UNL     1      -9.833  11.133  66.752  1.00  0.00    -0.200 A  
HETATM    6  C   UNL     1     -10.767  13.752  67.084  1.00  0.00    -0.281 A  
HETATM    7  C   UNL     1     -10.995  11.573  66.090  1.00  0.00    -0.320 A  
HETATM    8  C   UNL     1     -11.458  12.890  66.225  1.00  0.00    -0.395 A  
HETATM    9  C   UNL     1      -9.636  13.305  67.767  1.00  0.00    -0.214 A  
HETATM   10  C   UNL     1     -12.657  13.347  65.450  1.00  0.00    -0.528 C  
ENDROOT
BRANCH   5  11
HETATM   11  O   UNL     1      -9.435   9.820  66.688  1.00  0.00    -0.158 OA 
BRANCH  11  12
HETATM   12  C   UNL     1     -10.466   8.847  66.919  1.00  0.00    -0.234 C  
BRANCH  12  13
HETATM   13  C   UNL     1     -10.233   8.198  68.297  1.00  0.00    -0.206 C  
BRANCH  13  14
HETATM   14  N   UNL     1     -10.831   6.854  68.452  1.00  0.00    -0.204 NA 
HETATM   15  C   UNL     1      -9.993   5.810  67.859  1.00  0.00    -0.137 C  
HETATM   16  C   UNL     1     -11.045   6.564  69.872  1.00  0.00    -0.371 C  
ENDBRANCH  13  14
ENDBRANCH  12  13
ENDBRANCH  11  12
ENDBRANCH   5  11
BRANCH   6  17
HETATM   17  O   UNL     1     -11.248  15.089  67.174  1.00  0.00    -0.331 OA 
BRANCH  17  18
HETATM   18  C   UNL     1     -11.151  15.945  68.280  1.00  0.00    -0.345 C  
HETATM   19  O   UNL     1     -10.519  16.988  68.360  1.00  0.00    -0.327 OA 
HETATM   20  C   UNL     1     -12.020  15.422  69.382  1.00  0.00    -0.351 C  
ENDBRANCH  17  18
ENDBRANCH   6  17
TORSDOF 6
ENDMDL
MODEL      106
REMARK 921   NORMALIZED FREE ENERGY PREDICTED BY IDOCK:   -3.76 KCAL/MOL
REMARK 922        TOTAL FREE ENERGY PREDICTED BY IDOCK:   -5.69 KCAL/MOL
REMARK 923 INTER-LIGAND FREE ENERGY PREDICTED BY IDOCK:   -5.00 KCAL/MOL
REMARK 924 INTRA-LIGAND FREE ENERGY PREDICTED BY IDOCK:   -0.68 KCAL/MOL
REMARK 927      BINDING AFFINITY PREDICTED BY RF-SCORE:    0.00 PKD
ROOT
HETATM    1  C   UNL     1      -9.678  10.815  66.528  1.00  0.00    -0.236 C  
HETATM    2  C   UNL     1     -10.371  11.389  67.776  1.00  0.00    -0.206 C  
HETATM    3  C   UNL     1     -11.868  11.514  67.411  1.00  0.00    -0.108 C  
HETATM    4  C   UNL     1     -10.099  10.585  69.060  1.00  0.00    -0.230 A  
HETATM    5  C   UNL     1      -8.835  10.066  69.398  1.00  0.00    -0.190 A  
HETATM    6  C   UNL     1     -10.999   9.548  71.098  1.00  0.00    -0.368 A  
HETATM    7  C   UNL     1      -8.668   9.288  70.559  1.00  0.00    -0.276 A  
HETATM    8  C   UNL     1      -9.749   8.997  71.404  1.00  0.00    -0.369 A  
HETATM    9  C   UNL     1     -11.155  10.348  69.966  1.00  0.00    -0.379 A  
HETATM   10  C   UNL     1      -9.553   8.106  72.593  1.00  0.00    -0.352 C  
ENDROOT
BRANCH   5  11
HETATM   11  O   UNL     1      -7.758  10.422  68.622  1.00  0.00    -0.091 OA 
BRANCH  11  12
HETATM   12  C   UNL     1      -6.932  11.471  69.153  1.00  0.00    -0.113 C  
BRANCH  12  13
HETATM   13  C   UNL     1      -6.793  12.577  68.089  1.00  0.00    -0.084 C  
BRANCH  13  14
HETATM   14  N   UNL     1      -7.041  13.946  68.590  1.00  0.00    -0.104 NA 
HETATM   15  C   UNL     1      -6.267  14.947  67.855  1.00  0.00    -0.160 C  
HETATM   16  C   UNL     1      -8.468  14.262  68.495  1.00  0.00    -0.164 C  
ENDBRANCH  13  14
ENDBRANCH  12  13
ENDBRANCH  11  12
ENDBRANCH   5  11
BRANCH   6  17
HETATM   17  O   UNL     1     -12.078   9.208  71.961  1.00  0.00    -0.367 OA 
BRANCH  17  18
HETATM   18  C   UNL     1     -13.062   8.234  71.734  1.00  0.00    -0.344 C  
HETATM   19  O   UNL     1     -12.901   7.099  71.310  1.00  0.00    -0.380 OA 
HETATM   20  C   UNL     1     -14.392   8.773  72.163  1.00  0.00    -0.481 C  
ENDBRANCH  17  18
ENDBRANCH   6  17
TORSDOF 6
ENDMDL
MODEL      107
REMARK 921   NORMALIZED FREE ENERGY PREDICTED BY IDOCK:   -3.76 KCAL/MOL
REMARK 922        TOTAL FREE ENERGY PREDICTED BY IDOCK:   -5.68 KCAL/MOL
REMARK 923 INTER-LIGAND FREE ENERGY PREDICTED BY IDOCK:   -4.96 KCAL/MOL
REMARK 924 INTRA-LIGAND FREE ENERGY PREDICTED BY IDOCK:   -0.72 KCAL/MOL
REMARK 927      BINDING AFFINITY PREDICTED BY RF-SCORE:    0.00 PKD
ROOT
HETATM    1  C   UNL     1     -12.424  12.122  63.943  1.00  0.00    -0.581 C  
HETATM    2  C   UNL     1     -11.475  13.332  63.902  1.00  0.00    -0.409 C  
HETATM    3  C   UNL     1     -12.382  14.580  63.800  1.00  0.00     0.104 C  
HETATM    4  C   UNL     1     -10.474  13.374  65.070  1.00  0.00    -0.378 A  
HETATM    5  C   UNL     1      -9.797  12.238  65.552  1.00  0.00    -0.206 A  
HETATM    6  C   UNL     1      -9.373  14.696  66.824  1.00  0.00    -0.257 A  
HETATM    7  C   UNL     1      -8.938  12.335  66.664  1.00  0.00    -0.189 A  
HETATM    8  C   UNL     1      -8.739  13.554  67.327  1.00  0.00    -0.228 A  
HETATM    9  C   UNL     1     -10.196  14.605  65.702  1.00  0.00    -0.382 A  
HETATM   10  C   UNL     1      -7.875  13.610  68.551  1.00  0.00    -0.131 C  
ENDROOT
BRANCH   5  11
HETATM   11  O   UNL     1      -9.919  11.062  64.851  1.00  0.00    -0.245 OA 
BRANCH  11  12
HETATM   12  C   UNL     1      -9.863   9.862  65.639  1.00  0.00    -0.298 C  
BRANCH  12  13
HETATM   13  C   UNL     1      -8.708   8.983  65.122  1.00  0.00    -0.189 C  
BRANCH  13  14
HETATM   14  N   UNL     1      -7.944   9.571  64.000  1.00  0.00    -0.132 NA 
HETATM   15  C   UNL     1      -6.564   9.880  64.379  1.00  0.00    -0.125 C  
HETATM   16  C   UNL     1      -7.946   8.652  62.859  1.00  0.00    -0.163 C  
ENDBRANCH  13  14
ENDBRANCH  12  13
ENDBRANCH  11  12
ENDBRANCH   5  11
BRANCH   6  17
HETATM   17  O   UNL     1      -9.172  15.909  67.541  1.00  0.00    -0.205 OA 
BRANCH  17  18
HETATM   18  C   UNL     1      -8.440  17.027  67.114  1.00  0.00    -0.202 C  
HETATM   19  O   UNL     1      -8.378  17.488  65.983  1.00  0.00    -0.495 OA 
HETATM   20  C   UNL     1      -7.764  17.650  68.296  1.00  0.00    -0.253 C  
ENDBRANCH  17  18
ENDBRANCH   6  17
TORSDOF 6
ENDMDL
MODEL      108
REMARK 921   NORMALIZED FREE ENERGY PREDICTED BY IDOCK:   -3.75 KCAL/MOL
REMARK 922        TOTAL FREE ENERGY PREDICTED BY IDOCK:   -5.68 KCAL/MOL
REMARK 923 INTER-LIGAND FREE ENERGY PREDICTED BY IDOCK:   -5.27 KCAL/MOL
REMARK 924 INTRA-LIGAND FREE ENERGY PREDICTED BY IDOCK:   -0.41 KCAL/MOL
REMARK 927      BINDING AFFINITY PREDICTED BY RF-SCORE:    0.00 PKD
ROOT
HETATM    1  C   UNL     1     -10.637  12.332  67.744  1.00  0.00    -0.241 C  
HETATM    2  C   UNL     1     -11.101  10.955  67.239  1.00  0.00    -0.350 C  
HETATM    3  C   UNL     1     -10.350  10.714  65.909  1.00  0.00    -0.291 C  
HETATM    4  C   UNL     1     -10.932   9.827  68.272  1.00  0.00    -0.215 A  
HETATM    5  C   UNL     1     -11.236   9.975  69.638  1.00  0.00    -0.239 A  
HETATM    6  C   UNL     1     -10.190   7.534  68.750  1.00  0.00    -0.197 A  
HETATM    7  C   UNL     1     -11.001   8.920  70.541  1.00  0.00    -0.280 A  
HETATM    8  C   UNL     1     -10.451   7.703  70.114  1.00  0.00    -0.227 A  
HETATM    9  C   UNL     1     -10.455   8.567  67.851  1.00  0.00    -0.262 A  
HETATM   10  C   UNL     1     -10.147   6.626  71.112  1.00  0.00    -0.202 C  
ENDROOT
BRANCH   5  11
HETATM   11  O   UNL     1     -11.857  11.131  70.045  1.00  0.00    -0.297 OA 
BRANCH  11  12
HETATM   12  C   UNL     1     -12.886  10.968  71.034  1.00  0.00    -0.346 C  
BRANCH  12  13
HETATM   13  C   UNL     1     -12.920  12.225  71.924  1.00  0.00    -0.305 C  
BRANCH  13  14
HETATM   14  N   UNL     1     -13.265  13.473  71.212  1.00  0.00    -0.264 NA 
HETATM   15  C   UNL     1     -14.165  14.321  71.995  1.00  0.00    -0.542 C  
HETATM   16  C   UNL     1     -12.046  14.218  70.890  1.00  0.00    -0.347 C  
ENDBRANCH  13  14
ENDBRANCH  12  13
ENDBRANCH  11  12
ENDBRANCH   5  11
BRANCH   6  17
HETATM   17  O   UNL     1      -9.605   6.297  68.357  1.00  0.00    -0.121 OA 
BRANCH  17  18
HETATM   18  C   UNL     1      -9.787   5.630  67.137  1.00  0.00    -0.149 C  
HETATM   19  O   UNL     1     -10.838   5.437  66.544  1.00  0.00    -0.287 OA 
HETATM   20  C   UNL     1      -8.450   5.224  66.598  1.00  0.00    -0.107 C  
ENDBRANCH  17  18
ENDBRANCH   6  17
TORSDOF 6
ENDMDL
MODEL      109
REMARK 921   NORMALIZED FREE ENERGY PREDICTED BY IDOCK:   -3.73 KCAL/MOL
REMARK 922        TOTAL FREE ENERGY PREDICTED BY IDOCK:   -5.65 KCAL/MOL
REMARK 923 INTER-LIGAND FREE ENERGY PREDICTED BY IDOCK:   -4.94 KCAL/MOL
REMARK 924 INTRA-LIGAND FREE ENERGY PREDICTED BY IDOCK:   -0.71 KCAL/MOL
REMARK 927      BINDING AFFINITY PREDICTED BY RF-SCORE:    0.00 PKD
ROOT
HETATM    1  C   UNL     1      -7.888   8.140  71.960  1.00  0.00    -0.150 C  
HETATM    2  C   UNL     1      -8.464   8.998  70.822  1.00  0.00    -0.238 C  
HETATM    3  C   UNL     1      -7.282   9.833  70.278  1.00  0.00    -0.154 C  
HETATM    4  C   UNL     1      -9.208   8.184  69.748  1.00  0.00    -0.151 A  
HETATM    5  C   UNL     1     -10.079   7.119  70.047  1.00  0.00    -0.188 A  
HETATM    6  C   UNL     1      -9.599   7.750  67.361  1.00  0.00    -0.151 A  
HETATM    7  C   UNL     1     -10.682   6.377  69.014  1.00  0.00    -0.339 A  
HETATM    8  C   UNL     1     -10.428   6.664  67.665  1.00  0.00    -0.282 A  
HETATM    9  C   UNL     1      -9.030   8.507  68.385  1.00  0.00    -0.139 A  
HETATM   10  C   UNL     1     -11.028   5.809  66.590  1.00  0.00    -0.208 C  
ENDROOT
BRANCH   5  11
HETATM   11  O   UNL     1     -10.400   6.892  71.364  1.00  0.00    -0.202 OA 
BRANCH  11  12
HETATM   12  C   UNL     1     -11.785   7.065  71.702  1.00  0.00    -0.297 C  
BRANCH  12  13
HETATM   13  C   UNL     1     -11.941   8.379  72.492  1.00  0.00    -0.350 C  
BRANCH  13  14
HETATM   14  N   UNL     1     -13.166   9.144  72.174  1.00  0.00    -0.423 NA 
HETATM   15  C   UNL     1     -12.929  10.151  71.139  1.00  0.00    -0.395 C  
HETATM   16  C   UNL     1     -14.226   8.232  71.739  1.00  0.00    -0.464 C  
ENDBRANCH  13  14
ENDBRANCH  12  13
ENDBRANCH  11  12
ENDBRANCH   5  11
BRANCH   6  17
HETATM   17  O   UNL     1      -9.340   7.994  65.983  1.00  0.00    -0.171 OA 
BRANCH  17  18
HETATM   18  C   UNL     1      -9.143   9.241  65.371  1.00  0.00    -0.222 C  
HETATM   19  O   UNL     1      -9.927  10.178  65.325  1.00  0.00    -0.300 OA 
HETATM   20  C   UNL     1      -7.756   9.298  64.812  1.00  0.00    -0.111 C  
ENDBRANCH  17  18
ENDBRANCH   6  17
TORSDOF 6
ENDMDL
MODEL      110
REMARK 921   NORMALIZED FREE ENERGY PREDICTED BY IDOCK:   -3.73 KCAL/MOL
REMARK 922        TOTAL FREE ENERGY PREDICTED BY IDOCK:   -5.64 KCAL/MOL
REMARK 923 INTER-LIGAND FREE ENERGY PREDICTED BY IDOCK:   -5.14 KCAL/MOL
REMARK 924 INTRA-LIGAND FREE ENERGY PREDICTED BY IDOCK:   -0.51 KCAL/MOL
REMARK 927      BINDING AFFINITY PREDICTED BY RF-SCORE:    0.00 PKD
ROOT
HETATM    1  C   UNL     1      -7.523   8.650  65.663  1.00  0.00    -0.085 C  
HETATM    2  C   UNL     1      -8.047   9.912  64.956  1.00  0.00    -0.140 C  
HETATM    3  C   UNL     1      -8.682   9.427  63.633  1.00  0.00    -0.222 C  
HETATM    4  C   UNL     1      -8.983  10.766  65.829  1.00  0.00    -0.203 A  
HETATM    5  C   UNL     1      -8.747  11.030  67.192  1.00  0.00    -0.135 A  
HETATM    6  C   UNL     1     -11.079  12.036  66.012  1.00  0.00    -0.320 A  
HETATM    7  C   UNL     1      -9.675  11.771  67.948  1.00  0.00    -0.185 A  
HETATM    8  C   UNL     1     -10.861  12.256  67.376  1.00  0.00    -0.277 A  
HETATM    9  C   UNL     1     -10.142  11.333  65.255  1.00  0.00    -0.318 A  
HETATM   10  C   UNL     1     -11.862  12.979  68.226  1.00  0.00    -0.381 C  
ENDROOT
BRANCH   5  11
HETATM   11  O   UNL     1      -7.547  10.635  67.732  1.00  0.00    -0.094 OA 
BRANCH  11  12
HETATM   12  C   UNL     1      -7.595  10.209  69.103  1.00  0.00    -0.103 C  
BRANCH  12  13
HETATM   13  C   UNL     1      -7.589   8.668  69.143  1.00  0.00    -0.089 C  
BRANCH  13  14
HETATM   14  N   UNL     1      -8.885   8.058  69.507  1.00  0.00    -0.143 NA 
HETATM   15  C   UNL     1      -9.690   8.943  70.351  1.00  0.00    -0.191 C  
HETATM   16  C   UNL     1      -9.636   7.720  68.295  1.00  0.00    -0.155 C  
ENDBRANCH  13  14
ENDBRANCH  12  13
ENDBRANCH  11  12
ENDBRANCH   5  11
BRANCH   6  17
HETATM   17  O   UNL     1     -12.305  12.517  65.473  1.00  0.00    -0.600 OA 
BRANCH  17  18
HETATM   18  C   UNL     1     -12.521  13.003  64.175  1.00  0.00    -0.300 C  
HETATM   19  O   UNL     1     -12.517  14.169  63.808  1.00  0.00    -0.791 OA 
HETATM   20  C   UNL     1     -12.701  11.846  63.242  1.00  0.00    -0.407 C  
ENDBRANCH  17  18
ENDBRANCH   6  17
TORSDOF 6
ENDMDL
MODEL      111
REMARK 921   NORMALIZED FREE ENERGY PREDICTED BY IDOCK:   -3.73 KCAL/MOL
REMARK 922        TOTAL FREE ENERGY PREDICTED BY IDOCK:   -5.64 KCAL/MOL
REMARK 923 INTER-LIGAND FREE ENERGY PREDICTED BY IDOCK:   -5.23 KCAL/MOL
REMARK 924 INTRA-LIGAND FREE ENERGY PREDICTED BY IDOCK:   -0.42 KCAL/MOL
REMARK 927      BINDING AFFINITY PREDICTED BY RF-SCORE:    0.00 PKD
ROOT
HETATM    1  C   UNL     1      -8.176   8.343  69.059  1.00  0.00    -0.118 C  
HETATM    2  C   UNL     1      -7.918   9.859  69.095  1.00  0.00    -0.112 C  
HETATM    3  C   UNL     1      -6.547  10.074  68.415  1.00  0.00    -0.054 C  
HETATM    4  C   UNL     1      -9.060  10.696  68.491  1.00  0.00    -0.159 A  
HETATM    5  C   UNL     1     -10.423  10.425  68.716  1.00  0.00    -0.199 A  
HETATM    6  C   UNL     1      -9.736  12.542  67.017  1.00  0.00    -0.213 A  
HETATM    7  C   UNL     1     -11.419  11.195  68.084  1.00  0.00    -0.373 A  
HETATM    8  C   UNL     1     -11.088  12.239  67.209  1.00  0.00    -0.326 A  
HETATM    9  C   UNL     1      -8.750  11.802  67.670  1.00  0.00    -0.159 A  
HETATM   10  C   UNL     1     -12.171  12.992  66.497  1.00  0.00    -0.316 C  
ENDROOT
BRANCH   5  11
HETATM   11  O   UNL     1     -10.751   9.463  69.641  1.00  0.00    -0.225 OA 
BRANCH  11  12
HETATM   12  C   UNL     1     -11.295   9.952  70.877  1.00  0.00    -0.370 C  
BRANCH  12  13
HETATM   13  C   UNL     1     -11.347   8.790  71.888  1.00  0.00    -0.361 C  
BRANCH  13  14
HETATM   14  N   UNL     1     -12.710   8.401  72.309  1.00  0.00    -0.344 NA 
HETATM   15  C   UNL     1     -13.696   9.438  71.998  1.00  0.00    -0.395 C  
HETATM   16  C   UNL     1     -13.096   7.147  71.657  1.00  0.00    -0.361 C  
ENDBRANCH  13  14
ENDBRANCH  12  13
ENDBRANCH  11  12
ENDBRANCH   5  11
BRANCH   6  17
HETATM   17  O   UNL     1      -9.437  13.588  66.099  1.00  0.00    -0.238 OA 
BRANCH  17  18
HETATM   18  C   UNL     1      -9.341  14.958  66.386  1.00  0.00    -0.297 C  
HETATM   19  O   UNL     1      -8.544  15.507  67.133  1.00  0.00    -0.184 OA 
HETATM   20  C   UNL     1     -10.351  15.701  65.568  1.00  0.00    -0.421 C  
ENDBRANCH  17  18
ENDBRANCH   6  17
TORSDOF 6
ENDMDL
MODEL      112
REMARK 921   NORMALIZED FREE ENERGY PREDICTED BY IDOCK:   -3.70 KCAL/MOL
REMARK 922        TOTAL FREE ENERGY PREDICTED BY IDOCK:   -5.60 KCAL/MOL
REMARK 923 INTER-LIGAND FREE ENERGY PREDICTED BY IDOCK:   -4.84 KCAL/MOL
REMARK 924 INTRA-LIGAND FREE ENERGY PREDICTED BY IDOCK:   -0.76 KCAL/MOL
REMARK 927      BINDING AFFINITY PREDICTED BY RF-SCORE:    0.00 PKD
ROOT
HETATM    1  C   UNL     1      -9.626  11.053  66.669  1.00  0.00    -0.216 C  
HETATM    2  C   UNL     1     -10.244  11.597  67.968  1.00  0.00    -0.202 C  
HETATM    3  C   UNL     1     -11.738  11.845  67.658  1.00  0.00    -0.346 C  
HETATM    4  C   UNL     1      -9.994  10.702  69.195  1.00  0.00    -0.228 A  
HETATM    5  C   UNL     1      -8.760  10.079  69.463  1.00  0.00    -0.192 A  
HETATM    6  C   UNL     1     -10.908   9.609  71.197  1.00  0.00    -0.334 A  
HETATM    7  C   UNL     1      -8.617   9.224  70.572  1.00  0.00    -0.271 A  
HETATM    8  C   UNL     1      -9.692   8.957  71.432  1.00  0.00    -0.370 A  
HETATM    9  C   UNL     1     -11.039  10.483  70.118  1.00  0.00    -0.369 A  
HETATM   10  C   UNL     1      -9.526   7.986  72.561  1.00  0.00    -0.297 C  
ENDROOT
BRANCH   5  11
HETATM   11  O   UNL     1      -7.682  10.408  68.677  1.00  0.00    -0.091 OA 
BRANCH  11  12
HETATM   12  C   UNL     1      -6.673   9.393  68.554  1.00  0.00    -0.058 C  
BRANCH  12  13
HETATM   13  C   UNL     1      -6.712   8.827  67.121  1.00  0.00    -0.066 C  
BRANCH  13  14
HETATM   14  N   UNL     1      -7.276   7.464  67.015  1.00  0.00    -0.086 NA 
HETATM   15  C   UNL     1      -8.707   7.485  66.708  1.00  0.00    -0.133 C  
HETATM   16  C   UNL     1      -6.563   6.709  65.981  1.00  0.00    -0.044 C  
ENDBRANCH  13  14
ENDBRANCH  12  13
ENDBRANCH  11  12
ENDBRANCH   5  11
BRANCH   6  17
HETATM   17  O   UNL     1     -11.985   9.291  72.072  1.00  0.00    -0.364 OA 
BRANCH  17  18
HETATM   18  C   UNL     1     -12.984   8.329  71.863  1.00  0.00    -0.347 C  
HETATM   19  O   UNL     1     -12.860   7.230  71.341  1.00  0.00    -0.366 OA 
HETATM   20  C   UNL     1     -14.270   8.823  72.449  1.00  0.00    -0.464 C  
ENDBRANCH  17  18
ENDBRANCH   6  17
TORSDOF 6
ENDMDL
MODEL      113
REMARK 921   NORMALIZED FREE ENERGY PREDICTED BY IDOCK:   -3.70 KCAL/MOL
REMARK 922        TOTAL FREE ENERGY PREDICTED BY IDOCK:   -5.60 KCAL/MOL
REMARK 923 INTER-LIGAND FREE ENERGY PREDICTED BY IDOCK:   -4.90 KCAL/MOL
REMARK 924 INTRA-LIGAND FREE ENERGY PREDICTED BY IDOCK:   -0.70 KCAL/MOL
REMARK 927      BINDING AFFINITY PREDICTED BY RF-SCORE:    0.00 PKD
ROOT
HETATM    1  C   UNL     1     -10.356  17.529  68.851  1.00  0.00    -0.338 C  
HETATM    2  C   UNL     1     -10.557  16.118  69.429  1.00  0.00    -0.300 C  
HETATM    3  C   UNL     1     -12.025  15.739  69.127  1.00  0.00    -0.312 C  
HETATM    4  C   UNL     1      -9.526  15.091  68.930  1.00  0.00    -0.211 A  
HETATM    5  C   UNL     1      -8.153  15.373  68.795  1.00  0.00    -0.166 A  
HETATM    6  C   UNL     1      -9.086  12.842  68.042  1.00  0.00    -0.207 A  
HETATM    7  C   UNL     1      -7.272  14.405  68.275  1.00  0.00    -0.122 A  
HETATM    8  C   UNL     1      -7.731  13.144  67.868  1.00  0.00    -0.147 A  
HETATM    9  C   UNL     1      -9.952  13.788  68.590  1.00  0.00    -0.175 A  
HETATM   10  C   UNL     1      -6.780  12.163  67.251  1.00  0.00    -0.144 C  
ENDROOT
BRANCH   5  11
HETATM   11  O   UNL     1      -7.685  16.572  69.275  1.00  0.00    -0.234 OA 
BRANCH  11  12
HETATM   12  C   UNL     1      -6.491  17.067  68.649  1.00  0.00    -0.172 C  
BRANCH  12  13
HETATM   13  C   UNL     1      -6.708  18.545  68.268  1.00  0.00    -0.224 C  
BRANCH  13  14
HETATM   14  N   UNL     1      -6.925  18.781  66.825  1.00  0.00    -0.197 NA 
HETATM   15  C   UNL     1      -7.326  17.561  66.124  1.00  0.00    -0.311 C  
HETATM   16  C   UNL     1      -7.948  19.813  66.638  1.00  0.00    -0.310 C  
ENDBRANCH  13  14
ENDBRANCH  12  13
ENDBRANCH  11  12
ENDBRANCH   5  11
BRANCH   6  17
HETATM   17  O   UNL     1      -9.522  11.564  67.591  1.00  0.00    -0.163 OA 
BRANCH  17  18
HETATM   18  C   UNL     1     -10.729  11.268  66.942  1.00  0.00    -0.273 C  
HETATM   19  O   UNL     1     -11.822  11.078  67.455  1.00  0.00    -0.571 OA 
HETATM   20  C   UNL     1     -10.505  11.278  65.461  1.00  0.00    -0.323 C  
ENDBRANCH  17  18
ENDBRANCH   6  17
TORSDOF 6
ENDMDL
MODEL      114
REMARK 921   NORMALIZED FREE ENERGY PREDICTED BY IDOCK:   -3.70 KCAL/MOL
REMARK 922        TOTAL FREE ENERGY PREDICTED BY IDOCK:   -5.60 KCAL/MOL
REMARK 923 INTER-LIGAND FREE ENERGY PREDICTED BY IDOCK:   -4.93 KCAL/MOL
REMARK 924 INTRA-LIGAND FREE ENERGY PREDICTED BY IDOCK:   -0.67 KCAL/MOL
REMARK 927      BINDING AFFINITY PREDICTED BY RF-SCORE:    0.00 PKD
ROOT
HETATM    1  C   UNL     1     -11.333  12.466  68.992  1.00  0.00    -0.336 C  
HETATM    2  C   UNL     1     -11.674  11.554  67.802  1.00  0.00    -0.299 C  
HETATM    3  C   UNL     1     -11.751  12.478  66.565  1.00  0.00    -0.454 C  
HETATM    4  C   UNL     1     -10.715  10.362  67.640  1.00  0.00    -0.335 A  
HETATM    5  C   UNL     1     -10.238   9.597  68.721  1.00  0.00    -0.196 A  
HETATM    6  C   UNL     1      -9.339   8.983  66.141  1.00  0.00    -0.232 A  
HETATM    7  C   UNL     1      -9.314   8.556  68.509  1.00  0.00    -0.139 A  
HETATM    8  C   UNL     1      -8.834   8.257  67.225  1.00  0.00    -0.137 A  
HETATM    9  C   UNL     1     -10.281   9.991  66.348  1.00  0.00    -0.290 A  
HETATM   10  C   UNL     1      -7.797   7.190  67.042  1.00  0.00    -0.108 C  
ENDROOT
BRANCH   5  11
HETATM   11  O   UNL     1     -10.772   9.828  69.966  1.00  0.00    -0.241 OA 
BRANCH  11  12
HETATM   12  C   UNL     1     -10.303   8.962  71.012  1.00  0.00    -0.253 C  
BRANCH  12  13
HETATM   13  C   UNL     1     -11.368   8.909  72.125  1.00  0.00    -0.299 C  
BRANCH  13  14
HETATM   14  N   UNL     1     -12.004   7.587  72.304  1.00  0.00    -0.286 NA 
HETATM   15  C   UNL     1     -13.152   7.407  71.414  1.00  0.00    -0.350 C  
HETATM   16  C   UNL     1     -11.025   6.525  72.063  1.00  0.00    -0.247 C  
ENDBRANCH  13  14
ENDBRANCH  12  13
ENDBRANCH  11  12
ENDBRANCH   5  11
BRANCH   6  17
HETATM   17  O   UNL     1      -8.808   8.672  64.858  1.00  0.00    -0.145 OA 
BRANCH  17  18
HETATM   18  C   UNL     1      -8.484   9.579  63.839  1.00  0.00    -0.190 C  
HETATM   19  O   UNL     1      -9.229  10.032  62.982  1.00  0.00    -0.262 OA 
HETATM   20  C   UNL     1      -7.052   9.989  63.985  1.00  0.00    -0.126 C  
ENDBRANCH  17  18
ENDBRANCH   6  17
TORSDOF 6
ENDMDL
MODEL      115
REMARK 921   NORMALIZED FREE ENERGY PREDICTED BY IDOCK:   -3.70 KCAL/MOL
REMARK 922        TOTAL FREE ENERGY PREDICTED BY IDOCK:   -5.60 KCAL/MOL
REMARK 923 INTER-LIGAND FREE ENERGY PREDICTED BY IDOCK:   -5.02 KCAL/MOL
REMARK 924 INTRA-LIGAND FREE ENERGY PREDICTED BY IDOCK:   -0.58 KCAL/MOL
REMARK 927      BINDING AFFINITY PREDICTED BY RF-SCORE:    0.00 PKD
ROOT
HETATM    1  C   UNL     1      -9.465   3.705  71.897  1.00  0.00    -0.203 C  
HETATM    2  C   UNL     1     -10.755   4.513  72.111  1.00  0.00    -0.067 C  
HETATM    3  C   UNL     1     -10.891   4.704  73.639  1.00  0.00    -0.375 C  
HETATM    4  C   UNL     1     -10.806   5.823  71.305  1.00  0.00    -0.313 A  
HETATM    5  C   UNL     1     -10.378   5.929  69.968  1.00  0.00    -0.244 A  
HETATM    6  C   UNL     1     -11.295   8.231  71.271  1.00  0.00    -0.267 A  
HETATM    7  C   UNL     1     -10.395   7.172  69.307  1.00  0.00    -0.209 A  
HETATM    8  C   UNL     1     -10.825   8.338  69.957  1.00  0.00    -0.232 A  
HETATM    9  C   UNL     1     -11.310   6.993  71.913  1.00  0.00    -0.291 A  
HETATM   10  C   UNL     1     -10.763   9.658  69.249  1.00  0.00    -0.246 C  
ENDROOT
BRANCH   5  11
HETATM   11  O   UNL     1     -10.041   4.776  69.300  1.00  0.00    -0.205 OA 
BRANCH  11  12
HETATM   12  C   UNL     1      -9.311   4.959  68.077  1.00  0.00    -0.129 C  
BRANCH  12  13
HETATM   13  C   UNL     1      -8.824   3.583  67.582  1.00  0.00    -0.125 C  
BRANCH  13  14
HETATM   14  N   UNL     1      -9.164   3.281  66.175  1.00  0.00    -0.159 NA 
HETATM   15  C   UNL     1     -10.036   4.301  65.591  1.00  0.00    -0.224 C  
HETATM   16  C   UNL     1      -7.939   3.168  65.378  1.00  0.00    -0.086 C  
ENDBRANCH  13  14
ENDBRANCH  12  13
ENDBRANCH  11  12
ENDBRANCH   5  11
BRANCH   6  17
HETATM   17  O   UNL     1     -11.695   9.439  71.909  1.00  0.00    -0.374 OA 
BRANCH  17  18
HETATM   18  C   UNL     1     -13.008   9.882  72.124  1.00  0.00    -0.379 C  
HETATM   19  O   UNL     1     -13.988   9.203  72.392  1.00  0.00    -0.471 OA 
HETATM   20  C   UNL     1     -13.040  11.377  72.041  1.00  0.00    -0.423 C  
ENDBRANCH  17  18
ENDBRANCH   6  17
TORSDOF 6
ENDMDL
MODEL      116
REMARK 921   NORMALIZED FREE ENERGY PREDICTED BY IDOCK:   -3.69 KCAL/MOL
REMARK 922        TOTAL FREE ENERGY PREDICTED BY IDOCK:   -5.59 KCAL/MOL
REMARK 923 INTER-LIGAND FREE ENERGY PREDICTED BY IDOCK:   -5.02 KCAL/MOL
REMARK 924 INTRA-LIGAND FREE ENERGY PREDICTED BY IDOCK:   -0.57 KCAL/MOL
REMARK 927      BINDING AFFINITY PREDICTED BY RF-SCORE:    0.00 PKD
ROOT
HETATM    1  C   UNL     1     -11.471   8.800  72.130  1.00  0.00    -0.421 C  
HETATM    2  C   UNL     1     -12.076   9.600  70.963  1.00  0.00    -0.421 C  
HETATM    3  C   UNL     1     -12.964  10.688  71.609  1.00  0.00    -0.582 C  
HETATM    4  C   UNL     1     -11.028  10.145  69.977  1.00  0.00    -0.364 A  
HETATM    5  C   UNL     1      -9.917   9.401  69.536  1.00  0.00    -0.191 A  
HETATM    6  C   UNL     1     -10.206  12.040  68.646  1.00  0.00    -0.177 A  
HETATM    7  C   UNL     1      -8.962   9.981  68.679  1.00  0.00    -0.136 A  
HETATM    8  C   UNL     1      -9.081  11.311  68.248  1.00  0.00    -0.173 A  
HETATM    9  C   UNL     1     -11.169  11.454  69.468  1.00  0.00    -0.322 A  
HETATM   10  C   UNL     1      -8.010  11.921  67.394  1.00  0.00    -0.162 C  
ENDROOT
BRANCH   5  11
HETATM   11  O   UNL     1      -9.844   8.073  69.882  1.00  0.00    -0.182 OA 
BRANCH  11  12
HETATM   12  C   UNL     1      -8.710   7.359  69.366  1.00  0.00    -0.137 C  
BRANCH  12  13
HETATM   13  C   UNL     1      -7.864   6.853  70.550  1.00  0.00    -0.105 C  
BRANCH  13  14
HETATM   14  N   UNL     1      -8.495   5.774  71.339  1.00  0.00    -0.127 NA 
HETATM   15  C   UNL     1      -7.698   4.546  71.326  1.00  0.00    -0.077 C  
HETATM   16  C   UNL     1      -8.691   6.217  72.722  1.00  0.00    -0.123 C  
ENDBRANCH  13  14
ENDBRANCH  12  13
ENDBRANCH  11  12
ENDBRANCH   5  11
BRANCH   6  17
HETATM   17  O   UNL     1     -10.278  13.395  68.215  1.00  0.00    -0.238 OA 
BRANCH  17  18
HETATM   18  C   UNL     1     -11.439  14.164  68.048  1.00  0.00    -0.312 C  
HETATM   19  O   UNL     1     -12.188  14.179  67.082  1.00  0.00    -0.421 OA 
HETATM   20  C   UNL     1     -11.685  14.956  69.295  1.00  0.00    -0.344 C  
ENDBRANCH  17  18
ENDBRANCH   6  17
TORSDOF 6
ENDMDL
MODEL      117
REMARK 921   NORMALIZED FREE ENERGY PREDICTED BY IDOCK:   -3.68 KCAL/MOL
REMARK 922        TOTAL FREE ENERGY PREDICTED BY IDOCK:   -5.58 KCAL/MOL
REMARK 923 INTER-LIGAND FREE ENERGY PREDICTED BY IDOCK:   -5.02 KCAL/MOL
REMARK 924 INTRA-LIGAND FREE ENERGY PREDICTED BY IDOCK:   -0.56 KCAL/MOL
REMARK 927      BINDING AFFINITY PREDICTED BY RF-SCORE:    0.00 PKD
ROOT
HETATM    1  C   UNL     1      -9.640   8.800  69.422  1.00  0.00    -0.163 C  
HETATM    2  C   UNL     1     -10.855   9.536  68.834  1.00  0.00    -0.177 C  
HETATM    3  C   UNL     1     -11.218  10.641  69.853  1.00  0.00    -0.378 C  
HETATM    4  C   UNL     1     -10.633  10.049  67.400  1.00  0.00    -0.330 A  
HETATM    5  C   UNL     1      -9.984   9.301  66.400  1.00  0.00    -0.286 A  
HETATM    6  C   UNL     1     -10.852  11.892  65.789  1.00  0.00    -0.295 A  
HETATM    7  C   UNL     1      -9.761   9.854  65.124  1.00  0.00    -0.376 A  
HETATM    8  C   UNL     1     -10.165  11.160  64.814  1.00  0.00    -0.365 A  
HETATM    9  C   UNL     1     -11.104  11.331  67.041  1.00  0.00    -0.356 A  
HETATM   10  C   UNL     1      -9.849  11.745  63.471  1.00  0.00    -0.386 C  
ENDROOT
BRANCH   5  11
HETATM   11  O   UNL     1      -9.667   7.992  66.671  1.00  0.00    -0.210 OA 
BRANCH  11  12
HETATM   12  C   UNL     1      -8.437   7.520  66.096  1.00  0.00    -0.144 C  
BRANCH  12  13
HETATM   13  C   UNL     1      -8.719   6.212  65.331  1.00  0.00    -0.062 C  
BRANCH  13  14
HETATM   14  N   UNL     1      -7.578   5.708  64.537  1.00  0.00    -0.076 NA 
HETATM   15  C   UNL     1      -7.174   4.363  64.950  1.00  0.00    -0.070 C  
HETATM   16  C   UNL     1      -7.926   5.701  63.114  1.00  0.00    -0.101 C  
ENDBRANCH  13  14
ENDBRANCH  12  13
ENDBRANCH  11  12
ENDBRANCH   5  11
BRANCH   6  17
HETATM   17  O   UNL     1     -11.221  13.224  65.450  1.00  0.00    -0.286 OA 
BRANCH  17  18
HETATM   18  C   UNL     1     -10.649  14.407  65.941  1.00  0.00    -0.307 C  
HETATM   19  O   UNL     1      -9.642  14.970  65.537  1.00  0.00    -0.313 OA 
HETATM   20  C   UNL     1     -11.513  14.950  67.037  1.00  0.00    -0.333 C  
ENDBRANCH  17  18
ENDBRANCH   6  17
TORSDOF 6
ENDMDL
MODEL      118
REMARK 921   NORMALIZED FREE ENERGY PREDICTED BY IDOCK:   -3.67 KCAL/MOL
REMARK 922        TOTAL FREE ENERGY PREDICTED BY IDOCK:   -5.57 KCAL/MOL
REMARK 923 INTER-LIGAND FREE ENERGY PREDICTED BY IDOCK:   -4.84 KCAL/MOL
REMARK 924 INTRA-LIGAND FREE ENERGY PREDICTED BY IDOCK:   -0.72 KCAL/MOL
REMARK 927      BINDING AFFINITY PREDICTED BY RF-SCORE:    0.00 PKD
ROOT
HETATM    1  C   UNL     1      -6.696   8.900  68.281  1.00  0.00    -0.065 C  
HETATM    2  C   UNL     1      -7.911   7.960  68.204  1.00  0.00    -0.125 C  
HETATM    3  C   UNL     1      -7.443   6.611  68.797  1.00  0.00    -0.096 C  
HETATM    4  C   UNL     1      -9.179   8.532  68.862  1.00  0.00    -0.146 A  
HETATM    5  C   UNL     1      -9.588   9.872  68.723  1.00  0.00    -0.160 A  
HETATM    6  C   UNL     1     -11.105   8.165  70.343  1.00  0.00    -0.239 A  
HETATM    7  C   UNL     1     -10.728  10.346  69.400  1.00  0.00    -0.277 A  
HETATM    8  C   UNL     1     -11.480   9.509  70.237  1.00  0.00    -0.256 A  
HETATM    9  C   UNL     1      -9.997   7.687  69.644  1.00  0.00    -0.185 A  
HETATM   10  C   UNL     1     -12.645  10.062  71.001  1.00  0.00    -0.463 C  
ENDROOT
BRANCH   5  11
HETATM   11  O   UNL     1      -8.908  10.671  67.835  1.00  0.00    -0.129 OA 
BRANCH  11  12
HETATM   12  C   UNL     1      -9.540  10.857  66.559  1.00  0.00    -0.194 C  
BRANCH  12  13
HETATM   13  C   UNL     1      -9.642  12.368  66.273  1.00  0.00    -0.241 C  
BRANCH  13  14
HETATM   14  N   UNL     1     -10.984  12.825  65.856  1.00  0.00    -0.270 NA 
HETATM   15  C   UNL     1     -11.873  13.032  67.000  1.00  0.00    -0.377 C  
HETATM   16  C   UNL     1     -10.872  14.069  65.091  1.00  0.00    -0.369 C  
ENDBRANCH  13  14
ENDBRANCH  12  13
ENDBRANCH  11  12
ENDBRANCH   5  11
BRANCH   6  17
HETATM   17  O   UNL     1     -11.873   7.352  71.224  1.00  0.00    -0.280 OA 
BRANCH  17  18
HETATM   18  C   UNL     1     -11.420   6.706  72.383  1.00  0.00    -0.262 C  
HETATM   19  O   UNL     1     -11.538   5.523  72.669  1.00  0.00    -0.300 OA 
HETATM   20  C   UNL     1     -10.679   7.689  73.234  1.00  0.00    -0.409 C  
ENDBRANCH  17  18
ENDBRANCH   6  17
TORSDOF 6
ENDMDL
MODEL      119
REMARK 921   NORMALIZED FREE ENERGY PREDICTED BY IDOCK:   -3.67 KCAL/MOL
REMARK 922        TOTAL FREE ENERGY PREDICTED BY IDOCK:   -5.56 KCAL/MOL
REMARK 923 INTER-LIGAND FREE ENERGY PREDICTED BY IDOCK:   -5.08 KCAL/MOL
REMARK 924 INTRA-LIGAND FREE ENERGY PREDICTED BY IDOCK:   -0.48 KCAL/MOL
REMARK 927      BINDING AFFINITY PREDICTED BY RF-SCORE:    0.00 PKD
ROOT
HETATM    1  C   UNL     1     -12.020  13.875  68.323  1.00  0.00    -0.392 C  
HETATM    2  C   UNL     1     -11.453  13.131  69.544  1.00  0.00    -0.291 C  
HETATM    3  C   UNL     1     -12.490  13.318  70.675  1.00  0.00    -0.373 C  
HETATM    4  C   UNL     1     -11.087  11.664  69.260  1.00  0.00    -0.291 A  
HETATM    5  C   UNL     1     -10.439  11.239  68.085  1.00  0.00    -0.189 A  
HETATM    6  C   UNL     1     -11.181   9.316  69.981  1.00  0.00    -0.168 A  
HETATM    7  C   UNL     1     -10.186   9.872  67.862  1.00  0.00    -0.234 A  
HETATM    8  C   UNL     1     -10.578   8.897  68.790  1.00  0.00    -0.185 A  
HETATM    9  C   UNL     1     -11.400  10.674  70.217  1.00  0.00    -0.401 A  
HETATM   10  C   UNL     1     -10.359   7.444  68.489  1.00  0.00    -0.221 C  
ENDROOT
BRANCH   5  11
HETATM   11  O   UNL     1      -9.974  12.197  67.216  1.00  0.00    -0.201 OA 
BRANCH  11  12
HETATM   12  C   UNL     1      -8.583  12.098  66.871  1.00  0.00    -0.191 C  
BRANCH  12  13
HETATM   13  C   UNL     1      -7.741  12.584  68.066  1.00  0.00    -0.140 C  
BRANCH  13  14
HETATM   14  N   UNL     1      -7.279  13.984  67.964  1.00  0.00    -0.125 NA 
HETATM   15  C   UNL     1      -8.096  14.891  68.771  1.00  0.00    -0.162 C  
HETATM   16  C   UNL     1      -5.879  14.080  68.384  1.00  0.00    -0.103 C  
ENDBRANCH  13  14
ENDBRANCH  12  13
ENDBRANCH  11  12
ENDBRANCH   5  11
BRANCH   6  17
HETATM   17  O   UNL     1     -11.592   8.298  70.885  1.00  0.00    -0.278 OA 
BRANCH  17  18
HETATM   18  C   UNL     1     -11.745   8.417  72.274  1.00  0.00    -0.385 C  
HETATM   19  O   UNL     1     -10.957   8.069  73.142  1.00  0.00    -0.337 OA 
HETATM   20  C   UNL     1     -13.035   9.119  72.567  1.00  0.00    -0.416 C  
ENDBRANCH  17  18
ENDBRANCH   6  17
TORSDOF 6
ENDMDL
MODEL      120
REMARK 921   NORMALIZED FREE ENERGY PREDICTED BY IDOCK:   -3.65 KCAL/MOL
REMARK 922        TOTAL FREE ENERGY PREDICTED BY IDOCK:   -5.54 KCAL/MOL
REMARK 923 INTER-LIGAND FREE ENERGY PREDICTED BY IDOCK:   -5.11 KCAL/MOL
REMARK 924 INTRA-LIGAND FREE ENERGY PREDICTED BY IDOCK:   -0.43 KCAL/MOL
REMARK 927      BINDING AFFINITY PREDICTED BY RF-SCORE:    0.00 PKD
ROOT
HETATM    1  C   UNL     1     -10.072   9.784  66.102  1.00  0.00    -0.315 C  
HETATM    2  C   UNL     1      -9.599  10.046  67.542  1.00  0.00    -0.178 C  
HETATM    3  C   UNL     1      -9.899  11.536  67.825  1.00  0.00    -0.186 C  
HETATM    4  C   UNL     1     -10.196   9.075  68.576  1.00  0.00    -0.224 A  
HETATM    5  C   UNL     1     -10.337   7.692  68.351  1.00  0.00    -0.194 A  
HETATM    6  C   UNL     1     -11.261   8.761  70.768  1.00  0.00    -0.266 A  
HETATM    7  C   UNL     1     -10.948   6.869  69.316  1.00  0.00    -0.260 A  
HETATM    8  C   UNL     1     -11.440   7.396  70.519  1.00  0.00    -0.281 A  
HETATM    9  C   UNL     1     -10.625   9.570  69.826  1.00  0.00    -0.257 A  
HETATM   10  C   UNL     1     -12.148   6.505  71.494  1.00  0.00    -0.363 C  
ENDROOT
BRANCH   5  11
HETATM   11  O   UNL     1      -9.777   7.158  67.215  1.00  0.00    -0.140 OA 
BRANCH  11  12
HETATM   12  C   UNL     1      -8.547   6.442  67.409  1.00  0.00    -0.107 C  
BRANCH  12  13
HETATM   13  C   UNL     1      -8.814   4.937  67.213  1.00  0.00    -0.103 C  
BRANCH  13  14
HETATM   14  N   UNL     1      -8.722   4.475  65.812  1.00  0.00    -0.119 NA 
HETATM   15  C   UNL     1     -10.040   4.215  65.233  1.00  0.00    -0.202 C  
HETATM   16  C   UNL     1      -8.017   5.472  65.002  1.00  0.00    -0.113 C  
ENDBRANCH  13  14
ENDBRANCH  12  13
ENDBRANCH  11  12
ENDBRANCH   5  11
BRANCH   6  17
HETATM   17  O   UNL     1     -11.799   9.267  71.985  1.00  0.00    -0.363 OA 
BRANCH  17  18
HETATM   18  C   UNL     1     -13.086   9.788  72.184  1.00  0.00    -0.422 C  
HETATM   19  O   UNL     1     -14.077   9.191  72.581  1.00  0.00    -0.512 OA 
HETATM   20  C   UNL     1     -13.071  11.256  71.892  1.00  0.00    -0.510 C  
ENDBRANCH  17  18
ENDBRANCH   6  17
TORSDOF 6
ENDMDL
MODEL      121
REMARK 921   NORMALIZED FREE ENERGY PREDICTED BY IDOCK:   -3.62 KCAL/MOL
REMARK 922        TOTAL FREE ENERGY PREDICTED BY IDOCK:   -5.50 KCAL/MOL
REMARK 923 INTER-LIGAND FREE ENERGY PREDICTED BY IDOCK:   -5.17 KCAL/MOL
REMARK 924 INTRA-LIGAND FREE ENERGY PREDICTED BY IDOCK:   -0.33 KCAL/MOL
REMARK 927      BINDING AFFINITY PREDICTED BY RF-SCORE:    0.00 PKD
ROOT
HETATM    1  C   UNL     1     -10.203  12.901  65.291  1.00  0.00    -0.294 C  
HETATM    2  C   UNL     1     -10.592  11.422  65.124  1.00  0.00    -0.352 C  
HETATM    3  C   UNL     1      -9.862  10.931  63.853  1.00  0.00    -0.385 C  
HETATM    4  C   UNL     1     -10.324  10.566  66.375  1.00  0.00    -0.283 A  
HETATM    5  C   UNL     1     -10.601  11.000  67.686  1.00  0.00    -0.217 A  
HETATM    6  C   UNL     1      -9.427   8.484  67.323  1.00  0.00    -0.157 A  
HETATM    7  C   UNL     1     -10.277  10.190  68.791  1.00  0.00    -0.200 A  
HETATM    8  C   UNL     1      -9.663   8.941  68.624  1.00  0.00    -0.169 A  
HETATM    9  C   UNL     1      -9.781   9.272  66.227  1.00  0.00    -0.340 A  
HETATM   10  C   UNL     1      -9.264   8.135  69.824  1.00  0.00    -0.151 C  
ENDROOT
BRANCH   5  11
HETATM   11  O   UNL     1     -11.283  12.182  67.849  1.00  0.00    -0.236 OA 
BRANCH  11  12
HETATM   12  C   UNL     1     -10.783  13.049  68.879  1.00  0.00    -0.167 C  
BRANCH  12  13
HETATM   13  C   UNL     1     -11.883  14.064  69.248  1.00  0.00    -0.344 C  
BRANCH  13  14
HETATM   14  N   UNL     1     -12.049  14.289  70.700  1.00  0.00    -0.325 NA 
HETATM   15  C   UNL     1     -12.817  15.503  70.982  1.00  0.00    -0.482 C  
HETATM   16  C   UNL     1     -12.714  13.135  71.310  1.00  0.00    -0.306 C  
ENDBRANCH  13  14
ENDBRANCH  12  13
ENDBRANCH  11  12
ENDBRANCH   5  11
BRANCH   6  17
HETATM   17  O   UNL     1      -8.775   7.225  67.192  1.00  0.00    -0.119 OA 
BRANCH  17  18
HETATM   18  C   UNL     1      -9.388   5.970  67.065  1.00  0.00    -0.122 C  
HETATM   19  O   UNL     1      -8.857   4.872  67.151  1.00  0.00    -0.107 OA 
HETATM   20  C   UNL     1     -10.859   6.161  66.865  1.00  0.00    -0.411 C  
ENDBRANCH  17  18
ENDBRANCH   6  17
TORSDOF 6
ENDMDL
MODEL      122
REMARK 921   NORMALIZED FREE ENERGY PREDICTED BY IDOCK:   -3.61 KCAL/MOL
REMARK 922        TOTAL FREE ENERGY PREDICTED BY IDOCK:   -5.49 KCAL/MOL
REMARK 923 INTER-LIGAND FREE ENERGY PREDICTED BY IDOCK:   -4.77 KCAL/MOL
REMARK 924 INTRA-LIGAND FREE ENERGY PREDICTED BY IDOCK:   -0.71 KCAL/MOL
REMARK 927      BINDING AFFINITY PREDICTED BY RF-SCORE:    0.00 PKD
ROOT
HETATM    1  C   UNL     1      -8.294  12.482  67.341  1.00  0.00    -0.182 C  
HETATM    2  C   UNL     1      -7.603  11.187  67.802  1.00  0.00    -0.100 C  
HETATM    3  C   UNL     1      -7.230  11.409  69.285  1.00  0.00    -0.075 C  
HETATM    4  C   UNL     1      -8.432   9.917  67.543  1.00  0.00    -0.115 A  
HETATM    5  C   UNL     1      -9.154   9.690  66.356  1.00  0.00    -0.156 A  
HETATM    6  C   UNL     1      -9.287   7.777  68.397  1.00  0.00    -0.143 A  
HETATM    7  C   UNL     1      -9.941   8.532  66.208  1.00  0.00    -0.251 A  
HETATM    8  C   UNL     1     -10.039   7.580  67.234  1.00  0.00    -0.300 A  
HETATM    9  C   UNL     1      -8.480   8.908  68.529  1.00  0.00    -0.129 A  
HETATM   10  C   UNL     1     -10.942   6.394  67.073  1.00  0.00    -0.463 C  
ENDROOT
BRANCH   5  11
HETATM   11  O   UNL     1      -8.990  10.573  65.317  1.00  0.00    -0.173 OA 
BRANCH  11  12
HETATM   12  C   UNL     1     -10.157  10.806  64.511  1.00  0.00    -0.350 C  
BRANCH  12  13
HETATM   13  C   UNL     1     -10.133  12.264  64.015  1.00  0.00    -0.325 C  
BRANCH  13  14
HETATM   14  N   UNL     1     -11.174  13.131  64.606  1.00  0.00    -0.325 NA 
HETATM   15  C   UNL     1     -11.704  12.578  65.853  1.00  0.00    -0.426 C  
HETATM   16  C   UNL     1     -10.629  14.468  64.855  1.00  0.00    -0.427 C  
ENDBRANCH  13  14
ENDBRANCH  12  13
ENDBRANCH  11  12
ENDBRANCH   5  11
BRANCH   6  17
HETATM   17  O   UNL     1      -9.434   6.807  69.428  1.00  0.00    -0.148 OA 
BRANCH  17  18
HETATM   18  C   UNL     1     -10.263   6.896  70.555  1.00  0.00    -0.192 C  
HETATM   19  O   UNL     1     -10.597   7.907  71.155  1.00  0.00    -0.212 OA 
HETATM   20  C   UNL     1     -10.762   5.528  70.905  1.00  0.00    -0.283 C  
ENDBRANCH  17  18
ENDBRANCH   6  17
TORSDOF 6
ENDMDL
MODEL      123
REMARK 921   NORMALIZED FREE ENERGY PREDICTED BY IDOCK:   -3.60 KCAL/MOL
REMARK 922        TOTAL FREE ENERGY PREDICTED BY IDOCK:   -5.47 KCAL/MOL
REMARK 923 INTER-LIGAND FREE ENERGY PREDICTED BY IDOCK:   -5.11 KCAL/MOL
REMARK 924 INTRA-LIGAND FREE ENERGY PREDICTED BY IDOCK:   -0.37 KCAL/MOL
REMARK 927      BINDING AFFINITY PREDICTED BY RF-SCORE:    0.00 PKD
ROOT
HETATM    1  C   UNL     1     -11.250  10.595  70.426  1.00  0.00    -0.334 C  
HETATM    2  C   UNL     1     -11.697  10.648  68.955  1.00  0.00    -0.305 C  
HETATM    3  C   UNL     1     -11.684  12.143  68.560  1.00  0.00    -0.382 C  
HETATM    4  C   UNL     1     -10.872   9.742  68.024  1.00  0.00    -0.276 A  
HETATM    5  C   UNL     1     -10.472   8.437  68.367  1.00  0.00    -0.164 A  
HETATM    6  C   UNL     1      -9.664   9.486  65.900  1.00  0.00    -0.282 A  
HETATM    7  C   UNL     1      -9.666   7.683  67.492  1.00  0.00    -0.197 A  
HETATM    8  C   UNL     1      -9.232   8.207  66.266  1.00  0.00    -0.245 A  
HETATM    9  C   UNL     1     -10.491  10.219  66.751  1.00  0.00    -0.279 A  
HETATM   10  C   UNL     1      -8.316   7.406  65.390  1.00  0.00    -0.122 C  
ENDROOT
BRANCH   5  11
HETATM   11  O   UNL     1     -10.969   7.887  69.524  1.00  0.00    -0.191 OA 
BRANCH  11  12
HETATM   12  C   UNL     1     -10.844   6.460  69.636  1.00  0.00    -0.320 C  
BRANCH  12  13
HETATM   13  C   UNL     1     -10.794   6.084  71.130  1.00  0.00    -0.277 C  
BRANCH  13  14
HETATM   14  N   UNL     1      -9.533   5.445  71.561  1.00  0.00    -0.147 NA 
HETATM   15  C   UNL     1      -9.736   4.057  71.979  1.00  0.00    -0.165 C  
HETATM   16  C   UNL     1      -8.553   5.490  70.472  1.00  0.00    -0.124 C  
ENDBRANCH  13  14
ENDBRANCH  12  13
ENDBRANCH  11  12
ENDBRANCH   5  11
BRANCH   6  17
HETATM   17  O   UNL     1      -9.179   9.998  64.663  1.00  0.00    -0.218 OA 
BRANCH  17  18
HETATM   18  C   UNL     1      -9.893  10.768  63.733  1.00  0.00    -0.339 C  
HETATM   19  O   UNL     1     -11.024  11.215  63.850  1.00  0.00    -0.374 OA 
HETATM   20  C   UNL     1      -9.018  11.038  62.548  1.00  0.00    -0.366 C  
ENDBRANCH  17  18
ENDBRANCH   6  17
TORSDOF 6
ENDMDL
MODEL      124
REMARK 921   NORMALIZED FREE ENERGY PREDICTED BY IDOCK:   -3.60 KCAL/MOL
REMARK 922        TOTAL FREE ENERGY PREDICTED BY IDOCK:   -5.47 KCAL/MOL
REMARK 923 INTER-LIGAND FREE ENERGY PREDICTED BY IDOCK:   -4.81 KCAL/MOL
REMARK 924 INTRA-LIGAND FREE ENERGY PREDICTED BY IDOCK:   -0.66 KCAL/MOL
REMARK 927      BINDING AFFINITY PREDICTED BY RF-SCORE:    0.00 PKD
ROOT
HETATM    1  C   UNL     1      -5.209  17.992  70.316  1.00  0.00    -0.243 C  
HETATM    2  C   UNL     1      -6.045  17.067  69.415  1.00  0.00    -0.225 C  
HETATM    3  C   UNL     1      -6.271  15.771  70.228  1.00  0.00    -0.003 C  
HETATM    4  C   UNL     1      -7.338  17.716  68.892  1.00  0.00    -0.239 A  
HETATM    5  C   UNL     1      -7.408  19.043  68.428  1.00  0.00    -0.295 A  
HETATM    6  C   UNL     1      -9.753  17.515  68.484  1.00  0.00    -0.319 A  
HETATM    7  C   UNL     1      -8.637  19.595  68.018  1.00  0.00    -0.355 A  
HETATM    8  C   UNL     1      -9.823  18.849  68.068  1.00  0.00    -0.404 A  
HETATM    9  C   UNL     1      -8.530  16.959  68.857  1.00  0.00    -0.202 A  
HETATM   10  C   UNL     1     -11.127  19.488  67.693  1.00  0.00    -0.174 C  
ENDROOT
BRANCH   5  11
HETATM   11  O   UNL     1      -6.235  19.747  68.294  1.00  0.00    -0.231 OA 
BRANCH  11  12
HETATM   12  C   UNL     1      -6.250  20.796  67.312  1.00  0.00    -0.263 C  
BRANCH  12  13
HETATM   13  C   UNL     1      -5.127  20.534  66.290  1.00  0.00    -0.162 C  
BRANCH  13  14
HETATM   14  N   UNL     1      -5.600  20.206  64.928  1.00  0.00    -0.168 NA 
HETATM   15  C   UNL     1      -6.217  18.881  64.866  1.00  0.00    -0.225 C  
HETATM   16  C   UNL     1      -6.560  21.216  64.477  1.00  0.00     0.012 C  
ENDBRANCH  13  14
ENDBRANCH  12  13
ENDBRANCH  11  12
ENDBRANCH   5  11
BRANCH   6  17
HETATM   17  O   UNL     1     -10.981  16.799  68.550  1.00  0.00    -0.345 OA 
BRANCH  17  18
HETATM   18  C   UNL     1     -11.308  15.770  69.446  1.00  0.00    -0.348 C  
HETATM   19  O   UNL     1     -11.717  15.884  70.592  1.00  0.00    -0.343 OA 
HETATM   20  C   UNL     1     -11.146  14.451  68.757  1.00  0.00    -0.275 C  
ENDBRANCH  17  18
ENDBRANCH   6  17
TORSDOF 6
ENDMDL
MODEL      125
REMARK 921   NORMALIZED FREE ENERGY PREDICTED BY IDOCK:   -3.59 KCAL/MOL
REMARK 922        TOTAL FREE ENERGY PREDICTED BY IDOCK:   -5.46 KCAL/MOL
REMARK 923 INTER-LIGAND FREE ENERGY PREDICTED BY IDOCK:   -4.87 KCAL/MOL
REMARK 924 INTRA-LIGAND FREE ENERGY PREDICTED BY IDOCK:   -0.59 KCAL/MOL
REMARK 927      BINDING AFFINITY PREDICTED BY RF-SCORE:    0.00 PKD
ROOT
HETATM    1  C   UNL     1     -13.012  10.687  70.456  1.00  0.00    -0.277 C  
HETATM    2  C   UNL     1     -12.029  10.096  71.481  1.00  0.00    -0.404 C  
HETATM    3  C   UNL     1     -12.843   9.078  72.313  1.00  0.00    -0.474 C  
HETATM    4  C   UNL     1     -10.751   9.516  70.850  1.00  0.00    -0.403 A  
HETATM    5  C   UNL     1     -10.048  10.144  69.804  1.00  0.00    -0.231 A  
HETATM    6  C   UNL     1      -9.133   7.669  70.742  1.00  0.00    -0.153 A  
HETATM    7  C   UNL     1      -8.918   9.530  69.231  1.00  0.00    -0.160 A  
HETATM    8  C   UNL     1      -8.467   8.277  69.672  1.00  0.00    -0.125 A  
HETATM    9  C   UNL     1     -10.231   8.295  71.332  1.00  0.00    -0.263 A  
HETATM   10  C   UNL     1      -7.305   7.617  68.993  1.00  0.00    -0.086 C  
ENDROOT
BRANCH   5  11
HETATM   11  O   UNL     1     -10.433  11.409  69.430  1.00  0.00    -0.138 OA 
BRANCH  11  12
HETATM   12  C   UNL     1     -10.546  11.630  68.015  1.00  0.00    -0.202 C  
BRANCH  12  13
HETATM   13  C   UNL     1     -10.741  13.138  67.764  1.00  0.00    -0.240 C  
BRANCH  13  14
HETATM   14  N   UNL     1     -11.084  13.489  66.370  1.00  0.00    -0.300 NA 
HETATM   15  C   UNL     1     -12.519  13.720  66.199  1.00  0.00    -0.418 C  
HETATM   16  C   UNL     1     -10.343  14.685  65.960  1.00  0.00    -0.305 C  
ENDBRANCH  13  14
ENDBRANCH  12  13
ENDBRANCH  11  12
ENDBRANCH   5  11
BRANCH   6  17
HETATM   17  O   UNL     1      -8.666   6.386  71.143  1.00  0.00    -0.133 OA 
BRANCH  17  18
HETATM   18  C   UNL     1      -9.428   5.216  71.274  1.00  0.00    -0.153 C  
HETATM   19  O   UNL     1     -10.121   4.882  72.224  1.00  0.00    -0.178 OA 
HETATM   20  C   UNL     1      -9.326   4.422  70.008  1.00  0.00    -0.227 C  
ENDBRANCH  17  18
ENDBRANCH   6  17
TORSDOF 6
ENDMDL
MODEL      126
REMARK 921   NORMALIZED FREE ENERGY PREDICTED BY IDOCK:   -3.58 KCAL/MOL
REMARK 922        TOTAL FREE ENERGY PREDICTED BY IDOCK:   -5.45 KCAL/MOL
REMARK 923 INTER-LIGAND FREE ENERGY PREDICTED BY IDOCK:   -4.87 KCAL/MOL
REMARK 924 INTRA-LIGAND FREE ENERGY PREDICTED BY IDOCK:   -0.58 KCAL/MOL
REMARK 927      BINDING AFFINITY PREDICTED BY RF-SCORE:    0.00 PKD
ROOT
HETATM    1  C   UNL     1      -9.809   8.053  70.213  1.00  0.00    -0.184 C  
HETATM    2  C   UNL     1     -11.087   8.908  70.159  1.00  0.00    -0.217 C  
HETATM    3  C   UNL     1     -11.200   9.591  71.541  1.00  0.00    -0.437 C  
HETATM    4  C   UNL     1     -11.130   9.882  68.968  1.00  0.00    -0.184 A  
HETATM    5  C   UNL     1     -10.717   9.536  67.668  1.00  0.00    -0.250 A  
HETATM    6  C   UNL     1     -11.587  12.153  68.150  1.00  0.00    -0.337 A  
HETATM    7  C   UNL     1     -10.726  10.494  66.636  1.00  0.00    -0.222 A  
HETATM    8  C   UNL     1     -11.133  11.816  66.871  1.00  0.00    -0.361 A  
HETATM    9  C   UNL     1     -11.611  11.195  69.163  1.00  0.00    -0.393 A  
HETATM   10  C   UNL     1     -11.062  12.829  65.768  1.00  0.00    -0.316 C  
ENDROOT
BRANCH   5  11
HETATM   11  O   UNL     1     -10.404   8.223  67.413  1.00  0.00    -0.235 OA 
BRANCH  11  12
HETATM   12  C   UNL     1      -9.486   8.003  66.330  1.00  0.00    -0.172 C  
BRANCH  12  13
HETATM   13  C   UNL     1      -8.320   7.133  66.838  1.00  0.00    -0.118 C  
BRANCH  13  14
HETATM   14  N   UNL     1      -7.900   6.065  65.907  1.00  0.00    -0.103 NA 
HETATM   15  C   UNL     1      -6.807   5.259  66.455  1.00  0.00    -0.063 C  
HETATM   16  C   UNL     1      -9.039   5.198  65.595  1.00  0.00    -0.157 C  
ENDBRANCH  13  14
ENDBRANCH  12  13
ENDBRANCH  11  12
ENDBRANCH   5  11
BRANCH   6  17
HETATM   17  O   UNL     1     -11.964  13.510  68.360  1.00  0.00    -0.354 OA 
BRANCH  17  18
HETATM   18  C   UNL     1     -11.148  14.546  68.838  1.00  0.00    -0.256 C  
HETATM   19  O   UNL     1      -9.950  14.499  69.077  1.00  0.00    -0.216 OA 
HETATM   20  C   UNL     1     -11.964  15.795  68.961  1.00  0.00    -0.294 C  
ENDBRANCH  17  18
ENDBRANCH   6  17
TORSDOF 6
ENDMDL
MODEL      127
REMARK 921   NORMALIZED FREE ENERGY PREDICTED BY IDOCK:   -3.56 KCAL/MOL
REMARK 922        TOTAL FREE ENERGY PREDICTED BY IDOCK:   -5.42 KCAL/MOL
REMARK 923 INTER-LIGAND FREE ENERGY PREDICTED BY IDOCK:   -5.02 KCAL/MOL
REMARK 924 INTRA-LIGAND FREE ENERGY PREDICTED BY IDOCK:   -0.40 KCAL/MOL
REMARK 927      BINDING AFFINITY PREDICTED BY RF-SCORE:    0.00 PKD
ROOT
HETATM    1  C   UNL     1      -7.561  13.104  67.920  1.00  0.00    -0.147 C  
HETATM    2  C   UNL     1      -7.465  14.011  69.158  1.00  0.00    -0.005 C  
HETATM    3  C   UNL     1      -6.158  13.609  69.880  1.00  0.00    -0.135 C  
HETATM    4  C   UNL     1      -7.571  15.512  68.836  1.00  0.00    -0.166 A  
HETATM    5  C   UNL     1      -8.489  16.043  67.910  1.00  0.00    -0.162 A  
HETATM    6  C   UNL     1      -6.700  17.784  69.180  1.00  0.00    -0.239 A  
HETATM    7  C   UNL     1      -8.493  17.421  67.617  1.00  0.00    -0.213 A  
HETATM    8  C   UNL     1      -7.584  18.299  68.225  1.00  0.00    -0.289 A  
HETATM    9  C   UNL     1      -6.720  16.425  69.495  1.00  0.00    -0.202 A  
HETATM   10  C   UNL     1      -7.566  19.747  67.838  1.00  0.00    -0.331 C  
ENDROOT
BRANCH   5  11
HETATM   11  O   UNL     1      -9.438  15.203  67.380  1.00  0.00    -0.201 OA 
BRANCH  11  12
HETATM   12  C   UNL     1     -10.799  15.646  67.510  1.00  0.00    -0.316 C  
BRANCH  12  13
HETATM   13  C   UNL     1     -11.099  15.892  69.001  1.00  0.00    -0.294 C  
BRANCH  13  14
HETATM   14  N   UNL     1     -12.266  15.149  69.523  1.00  0.00    -0.269 NA 
HETATM   15  C   UNL     1     -11.947  13.745  69.790  1.00  0.00    -0.344 C  
HETATM   16  C   UNL     1     -12.753  15.783  70.751  1.00  0.00    -0.338 C  
ENDBRANCH  13  14
ENDBRANCH  12  13
ENDBRANCH  11  12
ENDBRANCH   5  11
BRANCH   6  17
HETATM   17  O   UNL     1      -5.773  18.698  69.755  1.00  0.00    -0.227 OA 
BRANCH  17  18
HETATM   18  C   UNL     1      -5.521  18.895  71.120  1.00  0.00    -0.205 C  
HETATM   19  O   UNL     1      -5.143  18.066  71.934  1.00  0.00    -0.586 OA 
HETATM   20  C   UNL     1      -5.725  20.341  71.451  1.00  0.00    -0.349 C  
ENDBRANCH  17  18
ENDBRANCH   6  17
TORSDOF 6
ENDMDL
MODEL      128
REMARK 921   NORMALIZED FREE ENERGY PREDICTED BY IDOCK:   -3.51 KCAL/MOL
REMARK 922        TOTAL FREE ENERGY PREDICTED BY IDOCK:   -5.34 KCAL/MOL
REMARK 923 INTER-LIGAND FREE ENERGY PREDICTED BY IDOCK:   -4.64 KCAL/MOL
REMARK 924 INTRA-LIGAND FREE ENERGY PREDICTED BY IDOCK:   -0.71 KCAL/MOL
REMARK 927      BINDING AFFINITY PREDICTED BY RF-SCORE:    0.00 PKD
ROOT
HETATM    1  C   UNL     1      -5.155  17.202  70.743  1.00  0.00    -0.257 C  
HETATM    2  C   UNL     1      -5.596  16.151  69.710  1.00  0.00    -0.148 C  
HETATM    3  C   UNL     1      -5.309  14.775  70.354  1.00  0.00    -0.120 C  
HETATM    4  C   UNL     1      -7.045  16.330  69.224  1.00  0.00    -0.222 A  
HETATM    5  C   UNL     1      -7.612  17.582  68.921  1.00  0.00    -0.225 A  
HETATM    6  C   UNL     1      -9.214  15.295  68.714  1.00  0.00    -0.203 A  
HETATM    7  C   UNL     1      -8.964  17.681  68.538  1.00  0.00    -0.289 A  
HETATM    8  C   UNL     1      -9.784  16.547  68.458  1.00  0.00    -0.239 A  
HETATM    9  C   UNL     1      -7.866  15.194  69.059  1.00  0.00    -0.181 A  
HETATM   10  C   UNL     1     -11.237  16.694  68.118  1.00  0.00    -0.202 C  
ENDROOT
BRANCH   5  11
HETATM   11  O   UNL     1      -6.790  18.683  68.910  1.00  0.00    -0.267 OA 
BRANCH  11  12
HETATM   12  C   UNL     1      -7.382  19.894  68.414  1.00  0.00    -0.283 C  
BRANCH  12  13
HETATM   13  C   UNL     1      -6.307  20.693  67.651  1.00  0.00    -0.282 C  
BRANCH  13  14
HETATM   14  N   UNL     1      -6.268  20.436  66.196  1.00  0.00    -0.197 NA 
HETATM   15  C   UNL     1      -5.218  19.482  65.836  1.00  0.00    -0.150 C  
HETATM   16  C   UNL     1      -7.566  19.931  65.743  1.00  0.00    -0.297 C  
ENDBRANCH  13  14
ENDBRANCH  12  13
ENDBRANCH  11  12
ENDBRANCH   5  11
BRANCH   6  17
HETATM   17  O   UNL     1     -10.084  14.170  68.653  1.00  0.00    -0.232 OA 
BRANCH  17  18
HETATM   18  C   UNL     1     -10.200  13.253  67.598  1.00  0.00    -0.228 C  
HETATM   19  O   UNL     1      -9.297  12.679  67.007  1.00  0.00    -0.205 OA 
HETATM   20  C   UNL     1     -11.651  13.008  67.320  1.00  0.00    -0.409 C  
ENDBRANCH  17  18
ENDBRANCH   6  17
TORSDOF 6
ENDMDL
MODEL      129
REMARK 921   NORMALIZED FREE ENERGY PREDICTED BY IDOCK:   -3.49 KCAL/MOL
REMARK 922        TOTAL FREE ENERGY PREDICTED BY IDOCK:   -5.32 KCAL/MOL
REMARK 923 INTER-LIGAND FREE ENERGY PREDICTED BY IDOCK:   -4.62 KCAL/MOL
REMARK 924 INTRA-LIGAND FREE ENERGY PREDICTED BY IDOCK:   -0.70 KCAL/MOL
REMARK 927      BINDING AFFINITY PREDICTED BY RF-SCORE:    0.00 PKD
ROOT
HETATM    1  C   UNL     1      -6.583  15.895  69.403  1.00  0.00    -0.173 C  
HETATM    2  C   UNL     1      -6.521  14.569  68.626  1.00  0.00    -0.086 C  
HETATM    3  C   UNL     1      -5.606  13.635  69.451  1.00  0.00    -0.087 C  
HETATM    4  C   UNL     1      -7.904  13.975  68.305  1.00  0.00    -0.140 A  
HETATM    5  C   UNL     1      -8.998  14.746  67.869  1.00  0.00    -0.172 A  
HETATM    6  C   UNL     1      -9.361  11.997  68.255  1.00  0.00    -0.197 A  
HETATM    7  C   UNL     1     -10.253  14.147  67.650  1.00  0.00    -0.241 A  
HETATM    8  C   UNL     1     -10.456  12.777  67.867  1.00  0.00    -0.226 A  
HETATM    9  C   UNL     1      -8.109  12.584  68.439  1.00  0.00    -0.136 A  
HETATM   10  C   UNL     1     -11.822  12.184  67.693  1.00  0.00    -0.316 C  
ENDROOT
BRANCH   5  11
HETATM   11  O   UNL     1      -8.782  16.070  67.570  1.00  0.00    -0.177 OA 
BRANCH  11  12
HETATM   12  C   UNL     1      -9.065  16.453  66.215  1.00  0.00    -0.327 C  
BRANCH  12  13
HETATM   13  C   UNL     1     -10.040  17.646  66.232  1.00  0.00    -0.341 C  
BRANCH  13  14
HETATM   14  N   UNL     1      -9.600  18.787  67.063  1.00  0.00    -0.295 NA 
HETATM   15  C   UNL     1      -8.531  19.553  66.421  1.00  0.00    -0.352 C  
HETATM   16  C   UNL     1     -10.736  19.669  67.342  1.00  0.00    -0.435 C  
ENDBRANCH  13  14
ENDBRANCH  12  13
ENDBRANCH  11  12
ENDBRANCH   5  11
BRANCH   6  17
HETATM   17  O   UNL     1      -9.610  10.616  68.495  1.00  0.00    -0.161 OA 
BRANCH  17  18
HETATM   18  C   UNL     1      -9.426   9.924  69.701  1.00  0.00    -0.231 C  
HETATM   19  O   UNL     1      -8.378   9.496  70.161  1.00  0.00    -0.158 OA 
HETATM   20  C   UNL     1     -10.738   9.832  70.417  1.00  0.00    -0.368 C  
ENDBRANCH  17  18
ENDBRANCH   6  17
TORSDOF 6
ENDMDL
MODEL      130
REMARK 921   NORMALIZED FREE ENERGY PREDICTED BY IDOCK:   -3.47 KCAL/MOL
REMARK 922        TOTAL FREE ENERGY PREDICTED BY IDOCK:   -5.30 KCAL/MOL
REMARK 923 INTER-LIGAND FREE ENERGY PREDICTED BY IDOCK:   -4.81 KCAL/MOL
REMARK 924 INTRA-LIGAND FREE ENERGY PREDICTED BY IDOCK:   -0.49 KCAL/MOL
REMARK 927      BINDING AFFINITY PREDICTED BY RF-SCORE:    0.00 PKD
ROOT
HETATM    1  C   UNL     1      -7.077  15.533  69.038  1.00  0.00    -0.147 C  
HETATM    2  C   UNL     1      -8.002  14.688  68.146  1.00  0.00    -0.136 C  
HETATM    3  C   UNL     1      -7.220  13.394  67.826  1.00  0.00    -0.156 C  
HETATM    4  C   UNL     1      -9.396  14.449  68.752  1.00  0.00    -0.150 A  
HETATM    5  C   UNL     1     -10.135  15.446  69.417  1.00  0.00    -0.269 A  
HETATM    6  C   UNL     1     -11.208  12.865  69.249  1.00  0.00    -0.190 A  
HETATM    7  C   UNL     1     -11.380  15.144  70.001  1.00  0.00    -0.304 A  
HETATM    8  C   UNL     1     -11.916  13.848  69.948  1.00  0.00    -0.405 A  
HETATM    9  C   UNL     1      -9.991  13.173  68.641  1.00  0.00    -0.117 A  
HETATM   10  C   UNL     1     -13.209  13.543  70.642  1.00  0.00     0.120 C  
ENDROOT
BRANCH   5  11
HETATM   11  O   UNL     1      -9.657  16.734  69.393  1.00  0.00    -0.157 OA 
BRANCH  11  12
HETATM   12  C   UNL     1     -10.296  17.614  68.455  1.00  0.00    -0.375 C  
BRANCH  12  13
HETATM   13  C   UNL     1      -9.865  19.062  68.763  1.00  0.00    -0.425 C  
BRANCH  13  14
HETATM   14  N   UNL     1      -8.845  19.608  67.843  1.00  0.00    -0.319 NA 
HETATM   15  C   UNL     1      -7.947  18.568  67.340  1.00  0.00    -0.239 C  
HETATM   16  C   UNL     1      -9.497  20.280  66.716  1.00  0.00    -0.384 C  
ENDBRANCH  13  14
ENDBRANCH  12  13
ENDBRANCH  11  12
ENDBRANCH   5  11
BRANCH   6  17
HETATM   17  O   UNL     1     -11.767  11.556  69.242  1.00  0.00    -0.272 OA 
BRANCH  17  18
HETATM   18  C   UNL     1     -11.409  10.483  70.072  1.00  0.00    -0.318 C  
HETATM   19  O   UNL     1     -11.670  10.342  71.258  1.00  0.00    -0.338 OA 
HETATM   20  C   UNL     1     -10.687   9.454  69.260  1.00  0.00    -0.228 C  
ENDBRANCH  17  18
ENDBRANCH   6  17
TORSDOF 6
ENDMDL
MODEL      131
REMARK 921   NORMALIZED FREE ENERGY PREDICTED BY IDOCK:   -3.46 KCAL/MOL
REMARK 922        TOTAL FREE ENERGY PREDICTED BY IDOCK:   -5.29 KCAL/MOL
REMARK 923 INTER-LIGAND FREE ENERGY PREDICTED BY IDOCK:   -4.73 KCAL/MOL
REMARK 924 INTRA-LIGAND FREE ENERGY PREDICTED BY IDOCK:   -0.56 KCAL/MOL
REMARK 927      BINDING AFFINITY PREDICTED BY RF-SCORE:    0.00 PKD
ROOT
HETATM    1  C   UNL     1     -12.133  10.469  70.148  1.00  0.00    -0.380 C  
HETATM    2  C   UNL     1     -10.633  10.501  69.809  1.00  0.00    -0.274 C  
HETATM    3  C   UNL     1     -10.015   9.263  70.497  1.00  0.00    -0.307 C  
HETATM    4  C   UNL     1     -10.341  10.597  68.301  1.00  0.00    -0.201 A  
HETATM    5  C   UNL     1     -11.059  11.430  67.423  1.00  0.00    -0.289 A  
HETATM    6  C   UNL     1      -9.045   9.791  66.375  1.00  0.00    -0.155 A  
HETATM    7  C   UNL     1     -10.780  11.425  66.043  1.00  0.00    -0.318 A  
HETATM    8  C   UNL     1      -9.793  10.588  65.502  1.00  0.00    -0.324 A  
HETATM    9  C   UNL     1      -9.299   9.823  67.746  1.00  0.00    -0.148 A  
HETATM   10  C   UNL     1      -9.569  10.554  64.020  1.00  0.00    -0.367 C  
ENDROOT
BRANCH   5  11
HETATM   11  O   UNL     1     -11.963  12.315  67.960  1.00  0.00    -0.425 OA 
BRANCH  11  12
HETATM   12  C   UNL     1     -11.496  13.666  68.105  1.00  0.00    -0.313 C  
BRANCH  12  13
HETATM   13  C   UNL     1     -11.419  14.003  69.607  1.00  0.00    -0.258 C  
BRANCH  13  14
HETATM   14  N   UNL     1     -12.549  14.811  70.114  1.00  0.00    -0.305 NA 
HETATM   15  C   UNL     1     -13.114  14.251  71.343  1.00  0.00    -0.351 C  
HETATM   16  C   UNL     1     -12.109  16.187  70.359  1.00  0.00    -0.010 C  
ENDBRANCH  13  14
ENDBRANCH  12  13
ENDBRANCH  11  12
ENDBRANCH   5  11
BRANCH   6  17
HETATM   17  O   UNL     1      -8.073   8.934  65.788  1.00  0.00    -0.101 OA 
BRANCH  17  18
HETATM   18  C   UNL     1      -6.699   9.184  65.655  1.00  0.00    -0.072 C  
HETATM   19  O   UNL     1      -6.124   9.689  64.702  1.00  0.00    -0.076 OA 
HETATM   20  C   UNL     1      -6.005   8.792  66.923  1.00  0.00    -0.057 C  
ENDBRANCH  17  18
ENDBRANCH   6  17
TORSDOF 6
ENDMDL
MODEL      132
REMARK 921   NORMALIZED FREE ENERGY PREDICTED BY IDOCK:   -3.45 KCAL/MOL
REMARK 922        TOTAL FREE ENERGY PREDICTED BY IDOCK:   -5.26 KCAL/MOL
REMARK 923 INTER-LIGAND FREE ENERGY PREDICTED BY IDOCK:   -4.64 KCAL/MOL
REMARK 924 INTRA-LIGAND FREE ENERGY PREDICTED BY IDOCK:   -0.63 KCAL/MOL
REMARK 927      BINDING AFFINITY PREDICTED BY RF-SCORE:    0.00 PKD
ROOT
HETATM    1  C   UNL     1     -11.753   6.588  72.240  1.00  0.00    -0.320 C  
HETATM    2  C   UNL     1     -12.332   7.710  71.361  1.00  0.00    -0.358 C  
HETATM    3  C   UNL     1     -12.707   8.857  72.327  1.00  0.00    -0.464 C  
HETATM    4  C   UNL     1     -11.405   8.134  70.208  1.00  0.00    -0.132 A  
HETATM    5  C   UNL     1     -10.679   7.221  69.420  1.00  0.00    -0.225 A  
HETATM    6  C   UNL     1     -10.369   9.961  68.932  1.00  0.00    -0.205 A  
HETATM    7  C   UNL     1      -9.802   7.679  68.419  1.00  0.00    -0.176 A  
HETATM    8  C   UNL     1      -9.616   9.049  68.183  1.00  0.00    -0.164 A  
HETATM    9  C   UNL     1     -11.264   9.505  69.900  1.00  0.00    -0.209 A  
HETATM   10  C   UNL     1      -8.621   9.506  67.159  1.00  0.00    -0.133 C  
ENDROOT
BRANCH   5  11
HETATM   11  O   UNL     1     -10.925   5.879  69.587  1.00  0.00    -0.347 OA 
BRANCH  11  12
HETATM   12  C   UNL     1      -9.807   5.010  69.350  1.00  0.00    -0.203 C  
BRANCH  12  13
HETATM   13  C   UNL     1      -9.679   4.034  70.536  1.00  0.00    -0.188 C  
BRANCH  13  14
HETATM   14  N   UNL     1      -8.958   4.580  71.706  1.00  0.00    -0.123 NA 
HETATM   15  C   UNL     1      -9.300   3.872  72.940  1.00  0.00    -0.114 C  
HETATM   16  C   UNL     1      -7.512   4.502  71.481  1.00  0.00    -0.069 C  
ENDBRANCH  13  14
ENDBRANCH  12  13
ENDBRANCH  11  12
ENDBRANCH   5  11
BRANCH   6  17
HETATM   17  O   UNL     1     -10.133  11.343  68.686  1.00  0.00    -0.203 OA 
BRANCH  17  18
HETATM   18  C   UNL     1     -10.862  12.182  67.832  1.00  0.00    -0.217 C  
HETATM   19  O   UNL     1     -12.043  12.091  67.529  1.00  0.00    -0.555 OA 
HETATM   20  C   UNL     1      -9.977  13.298  67.369  1.00  0.00    -0.233 C  
ENDBRANCH  17  18
ENDBRANCH   6  17
TORSDOF 6
ENDMDL
MODEL      133
REMARK 921   NORMALIZED FREE ENERGY PREDICTED BY IDOCK:   -3.43 KCAL/MOL
REMARK 922        TOTAL FREE ENERGY PREDICTED BY IDOCK:   -5.24 KCAL/MOL
REMARK 923 INTER-LIGAND FREE ENERGY PREDICTED BY IDOCK:   -4.93 KCAL/MOL
REMARK 924 INTRA-LIGAND FREE ENERGY PREDICTED BY IDOCK:   -0.32 KCAL/MOL
REMARK 927      BINDING AFFINITY PREDICTED BY RF-SCORE:    0.00 PKD
ROOT
HETATM    1  C   UNL     1      -6.832  16.508  69.452  1.00  0.00    -0.220 C  
HETATM    2  C   UNL     1      -6.826  15.486  68.303  1.00  0.00    -0.120 C  
HETATM    3  C   UNL     1      -6.798  14.092  68.973  1.00  0.00    -0.110 C  
HETATM    4  C   UNL     1      -7.974  15.678  67.297  1.00  0.00    -0.227 A  
HETATM    5  C   UNL     1      -8.392  16.938  66.829  1.00  0.00    -0.235 A  
HETATM    6  C   UNL     1      -9.764  14.658  65.958  1.00  0.00    -0.312 A  
HETATM    7  C   UNL     1      -9.490  17.048  65.954  1.00  0.00    -0.116 A  
HETATM    8  C   UNL     1     -10.203  15.917  65.532  1.00  0.00    -0.394 A  
HETATM    9  C   UNL     1      -8.656  14.547  66.797  1.00  0.00    -0.163 A  
HETATM   10  C   UNL     1     -11.411  16.074  64.658  1.00  0.00    -0.312 C  
ENDROOT
BRANCH   5  11
HETATM   11  O   UNL     1      -7.642  18.039  67.167  1.00  0.00    -0.203 OA 
BRANCH  11  12
HETATM   12  C   UNL     1      -7.730  19.151  66.261  1.00  0.00    -0.282 C  
BRANCH  12  13
HETATM   13  C   UNL     1      -6.451  20.000  66.395  1.00  0.00    -0.201 C  
BRANCH  13  14
HETATM   14  N   UNL     1      -5.570  19.973  65.208  1.00  0.00    -0.166 NA 
HETATM   15  C   UNL     1      -5.779  18.773  64.397  1.00  0.00    -0.185 C  
HETATM   16  C   UNL     1      -5.802  21.165  64.388  1.00  0.00    -0.217 C  
ENDBRANCH  13  14
ENDBRANCH  12  13
ENDBRANCH  11  12
ENDBRANCH   5  11
BRANCH   6  17
HETATM   17  O   UNL     1     -10.530  13.535  65.535  1.00  0.00    -0.283 OA 
BRANCH  17  18
HETATM   18  C   UNL     1     -11.447  12.804  66.304  1.00  0.00    -0.354 C  
HETATM   19  O   UNL     1     -12.114  11.842  65.951  1.00  0.00    -0.474 OA 
HETATM   20  C   UNL     1     -11.455  13.343  67.701  1.00  0.00    -0.353 C  
ENDBRANCH  17  18
ENDBRANCH   6  17
TORSDOF 6
ENDMDL
MODEL      134
REMARK 921   NORMALIZED FREE ENERGY PREDICTED BY IDOCK:   -3.42 KCAL/MOL
REMARK 922        TOTAL FREE ENERGY PREDICTED BY IDOCK:   -5.22 KCAL/MOL
REMARK 923 INTER-LIGAND FREE ENERGY PREDICTED BY IDOCK:   -4.46 KCAL/MOL
REMARK 924 INTRA-LIGAND FREE ENERGY PREDICTED BY IDOCK:   -0.76 KCAL/MOL
REMARK 927      BINDING AFFINITY PREDICTED BY RF-SCORE:    0.00 PKD
ROOT
HETATM    1  C   UNL     1     -10.932  15.937  67.619  1.00  0.00    -0.298 C  
HETATM    2  C   UNL     1     -11.207  14.427  67.721  1.00  0.00    -0.316 C  
HETATM    3  C   UNL     1     -12.316  14.125  66.687  1.00  0.00    -0.375 C  
HETATM    4  C   UNL     1      -9.947  13.557  67.566  1.00  0.00    -0.230 A  
HETATM    5  C   UNL     1      -8.710  13.870  68.161  1.00  0.00    -0.182 A  
HETATM    6  C   UNL     1      -8.885  11.591  66.543  1.00  0.00    -0.190 A  
HETATM    7  C   UNL     1      -7.580  13.062  67.930  1.00  0.00    -0.144 A  
HETATM    8  C   UNL     1      -7.648  11.934  67.099  1.00  0.00    -0.154 A  
HETATM    9  C   UNL     1     -10.012  12.373  66.800  1.00  0.00    -0.234 A  
HETATM   10  C   UNL     1      -6.411  11.136  66.816  1.00  0.00    -0.125 C  
ENDROOT
BRANCH   5  11
HETATM   11  O   UNL     1      -8.661  14.920  69.045  1.00  0.00    -0.191 OA 
BRANCH  11  12
HETATM   12  C   UNL     1      -7.371  15.191  69.615  1.00  0.00    -0.191 C  
BRANCH  12  13
HETATM   13  C   UNL     1      -7.001  16.659  69.326  1.00  0.00    -0.225 C  
BRANCH  13  14
HETATM   14  N   UNL     1      -7.679  17.243  68.149  1.00  0.00    -0.210 NA 
HETATM   15  C   UNL     1      -7.951  18.670  68.326  1.00  0.00    -0.312 C  
HETATM   16  C   UNL     1      -6.860  17.044  66.951  1.00  0.00    -0.212 C  
ENDBRANCH  13  14
ENDBRANCH  12  13
ENDBRANCH  11  12
ENDBRANCH   5  11
BRANCH   6  17
HETATM   17  O   UNL     1      -8.910  10.459  65.681  1.00  0.00    -0.159 OA 
BRANCH  17  18
HETATM   18  C   UNL     1      -9.345  10.424  64.349  1.00  0.00    -0.272 C  
HETATM   19  O   UNL     1     -10.478  10.614  63.931  1.00  0.00    -0.280 OA 
HETATM   20  C   UNL     1      -8.169  10.174  63.456  1.00  0.00    -0.165 C  
ENDBRANCH  17  18
ENDBRANCH   6  17
TORSDOF 6
ENDMDL
MODEL      135
REMARK 921   NORMALIZED FREE ENERGY PREDICTED BY IDOCK:   -3.35 KCAL/MOL
REMARK 922        TOTAL FREE ENERGY PREDICTED BY IDOCK:   -5.13 KCAL/MOL
REMARK 923 INTER-LIGAND FREE ENERGY PREDICTED BY IDOCK:   -4.63 KCAL/MOL
REMARK 924 INTRA-LIGAND FREE ENERGY PREDICTED BY IDOCK:   -0.50 KCAL/MOL
REMARK 927      BINDING AFFINITY PREDICTED BY RF-SCORE:    0.00 PKD
ROOT
HETATM    1  C   UNL     1      -8.517  16.162  66.818  1.00  0.00    -0.289 C  
HETATM    2  C   UNL     1      -9.048  16.158  68.262  1.00  0.00    -0.190 C  
HETATM    3  C   UNL     1      -9.837  17.477  68.429  1.00  0.00    -0.325 C  
HETATM    4  C   UNL     1      -9.848  14.894  68.623  1.00  0.00    -0.225 A  
HETATM    5  C   UNL     1      -9.462  13.596  68.240  1.00  0.00    -0.213 A  
HETATM    6  C   UNL     1     -11.851  13.923  69.665  1.00  0.00    -0.327 A  
HETATM    7  C   UNL     1     -10.272  12.487  68.553  1.00  0.00    -0.210 A  
HETATM    8  C   UNL     1     -11.484  12.640  69.241  1.00  0.00    -0.354 A  
HETATM    9  C   UNL     1     -11.031  15.016  69.385  1.00  0.00    -0.275 A  
HETATM   10  C   UNL     1     -12.358  11.449  69.495  1.00  0.00    -0.211 C  
ENDROOT
BRANCH   5  11
HETATM   11  O   UNL     1      -8.234  13.431  67.646  1.00  0.00    -0.151 OA 
BRANCH  11  12
HETATM   12  C   UNL     1      -8.072  12.226  66.881  1.00  0.00    -0.090 C  
BRANCH  12  13
HETATM   13  C   UNL     1      -7.104  11.291  67.630  1.00  0.00    -0.090 C  
BRANCH  13  14
HETATM   14  N   UNL     1      -7.048   9.912  67.099  1.00  0.00    -0.085 NA 
HETATM   15  C   UNL     1      -6.852   9.890  65.649  1.00  0.00    -0.106 C  
HETATM   16  C   UNL     1      -5.967   9.169  67.751  1.00  0.00    -0.049 C  
ENDBRANCH  13  14
ENDBRANCH  12  13
ENDBRANCH  11  12
ENDBRANCH   5  11
BRANCH   6  17
HETATM   17  O   UNL     1     -13.101  14.045  70.334  1.00  0.00    -0.189 OA 
BRANCH  17  18
HETATM   18  C   UNL     1     -13.310  14.140  71.717  1.00  0.00    -0.380 C  
HETATM   19  O   UNL     1     -12.898  13.384  72.585  1.00  0.00    -0.222 OA 
HETATM   20  C   UNL     1     -14.086  15.387  72.010  1.00  0.00    -0.647 C  
ENDBRANCH  17  18
ENDBRANCH   6  17
TORSDOF 6
ENDMDL
MODEL      136
REMARK 921   NORMALIZED FREE ENERGY PREDICTED BY IDOCK:   -3.34 KCAL/MOL
REMARK 922        TOTAL FREE ENERGY PREDICTED BY IDOCK:   -5.12 KCAL/MOL
REMARK 923 INTER-LIGAND FREE ENERGY PREDICTED BY IDOCK:   -4.30 KCAL/MOL
REMARK 924 INTRA-LIGAND FREE ENERGY PREDICTED BY IDOCK:   -0.82 KCAL/MOL
REMARK 927      BINDING AFFINITY PREDICTED BY RF-SCORE:    0.00 PKD
ROOT
HETATM    1  C   UNL     1      -9.822   8.876  71.470  1.00  0.00    -0.384 C  
HETATM    2  C   UNL     1     -10.541   9.505  70.265  1.00  0.00    -0.317 C  
HETATM    3  C   UNL     1     -11.825  10.157  70.828  1.00  0.00    -0.443 C  
HETATM    4  C   UNL     1      -9.656  10.460  69.445  1.00  0.00    -0.213 A  
HETATM    5  C   UNL     1      -8.311  10.190  69.127  1.00  0.00    -0.154 A  
HETATM    6  C   UNL     1      -9.426  12.624  68.304  1.00  0.00    -0.203 A  
HETATM    7  C   UNL     1      -7.540  11.135  68.423  1.00  0.00    -0.110 A  
HETATM    8  C   UNL     1      -8.078  12.369  68.030  1.00  0.00    -0.162 A  
HETATM    9  C   UNL     1     -10.200  11.673  68.970  1.00  0.00    -0.077 A  
HETATM   10  C   UNL     1      -7.210  13.382  67.347  1.00  0.00    -0.116 C  
ENDROOT
BRANCH   5  11
HETATM   11  O   UNL     1      -7.808   8.949  69.430  1.00  0.00    -0.093 OA 
BRANCH  11  12
HETATM   12  C   UNL     1      -7.465   8.126  68.304  1.00  0.00    -0.097 C  
BRANCH  12  13
HETATM   13  C   UNL     1      -8.218   6.787  68.422  1.00  0.00    -0.119 C  
BRANCH  13  14
HETATM   14  N   UNL     1      -8.963   6.391  67.208  1.00  0.00    -0.107 NA 
HETATM   15  C   UNL     1      -9.365   4.984  67.245  1.00  0.00    -0.126 C  
HETATM   16  C   UNL     1     -10.149   7.236  67.052  1.00  0.00    -0.246 C  
ENDBRANCH  13  14
ENDBRANCH  12  13
ENDBRANCH  11  12
ENDBRANCH   5  11
BRANCH   6  17
HETATM   17  O   UNL     1      -9.930  13.897  67.917  1.00  0.00    -0.230 OA 
BRANCH  17  18
HETATM   18  C   UNL     1     -10.910  14.156  66.947  1.00  0.00    -0.296 C  
HETATM   19  O   UNL     1     -12.124  14.127  67.091  1.00  0.00    -0.426 OA 
HETATM   20  C   UNL     1     -10.241  14.555  65.669  1.00  0.00    -0.379 C  
ENDBRANCH  17  18
ENDBRANCH   6  17
TORSDOF 6
ENDMDL
MODEL      137
REMARK 921   NORMALIZED FREE ENERGY PREDICTED BY IDOCK:   -3.30 KCAL/MOL
REMARK 922        TOTAL FREE ENERGY PREDICTED BY IDOCK:   -5.06 KCAL/MOL
REMARK 923 INTER-LIGAND FREE ENERGY PREDICTED BY IDOCK:   -4.63 KCAL/MOL
REMARK 924 INTRA-LIGAND FREE ENERGY PREDICTED BY IDOCK:   -0.43 KCAL/MOL
REMARK 927      BINDING AFFINITY PREDICTED BY RF-SCORE:    0.00 PKD
ROOT
HETATM    1  C   UNL     1     -10.783   6.516  68.537  1.00  0.00    -0.329 C  
HETATM    2  C   UNL     1     -10.690   5.612  69.778  1.00  0.00    -0.401 C  
HETATM    3  C   UNL     1      -9.895   4.362  69.335  1.00  0.00    -0.239 C  
HETATM    4  C   UNL     1     -10.113   6.319  71.017  1.00  0.00    -0.221 A  
HETATM    5  C   UNL     1     -10.459   7.631  71.393  1.00  0.00    -0.208 A  
HETATM    6  C   UNL     1      -8.563   6.250  72.922  1.00  0.00    -0.122 A  
HETATM    7  C   UNL     1      -9.849   8.241  72.506  1.00  0.00    -0.368 A  
HETATM    8  C   UNL     1      -8.878   7.571  73.263  1.00  0.00    -0.221 A  
HETATM    9  C   UNL     1      -9.193   5.635  71.841  1.00  0.00    -0.157 A  
HETATM   10  C   UNL     1      -8.195   8.273  74.398  1.00  0.00    -0.206 C  
ENDROOT
BRANCH   5  11
HETATM   11  O   UNL     1     -11.474   8.257  70.709  1.00  0.00    -0.271 OA 
BRANCH  11  12
HETATM   12  C   UNL     1     -11.149   9.544  70.160  1.00  0.00    -0.255 C  
BRANCH  12  13
HETATM   13  C   UNL     1     -12.351  10.486  70.366  1.00  0.00    -0.324 C  
BRANCH  13  14
HETATM   14  N   UNL     1     -12.751  10.672  71.777  1.00  0.00    -0.419 NA 
HETATM   15  C   UNL     1     -13.245  12.026  72.033  1.00  0.00    -0.375 C  
HETATM   16  C   UNL     1     -13.783   9.697  72.136  1.00  0.00    -0.320 C  
ENDBRANCH  13  14
ENDBRANCH  12  13
ENDBRANCH  11  12
ENDBRANCH   5  11
BRANCH   6  17
HETATM   17  O   UNL     1      -7.552   5.612  73.694  1.00  0.00    -0.093 OA 
BRANCH  17  18
HETATM   18  C   UNL     1      -6.504   4.814  73.213  1.00  0.00    -0.055 C  
HETATM   19  O   UNL     1      -6.498   3.600  73.071  1.00  0.00    -0.022 OA 
HETATM   20  C   UNL     1      -5.360   5.696  72.816  1.00  0.00    -0.022 C  
ENDBRANCH  17  18
ENDBRANCH   6  17
TORSDOF 6
ENDMDL
MODEL      138
REMARK 921   NORMALIZED FREE ENERGY PREDICTED BY IDOCK:   -3.30 KCAL/MOL
REMARK 922        TOTAL FREE ENERGY PREDICTED BY IDOCK:   -5.06 KCAL/MOL
REMARK 923 INTER-LIGAND FREE ENERGY PREDICTED BY IDOCK:   -4.28 KCAL/MOL
REMARK 924 INTRA-LIGAND FREE ENERGY PREDICTED BY IDOCK:   -0.78 KCAL/MOL
REMARK 927      BINDING AFFINITY PREDICTED BY RF-SCORE:    0.00 PKD
ROOT
HETATM    1  C   UNL     1      -7.877  12.199  68.353  1.00  0.00    -0.149 C  
HETATM    2  C   UNL     1      -7.938  11.490  66.990  1.00  0.00    -0.161 C  
HETATM    3  C   UNL     1      -6.471  11.250  66.568  1.00  0.00    -0.111 C  
HETATM    4  C   UNL     1      -8.810  10.222  66.991  1.00  0.00    -0.143 A  
HETATM    5  C   UNL     1     -10.054  10.136  67.644  1.00  0.00    -0.190 A  
HETATM    6  C   UNL     1      -9.059   7.865  66.342  1.00  0.00    -0.179 A  
HETATM    7  C   UNL     1     -10.773   8.925  67.656  1.00  0.00    -0.221 A  
HETATM    8  C   UNL     1     -10.273   7.773  67.032  1.00  0.00    -0.375 A  
HETATM    9  C   UNL     1      -8.364   9.073  66.302  1.00  0.00    -0.122 A  
HETATM   10  C   UNL     1     -11.029   6.482  67.124  1.00  0.00    -0.480 C  
ENDROOT
BRANCH   5  11
HETATM   11  O   UNL     1     -10.589  11.283  68.178  1.00  0.00    -0.177 OA 
BRANCH  11  12
HETATM   12  C   UNL     1     -11.548  11.963  67.352  1.00  0.00    -0.297 C  
BRANCH  12  13
HETATM   13  C   UNL     1     -11.832  13.349  67.963  1.00  0.00    -0.357 C  
BRANCH  13  14
HETATM   14  N   UNL     1     -11.539  14.487  67.066  1.00  0.00    -0.374 NA 
HETATM   15  C   UNL     1     -11.137  15.682  67.810  1.00  0.00    -0.311 C  
HETATM   16  C   UNL     1     -10.482  14.119  66.121  1.00  0.00    -0.296 C  
ENDBRANCH  13  14
ENDBRANCH  12  13
ENDBRANCH  11  12
ENDBRANCH   5  11
BRANCH   6  17
HETATM   17  O   UNL     1      -8.568   6.669  65.747  1.00  0.00    -0.148 OA 
BRANCH  17  18
HETATM   18  C   UNL     1      -7.320   6.068  65.971  1.00  0.00    -0.077 C  
HETATM   19  O   UNL     1      -6.363   6.037  65.211  1.00  0.00    -0.036 OA 
HETATM   20  C   UNL     1      -7.291   5.500  67.356  1.00  0.00    -0.076 C  
ENDBRANCH  17  18
ENDBRANCH   6  17
TORSDOF 6
ENDMDL
MODEL      139
REMARK 921   NORMALIZED FREE ENERGY PREDICTED BY IDOCK:   -3.25 KCAL/MOL
REMARK 922        TOTAL FREE ENERGY PREDICTED BY IDOCK:   -4.99 KCAL/MOL
REMARK 923 INTER-LIGAND FREE ENERGY PREDICTED BY IDOCK:   -4.41 KCAL/MOL
REMARK 924 INTRA-LIGAND FREE ENERGY PREDICTED BY IDOCK:   -0.58 KCAL/MOL
REMARK 927      BINDING AFFINITY PREDICTED BY RF-SCORE:    0.00 PKD
ROOT
HETATM    1  C   UNL     1     -11.140  10.085  67.891  1.00  0.00    -0.260 C  
HETATM    2  C   UNL     1      -9.948   9.132  68.086  1.00  0.00    -0.206 C  
HETATM    3  C   UNL     1     -10.461   7.989  68.991  1.00  0.00    -0.212 C  
HETATM    4  C   UNL     1      -9.314   8.657  66.767  1.00  0.00    -0.229 A  
HETATM    5  C   UNL     1      -9.088   9.503  65.665  1.00  0.00    -0.201 A  
HETATM    6  C   UNL     1      -8.429   6.791  65.435  1.00  0.00    -0.096 A  
HETATM    7  C   UNL     1      -8.558   8.990  64.466  1.00  0.00    -0.181 A  
HETATM    8  C   UNL     1      -8.250   7.629  64.328  1.00  0.00    -0.009 A  
HETATM    9  C   UNL     1      -8.921   7.307  66.633  1.00  0.00    -0.170 A  
HETATM   10  C   UNL     1      -7.755   7.101  63.015  1.00  0.00    -0.119 C  
ENDROOT
BRANCH   5  11
HETATM   11  O   UNL     1      -9.303  10.851  65.826  1.00  0.00    -0.187 OA 
BRANCH  11  12
HETATM   12  C   UNL     1      -9.990  11.502  64.745  1.00  0.00    -0.260 C  
BRANCH  12  13
HETATM   13  C   UNL     1     -10.392  12.919  65.197  1.00  0.00    -0.303 C  
BRANCH  13  14
HETATM   14  N   UNL     1     -11.590  13.462  64.521  1.00  0.00    -0.355 NA 
HETATM   15  C   UNL     1     -12.197  12.487  63.614  1.00  0.00    -0.550 C  
HETATM   16  C   UNL     1     -12.577  13.885  65.518  1.00  0.00    -0.526 C  
ENDBRANCH  13  14
ENDBRANCH  12  13
ENDBRANCH  11  12
ENDBRANCH   5  11
BRANCH   6  17
HETATM   17  O   UNL     1      -8.135   5.411  65.249  1.00  0.00    -0.110 OA 
BRANCH  17  18
HETATM   18  C   UNL     1      -9.046   4.345  65.275  1.00  0.00    -0.146 C  
HETATM   19  O   UNL     1     -10.078   4.234  64.630  1.00  0.00    -0.177 OA 
HETATM   20  C   UNL     1      -8.529   3.281  66.193  1.00  0.00    -0.111 C  
ENDBRANCH  17  18
ENDBRANCH   6  17
TORSDOF 6
ENDMDL
MODEL      140
REMARK 921   NORMALIZED FREE ENERGY PREDICTED BY IDOCK:   -3.25 KCAL/MOL
REMARK 922        TOTAL FREE ENERGY PREDICTED BY IDOCK:   -4.99 KCAL/MOL
REMARK 923 INTER-LIGAND FREE ENERGY PREDICTED BY IDOCK:   -4.14 KCAL/MOL
REMARK 924 INTRA-LIGAND FREE ENERGY PREDICTED BY IDOCK:   -0.85 KCAL/MOL
REMARK 927      BINDING AFFINITY PREDICTED BY RF-SCORE:    0.00 PKD
ROOT
HETATM    1  C   UNL     1      -8.539   8.903  66.405  1.00  0.00    -0.136 C  
HETATM    2  C   UNL     1      -8.042   8.401  67.771  1.00  0.00    -0.122 C  
HETATM    3  C   UNL     1      -7.212   9.557  68.374  1.00  0.00    -0.075 C  
HETATM    4  C   UNL     1      -9.167   7.887  68.688  1.00  0.00    -0.142 A  
HETATM    5  C   UNL     1     -10.236   7.092  68.234  1.00  0.00    -0.184 A  
HETATM    6  C   UNL     1     -10.179   7.856  70.927  1.00  0.00    -0.198 A  
HETATM    7  C   UNL     1     -11.264   6.706  69.114  1.00  0.00    -0.305 A  
HETATM    8  C   UNL     1     -11.262   7.105  70.459  1.00  0.00    -0.321 A  
HETATM    9  C   UNL     1      -9.143   8.210  70.062  1.00  0.00    -0.151 A  
HETATM   10  C   UNL     1     -12.408   6.737  71.352  1.00  0.00    -0.403 C  
ENDROOT
BRANCH   5  11
HETATM   11  O   UNL     1     -10.196   6.625  66.942  1.00  0.00    -0.190 OA 
BRANCH  11  12
HETATM   12  C   UNL     1     -10.195   5.195  66.800  1.00  0.00    -0.253 C  
BRANCH  12  13
HETATM   13  C   UNL     1      -8.752   4.682  66.974  1.00  0.00    -0.104 C  
BRANCH  13  14
HETATM   14  N   UNL     1      -8.406   4.280  68.354  1.00  0.00    -0.091 NA 
HETATM   15  C   UNL     1      -9.379   3.340  68.912  1.00  0.00    -0.164 C  
HETATM   16  C   UNL     1      -7.071   3.677  68.378  1.00  0.00    -0.051 C  
ENDBRANCH  13  14
ENDBRANCH  12  13
ENDBRANCH  11  12
ENDBRANCH   5  11
BRANCH   6  17
HETATM   17  O   UNL     1     -10.225   8.269  72.288  1.00  0.00    -0.250 OA 
BRANCH  17  18
HETATM   18  C   UNL     1      -9.322   7.923  73.304  1.00  0.00    -0.286 C  
HETATM   19  O   UNL     1      -8.279   8.490  73.597  1.00  0.00    -0.383 OA 
HETATM   20  C   UNL     1      -9.862   6.749  74.061  1.00  0.00    -0.334 C  
ENDBRANCH  17  18
ENDBRANCH   6  17
TORSDOF 6
ENDMDL
MODEL      141
REMARK 921   NORMALIZED FREE ENERGY PREDICTED BY IDOCK:   -3.20 KCAL/MOL
REMARK 922        TOTAL FREE ENERGY PREDICTED BY IDOCK:   -4.93 KCAL/MOL
REMARK 923 INTER-LIGAND FREE ENERGY PREDICTED BY IDOCK:   -4.12 KCAL/MOL
REMARK 924 INTRA-LIGAND FREE ENERGY PREDICTED BY IDOCK:   -0.82 KCAL/MOL
REMARK 927      BINDING AFFINITY PREDICTED BY RF-SCORE:    0.00 PKD
ROOT
HETATM    1  C   UNL     1     -10.252   9.856  70.138  1.00  0.00    -0.326 C  
HETATM    2  C   UNL     1     -10.765   9.362  68.775  1.00  0.00    -0.200 C  
HETATM    3  C   UNL     1     -10.099  10.270  67.715  1.00  0.00    -0.213 C  
HETATM    4  C   UNL     1     -10.548   7.856  68.541  1.00  0.00    -0.146 A  
HETATM    5  C   UNL     1     -10.766   6.878  69.530  1.00  0.00    -0.246 A  
HETATM    6  C   UNL     1      -9.810   6.068  67.026  1.00  0.00    -0.152 A  
HETATM    7  C   UNL     1     -10.491   5.522  69.268  1.00  0.00    -0.336 A  
HETATM    8  C   UNL     1      -9.985   5.107  68.028  1.00  0.00    -0.200 A  
HETATM    9  C   UNL     1     -10.115   7.406  67.275  1.00  0.00    -0.296 A  
HETATM   10  C   UNL     1      -9.635   3.666  67.805  1.00  0.00    -0.189 C  
ENDROOT
BRANCH   5  11
HETATM   11  O   UNL     1     -11.346   7.268  70.713  1.00  0.00    -0.269 OA 
BRANCH  11  12
HETATM   12  C   UNL     1     -11.231   6.333  71.797  1.00  0.00    -0.284 C  
BRANCH  12  13
HETATM   13  C   UNL     1     -10.553   7.038  72.989  1.00  0.00    -0.292 C  
BRANCH  13  14
HETATM   14  N   UNL     1      -9.109   7.297  72.808  1.00  0.00    -0.133 NA 
HETATM   15  C   UNL     1      -8.534   8.010  73.949  1.00  0.00    -0.260 C  
HETATM   16  C   UNL     1      -8.396   6.033  72.610  1.00  0.00    -0.118 C  
ENDBRANCH  13  14
ENDBRANCH  12  13
ENDBRANCH  11  12
ENDBRANCH   5  11
BRANCH   6  17
HETATM   17  O   UNL     1      -9.266   5.615  65.791  1.00  0.00    -0.156 OA 
BRANCH  17  18
HETATM   18  C   UNL     1      -8.054   6.012  65.209  1.00  0.00    -0.134 C  
HETATM   19  O   UNL     1      -7.773   7.111  64.752  1.00  0.00    -0.100 OA 
HETATM   20  C   UNL     1      -7.080   4.877  65.283  1.00  0.00    -0.063 C  
ENDBRANCH  17  18
ENDBRANCH   6  17
TORSDOF 6
ENDMDL
MODEL      142
REMARK 921   NORMALIZED FREE ENERGY PREDICTED BY IDOCK:   -3.20 KCAL/MOL
REMARK 922        TOTAL FREE ENERGY PREDICTED BY IDOCK:   -4.93 KCAL/MOL
REMARK 923 INTER-LIGAND FREE ENERGY PREDICTED BY IDOCK:   -4.30 KCAL/MOL
REMARK 924 INTRA-LIGAND FREE ENERGY PREDICTED BY IDOCK:   -0.63 KCAL/MOL
REMARK 927      BINDING AFFINITY PREDICTED BY RF-SCORE:    0.00 PKD
ROOT
HETATM    1  C   UNL     1      -9.080   7.050  66.186  1.00  0.00    -0.149 C  
HETATM    2  C   UNL     1     -10.303   6.478  66.921  1.00  0.00    -0.311 C  
HETATM    3  C   UNL     1      -9.982   4.990  67.189  1.00  0.00    -0.226 C  
HETATM    4  C   UNL     1     -10.698   7.275  68.177  1.00  0.00    -0.191 A  
HETATM    5  C   UNL     1     -10.707   8.681  68.234  1.00  0.00    -0.052 A  
HETATM    6  C   UNL     1     -11.361   7.239  70.543  1.00  0.00    -0.280 A  
HETATM    7  C   UNL     1     -11.022   9.347  69.434  1.00  0.00    -0.165 A  
HETATM    8  C   UNL     1     -11.323   8.637  70.605  1.00  0.00    -0.277 A  
HETATM    9  C   UNL     1     -11.084   6.581  69.345  1.00  0.00    -0.407 A  
HETATM   10  C   UNL     1     -11.583   9.375  71.884  1.00  0.00    -0.348 C  
ENDROOT
BRANCH   5  11
HETATM   11  O   UNL     1     -10.501   9.380  67.068  1.00  0.00    -0.251 OA 
BRANCH  11  12
HETATM   12  C   UNL     1      -9.961  10.702  67.225  1.00  0.00    -0.188 C  
BRANCH  12  13
HETATM   13  C   UNL     1      -8.425  10.605  67.283  1.00  0.00    -0.126 C  
BRANCH  13  14
HETATM   14  N   UNL     1      -7.808  11.309  68.428  1.00  0.00    -0.128 NA 
HETATM   15  C   UNL     1      -6.400  10.945  68.601  1.00  0.00    -0.050 C  
HETATM   16  C   UNL     1      -7.921  12.757  68.243  1.00  0.00    -0.151 C  
ENDBRANCH  13  14
ENDBRANCH  12  13
ENDBRANCH  11  12
ENDBRANCH   5  11
BRANCH   6  17
HETATM   17  O   UNL     1     -11.641   6.551  71.757  1.00  0.00    -0.281 OA 
BRANCH  17  18
HETATM   18  C   UNL     1     -10.707   6.048  72.675  1.00  0.00    -0.232 C  
HETATM   19  O   UNL     1     -10.220   6.629  73.634  1.00  0.00    -0.239 OA 
HETATM   20  C   UNL     1     -10.421   4.616  72.346  1.00  0.00    -0.250 C  
ENDBRANCH  17  18
ENDBRANCH   6  17
TORSDOF 6
ENDMDL
MODEL      143
REMARK 921   NORMALIZED FREE ENERGY PREDICTED BY IDOCK:   -3.15 KCAL/MOL
REMARK 922        TOTAL FREE ENERGY PREDICTED BY IDOCK:   -4.86 KCAL/MOL
REMARK 923 INTER-LIGAND FREE ENERGY PREDICTED BY IDOCK:   -4.29 KCAL/MOL
REMARK 924 INTRA-LIGAND FREE ENERGY PREDICTED BY IDOCK:   -0.57 KCAL/MOL
REMARK 927      BINDING AFFINITY PREDICTED BY RF-SCORE:    0.00 PKD
ROOT
HETATM    1  C   UNL     1      -9.872   9.744  65.182  1.00  0.00    -0.294 C  
HETATM    2  C   UNL     1     -10.188   9.538  66.673  1.00  0.00    -0.310 C  
HETATM    3  C   UNL     1     -10.487   8.031  66.841  1.00  0.00    -0.387 C  
HETATM    4  C   UNL     1      -9.095  10.073  67.616  1.00  0.00    -0.142 A  
HETATM    5  C   UNL     1      -8.434  11.300  67.421  1.00  0.00    -0.137 A  
HETATM    6  C   UNL     1      -7.678   9.696  69.588  1.00  0.00    -0.124 A  
HETATM    7  C   UNL     1      -7.401  11.702  68.289  1.00  0.00    -0.093 A  
HETATM    8  C   UNL     1      -6.994  10.895  69.361  1.00  0.00    -0.125 A  
HETATM    9  C   UNL     1      -8.724   9.315  68.748  1.00  0.00    -0.132 A  
HETATM   10  C   UNL     1      -5.843  11.319  70.224  1.00  0.00    -0.146 C  
ENDROOT
BRANCH   5  11
HETATM   11  O   UNL     1      -8.890  12.133  66.427  1.00  0.00    -0.184 OA 
BRANCH  11  12
HETATM   12  C   UNL     1      -9.521  13.343  66.874  1.00  0.00    -0.253 C  
BRANCH  12  13
HETATM   13  C   UNL     1     -11.049  13.171  66.771  1.00  0.00    -0.289 C  
BRANCH  13  14
HETATM   14  N   UNL     1     -11.775  13.348  68.048  1.00  0.00    -0.336 NA 
HETATM   15  C   UNL     1     -11.745  12.136  68.867  1.00  0.00    -0.327 C  
HETATM   16  C   UNL     1     -11.195  14.463  68.800  1.00  0.00    -0.260 C  
ENDBRANCH  13  14
ENDBRANCH  12  13
ENDBRANCH  11  12
ENDBRANCH   5  11
BRANCH   6  17
HETATM   17  O   UNL     1      -7.218   8.889  70.666  1.00  0.00    -0.056 OA 
BRANCH  17  18
HETATM   18  C   UNL     1      -7.771   8.809  71.953  1.00  0.00    -0.006 C  
HETATM   19  O   UNL     1      -7.181   8.879  73.021  1.00  0.00    -0.343 OA 
HETATM   20  C   UNL     1      -9.259   8.685  71.840  1.00  0.00    -0.345 C  
ENDBRANCH  17  18
ENDBRANCH   6  17
TORSDOF 6
ENDMDL
MODEL      144
REMARK 921   NORMALIZED FREE ENERGY PREDICTED BY IDOCK:   -3.13 KCAL/MOL
REMARK 922        TOTAL FREE ENERGY PREDICTED BY IDOCK:   -4.83 KCAL/MOL
REMARK 923 INTER-LIGAND FREE ENERGY PREDICTED BY IDOCK:   -4.10 KCAL/MOL
REMARK 924 INTRA-LIGAND FREE ENERGY PREDICTED BY IDOCK:   -0.73 KCAL/MOL
REMARK 927      BINDING AFFINITY PREDICTED BY RF-SCORE:    0.00 PKD
ROOT
HETATM    1  C   UNL     1      -8.684   6.866  70.079  1.00  0.00    -0.142 C  
HETATM    2  C   UNL     1      -9.189   8.313  70.210  1.00  0.00    -0.155 C  
HETATM    3  C   UNL     1      -8.105   9.070  71.012  1.00  0.00    -0.199 C  
HETATM    4  C   UNL     1      -9.550   8.967  68.865  1.00  0.00    -0.156 A  
HETATM    5  C   UNL     1     -10.244   8.299  67.838  1.00  0.00    -0.220 A  
HETATM    6  C   UNL     1      -9.397  10.931  67.395  1.00  0.00    -0.155 A  
HETATM    7  C   UNL     1     -10.490   8.937  66.608  1.00  0.00    -0.231 A  
HETATM    8  C   UNL     1     -10.047  10.245  66.363  1.00  0.00    -0.296 A  
HETATM    9  C   UNL     1      -9.184  10.310  68.626  1.00  0.00    -0.159 A  
HETATM   10  C   UNL     1     -10.262  10.870  65.018  1.00  0.00    -0.367 C  
ENDROOT
BRANCH   5  11
HETATM   11  O   UNL     1     -10.757   7.053  68.106  1.00  0.00    -0.210 OA 
BRANCH  11  12
HETATM   12  C   UNL     1     -11.017   6.230  66.957  1.00  0.00    -0.364 C  
BRANCH  12  13
HETATM   13  C   UNL     1      -9.865   5.219  66.802  1.00  0.00    -0.176 C  
BRANCH  13  14
HETATM   14  N   UNL     1      -9.347   5.084  65.424  1.00  0.00    -0.145 NA 
HETATM   15  C   UNL     1      -7.892   4.924  65.397  1.00  0.00    -0.091 C  
HETATM   16  C   UNL     1      -9.978   3.938  64.764  1.00  0.00    -0.200 C  
ENDBRANCH  13  14
ENDBRANCH  12  13
ENDBRANCH  11  12
ENDBRANCH   5  11
BRANCH   6  17
HETATM   17  O   UNL     1      -8.935  12.245  67.101  1.00  0.00    -0.178 OA 
BRANCH  17  18
HETATM   18  C   UNL     1      -9.320  13.434  67.738  1.00  0.00    -0.211 C  
HETATM   19  O   UNL     1      -8.748  14.004  68.656  1.00  0.00    -0.170 OA 
HETATM   20  C   UNL     1     -10.546  13.974  67.069  1.00  0.00    -0.279 C  
ENDBRANCH  17  18
ENDBRANCH   6  17
TORSDOF 6
ENDMDL
MODEL      145
REMARK 921   NORMALIZED FREE ENERGY PREDICTED BY IDOCK:   -3.09 KCAL/MOL
REMARK 922        TOTAL FREE ENERGY PREDICTED BY IDOCK:   -4.78 KCAL/MOL
REMARK 923 INTER-LIGAND FREE ENERGY PREDICTED BY IDOCK:   -4.17 KCAL/MOL
REMARK 924 INTRA-LIGAND FREE ENERGY PREDICTED BY IDOCK:   -0.61 KCAL/MOL
REMARK 927      BINDING AFFINITY PREDICTED BY RF-SCORE:    0.00 PKD
ROOT
HETATM    1  C   UNL     1     -10.925  10.930  66.256  1.00  0.00    -0.130 C  
HETATM    2  C   UNL     1     -10.425  12.260  65.669  1.00  0.00    -0.293 C  
HETATM    3  C   UNL     1     -11.691  13.048  65.260  1.00  0.00    -0.388 C  
HETATM    4  C   UNL     1      -9.477  13.032  66.603  1.00  0.00    -0.256 A  
HETATM    5  C   UNL     1      -8.459  12.416  67.357  1.00  0.00    -0.179 A  
HETATM    6  C   UNL     1      -8.845  15.177  67.622  1.00  0.00    -0.173 A  
HETATM    7  C   UNL     1      -7.664  13.173  68.239  1.00  0.00    -0.141 A  
HETATM    8  C   UNL     1      -7.866  14.552  68.402  1.00  0.00    -0.135 A  
HETATM    9  C   UNL     1      -9.609  14.432  66.723  1.00  0.00    -0.279 A  
HETATM   10  C   UNL     1      -7.051  15.316  69.402  1.00  0.00    -0.191 C  
ENDROOT
BRANCH   5  11
HETATM   11  O   UNL     1      -8.199  11.086  67.133  1.00  0.00    -0.126 OA 
BRANCH  11  12
HETATM   12  C   UNL     1      -7.494  10.407  68.184  1.00  0.00    -0.090 C  
BRANCH  12  13
HETATM   13  C   UNL     1      -8.518   9.889  69.213  1.00  0.00    -0.158 C  
BRANCH  13  14
HETATM   14  N   UNL     1      -8.548   8.418  69.363  1.00  0.00    -0.128 NA 
HETATM   15  C   UNL     1      -8.896   8.013  70.726  1.00  0.00    -0.139 C  
HETATM   16  C   UNL     1      -9.507   7.840  68.419  1.00  0.00    -0.147 C  
ENDBRANCH  13  14
ENDBRANCH  12  13
ENDBRANCH  11  12
ENDBRANCH   5  11
BRANCH   6  17
HETATM   17  O   UNL     1      -9.042  16.570  67.836  1.00  0.00    -0.203 OA 
BRANCH  17  18
HETATM   18  C   UNL     1     -10.258  17.217  68.102  1.00  0.00    -0.343 C  
HETATM   19  O   UNL     1     -11.060  16.958  68.988  1.00  0.00    -0.242 OA 
HETATM   20  C   UNL     1     -10.421  18.364  67.153  1.00  0.00    -0.434 C  
ENDBRANCH  17  18
ENDBRANCH   6  17
TORSDOF 6
ENDMDL
MODEL      146
REMARK 921   NORMALIZED FREE ENERGY PREDICTED BY IDOCK:   -3.08 KCAL/MOL
REMARK 922        TOTAL FREE ENERGY PREDICTED BY IDOCK:   -4.77 KCAL/MOL
REMARK 923 INTER-LIGAND FREE ENERGY PREDICTED BY IDOCK:   -4.25 KCAL/MOL
REMARK 924 INTRA-LIGAND FREE ENERGY PREDICTED BY IDOCK:   -0.52 KCAL/MOL
REMARK 927      BINDING AFFINITY PREDICTED BY RF-SCORE:    0.00 PKD
ROOT
HETATM    1  C   UNL     1     -10.991  10.433  69.863  1.00  0.00    -0.364 C  
HETATM    2  C   UNL     1     -11.006  10.152  68.351  1.00  0.00    -0.293 C  
HETATM    3  C   UNL     1     -10.474  11.436  67.674  1.00  0.00    -0.225 C  
HETATM    4  C   UNL     1     -10.255   8.870  67.951  1.00  0.00    -0.274 A  
HETATM    5  C   UNL     1     -10.338   7.665  68.673  1.00  0.00    -0.200 A  
HETATM    6  C   UNL     1      -8.656   7.778  66.437  1.00  0.00    -0.145 A  
HETATM    7  C   UNL     1      -9.577   6.545  68.287  1.00  0.00    -0.131 A  
HETATM    8  C   UNL     1      -8.709   6.597  67.186  1.00  0.00    -0.111 A  
HETATM    9  C   UNL     1      -9.437   8.875  66.800  1.00  0.00    -0.243 A  
HETATM   10  C   UNL     1      -7.859   5.411  66.845  1.00  0.00    -0.101 C  
ENDROOT
BRANCH   5  11
HETATM   11  O   UNL     1     -11.252   7.582  69.696  1.00  0.00    -0.147 OA 
BRANCH  11  12
HETATM   12  C   UNL     1     -11.409   6.280  70.283  1.00  0.00    -0.388 C  
BRANCH  12  13
HETATM   13  C   UNL     1     -12.135   6.431  71.634  1.00  0.00    -0.262 C  
BRANCH  13  14
HETATM   14  N   UNL     1     -11.337   6.022  72.809  1.00  0.00    -0.266 NA 
HETATM   15  C   UNL     1     -10.432   4.914  72.499  1.00  0.00    -0.205 C  
HETATM   16  C   UNL     1     -10.563   7.161  73.308  1.00  0.00    -0.364 C  
ENDBRANCH  13  14
ENDBRANCH  12  13
ENDBRANCH  11  12
ENDBRANCH   5  11
BRANCH   6  17
HETATM   17  O   UNL     1      -7.744   7.805  65.346  1.00  0.00    -0.093 OA 
BRANCH  17  18
HETATM   18  C   UNL     1      -8.008   8.238  64.038  1.00  0.00    -0.147 C  
HETATM   19  O   UNL     1      -8.458   9.320  63.690  1.00  0.00    -0.179 OA 
HETATM   20  C   UNL     1      -7.584   7.173  63.074  1.00  0.00    -0.108 C  
ENDBRANCH  17  18
ENDBRANCH   6  17
TORSDOF 6
ENDMDL
MODEL      147
REMARK 921   NORMALIZED FREE ENERGY PREDICTED BY IDOCK:   -3.04 KCAL/MOL
REMARK 922        TOTAL FREE ENERGY PREDICTED BY IDOCK:   -4.72 KCAL/MOL
REMARK 923 INTER-LIGAND FREE ENERGY PREDICTED BY IDOCK:   -4.42 KCAL/MOL
REMARK 924 INTRA-LIGAND FREE ENERGY PREDICTED BY IDOCK:   -0.30 KCAL/MOL
REMARK 927      BINDING AFFINITY PREDICTED BY RF-SCORE:    0.00 PKD
ROOT
HETATM    1  C   UNL     1      -6.017  10.136  67.403  1.00  0.00    -0.054 C  
HETATM    2  C   UNL     1      -7.310   9.366  67.084  1.00  0.00    -0.087 C  
HETATM    3  C   UNL     1      -6.927   7.868  67.093  1.00  0.00    -0.074 C  
HETATM    4  C   UNL     1      -8.487   9.722  68.010  1.00  0.00    -0.118 A  
HETATM    5  C   UNL     1      -8.787  11.037  68.413  1.00  0.00    -0.151 A  
HETATM    6  C   UNL     1     -10.352   8.937  69.404  1.00  0.00    -0.213 A  
HETATM    7  C   UNL     1      -9.843  11.287  69.310  1.00  0.00     0.067 A  
HETATM    8  C   UNL     1     -10.616  10.241  69.836  1.00  0.00    -0.324 A  
HETATM    9  C   UNL     1      -9.328   8.694  68.488  1.00  0.00    -0.138 A  
HETATM   10  C   UNL     1     -11.686  10.534  70.844  1.00  0.00    -0.431 C  
ENDROOT
BRANCH   5  11
HETATM   11  O   UNL     1      -8.091  12.069  67.832  1.00  0.00    -0.131 OA 
BRANCH  11  12
HETATM   12  C   UNL     1      -8.895  13.113  67.258  1.00  0.00    -0.208 C  
BRANCH  12  13
HETATM   13  C   UNL     1      -9.830  12.492  66.202  1.00  0.00    -0.258 C  
BRANCH  13  14
HETATM   14  N   UNL     1     -11.000  13.326  65.853  1.00  0.00    -0.274 NA 
HETATM   15  C   UNL     1     -10.693  14.281  64.787  1.00  0.00    -0.416 C  
HETATM   16  C   UNL     1     -12.116  12.471  65.439  1.00  0.00    -0.435 C  
ENDBRANCH  13  14
ENDBRANCH  12  13
ENDBRANCH  11  12
ENDBRANCH   5  11
BRANCH   6  17
HETATM   17  O   UNL     1     -11.137   7.899  69.981  1.00  0.00    -0.241 OA 
BRANCH  17  18
HETATM   18  C   UNL     1     -11.140   6.545  69.616  1.00  0.00    -0.376 C  
HETATM   19  O   UNL     1     -11.245   6.077  68.492  1.00  0.00    -0.299 OA 
HETATM   20  C   UNL     1     -10.922   5.708  70.839  1.00  0.00    -0.257 C  
ENDBRANCH  17  18
ENDBRANCH   6  17
TORSDOF 6
ENDMDL
MODEL      148
REMARK 921   NORMALIZED FREE ENERGY PREDICTED BY IDOCK:   -3.00 KCAL/MOL
REMARK 922        TOTAL FREE ENERGY PREDICTED BY IDOCK:   -4.66 KCAL/MOL
REMARK 923 INTER-LIGAND FREE ENERGY PREDICTED BY IDOCK:   -4.29 KCAL/MOL
REMARK 924 INTRA-LIGAND FREE ENERGY PREDICTED BY IDOCK:   -0.37 KCAL/MOL
REMARK 927      BINDING AFFINITY PREDICTED BY RF-SCORE:    0.00 PKD
ROOT
HETATM    1  C   UNL     1      -6.009  10.961  66.027  1.00  0.00    -0.133 C  
HETATM    2  C   UNL     1      -7.129  11.346  67.008  1.00  0.00    -0.138 C  
HETATM    3  C   UNL     1      -6.616  12.587  67.774  1.00  0.00    -0.121 C  
HETATM    4  C   UNL     1      -8.500  11.542  66.336  1.00  0.00    -0.138 A  
HETATM    5  C   UNL     1      -9.000  10.692  65.332  1.00  0.00    -0.189 A  
HETATM    6  C   UNL     1     -10.530  12.906  66.103  1.00  0.00    -0.269 A  
HETATM    7  C   UNL     1     -10.237  10.962  64.716  1.00  0.00    -0.398 A  
HETATM    8  C   UNL     1     -11.000  12.083  65.074  1.00  0.00    -0.355 A  
HETATM    9  C   UNL     1      -9.321  12.618  66.736  1.00  0.00    -0.232 A  
HETATM   10  C   UNL     1     -12.278  12.383  64.349  1.00  0.00    -0.519 C  
ENDROOT
BRANCH   5  11
HETATM   11  O   UNL     1      -8.300   9.545  65.043  1.00  0.00    -0.127 OA 
BRANCH  11  12
HETATM   12  C   UNL     1      -7.984   9.345  63.656  1.00  0.00    -0.142 C  
BRANCH  12  13
HETATM   13  C   UNL     1      -8.370   7.905  63.263  1.00  0.00     0.063 C  
BRANCH  13  14
HETATM   14  N   UNL     1      -7.289   6.911  63.437  1.00  0.00    -0.073 NA 
HETATM   15  C   UNL     1      -7.664   5.598  62.911  1.00  0.00    -0.083 C  
HETATM   16  C   UNL     1      -6.070   7.377  62.772  1.00  0.00    -0.054 C  
ENDBRANCH  13  14
ENDBRANCH  12  13
ENDBRANCH  11  12
ENDBRANCH   5  11
BRANCH   6  17
HETATM   17  O   UNL     1     -11.315  14.051  66.418  1.00  0.00    -0.316 OA 
BRANCH  17  18
HETATM   18  C   UNL     1     -11.578  14.565  67.696  1.00  0.00    -0.378 C  
HETATM   19  O   UNL     1     -11.566  15.738  68.043  1.00  0.00    -0.321 OA 
HETATM   20  C   UNL     1     -11.956  13.440  68.609  1.00  0.00    -0.362 C  
ENDBRANCH  17  18
ENDBRANCH   6  17
TORSDOF 6
ENDMDL
MODEL      149
REMARK 921   NORMALIZED FREE ENERGY PREDICTED BY IDOCK:   -2.96 KCAL/MOL
REMARK 922        TOTAL FREE ENERGY PREDICTED BY IDOCK:   -4.61 KCAL/MOL
REMARK 923 INTER-LIGAND FREE ENERGY PREDICTED BY IDOCK:   -3.92 KCAL/MOL
REMARK 924 INTRA-LIGAND FREE ENERGY PREDICTED BY IDOCK:   -0.69 KCAL/MOL
REMARK 927      BINDING AFFINITY PREDICTED BY RF-SCORE:    0.00 PKD
ROOT
HETATM    1  C   UNL     1     -11.083  11.504  66.588  1.00  0.00    -0.355 C  
HETATM    2  C   UNL     1     -10.544  11.254  68.007  1.00  0.00    -0.230 C  
HETATM    3  C   UNL     1     -11.759  11.388  68.954  1.00  0.00    -0.409 C  
HETATM    4  C   UNL     1      -9.775   9.929  68.152  1.00  0.00    -0.161 A  
HETATM    5  C   UNL     1      -8.863   9.451  67.192  1.00  0.00    -0.127 A  
HETATM    6  C   UNL     1      -9.378   7.882  69.453  1.00  0.00    -0.152 A  
HETATM    7  C   UNL     1      -8.238   8.201  67.358  1.00  0.00    -0.122 A  
HETATM    8  C   UNL     1      -8.508   7.392  68.472  1.00  0.00    -0.125 A  
HETATM    9  C   UNL     1      -9.971   9.136  69.304  1.00  0.00    -0.187 A  
HETATM   10  C   UNL     1      -7.881   6.035  68.584  1.00  0.00    -0.100 C  
ENDROOT
BRANCH   5  11
HETATM   11  O   UNL     1      -8.528  10.278  66.146  1.00  0.00    -0.134 OA 
BRANCH  11  12
HETATM   12  C   UNL     1      -7.160  10.207  65.714  1.00  0.00    -0.127 C  
BRANCH  12  13
HETATM   13  C   UNL     1      -7.134   9.962  64.193  1.00  0.00    -0.128 C  
BRANCH  13  14
HETATM   14  N   UNL     1      -8.081   8.930  63.721  1.00  0.00    -0.156 NA 
HETATM   15  C   UNL     1      -8.831   9.372  62.544  1.00  0.00    -0.236 C  
HETATM   16  C   UNL     1      -7.357   7.696  63.406  1.00  0.00    -0.090 C  
ENDBRANCH  13  14
ENDBRANCH  12  13
ENDBRANCH  11  12
ENDBRANCH   5  11
BRANCH   6  17
HETATM   17  O   UNL     1      -9.652   7.022  70.554  1.00  0.00    -0.169 OA 
BRANCH  17  18
HETATM   18  C   UNL     1     -10.797   6.234  70.742  1.00  0.00    -0.281 C  
HETATM   19  O   UNL     1     -11.910   6.415  70.269  1.00  0.00    -0.396 OA 
HETATM   20  C   UNL     1     -10.443   5.050  71.586  1.00  0.00    -0.232 C  
ENDBRANCH  17  18
ENDBRANCH   6  17
TORSDOF 6
ENDMDL
MODEL      150
REMARK 921   NORMALIZED FREE ENERGY PREDICTED BY IDOCK:   -2.96 KCAL/MOL
REMARK 922        TOTAL FREE ENERGY PREDICTED BY IDOCK:   -4.61 KCAL/MOL
REMARK 923 INTER-LIGAND FREE ENERGY PREDICTED BY IDOCK:   -3.91 KCAL/MOL
REMARK 924 INTRA-LIGAND FREE ENERGY PREDICTED BY IDOCK:   -0.69 KCAL/MOL
REMARK 927      BINDING AFFINITY PREDICTED BY RF-SCORE:    0.00 PKD
ROOT
HETATM    1  C   UNL     1      -6.639   8.901  71.368  1.00  0.00    -0.081 C  
HETATM    2  C   UNL     1      -7.375   9.719  70.294  1.00  0.00    -0.165 C  
HETATM    3  C   UNL     1      -6.275  10.401  69.449  1.00  0.00    -0.049 C  
HETATM    4  C   UNL     1      -8.382   8.897  69.471  1.00  0.00    -0.119 A  
HETATM    5  C   UNL     1      -9.247   7.939  70.034  1.00  0.00    -0.153 A  
HETATM    6  C   UNL     1      -9.290   8.321  67.261  1.00  0.00    -0.147 A  
HETATM    7  C   UNL     1     -10.103   7.178  69.216  1.00  0.00    -0.178 A  
HETATM    8  C   UNL     1     -10.114   7.340  67.823  1.00  0.00    -0.225 A  
HETATM    9  C   UNL     1      -8.468   9.099  68.076  1.00  0.00    -0.121 A  
HETATM   10  C   UNL     1     -10.984   6.463  66.973  1.00  0.00    -0.463 C  
ENDROOT
BRANCH   5  11
HETATM   11  O   UNL     1      -9.304   7.842  71.404  1.00  0.00    -0.139 OA 
BRANCH  11  12
HETATM   12  C   UNL     1     -10.436   8.473  72.024  1.00  0.00    -0.336 C  
BRANCH  12  13
HETATM   13  C   UNL     1     -11.243   7.404  72.785  1.00  0.00    -0.332 C  
BRANCH  13  14
HETATM   14  N   UNL     1     -10.474   6.194  73.144  1.00  0.00    -0.222 NA 
HETATM   15  C   UNL     1     -10.044   6.213  74.543  1.00  0.00    -0.329 C  
HETATM   16  C   UNL     1     -11.282   4.997  72.896  1.00  0.00    -0.271 C  
ENDBRANCH  13  14
ENDBRANCH  12  13
ENDBRANCH  11  12
ENDBRANCH   5  11
BRANCH   6  17
HETATM   17  O   UNL     1      -9.305   8.436  65.842  1.00  0.00    -0.200 OA 
BRANCH  17  18
HETATM   18  C   UNL     1      -8.193   8.478  64.989  1.00  0.00    -0.158 C  
HETATM   19  O   UNL     1      -7.313   7.637  64.873  1.00  0.00    -0.067 OA 
HETATM   20  C   UNL     1      -8.264   9.717  64.152  1.00  0.00    -0.158 C  
ENDBRANCH  17  18
ENDBRANCH   6  17
TORSDOF 6
ENDMDL
MODEL      151
REMARK 921   NORMALIZED FREE ENERGY PREDICTED BY IDOCK:   -2.93 KCAL/MOL
REMARK 922        TOTAL FREE ENERGY PREDICTED BY IDOCK:   -4.57 KCAL/MOL
REMARK 923 INTER-LIGAND FREE ENERGY PREDICTED BY IDOCK:   -4.03 KCAL/MOL
REMARK 924 INTRA-LIGAND FREE ENERGY PREDICTED BY IDOCK:   -0.54 KCAL/MOL
REMARK 927      BINDING AFFINITY PREDICTED BY RF-SCORE:    0.00 PKD
ROOT
HETATM    1  C   UNL     1     -10.270   9.082  66.605  1.00  0.00    -0.333 C  
HETATM    2  C   UNL     1      -9.491  10.139  65.804  1.00  0.00    -0.262 C  
HETATM    3  C   UNL     1     -10.416  10.556  64.637  1.00  0.00    -0.181 C  
HETATM    4  C   UNL     1      -8.986  11.315  66.658  1.00  0.00    -0.180 A  
HETATM    5  C   UNL     1      -8.421  11.158  67.938  1.00  0.00    -0.131 A  
HETATM    6  C   UNL     1      -8.723  13.745  66.911  1.00  0.00    -0.154 A  
HETATM    7  C   UNL     1      -8.033  12.282  68.691  1.00  0.00    -0.050 A  
HETATM    8  C   UNL     1      -8.204  13.584  68.200  1.00  0.00    -0.162 A  
HETATM    9  C   UNL     1      -9.074  12.630  66.151  1.00  0.00     0.019 A  
HETATM   10  C   UNL     1      -7.848  14.762  69.057  1.00  0.00    -0.150 C  
ENDROOT
BRANCH   5  11
HETATM   11  O   UNL     1      -8.168   9.883  68.385  1.00  0.00    -0.103 OA 
BRANCH  11  12
HETATM   12  C   UNL     1      -8.102   9.728  69.811  1.00  0.00    -0.167 C  
BRANCH  12  13
HETATM   13  C   UNL     1      -9.537   9.680  70.371  1.00  0.00    -0.234 C  
BRANCH  13  14
HETATM   14  N   UNL     1      -9.943   8.364  70.908  1.00  0.00    -0.185 NA 
HETATM   15  C   UNL     1     -11.236   7.931  70.377  1.00  0.00    -0.234 C  
HETATM   16  C   UNL     1      -8.923   7.360  70.593  1.00  0.00    -0.155 C  
ENDBRANCH  13  14
ENDBRANCH  12  13
ENDBRANCH  11  12
ENDBRANCH   5  11
BRANCH   6  17
HETATM   17  O   UNL     1      -8.911  15.081  66.457  1.00  0.00    -0.273 OA 
BRANCH  17  18
HETATM   18  C   UNL     1     -10.134  15.737  66.254  1.00  0.00    -0.303 C  
HETATM   19  O   UNL     1     -10.623  16.085  65.189  1.00  0.00    -0.485 OA 
HETATM   20  C   UNL     1     -10.825  15.904  67.572  1.00  0.00    -0.305 C  
ENDBRANCH  17  18
ENDBRANCH   6  17
TORSDOF 6
ENDMDL
MODEL      152
REMARK 921   NORMALIZED FREE ENERGY PREDICTED BY IDOCK:   -2.93 KCAL/MOL
REMARK 922        TOTAL FREE ENERGY PREDICTED BY IDOCK:   -4.57 KCAL/MOL
REMARK 923 INTER-LIGAND FREE ENERGY PREDICTED BY IDOCK:   -3.91 KCAL/MOL
REMARK 924 INTRA-LIGAND FREE ENERGY PREDICTED BY IDOCK:   -0.65 KCAL/MOL
REMARK 927      BINDING AFFINITY PREDICTED BY RF-SCORE:    0.00 PKD
ROOT
HETATM    1  C   UNL     1      -7.603  13.794  67.419  1.00  0.00    -0.153 C  
HETATM    2  C   UNL     1      -6.934  12.537  68.000  1.00  0.00    -0.095 C  
HETATM    3  C   UNL     1      -5.998  13.034  69.125  1.00  0.00    -0.086 C  
HETATM    4  C   UNL     1      -7.933  11.453  68.443  1.00  0.00    -0.142 A  
HETATM    5  C   UNL     1      -9.076  11.100  67.700  1.00  0.00    -0.147 A  
HETATM    6  C   UNL     1      -8.624   9.832  70.155  1.00  0.00    -0.181 A  
HETATM    7  C   UNL     1      -9.981  10.141  68.193  1.00  0.00    -0.170 A  
HETATM    8  C   UNL     1      -9.781   9.519  69.434  1.00  0.00    -0.190 A  
HETATM    9  C   UNL     1      -7.710  10.756  69.650  1.00  0.00    -0.020 A  
HETATM   10  C   UNL     1     -10.801   8.555  69.962  1.00  0.00    -0.225 C  
ENDROOT
BRANCH   5  11
HETATM   11  O   UNL     1      -9.228  11.640  66.446  1.00  0.00    -0.201 OA 
BRANCH  11  12
HETATM   12  C   UNL     1     -10.530  11.487  65.858  1.00  0.00    -0.255 C  
BRANCH  12  13
HETATM   13  C   UNL     1     -10.709  12.559  64.766  1.00  0.00    -0.302 C  
BRANCH  13  14
HETATM   14  N   UNL     1     -11.390  13.790  65.220  1.00  0.00    -0.299 NA 
HETATM   15  C   UNL     1     -12.077  13.598  66.498  1.00  0.00    -0.423 C  
HETATM   16  C   UNL     1     -10.419  14.881  65.344  1.00  0.00    -0.384 C  
ENDBRANCH  13  14
ENDBRANCH  12  13
ENDBRANCH  11  12
ENDBRANCH   5  11
BRANCH   6  17
HETATM   17  O   UNL     1      -8.469   9.204  71.423  1.00  0.00    -0.317 OA 
BRANCH  17  18
HETATM   18  C   UNL     1      -7.587   8.162  71.744  1.00  0.00    -0.090 C  
HETATM   19  O   UNL     1      -6.927   7.482  70.973  1.00  0.00    -0.053 OA 
HETATM   20  C   UNL     1      -7.508   8.029  73.234  1.00  0.00    -0.179 C  
ENDBRANCH  17  18
ENDBRANCH   6  17
TORSDOF 6
ENDMDL
MODEL      153
REMARK 921   NORMALIZED FREE ENERGY PREDICTED BY IDOCK:   -2.78 KCAL/MOL
REMARK 922        TOTAL FREE ENERGY PREDICTED BY IDOCK:   -4.36 KCAL/MOL
REMARK 923 INTER-LIGAND FREE ENERGY PREDICTED BY IDOCK:   -5.38 KCAL/MOL
REMARK 924 INTRA-LIGAND FREE ENERGY PREDICTED BY IDOCK:    1.02 KCAL/MOL
REMARK 927      BINDING AFFINITY PREDICTED BY RF-SCORE:    0.00 PKD
ROOT
HETATM    1  C   UNL     1     -12.260  13.524  68.415  1.00  0.00    -0.150 C  
HETATM    2  C   UNL     1     -11.184  12.570  68.961  1.00  0.00    -0.321 C  
HETATM    3  C   UNL     1     -11.868  11.751  70.079  1.00  0.00    -0.422 C  
HETATM    4  C   UNL     1     -10.507  11.714  67.875  1.00  0.00    -0.217 A  
HETATM    5  C   UNL     1     -10.124  12.217  66.618  1.00  0.00    -0.215 A  
HETATM    6  C   UNL     1      -9.717   9.500  67.160  1.00  0.00    -0.171 A  
HETATM    7  C   UNL     1      -9.563  11.365  65.647  1.00  0.00    -0.258 A  
HETATM    8  C   UNL     1      -9.380   9.997  65.896  1.00  0.00    -0.236 A  
HETATM    9  C   UNL     1     -10.240  10.352  68.133  1.00  0.00    -0.187 A  
HETATM   10  C   UNL     1      -8.848   9.103  64.816  1.00  0.00    -0.200 C  
ENDROOT
BRANCH   5  11
HETATM   11  O   UNL     1     -10.217  13.571  66.403  1.00  0.00    -0.278 OA 
BRANCH  11  12
HETATM   12  C   UNL     1     -10.112  13.990  65.033  1.00  0.00    -0.292 C  
BRANCH  12  13
HETATM   13  C   UNL     1     -10.817  12.949  64.142  1.00  0.00    -0.416 C  
BRANCH  13  14
HETATM   14  N   UNL     1     -12.239  13.239  63.865  1.00  0.00    -0.613 NA 
HETATM   15  C   UNL     1     -13.019  12.017  63.664  1.00  0.00    -0.212 C  
HETATM   16  C   UNL     1     -12.815  14.013  64.968  1.00  0.00    -0.258 C  
ENDBRANCH  13  14
ENDBRANCH  12  13
ENDBRANCH  11  12
ENDBRANCH   5  11
BRANCH   6  17
HETATM   17  O   UNL     1      -9.546   8.102  67.366  1.00  0.00    -0.148 OA 
BRANCH  17  18
HETATM   18  C   UNL     1     -10.320   7.273  68.191  1.00  0.00    -0.194 C  
HETATM   19  O   UNL     1     -10.421   7.320  69.408  1.00  0.00    -0.206 OA 
HETATM   20  C   UNL     1     -11.093   6.316  67.336  1.00  0.00    -0.384 C  
ENDBRANCH  17  18
ENDBRANCH   6  17
TORSDOF 6
ENDMDL
MODEL      154
REMARK 921   NORMALIZED FREE ENERGY PREDICTED BY IDOCK:   -2.77 KCAL/MOL
REMARK 922        TOTAL FREE ENERGY PREDICTED BY IDOCK:   -4.35 KCAL/MOL
REMARK 923 INTER-LIGAND FREE ENERGY PREDICTED BY IDOCK:   -3.73 KCAL/MOL
REMARK 924 INTRA-LIGAND FREE ENERGY PREDICTED BY IDOCK:   -0.62 KCAL/MOL
REMARK 927      BINDING AFFINITY PREDICTED BY RF-SCORE:    0.00 PKD
ROOT
HETATM    1  C   UNL     1     -10.397  20.145  68.688  1.00  0.00    -0.307 C  
HETATM    2  C   UNL     1      -9.847  18.737  68.972  1.00  0.00    -0.351 C  
HETATM    3  C   UNL     1     -10.462  18.304  70.323  1.00  0.00     1.581 C  
HETATM    4  C   UNL     1     -10.080  17.738  67.824  1.00  0.00    -0.345 A  
HETATM    5  C   UNL     1      -9.911  18.064  66.466  1.00  0.00    -0.371 A  
HETATM    6  C   UNL     1     -10.796  15.492  67.130  1.00  0.00    -0.316 A  
HETATM    7  C   UNL     1     -10.199  17.120  65.462  1.00  0.00    -0.072 A  
HETATM    8  C   UNL     1     -10.670  15.838  65.780  1.00  0.00    -0.337 A  
HETATM    9  C   UNL     1     -10.478  16.417  68.125  1.00  0.00    -0.302 A  
HETATM   10  C   UNL     1     -11.036  14.880  64.686  1.00  0.00    -0.335 C  
ENDROOT
BRANCH   5  11
HETATM   11  O   UNL     1      -9.366  19.286  66.153  1.00  0.00    -0.361 OA 
BRANCH  11  12
HETATM   12  C   UNL     1      -7.963  19.278  65.845  1.00  0.00    -0.142 C  
BRANCH  12  13
HETATM   13  C   UNL     1      -7.215  20.088  66.921  1.00  0.00    -0.238 C  
BRANCH  13  14
HETATM   14  N   UNL     1      -6.677  19.278  68.036  1.00  0.00    -0.236 NA 
HETATM   15  C   UNL     1      -5.522  18.480  67.626  1.00  0.00    -0.159 C  
HETATM   16  C   UNL     1      -6.300  20.152  69.150  1.00  0.00    -0.323 C  
ENDBRANCH  13  14
ENDBRANCH  12  13
ENDBRANCH  11  12
ENDBRANCH   5  11
BRANCH   6  17
HETATM   17  O   UNL     1     -11.305  14.194  67.415  1.00  0.00    -0.298 OA 
BRANCH  17  18
HETATM   18  C   UNL     1     -10.565  13.009  67.544  1.00  0.00    -0.230 C  
HETATM   19  O   UNL     1      -9.465  12.872  68.058  1.00  0.00    -0.201 OA 
HETATM   20  C   UNL     1     -11.369  11.869  67.000  1.00  0.00    -0.392 C  
ENDBRANCH  17  18
ENDBRANCH   6  17
TORSDOF 6
ENDMDL
MODEL      155
REMARK 921   NORMALIZED FREE ENERGY PREDICTED BY IDOCK:   -2.72 KCAL/MOL
REMARK 922        TOTAL FREE ENERGY PREDICTED BY IDOCK:   -4.28 KCAL/MOL
REMARK 923 INTER-LIGAND FREE ENERGY PREDICTED BY IDOCK:   -3.79 KCAL/MOL
REMARK 924 INTRA-LIGAND FREE ENERGY PREDICTED BY IDOCK:   -0.49 KCAL/MOL
REMARK 927      BINDING AFFINITY PREDICTED BY RF-SCORE:    0.00 PKD
ROOT
HETATM    1  C   UNL     1     -10.648   6.950  68.114  1.00  0.00    -0.262 C  
HETATM    2  C   UNL     1     -10.867   5.957  69.268  1.00  0.00    -0.414 C  
HETATM    3  C   UNL     1     -10.239   4.622  68.806  1.00  0.00     0.003 C  
HETATM    4  C   UNL     1     -10.347   6.462  70.626  1.00  0.00    -0.243 A  
HETATM    5  C   UNL     1     -10.517   7.784  71.079  1.00  0.00    -0.203 A  
HETATM    6  C   UNL     1      -9.089   5.986  72.683  1.00  0.00    -0.137 A  
HETATM    7  C   UNL     1      -9.964   8.196  72.307  1.00  0.00    -0.332 A  
HETATM    8  C   UNL     1      -9.222   7.313  73.106  1.00  0.00    -0.201 A  
HETATM    9  C   UNL     1      -9.667   5.570  71.483  1.00  0.00    -0.201 A  
HETATM   10  C   UNL     1      -8.586   7.803  74.372  1.00  0.00    -0.221 C  
ENDROOT
BRANCH   5  11
HETATM   11  O   UNL     1     -11.317   8.625  70.344  1.00  0.00    -0.257 OA 
BRANCH  11  12
HETATM   12  C   UNL     1     -10.850   9.978  70.226  1.00  0.00    -0.313 C  
BRANCH  12  13
HETATM   13  C   UNL     1      -9.926  10.078  68.997  1.00  0.00    -0.196 C  
BRANCH  13  14
HETATM   14  N   UNL     1     -10.135  11.283  68.167  1.00  0.00    -0.177 NA 
HETATM   15  C   UNL     1     -11.483  11.832  68.328  1.00  0.00    -0.307 C  
HETATM   16  C   UNL     1      -9.145  12.306  68.514  1.00  0.00    -0.076 C  
ENDBRANCH  13  14
ENDBRANCH  12  13
ENDBRANCH  11  12
ENDBRANCH   5  11
BRANCH   6  17
HETATM   17  O   UNL     1      -8.305   5.127  73.503  1.00  0.00    -0.109 OA 
BRANCH  17  18
HETATM   18  C   UNL     1      -7.093   4.511  73.161  1.00  0.00    -0.077 C  
HETATM   19  O   UNL     1      -6.051   5.055  72.825  1.00  0.00    -0.024 OA 
HETATM   20  C   UNL     1      -7.231   3.030  73.331  1.00  0.00    -0.045 C  
ENDBRANCH  17  18
ENDBRANCH   6  17
TORSDOF 6
ENDMDL
MODEL      156
REMARK 921   NORMALIZED FREE ENERGY PREDICTED BY IDOCK:   -2.71 KCAL/MOL
REMARK 922        TOTAL FREE ENERGY PREDICTED BY IDOCK:   -4.26 KCAL/MOL
REMARK 923 INTER-LIGAND FREE ENERGY PREDICTED BY IDOCK:   -3.58 KCAL/MOL
REMARK 924 INTRA-LIGAND FREE ENERGY PREDICTED BY IDOCK:   -0.69 KCAL/MOL
REMARK 927      BINDING AFFINITY PREDICTED BY RF-SCORE:    0.00 PKD
ROOT
HETATM    1  C   UNL     1      -5.993   7.615  68.921  1.00  0.00    -0.031 C  
HETATM    2  C   UNL     1      -7.061   6.520  69.078  1.00  0.00    -0.085 C  
HETATM    3  C   UNL     1      -6.322   5.280  69.633  1.00  0.00    -0.030 C  
HETATM    4  C   UNL     1      -8.277   6.956  69.915  1.00  0.00    -0.127 A  
HETATM    5  C   UNL     1      -8.886   8.220  69.799  1.00  0.00    -0.142 A  
HETATM    6  C   UNL     1      -9.873   6.422  71.706  1.00  0.00    -0.162 A  
HETATM    7  C   UNL     1      -9.958   8.577  70.639  1.00  0.00    -0.222 A  
HETATM    8  C   UNL     1     -10.444   7.696  71.617  1.00  0.00    -0.229 A  
HETATM    9  C   UNL     1      -8.833   6.056  70.851  1.00  0.00    -0.136 A  
HETATM   10  C   UNL     1     -11.539   8.134  72.542  1.00  0.00    -0.468 C  
ENDROOT
BRANCH   5  11
HETATM   11  O   UNL     1      -8.473   9.049  68.785  1.00  0.00    -0.127 OA 
BRANCH  11  12
HETATM   12  C   UNL     1      -9.380   9.173  67.678  1.00  0.00    -0.135 C  
BRANCH  12  13
HETATM   13  C   UNL     1      -9.735  10.662  67.493  1.00  0.00    -0.166 C  
BRANCH  13  14
HETATM   14  N   UNL     1     -11.182  10.938  67.373  1.00  0.00    -0.396 NA 
HETATM   15  C   UNL     1     -11.842  10.984  68.678  1.00  0.00    -0.247 C  
HETATM   16  C   UNL     1     -11.391  12.208  66.673  1.00  0.00    -0.350 C  
ENDBRANCH  13  14
ENDBRANCH  12  13
ENDBRANCH  11  12
ENDBRANCH   5  11
BRANCH   6  17
HETATM   17  O   UNL     1     -10.370   5.567  72.729  1.00  0.00    -0.180 OA 
BRANCH  17  18
HETATM   18  C   UNL     1      -9.632   4.653  73.495  1.00  0.00    -0.124 C  
HETATM   19  O   UNL     1      -9.690   3.433  73.458  1.00  0.00    -0.105 OA 
HETATM   20  C   UNL     1      -8.669   5.406  74.361  1.00  0.00    -0.118 C  
ENDBRANCH  17  18
ENDBRANCH   6  17
TORSDOF 6
ENDMDL
MODEL      157
REMARK 921   NORMALIZED FREE ENERGY PREDICTED BY IDOCK:   -2.66 KCAL/MOL
REMARK 922        TOTAL FREE ENERGY PREDICTED BY IDOCK:   -4.20 KCAL/MOL
REMARK 923 INTER-LIGAND FREE ENERGY PREDICTED BY IDOCK:   -3.66 KCAL/MOL
REMARK 924 INTRA-LIGAND FREE ENERGY PREDICTED BY IDOCK:   -0.54 KCAL/MOL
REMARK 927      BINDING AFFINITY PREDICTED BY RF-SCORE:    0.00 PKD
ROOT
HETATM    1  C   UNL     1     -11.249   6.132  70.397  1.00  0.00    -0.423 C  
HETATM    2  C   UNL     1     -11.422   7.635  70.122  1.00  0.00    -0.083 C  
HETATM    3  C   UNL     1     -11.214   8.343  71.480  1.00  0.00    -0.328 C  
HETATM    4  C   UNL     1     -10.523   8.165  68.990  1.00  0.00    -0.211 A  
HETATM    5  C   UNL     1     -10.300   7.470  67.786  1.00  0.00    -0.216 A  
HETATM    6  C   UNL     1      -8.983   9.907  68.195  1.00  0.00    -0.118 A  
HETATM    7  C   UNL     1      -9.418   7.984  66.817  1.00  0.00    -0.259 A  
HETATM    8  C   UNL     1      -8.731   9.189  67.021  1.00  0.00    -0.131 A  
HETATM    9  C   UNL     1      -9.883   9.415  69.140  1.00  0.00    -0.174 A  
HETATM   10  C   UNL     1      -7.744   9.672  66.001  1.00  0.00    -0.102 C  
ENDROOT
BRANCH   5  11
HETATM   11  O   UNL     1     -11.039   6.337  67.544  1.00  0.00    -0.348 OA 
BRANCH  11  12
HETATM   12  C   UNL     1     -10.282   5.168  67.188  1.00  0.00    -0.208 C  
BRANCH  12  13
HETATM   13  C   UNL     1     -10.742   4.686  65.798  1.00  0.00    -0.149 C  
BRANCH  13  14
HETATM   14  N   UNL     1      -9.677   4.067  64.980  1.00  0.00    -0.184 NA 
HETATM   15  C   UNL     1     -10.219   3.372  63.811  1.00  0.00    -0.214 C  
HETATM   16  C   UNL     1      -8.724   5.090  64.545  1.00  0.00    -0.132 C  
ENDBRANCH  13  14
ENDBRANCH  12  13
ENDBRANCH  11  12
ENDBRANCH   5  11
BRANCH   6  17
HETATM   17  O   UNL     1      -8.246  11.110  68.382  1.00  0.00    -0.129 OA 
BRANCH  17  18
HETATM   18  C   UNL     1      -7.126  11.291  69.207  1.00  0.00    -0.112 C  
HETATM   19  O   UNL     1      -6.506  10.433  69.819  1.00  0.00    -0.062 OA 
HETATM   20  C   UNL     1      -6.730  12.735  69.186  1.00  0.00    -0.080 C  
ENDBRANCH  17  18
ENDBRANCH   6  17
TORSDOF 6
ENDMDL
MODEL      158
REMARK 921   NORMALIZED FREE ENERGY PREDICTED BY IDOCK:   -2.66 KCAL/MOL
REMARK 922        TOTAL FREE ENERGY PREDICTED BY IDOCK:   -4.20 KCAL/MOL
REMARK 923 INTER-LIGAND FREE ENERGY PREDICTED BY IDOCK:   -3.76 KCAL/MOL
REMARK 924 INTRA-LIGAND FREE ENERGY PREDICTED BY IDOCK:   -0.44 KCAL/MOL
REMARK 927      BINDING AFFINITY PREDICTED BY RF-SCORE:    0.00 PKD
ROOT
HETATM    1  C   UNL     1     -10.305  10.565  66.826  1.00  0.00    -0.301 C  
HETATM    2  C   UNL     1     -10.320  11.084  68.273  1.00  0.00    -0.197 C  
HETATM    3  C   UNL     1     -11.809  11.275  68.642  1.00  0.00    -0.369 C  
HETATM    4  C   UNL     1      -9.535  10.198  69.257  1.00  0.00    -0.231 A  
HETATM    5  C   UNL     1      -8.286   9.623  68.956  1.00  0.00    -0.113 A  
HETATM    6  C   UNL     1      -9.457   9.069  71.438  1.00  0.00    -0.264 A  
HETATM    7  C   UNL     1      -7.649   8.772  69.879  1.00  0.00    -0.065 A  
HETATM    8  C   UNL     1      -8.238   8.464  71.114  1.00  0.00    -0.154 A  
HETATM    9  C   UNL     1     -10.071   9.939  70.537  1.00  0.00    -0.207 A  
HETATM   10  C   UNL     1      -7.568   7.498  72.045  1.00  0.00    -0.084 C  
ENDROOT
BRANCH   5  11
HETATM   11  O   UNL     1      -7.664   9.992  67.787  1.00  0.00    -0.090 OA 
BRANCH  11  12
HETATM   12  C   UNL     1      -6.746   9.032  67.242  1.00  0.00    -0.069 C  
BRANCH  12  13
HETATM   13  C   UNL     1      -7.280   8.556  65.877  1.00  0.00    -0.076 C  
BRANCH  13  14
HETATM   14  N   UNL     1      -6.323   8.703  64.759  1.00  0.00    -0.065 NA 
HETATM   15  C   UNL     1      -7.003   8.825  63.469  1.00  0.00    -0.089 C  
HETATM   16  C   UNL     1      -5.474   9.876  64.979  1.00  0.00    -0.067 C  
ENDBRANCH  13  14
ENDBRANCH  12  13
ENDBRANCH  11  12
ENDBRANCH   5  11
BRANCH   6  17
HETATM   17  O   UNL     1     -10.040   8.710  72.686  1.00  0.00    -0.251 OA 
BRANCH  17  18
HETATM   18  C   UNL     1     -10.778   7.551  72.968  1.00  0.00    -0.384 C  
HETATM   19  O   UNL     1     -10.599   6.760  73.883  1.00  0.00    -0.350 OA 
HETATM   20  C   UNL     1     -11.908   7.440  71.992  1.00  0.00    -0.335 C  
ENDBRANCH  17  18
ENDBRANCH   6  17
TORSDOF 6
ENDMDL
MODEL      159
REMARK 921   NORMALIZED FREE ENERGY PREDICTED BY IDOCK:   -2.66 KCAL/MOL
REMARK 922        TOTAL FREE ENERGY PREDICTED BY IDOCK:   -4.20 KCAL/MOL
REMARK 923 INTER-LIGAND FREE ENERGY PREDICTED BY IDOCK:   -3.61 KCAL/MOL
REMARK 924 INTRA-LIGAND FREE ENERGY PREDICTED BY IDOCK:   -0.58 KCAL/MOL
REMARK 927      BINDING AFFINITY PREDICTED BY RF-SCORE:    0.00 PKD
ROOT
HETATM    1  C   UNL     1     -10.647   9.529  69.370  1.00  0.00    -0.235 C  
HETATM    2  C   UNL     1      -9.389   8.976  68.680  1.00  0.00    -0.136 C  
HETATM    3  C   UNL     1      -9.366   7.461  68.988  1.00  0.00    -0.145 C  
HETATM    4  C   UNL     1      -9.304   9.316  67.182  1.00  0.00    -0.166 A  
HETATM    5  C   UNL     1      -9.637  10.577  66.652  1.00  0.00    -0.172 A  
HETATM    6  C   UNL     1      -8.855   8.545  64.892  1.00  0.00     0.016 A  
HETATM    7  C   UNL     1      -9.594  10.804  65.263  1.00  0.00    -0.278 A  
HETATM    8  C   UNL     1      -9.232   9.787  64.369  1.00  0.00    -0.301 A  
HETATM    9  C   UNL     1      -8.864   8.332  66.270  1.00  0.00    -0.192 A  
HETATM   10  C   UNL     1      -9.266  10.040  62.892  1.00  0.00    -0.311 C  
ENDROOT
BRANCH   5  11
HETATM   11  O   UNL     1      -9.906  11.600  67.530  1.00  0.00    -0.185 OA 
BRANCH  11  12
HETATM   12  C   UNL     1     -10.552  12.751  66.962  1.00  0.00    -0.240 C  
BRANCH  12  13
HETATM   13  C   UNL     1     -11.472  13.377  68.028  1.00  0.00    -0.304 C  
BRANCH  13  14
HETATM   14  N   UNL     1     -10.931  14.597  68.665  1.00  0.00    -0.246 NA 
HETATM   15  C   UNL     1     -10.643  15.645  67.686  1.00  0.00    -0.294 C  
HETATM   16  C   UNL     1     -11.880  15.103  69.661  1.00  0.00    -0.334 C  
ENDBRANCH  13  14
ENDBRANCH  12  13
ENDBRANCH  11  12
ENDBRANCH   5  11
BRANCH   6  17
HETATM   17  O   UNL     1      -8.522   7.529  63.953  1.00  0.00     0.088 OA 
BRANCH  17  18
HETATM   18  C   UNL     1      -7.243   7.020  63.682  1.00  0.00    -0.071 C  
HETATM   19  O   UNL     1      -6.274   7.632  63.256  1.00  0.00    -0.054 OA 
HETATM   20  C   UNL     1      -7.201   5.572  64.061  1.00  0.00    -0.051 C  
ENDBRANCH  17  18
ENDBRANCH   6  17
TORSDOF 6
ENDMDL
MODEL      160
REMARK 921   NORMALIZED FREE ENERGY PREDICTED BY IDOCK:   -2.65 KCAL/MOL
REMARK 922        TOTAL FREE ENERGY PREDICTED BY IDOCK:   -4.19 KCAL/MOL
REMARK 923 INTER-LIGAND FREE ENERGY PREDICTED BY IDOCK:   -3.72 KCAL/MOL
REMARK 924 INTRA-LIGAND FREE ENERGY PREDICTED BY IDOCK:   -0.48 KCAL/MOL
REMARK 927      BINDING AFFINITY PREDICTED BY RF-SCORE:    0.00 PKD
ROOT
HETATM    1  C   UNL     1      -8.628   5.890  67.236  1.00  0.00    -0.106 C  
HETATM    2  C   UNL     1      -9.802   5.266  68.008  1.00  0.00    -0.193 C  
HETATM    3  C   UNL     1      -9.663   3.736  67.831  1.00  0.00    -0.125 C  
HETATM    4  C   UNL     1      -9.893   5.725  69.474  1.00  0.00    -0.231 A  
HETATM    5  C   UNL     1      -9.691   7.057  69.884  1.00  0.00    -0.163 A  
HETATM    6  C   UNL     1     -10.206   5.113  71.834  1.00  0.00    -0.209 A  
HETATM    7  C   UNL     1      -9.730   7.398  71.250  1.00  0.00    -0.171 A  
HETATM    8  C   UNL     1      -9.959   6.430  72.238  1.00  0.00    -0.178 A  
HETATM    9  C   UNL     1     -10.202   4.782  70.479  1.00  0.00    -0.252 A  
HETATM   10  C   UNL     1      -9.922   6.814  73.687  1.00  0.00    -0.293 C  
ENDROOT
BRANCH   5  11
HETATM   11  O   UNL     1      -9.556   8.022  68.915  1.00  0.00    -0.151 OA 
BRANCH  11  12
HETATM   12  C   UNL     1     -10.249   9.255  69.168  1.00  0.00    -0.206 C  
BRANCH  12  13
HETATM   13  C   UNL     1     -10.809   9.789  67.836  1.00  0.00    -0.242 C  
BRANCH  13  14
HETATM   14  N   UNL     1     -10.277  11.108  67.431  1.00  0.00    -0.185 NA 
HETATM   15  C   UNL     1      -9.799  11.106  66.048  1.00  0.00    -0.228 C  
HETATM   16  C   UNL     1     -11.312  12.133  67.591  1.00  0.00    -0.314 C  
ENDBRANCH  13  14
ENDBRANCH  12  13
ENDBRANCH  11  12
ENDBRANCH   5  11
BRANCH   6  17
HETATM   17  O   UNL     1     -10.404   4.152  72.865  1.00  0.00    -0.161 OA 
BRANCH  17  18
HETATM   18  C   UNL     1      -9.430   3.326  73.443  1.00  0.00    -0.099 C  
HETATM   19  O   UNL     1      -8.811   3.518  74.480  1.00  0.00    -0.086 OA 
HETATM   20  C   UNL     1      -9.288   2.085  72.618  1.00  0.00    -0.122 C  
ENDBRANCH  17  18
ENDBRANCH   6  17
TORSDOF 6
ENDMDL
MODEL      161
REMARK 921   NORMALIZED FREE ENERGY PREDICTED BY IDOCK:   -2.63 KCAL/MOL
REMARK 922        TOTAL FREE ENERGY PREDICTED BY IDOCK:   -4.16 KCAL/MOL
REMARK 923 INTER-LIGAND FREE ENERGY PREDICTED BY IDOCK:   -3.34 KCAL/MOL
REMARK 924 INTRA-LIGAND FREE ENERGY PREDICTED BY IDOCK:   -0.82 KCAL/MOL
REMARK 927      BINDING AFFINITY PREDICTED BY RF-SCORE:    0.00 PKD
ROOT
HETATM    1  C   UNL     1     -10.642   7.290  72.420  1.00  0.00    -0.273 C  
HETATM    2  C   UNL     1     -11.068   6.212  71.409  1.00  0.00    -0.346 C  
HETATM    3  C   UNL     1     -12.020   6.915  70.413  1.00  0.00    -0.312 C  
HETATM    4  C   UNL     1      -9.886   5.485  70.744  1.00  0.00    -0.247 A  
HETATM    5  C   UNL     1      -8.737   5.071  71.445  1.00  0.00    -0.131 A  
HETATM    6  C   UNL     1      -8.860   4.628  68.683  1.00  0.00    -0.101 A  
HETATM    7  C   UNL     1      -7.664   4.463  70.764  1.00  0.00    -0.056 A  
HETATM    8  C   UNL     1      -7.701   4.261  69.377  1.00  0.00    -0.054 A  
HETATM    9  C   UNL     1      -9.935   5.198  69.363  1.00  0.00    -0.292 A  
HETATM   10  C   UNL     1      -6.514   3.677  68.672  1.00  0.00    -0.037 C  
ENDROOT
BRANCH   5  11
HETATM   11  O   UNL     1      -8.734   5.186  72.814  1.00  0.00    -0.119 OA 
BRANCH  11  12
HETATM   12  C   UNL     1      -8.799   3.948  73.540  1.00  0.00    -0.093 C  
BRANCH  12  13
HETATM   13  C   UNL     1     -10.275   3.640  73.860  1.00  0.00    -0.146 C  
BRANCH  13  14
HETATM   14  N   UNL     1     -10.840   2.496  73.113  1.00  0.00    -0.162 NA 
HETATM   15  C   UNL     1      -9.833   1.832  72.284  1.00  0.00    -0.120 C  
HETATM   16  C   UNL     1     -11.423   1.529  74.047  1.00  0.00    -0.120 C  
ENDBRANCH  13  14
ENDBRANCH  12  13
ENDBRANCH  11  12
ENDBRANCH   5  11
BRANCH   6  17
HETATM   17  O   UNL     1      -8.850   4.435  67.272  1.00  0.00    -0.104 OA 
BRANCH  17  18
HETATM   18  C   UNL     1      -9.630   5.114  66.325  1.00  0.00    -0.164 C  
HETATM   19  O   UNL     1     -10.718   4.779  65.879  1.00  0.00    -0.318 OA 
HETATM   20  C   UNL     1      -8.951   6.399  65.962  1.00  0.00    -0.143 C  
ENDBRANCH  17  18
ENDBRANCH   6  17
TORSDOF 6
ENDMDL
MODEL      162
REMARK 921   NORMALIZED FREE ENERGY PREDICTED BY IDOCK:   -2.61 KCAL/MOL
REMARK 922        TOTAL FREE ENERGY PREDICTED BY IDOCK:   -4.13 KCAL/MOL
REMARK 923 INTER-LIGAND FREE ENERGY PREDICTED BY IDOCK:   -3.59 KCAL/MOL
REMARK 924 INTRA-LIGAND FREE ENERGY PREDICTED BY IDOCK:   -0.54 KCAL/MOL
REMARK 927      BINDING AFFINITY PREDICTED BY RF-SCORE:    0.00 PKD
ROOT
HETATM    1  C   UNL     1      -8.692   6.577  65.909  1.00  0.00    -0.149 C  
HETATM    2  C   UNL     1      -8.311   7.983  66.401  1.00  0.00    -0.124 C  
HETATM    3  C   UNL     1      -8.310   8.887  65.147  1.00  0.00    -0.170 C  
HETATM    4  C   UNL     1      -9.197   8.498  67.549  1.00  0.00    -0.151 A  
HETATM    5  C   UNL     1      -9.610   7.696  68.630  1.00  0.00    -0.152 A  
HETATM    6  C   UNL     1     -10.505  10.346  68.504  1.00  0.00    -0.186 A  
HETATM    7  C   UNL     1     -10.470   8.214  69.618  1.00  0.00    -0.224 A  
HETATM    8  C   UNL     1     -10.948   9.531  69.551  1.00  0.00    -0.217 A  
HETATM    9  C   UNL     1      -9.625   9.843  67.546  1.00  0.00    -0.183 A  
HETATM   10  C   UNL     1     -11.919  10.029  70.578  1.00  0.00    -0.357 C  
ENDROOT
BRANCH   5  11
HETATM   11  O   UNL     1      -9.073   6.436  68.748  1.00  0.00    -0.126 OA 
BRANCH  11  12
HETATM   12  C   UNL     1      -9.938   5.445  69.325  1.00  0.00    -0.207 C  
BRANCH  12  13
HETATM   13  C   UNL     1      -9.116   4.577  70.297  1.00  0.00    -0.101 C  
BRANCH  13  14
HETATM   14  N   UNL     1      -8.650   3.294  69.731  1.00  0.00    -0.060 NA 
HETATM   15  C   UNL     1      -9.049   3.136  68.331  1.00  0.00    -0.158 C  
HETATM   16  C   UNL     1      -7.192   3.199  69.839  1.00  0.00    -0.041 C  
ENDBRANCH  13  14
ENDBRANCH  12  13
ENDBRANCH  11  12
ENDBRANCH   5  11
BRANCH   6  17
HETATM   17  O   UNL     1     -11.034  11.667  68.451  1.00  0.00    -0.193 OA 
BRANCH  17  18
HETATM   18  C   UNL     1     -10.528  12.747  67.714  1.00  0.00    -0.223 C  
HETATM   19  O   UNL     1      -9.571  13.455  67.993  1.00  0.00    -0.205 OA 
HETATM   20  C   UNL     1     -11.313  12.886  66.447  1.00  0.00    -0.361 C  
ENDBRANCH  17  18
ENDBRANCH   6  17
TORSDOF 6
ENDMDL
MODEL      163
REMARK 921   NORMALIZED FREE ENERGY PREDICTED BY IDOCK:   -2.59 KCAL/MOL
REMARK 922        TOTAL FREE ENERGY PREDICTED BY IDOCK:   -4.11 KCAL/MOL
REMARK 923 INTER-LIGAND FREE ENERGY PREDICTED BY IDOCK:   -3.42 KCAL/MOL
REMARK 924 INTRA-LIGAND FREE ENERGY PREDICTED BY IDOCK:   -0.69 KCAL/MOL
REMARK 927      BINDING AFFINITY PREDICTED BY RF-SCORE:    0.00 PKD
ROOT
HETATM    1  C   UNL     1      -6.234   7.790  67.273  1.00  0.00    -0.054 C  
HETATM    2  C   UNL     1      -6.317   7.376  68.752  1.00  0.00    -0.036 C  
HETATM    3  C   UNL     1      -5.570   8.474  69.544  1.00  0.00    -0.030 C  
HETATM    4  C   UNL     1      -7.752   7.112  69.241  1.00  0.00    -0.108 A  
HETATM    5  C   UNL     1      -8.715   6.418  68.484  1.00  0.00    -0.121 A  
HETATM    6  C   UNL     1      -9.456   7.451  70.979  1.00  0.00    -0.157 A  
HETATM    7  C   UNL     1     -10.028   6.263  68.966  1.00  0.00    -0.175 A  
HETATM    8  C   UNL     1     -10.420   6.799  70.201  1.00  0.00    -0.240 A  
HETATM    9  C   UNL     1      -8.146   7.574  70.516  1.00  0.00    -0.106 A  
HETATM   10  C   UNL     1     -11.845   6.679  70.653  1.00  0.00    -0.443 C  
ENDROOT
BRANCH   5  11
HETATM   11  O   UNL     1      -8.312   5.814  67.317  1.00  0.00    -0.105 OA 
BRANCH  11  12
HETATM   12  C   UNL     1      -9.356   5.538  66.370  1.00  0.00    -0.152 C  
BRANCH  12  13
HETATM   13  C   UNL     1      -8.728   5.399  64.969  1.00  0.00    -0.116 C  
BRANCH  13  14
HETATM   14  N   UNL     1      -8.979   4.100  64.310  1.00  0.00    -0.138 NA 
HETATM   15  C   UNL     1      -8.226   3.013  64.937  1.00  0.00    -0.087 C  
HETATM   16  C   UNL     1     -10.410   3.790  64.345  1.00  0.00    -0.227 C  
ENDBRANCH  13  14
ENDBRANCH  12  13
ENDBRANCH  11  12
ENDBRANCH   5  11
BRANCH   6  17
HETATM   17  O   UNL     1      -9.897   8.008  72.212  1.00  0.00    -0.194 OA 
BRANCH  17  18
HETATM   18  C   UNL     1      -9.415   7.704  73.493  1.00  0.00    -0.289 C  
HETATM   19  O   UNL     1      -8.503   8.254  74.095  1.00  0.00    -0.250 OA 
HETATM   20  C   UNL     1     -10.246   6.607  74.081  1.00  0.00    -0.390 C  
ENDBRANCH  17  18
ENDBRANCH   6  17
TORSDOF 6
ENDMDL
MODEL      164
REMARK 921   NORMALIZED FREE ENERGY PREDICTED BY IDOCK:   -2.50 KCAL/MOL
REMARK 922        TOTAL FREE ENERGY PREDICTED BY IDOCK:   -3.98 KCAL/MOL
REMARK 923 INTER-LIGAND FREE ENERGY PREDICTED BY IDOCK:   -3.53 KCAL/MOL
REMARK 924 INTRA-LIGAND FREE ENERGY PREDICTED BY IDOCK:   -0.45 KCAL/MOL
REMARK 927      BINDING AFFINITY PREDICTED BY RF-SCORE:    0.00 PKD
ROOT
HETATM    1  C   UNL     1      -6.777   7.891  71.955  1.00  0.00    -0.061 C  
HETATM    2  C   UNL     1      -7.471   8.943  71.073  1.00  0.00    -0.124 C  
HETATM    3  C   UNL     1      -6.336   9.752  70.404  1.00  0.00    -0.093 C  
HETATM    4  C   UNL     1      -8.489   8.348  70.085  1.00  0.00    -0.126 A  
HETATM    5  C   UNL     1      -9.392   7.323  70.425  1.00  0.00    -0.158 A  
HETATM    6  C   UNL     1      -9.379   8.286  67.796  1.00  0.00    -0.138 A  
HETATM    7  C   UNL     1     -10.258   6.782  69.455  1.00  0.00    -0.202 A  
HETATM    8  C   UNL     1     -10.242   7.236  68.128  1.00  0.00    -0.222 A  
HETATM    9  C   UNL     1      -8.547   8.845  68.765  1.00  0.00    -0.136 A  
HETATM   10  C   UNL     1     -11.125   6.589  67.104  1.00  0.00    -0.434 C  
ENDROOT
BRANCH   5  11
HETATM   11  O   UNL     1      -9.473   6.938  71.741  1.00  0.00    -0.154 OA 
BRANCH  11  12
HETATM   12  C   UNL     1     -10.075   5.655  71.976  1.00  0.00    -0.185 C  
BRANCH  12  13
HETATM   13  C   UNL     1      -9.794   5.236  73.433  1.00  0.00    -0.159 C  
BRANCH  13  14
HETATM   14  N   UNL     1      -9.354   3.834  73.594  1.00  0.00    -0.100 NA 
HETATM   15  C   UNL     1     -10.054   2.931  72.679  1.00  0.00    -0.159 C  
HETATM   16  C   UNL     1      -7.910   3.735  73.372  1.00  0.00    -0.079 C  
ENDBRANCH  13  14
ENDBRANCH  12  13
ENDBRANCH  11  12
ENDBRANCH   5  11
BRANCH   6  17
HETATM   17  O   UNL     1      -9.369   8.701  66.434  1.00  0.00    -0.178 OA 
BRANCH  17  18
HETATM   18  C   UNL     1      -9.867   9.905  65.917  1.00  0.00    -0.274 C  
HETATM   19  O   UNL     1      -9.678  10.371  64.803  1.00  0.00    -0.269 OA 
HETATM   20  C   UNL     1     -10.757  10.545  66.937  1.00  0.00    -0.281 C  
ENDBRANCH  17  18
ENDBRANCH   6  17
TORSDOF 6
ENDMDL
MODEL      165
REMARK 921   NORMALIZED FREE ENERGY PREDICTED BY IDOCK:   -2.47 KCAL/MOL
REMARK 922        TOTAL FREE ENERGY PREDICTED BY IDOCK:   -3.94 KCAL/MOL
REMARK 923 INTER-LIGAND FREE ENERGY PREDICTED BY IDOCK:   -3.30 KCAL/MOL
REMARK 924 INTRA-LIGAND FREE ENERGY PREDICTED BY IDOCK:   -0.64 KCAL/MOL
REMARK 927      BINDING AFFINITY PREDICTED BY RF-SCORE:    0.00 PKD
ROOT
HETATM    1  C   UNL     1      -6.266   6.570  71.627  1.00  0.00    -0.042 C  
HETATM    2  C   UNL     1      -7.512   7.464  71.734  1.00  0.00    -0.083 C  
HETATM    3  C   UNL     1      -6.987   8.909  71.897  1.00  0.00    -0.011 C  
HETATM    4  C   UNL     1      -8.507   7.282  70.575  1.00  0.00    -0.138 A  
HETATM    5  C   UNL     1      -8.851   6.027  70.037  1.00  0.00    -0.139 A  
HETATM    6  C   UNL     1      -9.964   8.328  68.895  1.00  0.00    -0.186 A  
HETATM    7  C   UNL     1      -9.723   5.935  68.936  1.00  0.00    -0.168 A  
HETATM    8  C   UNL     1     -10.266   7.081  68.337  1.00  0.00    -0.196 A  
HETATM    9  C   UNL     1      -9.128   8.416  70.008  1.00  0.00    -0.150 A  
HETATM   10  C   UNL     1     -11.133   6.953  67.122  1.00  0.00    -0.362 C  
ENDROOT
BRANCH   5  11
HETATM   11  O   UNL     1      -8.394   4.899  70.676  1.00  0.00    -0.096 OA 
BRANCH  11  12
HETATM   12  C   UNL     1      -9.389   3.905  70.967  1.00  0.00    -0.152 C  
BRANCH  12  13
HETATM   13  C   UNL     1     -10.072   4.263  72.301  1.00  0.00    -0.182 C  
BRANCH  13  14
HETATM   14  N   UNL     1      -9.743   3.357  73.422  1.00  0.00    -0.107 NA 
HETATM   15  C   UNL     1      -9.141   4.072  74.547  1.00  0.00    -0.099 C  
HETATM   16  C   UNL     1     -10.952   2.663  73.873  1.00  0.00    -0.194 C  
ENDBRANCH  13  14
ENDBRANCH  12  13
ENDBRANCH  11  12
ENDBRANCH   5  11
BRANCH   6  17
HETATM   17  O   UNL     1     -10.508   9.471  68.244  1.00  0.00    -0.205 OA 
BRANCH  17  18
HETATM   18  C   UNL     1     -10.619  10.766  68.769  1.00  0.00    -0.200 C  
HETATM   19  O   UNL     1      -9.762  11.638  68.787  1.00  0.00    -0.181 OA 
HETATM   20  C   UNL     1     -12.014  10.973  69.272  1.00  0.00    -0.410 C  
ENDBRANCH  17  18
ENDBRANCH   6  17
TORSDOF 6
ENDMDL
MODEL      166
REMARK 921   NORMALIZED FREE ENERGY PREDICTED BY IDOCK:   -2.46 KCAL/MOL
REMARK 922        TOTAL FREE ENERGY PREDICTED BY IDOCK:   -3.93 KCAL/MOL
REMARK 923 INTER-LIGAND FREE ENERGY PREDICTED BY IDOCK:   -3.39 KCAL/MOL
REMARK 924 INTRA-LIGAND FREE ENERGY PREDICTED BY IDOCK:   -0.53 KCAL/MOL
REMARK 927      BINDING AFFINITY PREDICTED BY RF-SCORE:    0.00 PKD
ROOT
HETATM    1  C   UNL     1      -9.500   8.955  66.545  1.00  0.00    -0.272 C  
HETATM    2  C   UNL     1      -8.456   8.351  67.499  1.00  0.00    -0.129 C  
HETATM    3  C   UNL     1      -7.597   9.537  67.996  1.00  0.00    -0.086 C  
HETATM    4  C   UNL     1      -9.066   7.499  68.626  1.00  0.00    -0.134 A  
HETATM    5  C   UNL     1     -10.128   6.596  68.428  1.00  0.00    -0.156 A  
HETATM    6  C   UNL     1      -9.116   6.934  71.017  1.00  0.00    -0.155 A  
HETATM    7  C   UNL     1     -10.680   5.891  69.515  1.00  0.00    -0.414 A  
HETATM    8  C   UNL     1     -10.201   6.072  70.821  1.00  0.00    -0.258 A  
HETATM    9  C   UNL     1      -8.547   7.605  69.935  1.00  0.00    -0.138 A  
HETATM   10  C   UNL     1     -10.857   5.361  71.965  1.00  0.00    -0.266 C  
ENDROOT
BRANCH   5  11
HETATM   11  O   UNL     1     -10.539   6.349  67.140  1.00  0.00    -0.236 OA 
BRANCH  11  12
HETATM   12  C   UNL     1     -10.298   5.018  66.657  1.00  0.00    -0.270 C  
BRANCH  12  13
HETATM   13  C   UNL     1      -9.189   5.073  65.589  1.00  0.00    -0.157 C  
BRANCH  13  14
HETATM   14  N   UNL     1      -9.081   3.859  64.752  1.00  0.00    -0.133 NA 
HETATM   15  C   UNL     1      -9.027   4.179  63.325  1.00  0.00    -0.119 C  
HETATM   16  C   UNL     1      -7.887   3.098  65.129  1.00  0.00    -0.082 C  
ENDBRANCH  13  14
ENDBRANCH  12  13
ENDBRANCH  11  12
ENDBRANCH   5  11
BRANCH   6  17
HETATM   17  O   UNL     1      -8.676   7.116  72.359  1.00  0.00    -0.123 OA 
BRANCH  17  18
HETATM   18  C   UNL     1      -7.738   6.336  73.050  1.00  0.00    -0.100 C  
HETATM   19  O   UNL     1      -7.935   5.281  73.636  1.00  0.00    -0.108 OA 
HETATM   20  C   UNL     1      -6.385   6.963  72.914  1.00  0.00    -0.058 C  
ENDBRANCH  17  18
ENDBRANCH   6  17
TORSDOF 6
ENDMDL
MODEL      167
REMARK 921   NORMALIZED FREE ENERGY PREDICTED BY IDOCK:   -2.38 KCAL/MOL
REMARK 922        TOTAL FREE ENERGY PREDICTED BY IDOCK:   -3.82 KCAL/MOL
REMARK 923 INTER-LIGAND FREE ENERGY PREDICTED BY IDOCK:   -3.27 KCAL/MOL
REMARK 924 INTRA-LIGAND FREE ENERGY PREDICTED BY IDOCK:   -0.55 KCAL/MOL
REMARK 927      BINDING AFFINITY PREDICTED BY RF-SCORE:    0.00 PKD
ROOT
HETATM    1  C   UNL     1     -10.967   6.819  67.769  1.00  0.00    -0.321 C  
HETATM    2  C   UNL     1     -10.589   6.175  69.114  1.00  0.00    -0.345 C  
HETATM    3  C   UNL     1     -10.121   4.739  68.782  1.00  0.00    -0.128 C  
HETATM    4  C   UNL     1      -9.576   6.996  69.931  1.00  0.00    -0.159 A  
HETATM    5  C   UNL     1      -9.635   8.397  70.059  1.00  0.00    -0.168 A  
HETATM    6  C   UNL     1      -7.522   7.024  71.280  1.00  0.00    -0.081 A  
HETATM    7  C   UNL     1      -8.641   9.093  70.772  1.00  0.00    -0.265 A  
HETATM    8  C   UNL     1      -7.562   8.420  71.364  1.00  0.00    -0.109 A  
HETATM    9  C   UNL     1      -8.526   6.332  70.602  1.00  0.00    -0.134 A  
HETATM   10  C   UNL     1      -6.482   9.197  72.055  1.00  0.00     0.080 C  
ENDROOT
BRANCH   5  11
HETATM   11  O   UNL     1     -10.736   9.049  69.558  1.00  0.00    -0.229 OA 
BRANCH  11  12
HETATM   12  C   UNL     1     -10.577  10.461  69.345  1.00  0.00    -0.239 C  
BRANCH  12  13
HETATM   13  C   UNL     1     -11.353  10.860  68.075  1.00  0.00    -0.312 C  
BRANCH  13  14
HETATM   14  N   UNL     1     -10.693  11.896  67.253  1.00  0.00    -0.227 NA 
HETATM   15  C   UNL     1     -10.798  11.609  65.821  1.00  0.00    -0.281 C  
HETATM   16  C   UNL     1     -11.281  13.208  67.535  1.00  0.00    -0.282 C  
ENDBRANCH  13  14
ENDBRANCH  12  13
ENDBRANCH  11  12
ENDBRANCH   5  11
BRANCH   6  17
HETATM   17  O   UNL     1      -6.398   6.378  71.866  1.00  0.00    -0.041 OA 
BRANCH  17  18
HETATM   18  C   UNL     1      -5.726   5.248  71.377  1.00  0.00    -0.013 C  
HETATM   19  O   UNL     1      -5.153   5.131  70.303  1.00  0.00    -0.003 OA 
HETATM   20  C   UNL     1      -5.749   4.174  72.420  1.00  0.00    -0.011 C  
ENDBRANCH  17  18
ENDBRANCH   6  17
TORSDOF 6
ENDMDL
MODEL      168
REMARK 921   NORMALIZED FREE ENERGY PREDICTED BY IDOCK:   -2.38 KCAL/MOL
REMARK 922        TOTAL FREE ENERGY PREDICTED BY IDOCK:   -3.82 KCAL/MOL
REMARK 923 INTER-LIGAND FREE ENERGY PREDICTED BY IDOCK:   -3.14 KCAL/MOL
REMARK 924 INTRA-LIGAND FREE ENERGY PREDICTED BY IDOCK:   -0.68 KCAL/MOL
REMARK 927      BINDING AFFINITY PREDICTED BY RF-SCORE:    0.00 PKD
ROOT
HETATM    1  C   UNL     1     -10.533   7.310  72.410  1.00  0.00    -0.263 C  
HETATM    2  C   UNL     1     -11.117   6.167  71.562  1.00  0.00    -0.342 C  
HETATM    3  C   UNL     1     -12.124   6.828  70.593  1.00  0.00    -0.371 C  
HETATM    4  C   UNL     1     -10.049   5.302  70.868  1.00  0.00    -0.295 A  
HETATM    5  C   UNL     1      -8.860   4.887  71.496  1.00  0.00    -0.134 A  
HETATM    6  C   UNL     1      -9.284   4.181  68.820  1.00  0.00    -0.146 A  
HETATM    7  C   UNL     1      -7.896   4.146  70.785  1.00  0.00    -0.052 A  
HETATM    8  C   UNL     1      -8.084   3.811  69.436  1.00  0.00    -0.062 A  
HETATM    9  C   UNL     1     -10.253   4.885  69.535  1.00  0.00    -0.247 A  
HETATM   10  C   UNL     1      -7.007   3.084  68.687  1.00  0.00    -0.048 C  
ENDROOT
BRANCH   5  11
HETATM   11  O   UNL     1      -8.713   5.136  72.839  1.00  0.00    -0.118 OA 
BRANCH  11  12
HETATM   12  C   UNL     1      -7.383   4.971  73.358  1.00  0.00    -0.087 C  
BRANCH  12  13
HETATM   13  C   UNL     1      -7.156   6.009  74.475  1.00  0.00    -0.091 C  
BRANCH  13  14
HETATM   14  N   UNL     1      -6.468   7.242  74.036  1.00  0.00    -0.076 NA 
HETATM   15  C   UNL     1      -5.757   7.052  72.771  1.00  0.00    -0.041 C  
HETATM   16  C   UNL     1      -7.438   8.331  73.895  1.00  0.00    -0.154 C  
ENDBRANCH  13  14
ENDBRANCH  12  13
ENDBRANCH  11  12
ENDBRANCH   5  11
BRANCH   6  17
HETATM   17  O   UNL     1      -9.427   3.850  67.443  1.00  0.00    -0.178 OA 
BRANCH  17  18
HETATM   18  C   UNL     1      -9.278   4.716  66.349  1.00  0.00    -0.133 C  
HETATM   19  O   UNL     1      -9.053   5.917  66.377  1.00  0.00    -0.140 OA 
HETATM   20  C   UNL     1      -9.371   3.923  65.082  1.00  0.00    -0.158 C  
ENDBRANCH  17  18
ENDBRANCH   6  17
TORSDOF 6
ENDMDL
MODEL      169
REMARK 921   NORMALIZED FREE ENERGY PREDICTED BY IDOCK:   -2.33 KCAL/MOL
REMARK 922        TOTAL FREE ENERGY PREDICTED BY IDOCK:   -3.76 KCAL/MOL
REMARK 923 INTER-LIGAND FREE ENERGY PREDICTED BY IDOCK:   -3.29 KCAL/MOL
REMARK 924 INTRA-LIGAND FREE ENERGY PREDICTED BY IDOCK:   -0.47 KCAL/MOL
REMARK 927      BINDING AFFINITY PREDICTED BY RF-SCORE:    0.00 PKD
ROOT
HETATM    1  C   UNL     1     -11.236   9.687  70.268  1.00  0.00    -0.324 C  
HETATM    2  C   UNL     1      -9.758   9.358  70.536  1.00  0.00    -0.331 C  
HETATM    3  C   UNL     1      -9.738   7.923  71.111  1.00  0.00    -0.182 C  
HETATM    4  C   UNL     1      -8.847   9.559  69.313  1.00  0.00    -0.153 A  
HETATM    5  C   UNL     1      -8.953  10.658  68.439  1.00  0.00    -0.149 A  
HETATM    6  C   UNL     1      -7.044   8.684  67.891  1.00  0.00    -0.083 A  
HETATM    7  C   UNL     1      -8.126  10.751  67.303  1.00  0.00    -0.117 A  
HETATM    8  C   UNL     1      -7.186   9.755  67.001  1.00  0.00    -0.090 A  
HETATM    9  C   UNL     1      -7.839   8.610  69.034  1.00  0.00    -0.100 A  
HETATM   10  C   UNL     1      -6.372   9.848  65.746  1.00  0.00    -0.084 C  
ENDROOT
BRANCH   5  11
HETATM   11  O   UNL     1      -9.808  11.678  68.779  1.00  0.00    -0.193 OA 
BRANCH  11  12
HETATM   12  C   UNL     1     -10.781  12.029  67.782  1.00  0.00    -0.210 C  
BRANCH  12  13
HETATM   13  C   UNL     1     -10.426  13.414  67.209  1.00  0.00    -0.248 C  
BRANCH  13  14
HETATM   14  N   UNL     1     -11.166  13.780  65.982  1.00  0.00    -0.302 NA 
HETATM   15  C   UNL     1     -11.291  15.231  65.830  1.00  0.00    -0.172 C  
HETATM   16  C   UNL     1     -10.493  13.220  64.808  1.00  0.00    -0.384 C  
ENDBRANCH  13  14
ENDBRANCH  12  13
ENDBRANCH  11  12
ENDBRANCH   5  11
BRANCH   6  17
HETATM   17  O   UNL     1      -6.102   7.677  67.537  1.00  0.00    -0.045 OA 
BRANCH  17  18
HETATM   18  C   UNL     1      -6.336   6.297  67.452  1.00  0.00    -0.037 C  
HETATM   19  O   UNL     1      -6.364   5.489  68.369  1.00  0.00    -0.035 OA 
HETATM   20  C   UNL     1      -6.627   5.937  66.028  1.00  0.00    -0.047 C  
ENDBRANCH  17  18
ENDBRANCH   6  17
TORSDOF 6
ENDMDL
MODEL      170
REMARK 921   NORMALIZED FREE ENERGY PREDICTED BY IDOCK:   -2.32 KCAL/MOL
REMARK 922        TOTAL FREE ENERGY PREDICTED BY IDOCK:   -3.75 KCAL/MOL
REMARK 923 INTER-LIGAND FREE ENERGY PREDICTED BY IDOCK:   -3.30 KCAL/MOL
REMARK 924 INTRA-LIGAND FREE ENERGY PREDICTED BY IDOCK:   -0.45 KCAL/MOL
REMARK 927      BINDING AFFINITY PREDICTED BY RF-SCORE:    0.00 PKD
ROOT
HETATM    1  C   UNL     1      -9.365  12.319  67.272  1.00  0.00    -0.185 C  
HETATM    2  C   UNL     1     -10.098  11.734  68.490  1.00  0.00    -0.212 C  
HETATM    3  C   UNL     1     -11.493  11.304  67.981  1.00  0.00    -0.369 C  
HETATM    4  C   UNL     1      -9.316  10.618  69.205  1.00  0.00    -0.136 A  
HETATM    5  C   UNL     1      -7.931  10.674  69.449  1.00  0.00    -0.111 A  
HETATM    6  C   UNL     1      -9.340   8.383  70.227  1.00  0.00    -0.164 A  
HETATM    7  C   UNL     1      -7.267   9.591  70.056  1.00  0.00    -0.101 A  
HETATM    8  C   UNL     1      -7.955   8.427  70.425  1.00  0.00    -0.099 A  
HETATM    9  C   UNL     1     -10.003   9.470  69.658  1.00  0.00    -0.220 A  
HETATM   10  C   UNL     1      -7.207   7.264  71.002  1.00  0.00    -0.073 C  
ENDROOT
BRANCH   5  11
HETATM   11  O   UNL     1      -7.270  11.846  69.172  1.00  0.00    -0.096 OA 
BRANCH  11  12
HETATM   12  C   UNL     1      -5.858  11.721  68.936  1.00  0.00    -0.052 C  
BRANCH  12  13
HETATM   13  C   UNL     1      -5.427  12.803  67.926  1.00  0.00    -0.108 C  
BRANCH  13  14
HETATM   14  N   UNL     1      -5.224  14.144  68.513  1.00  0.00    -0.092 NA 
HETATM   15  C   UNL     1      -6.281  15.079  68.125  1.00  0.00    -0.136 C  
HETATM   16  C   UNL     1      -5.168  14.047  69.974  1.00  0.00    -0.091 C  
ENDBRANCH  13  14
ENDBRANCH  12  13
ENDBRANCH  11  12
ENDBRANCH   5  11
BRANCH   6  17
HETATM   17  O   UNL     1     -10.001   7.175  70.586  1.00  0.00    -0.190 OA 
BRANCH  17  18
HETATM   18  C   UNL     1     -10.592   6.248  69.715  1.00  0.00    -0.264 C  
HETATM   19  O   UNL     1     -11.242   6.485  68.707  1.00  0.00    -0.293 OA 
HETATM   20  C   UNL     1     -10.251   4.863  70.168  1.00  0.00    -0.310 C  
ENDBRANCH  17  18
ENDBRANCH   6  17
TORSDOF 6
ENDMDL
MODEL      171
REMARK 921   NORMALIZED FREE ENERGY PREDICTED BY IDOCK:   -2.31 KCAL/MOL
REMARK 922        TOTAL FREE ENERGY PREDICTED BY IDOCK:   -3.73 KCAL/MOL
REMARK 923 INTER-LIGAND FREE ENERGY PREDICTED BY IDOCK:   -3.11 KCAL/MOL
REMARK 924 INTRA-LIGAND FREE ENERGY PREDICTED BY IDOCK:   -0.62 KCAL/MOL
REMARK 927      BINDING AFFINITY PREDICTED BY RF-SCORE:    0.00 PKD
ROOT
HETATM    1  C   UNL     1      -5.282  10.990  66.968  1.00  0.00    -0.057 C  
HETATM    2  C   UNL     1      -5.975  11.869  68.023  1.00  0.00    -0.055 C  
HETATM    3  C   UNL     1      -5.416  13.297  67.822  1.00  0.00    -0.098 C  
HETATM    4  C   UNL     1      -7.511  11.783  67.990  1.00  0.00    -0.101 A  
HETATM    5  C   UNL     1      -8.217  10.577  67.818  1.00  0.00    -0.107 A  
HETATM    6  C   UNL     1      -9.666  12.964  68.029  1.00  0.00    -0.224 A  
HETATM    7  C   UNL     1      -9.622  10.576  67.737  1.00  0.00    -0.173 A  
HETATM    8  C   UNL     1     -10.358  11.767  67.813  1.00  0.00    -0.211 A  
HETATM    9  C   UNL     1      -8.276  12.960  68.144  1.00  0.00    -0.163 A  
HETATM   10  C   UNL     1     -11.848  11.740  67.650  1.00  0.00    -0.241 C  
ENDROOT
BRANCH   5  11
HETATM   11  O   UNL     1      -7.507   9.400  67.834  1.00  0.00    -0.083 OA 
BRANCH  11  12
HETATM   12  C   UNL     1      -7.880   8.465  68.858  1.00  0.00    -0.113 C  
BRANCH  12  13
HETATM   13  C   UNL     1      -7.004   7.205  68.720  1.00  0.00    -0.082 C  
BRANCH  13  14
HETATM   14  N   UNL     1      -7.754   5.963  68.433  1.00  0.00    -0.093 NA 
HETATM   15  C   UNL     1      -9.176   6.223  68.205  1.00  0.00    -0.111 C  
HETATM   16  C   UNL     1      -7.184   5.295  67.261  1.00  0.00    -0.075 C  
ENDBRANCH  13  14
ENDBRANCH  12  13
ENDBRANCH  11  12
ENDBRANCH   5  11
BRANCH   6  17
HETATM   17  O   UNL     1     -10.442  14.156  68.070  1.00  0.00    -0.233 OA 
BRANCH  17  18
HETATM   18  C   UNL     1     -10.543  15.058  69.140  1.00  0.00    -0.251 C  
HETATM   19  O   UNL     1      -9.650  15.733  69.630  1.00  0.00    -0.280 OA 
HETATM   20  C   UNL     1     -11.972  15.136  69.581  1.00  0.00    -0.359 C  
ENDBRANCH  17  18
ENDBRANCH   6  17
TORSDOF 6
ENDMDL
MODEL      172
REMARK 921   NORMALIZED FREE ENERGY PREDICTED BY IDOCK:   -2.27 KCAL/MOL
REMARK 922        TOTAL FREE ENERGY PREDICTED BY IDOCK:   -3.67 KCAL/MOL
REMARK 923 INTER-LIGAND FREE ENERGY PREDICTED BY IDOCK:   -2.69 KCAL/MOL
REMARK 924 INTRA-LIGAND FREE ENERGY PREDICTED BY IDOCK:   -0.97 KCAL/MOL
REMARK 927      BINDING AFFINITY PREDICTED BY RF-SCORE:    0.00 PKD
ROOT
HETATM    1  C   UNL     1      -5.897   8.379  66.202  1.00  0.00    -0.044 C  
HETATM    2  C   UNL     1      -5.856   8.165  67.724  1.00  0.00    -0.042 C  
HETATM    3  C   UNL     1      -5.404   9.513  68.332  1.00  0.00    -0.036 C  
HETATM    4  C   UNL     1      -7.170   7.619  68.309  1.00  0.00    -0.093 A  
HETATM    5  C   UNL     1      -7.932   6.608  67.693  1.00  0.00    -0.115 A  
HETATM    6  C   UNL     1      -8.886   7.755  70.063  1.00  0.00    -0.142 A  
HETATM    7  C   UNL     1      -9.158   6.196  68.251  1.00  0.00    -0.112 A  
HETATM    8  C   UNL     1      -9.660   6.782  69.422  1.00  0.00    -0.146 A  
HETATM    9  C   UNL     1      -7.655   8.138  69.529  1.00  0.00    -0.100 A  
HETATM   10  C   UNL     1     -11.002   6.372  69.950  1.00  0.00    -0.410 C  
ENDROOT
BRANCH   5  11
HETATM   11  O   UNL     1      -7.402   5.971  66.598  1.00  0.00    -0.075 OA 
BRANCH  11  12
HETATM   12  C   UNL     1      -7.399   4.535  66.657  1.00  0.00    -0.081 C  
BRANCH  12  13
HETATM   13  C   UNL     1      -6.187   4.078  67.493  1.00  0.00    -0.036 C  
BRANCH  13  14
HETATM   14  N   UNL     1      -6.526   3.214  68.644  1.00  0.00    -0.029 NA 
HETATM   15  C   UNL     1      -6.437   3.933  69.915  1.00  0.00    -0.032 C  
HETATM   16  C   UNL     1      -7.878   2.672  68.480  1.00  0.00    -0.054 C  
ENDBRANCH  13  14
ENDBRANCH  12  13
ENDBRANCH  11  12
ENDBRANCH   5  11
BRANCH   6  17
HETATM   17  O   UNL     1      -9.440   8.349  71.232  1.00  0.00    -0.160 OA 
BRANCH  17  18
HETATM   18  C   UNL     1      -8.969   8.219  72.546  1.00  0.00    -0.236 C  
HETATM   19  O   UNL     1      -7.899   8.604  72.994  1.00  0.00    -0.373 OA 
HETATM   20  C   UNL     1     -10.028   7.573  73.385  1.00  0.00    -0.378 C  
ENDBRANCH  17  18
ENDBRANCH   6  17
TORSDOF 6
ENDMDL
MODEL      173
REMARK 921   NORMALIZED FREE ENERGY PREDICTED BY IDOCK:   -2.19 KCAL/MOL
REMARK 922        TOTAL FREE ENERGY PREDICTED BY IDOCK:   -3.56 KCAL/MOL
REMARK 923 INTER-LIGAND FREE ENERGY PREDICTED BY IDOCK:   -2.87 KCAL/MOL
REMARK 924 INTRA-LIGAND FREE ENERGY PREDICTED BY IDOCK:   -0.69 KCAL/MOL
REMARK 927      BINDING AFFINITY PREDICTED BY RF-SCORE:    0.00 PKD
ROOT
HETATM    1  C   UNL     1     -10.680   7.329  70.302  1.00  0.00    -0.252 C  
HETATM    2  C   UNL     1     -11.065   6.428  69.116  1.00  0.00    -0.428 C  
HETATM    3  C   UNL     1     -11.036   7.335  67.865  1.00  0.00    -0.110 C  
HETATM    4  C   UNL     1     -10.201   5.160  68.996  1.00  0.00    -0.241 A  
HETATM    5  C   UNL     1      -9.814   4.377  70.101  1.00  0.00    -0.217 A  
HETATM    6  C   UNL     1      -8.904   3.651  67.554  1.00  0.00    -0.125 A  
HETATM    7  C   UNL     1      -8.972   3.262  69.927  1.00  0.00    -0.173 A  
HETATM    8  C   UNL     1      -8.487   2.904  68.661  1.00  0.00    -0.095 A  
HETATM    9  C   UNL     1      -9.766   4.735  67.722  1.00  0.00    -0.202 A  
HETATM   10  C   UNL     1      -7.535   1.755  68.520  1.00  0.00    -0.043 C  
ENDROOT
BRANCH   5  11
HETATM   11  O   UNL     1     -10.359   4.670  71.328  1.00  0.00    -0.171 OA 
BRANCH  11  12
HETATM   12  C   UNL     1     -10.271   3.626  72.310  1.00  0.00    -0.118 C  
BRANCH  12  13
HETATM   13  C   UNL     1     -10.141   4.269  73.705  1.00  0.00    -0.145 C  
BRANCH  13  14
HETATM   14  N   UNL     1      -8.793   4.166  74.305  1.00  0.00    -0.095 NA 
HETATM   15  C   UNL     1      -7.902   3.320  73.509  1.00  0.00    -0.069 C  
HETATM   16  C   UNL     1      -8.206   5.500  74.446  1.00  0.00    -0.103 C  
ENDBRANCH  13  14
ENDBRANCH  12  13
ENDBRANCH  11  12
ENDBRANCH   5  11
BRANCH   6  17
HETATM   17  O   UNL     1      -8.368   3.278  66.289  1.00  0.00    -0.096 OA 
BRANCH  17  18
HETATM   18  C   UNL     1      -7.376   3.953  65.563  1.00  0.00    -0.072 C  
HETATM   19  O   UNL     1      -6.325   4.410  65.988  1.00  0.00    -0.031 OA 
HETATM   20  C   UNL     1      -7.764   3.985  64.118  1.00  0.00    -0.083 C  
ENDBRANCH  17  18
ENDBRANCH   6  17
TORSDOF 6
ENDMDL
MODEL      174
REMARK 921   NORMALIZED FREE ENERGY PREDICTED BY IDOCK:   -2.15 KCAL/MOL
REMARK 922        TOTAL FREE ENERGY PREDICTED BY IDOCK:   -3.51 KCAL/MOL
REMARK 923 INTER-LIGAND FREE ENERGY PREDICTED BY IDOCK:   -3.65 KCAL/MOL
REMARK 924 INTRA-LIGAND FREE ENERGY PREDICTED BY IDOCK:    0.14 KCAL/MOL
REMARK 927      BINDING AFFINITY PREDICTED BY RF-SCORE:    0.00 PKD
ROOT
HETATM    1  C   UNL     1      -9.826   8.504  70.827  1.00  0.00    -0.220 C  
HETATM    2  C   UNL     1     -10.695   9.404  69.932  1.00  0.00    -0.258 C  
HETATM    3  C   UNL     1     -11.834   9.929  70.836  1.00  0.00    -0.443 C  
HETATM    4  C   UNL     1      -9.904  10.508  69.209  1.00  0.00    -0.225 A  
HETATM    5  C   UNL     1      -8.645  10.298  68.616  1.00  0.00    -0.128 A  
HETATM    6  C   UNL     1      -9.745  12.872  68.559  1.00  0.00    -0.127 A  
HETATM    7  C   UNL     1      -7.947  11.366  68.022  1.00  0.00    -0.127 A  
HETATM    8  C   UNL     1      -8.474  12.666  68.011  1.00  0.00    -0.177 A  
HETATM    9  C   UNL     1     -10.451  11.806  69.116  1.00  0.00    -0.060 A  
HETATM   10  C   UNL     1      -7.674  13.795  67.435  1.00  0.00    -0.158 C  
ENDROOT
BRANCH   5  11
HETATM   11  O   UNL     1      -8.166   9.011  68.544  1.00  0.00    -0.110 OA 
BRANCH  11  12
HETATM   12  C   UNL     1      -8.792   8.171  67.562  1.00  0.00    -0.135 C  
BRANCH  12  13
HETATM   13  C   UNL     1      -8.643   8.832  66.178  1.00  0.00    -0.146 C  
BRANCH  13  14
HETATM   14  N   UNL     1      -7.808   8.074  65.222  1.00  0.00    -0.106 NA 
HETATM   15  C   UNL     1      -7.965   8.560  63.851  1.00  0.00    -0.160 C  
HETATM   16  C   UNL     1      -6.399   8.159  65.614  1.00  0.00    -0.048 C  
ENDBRANCH  13  14
ENDBRANCH  12  13
ENDBRANCH  11  12
ENDBRANCH   5  11
BRANCH   6  17
HETATM   17  O   UNL     1     -10.235  14.208  68.558  1.00  0.00    -0.237 OA 
BRANCH  17  18
HETATM   18  C   UNL     1      -9.982  15.198  69.519  1.00  0.00    -0.201 C  
HETATM   19  O   UNL     1      -9.027  15.959  69.569  1.00  0.00    -0.249 OA 
HETATM   20  C   UNL     1     -11.125  15.245  70.485  1.00  0.00    -0.335 C  
ENDBRANCH  17  18
ENDBRANCH   6  17
TORSDOF 6
ENDMDL
MODEL      175
REMARK 921   NORMALIZED FREE ENERGY PREDICTED BY IDOCK:   -1.97 KCAL/MOL
REMARK 922        TOTAL FREE ENERGY PREDICTED BY IDOCK:   -3.27 KCAL/MOL
REMARK 923 INTER-LIGAND FREE ENERGY PREDICTED BY IDOCK:   -2.90 KCAL/MOL
REMARK 924 INTRA-LIGAND FREE ENERGY PREDICTED BY IDOCK:   -0.37 KCAL/MOL
REMARK 927      BINDING AFFINITY PREDICTED BY RF-SCORE:    0.00 PKD
ROOT
HETATM    1  C   UNL     1     -10.636   8.231  67.428  1.00  0.00    -0.324 C  
HETATM    2  C   UNL     1      -9.687   9.160  66.651  1.00  0.00    -0.287 C  
HETATM    3  C   UNL     1     -10.594  10.095  65.818  1.00  0.00    -0.017 C  
HETATM    4  C   UNL     1      -8.672   9.896  67.543  1.00  0.00    -0.121 A  
HETATM    5  C   UNL     1      -7.990   9.282  68.611  1.00  0.00    -0.100 A  
HETATM    6  C   UNL     1      -7.551  12.004  68.122  1.00  0.00    -0.120 A  
HETATM    7  C   UNL     1      -7.119  10.030  69.427  1.00  0.00    -0.074 A  
HETATM    8  C   UNL     1      -6.911  11.400  69.210  1.00  0.00    -0.115 A  
HETATM    9  C   UNL     1      -8.387  11.256  67.293  1.00  0.00    -0.145 A  
HETATM   10  C   UNL     1      -6.033  12.182  70.139  1.00  0.00    -0.154 C  
ENDROOT
BRANCH   5  11
HETATM   11  O   UNL     1      -8.121   7.924  68.771  1.00  0.00    -0.122 OA 
BRANCH  11  12
HETATM   12  C   UNL     1      -7.729   7.411  70.054  1.00  0.00    -0.095 C  
BRANCH  12  13
HETATM   13  C   UNL     1      -8.968   6.810  70.746  1.00  0.00    -0.151 C  
BRANCH  13  14
HETATM   14  N   UNL     1      -8.844   5.378  71.093  1.00  0.00    -0.135 NA 
HETATM   15  C   UNL     1     -10.047   4.623  70.739  1.00  0.00    -0.194 C  
HETATM   16  C   UNL     1      -7.683   4.799  70.413  1.00  0.00    -0.058 C  
ENDBRANCH  13  14
ENDBRANCH  12  13
ENDBRANCH  11  12
ENDBRANCH   5  11
BRANCH   6  17
HETATM   17  O   UNL     1      -7.341  13.402  67.950  1.00  0.00    -0.108 OA 
BRANCH  17  18
HETATM   18  C   UNL     1      -8.279  14.345  67.506  1.00  0.00    -0.188 C  
HETATM   19  O   UNL     1      -9.179  14.176  66.696  1.00  0.00    -0.265 OA 
HETATM   20  C   UNL     1      -8.063  15.633  68.240  1.00  0.00    -0.134 C  
ENDBRANCH  17  18
ENDBRANCH   6  17
TORSDOF 6
ENDMDL
MODEL      176
REMARK 921   NORMALIZED FREE ENERGY PREDICTED BY IDOCK:   -1.96 KCAL/MOL
REMARK 922        TOTAL FREE ENERGY PREDICTED BY IDOCK:   -3.26 KCAL/MOL
REMARK 923 INTER-LIGAND FREE ENERGY PREDICTED BY IDOCK:   -3.29 KCAL/MOL
REMARK 924 INTRA-LIGAND FREE ENERGY PREDICTED BY IDOCK:    0.04 KCAL/MOL
REMARK 927      BINDING AFFINITY PREDICTED BY RF-SCORE:    0.00 PKD
ROOT
HETATM    1  C   UNL     1      -5.920  10.194  67.499  1.00  0.00    -0.053 C  
HETATM    2  C   UNL     1      -7.067   9.299  66.999  1.00  0.00    -0.086 C  
HETATM    3  C   UNL     1      -6.395   8.058  66.367  1.00  0.00    -0.047 C  
HETATM    4  C   UNL     1      -8.110   8.968  68.081  1.00  0.00    -0.105 A  
HETATM    5  C   UNL     1      -8.594   9.912  69.007  1.00  0.00    -0.149 A  
HETATM    6  C   UNL     1      -9.506   7.270  69.180  1.00  0.00    -0.148 A  
HETATM    7  C   UNL     1      -9.505   9.529  70.010  1.00  0.00    -0.265 A  
HETATM    8  C   UNL     1      -9.948   8.203  70.125  1.00  0.00    -0.187 A  
HETATM    9  C   UNL     1      -8.631   7.659  68.165  1.00  0.00    -0.123 A  
HETATM   10  C   UNL     1     -10.861   7.812  71.248  1.00  0.00    -0.255 C  
ENDROOT
BRANCH   5  11
HETATM   11  O   UNL     1      -8.233  11.228  68.843  1.00  0.00    -0.141 OA 
BRANCH  11  12
HETATM   12  C   UNL     1      -8.983  11.958  67.859  1.00  0.00    -0.179 C  
BRANCH  12  13
HETATM   13  C   UNL     1     -10.478  11.630  68.033  1.00  0.00    -0.194 C  
BRANCH  13  14
HETATM   14  N   UNL     1     -11.203  12.537  68.949  1.00  0.00    -0.265 NA 
HETATM   15  C   UNL     1     -11.879  13.617  68.229  1.00  0.00    -0.369 C  
HETATM   16  C   UNL     1     -12.184  11.779  69.729  1.00  0.00    -0.203 C  
ENDBRANCH  13  14
ENDBRANCH  12  13
ENDBRANCH  11  12
ENDBRANCH   5  11
BRANCH   6  17
HETATM   17  O   UNL     1      -9.953   5.929  69.345  1.00  0.00    -0.157 OA 
BRANCH  17  18
HETATM   18  C   UNL     1      -9.693   4.845  68.495  1.00  0.00    -0.155 C  
HETATM   19  O   UNL     1     -10.255   4.572  67.445  1.00  0.00    -0.113 OA 
HETATM   20  C   UNL     1      -8.536   4.064  69.037  1.00  0.00    -0.099 C  
ENDBRANCH  17  18
ENDBRANCH   6  17
TORSDOF 6
ENDMDL
MODEL      177
REMARK 921   NORMALIZED FREE ENERGY PREDICTED BY IDOCK:   -1.71 KCAL/MOL
REMARK 922        TOTAL FREE ENERGY PREDICTED BY IDOCK:   -2.91 KCAL/MOL
REMARK 923 INTER-LIGAND FREE ENERGY PREDICTED BY IDOCK:   -2.34 KCAL/MOL
REMARK 924 INTRA-LIGAND FREE ENERGY PREDICTED BY IDOCK:   -0.58 KCAL/MOL
REMARK 927      BINDING AFFINITY PREDICTED BY RF-SCORE:    0.00 PKD
ROOT
HETATM    1  C   UNL     1      -8.181   5.454  64.950  1.00  0.00    -0.138 C  
HETATM    2  C   UNL     1      -7.256   6.682  65.000  1.00  0.00    -0.074 C  
HETATM    3  C   UNL     1      -7.579   7.510  63.736  1.00  0.00    -0.118 C  
HETATM    4  C   UNL     1      -7.352   7.476  66.315  1.00  0.00    -0.082 A  
HETATM    5  C   UNL     1      -7.430   6.869  67.584  1.00  0.00    -0.098 A  
HETATM    6  C   UNL     1      -7.536   9.663  67.420  1.00  0.00    -0.091 A  
HETATM    7  C   UNL     1      -7.576   7.654  68.744  1.00  0.00    -0.102 A  
HETATM    8  C   UNL     1      -7.658   9.052  68.673  1.00  0.00    -0.092 A  
HETATM    9  C   UNL     1      -7.356   8.887  66.275  1.00  0.00    -0.087 A  
HETATM   10  C   UNL     1      -7.886   9.854  69.919  1.00  0.00    -0.182 C  
ENDROOT
BRANCH   5  11
HETATM   11  O   UNL     1      -7.259   5.508  67.665  1.00  0.00    -0.072 OA 
BRANCH  11  12
HETATM   12  C   UNL     1      -7.473   4.933  68.964  1.00  0.00    -0.061 C  
BRANCH  12  13
HETATM   13  C   UNL     1      -7.334   3.402  68.856  1.00  0.00    -0.049 C  
BRANCH  13  14
HETATM   14  N   UNL     1      -8.606   2.660  68.978  1.00  0.00    -0.068 NA 
HETATM   15  C   UNL     1      -9.390   3.102  70.132  1.00  0.00    -0.168 C  
HETATM   16  C   UNL     1      -9.398   2.822  67.756  1.00  0.00    -0.190 C  
ENDBRANCH  13  14
ENDBRANCH  12  13
ENDBRANCH  11  12
ENDBRANCH   5  11
BRANCH   6  17
HETATM   17  O   UNL     1      -7.654  11.081  67.383  1.00  0.00    -0.102 OA 
BRANCH  17  18
HETATM   18  C   UNL     1      -8.819  11.822  67.137  1.00  0.00    -0.173 C  
HETATM   19  O   UNL     1      -9.732  11.541  66.374  1.00  0.00    -0.197 OA 
HETATM   20  C   UNL     1      -8.828  13.029  68.023  1.00  0.00    -0.191 C  
ENDBRANCH  17  18
ENDBRANCH   6  17
TORSDOF 6
ENDMDL
MODEL      178
REMARK 921   NORMALIZED FREE ENERGY PREDICTED BY IDOCK:   -1.64 KCAL/MOL
REMARK 922        TOTAL FREE ENERGY PREDICTED BY IDOCK:   -2.82 KCAL/MOL
REMARK 923 INTER-LIGAND FREE ENERGY PREDICTED BY IDOCK:   -2.27 KCAL/MOL
REMARK 924 INTRA-LIGAND FREE ENERGY PREDICTED BY IDOCK:   -0.54 KCAL/MOL
REMARK 927      BINDING AFFINITY PREDICTED BY RF-SCORE:    0.00 PKD
ROOT
HETATM    1  C   UNL     1     -11.359   6.101  70.235  1.00  0.00    -0.414 C  
HETATM    2  C   UNL     1     -10.947   7.477  69.686  1.00  0.00    -0.164 C  
HETATM    3  C   UNL     1     -11.746   8.518  70.502  1.00  0.00    -0.082 C  
HETATM    4  C   UNL     1      -9.427   7.712  69.680  1.00  0.00    -0.156 A  
HETATM    5  C   UNL     1      -8.491   6.732  69.296  1.00  0.00    -0.129 A  
HETATM    6  C   UNL     1      -7.549   9.217  70.178  1.00  0.00    -0.111 A  
HETATM    7  C   UNL     1      -7.110   6.993  69.372  1.00  0.00    -0.079 A  
HETATM    8  C   UNL     1      -6.624   8.223  69.838  1.00  0.00    -0.039 A  
HETATM    9  C   UNL     1      -8.917   8.970  70.069  1.00  0.00    -0.184 A  
HETATM   10  C   UNL     1      -5.148   8.444  69.974  1.00  0.00    -0.022 C  
ENDROOT
BRANCH   5  11
HETATM   11  O   UNL     1      -8.963   5.560  68.755  1.00  0.00    -0.113 OA 
BRANCH  11  12
HETATM   12  C   UNL     1      -8.387   5.184  67.494  1.00  0.00    -0.106 C  
BRANCH  12  13
HETATM   13  C   UNL     1      -9.005   6.059  66.387  1.00  0.00    -0.145 C  
BRANCH  13  14
HETATM   14  N   UNL     1      -8.061   7.001  65.749  1.00  0.00    -0.116 NA 
HETATM   15  C   UNL     1      -6.906   6.312  65.171  1.00  0.00    -0.047 C  
HETATM   16  C   UNL     1      -8.747   7.767  64.706  1.00  0.00     0.254 C  
ENDBRANCH  13  14
ENDBRANCH  12  13
ENDBRANCH  11  12
ENDBRANCH   5  11
BRANCH   6  17
HETATM   17  O   UNL     1      -7.021  10.442  70.675  1.00  0.00    -0.324 OA 
BRANCH  17  18
HETATM   18  C   UNL     1      -6.407  11.458  69.929  1.00  0.00    -0.141 C  
HETATM   19  O   UNL     1      -6.534  11.685  68.734  1.00  0.00    -0.055 OA 
HETATM   20  C   UNL     1      -5.585  12.311  70.845  1.00  0.00    -0.099 C  
ENDBRANCH  17  18
ENDBRANCH   6  17
TORSDOF 6
ENDMDL
MODEL      179
REMARK 921   NORMALIZED FREE ENERGY PREDICTED BY IDOCK:   -1.48 KCAL/MOL
REMARK 922        TOTAL FREE ENERGY PREDICTED BY IDOCK:   -2.60 KCAL/MOL
REMARK 923 INTER-LIGAND FREE ENERGY PREDICTED BY IDOCK:   -1.90 KCAL/MOL
REMARK 924 INTRA-LIGAND FREE ENERGY PREDICTED BY IDOCK:   -0.70 KCAL/MOL
REMARK 927      BINDING AFFINITY PREDICTED BY RF-SCORE:    0.00 PKD
ROOT
HETATM    1  C   UNL     1      -8.590   6.590  65.912  1.00  0.00    -0.153 C  
HETATM    2  C   UNL     1      -7.517   7.692  65.936  1.00  0.00    -0.082 C  
HETATM    3  C   UNL     1      -8.005   8.783  64.956  1.00  0.00    -0.132 C  
HETATM    4  C   UNL     1      -7.195   8.211  67.349  1.00  0.00    -0.088 A  
HETATM    5  C   UNL     1      -7.061   7.373  68.472  1.00  0.00    -0.084 A  
HETATM    6  C   UNL     1      -6.812  10.140  68.822  1.00  0.00    -0.061 A  
HETATM    7  C   UNL     1      -6.824   7.920  69.748  1.00  0.00    -0.042 A  
HETATM    8  C   UNL     1      -6.725   9.305  69.941  1.00  0.00    -0.050 A  
HETATM    9  C   UNL     1      -7.012   9.596  67.553  1.00  0.00    -0.084 A  
HETATM   10  C   UNL     1      -6.545   9.859  71.323  1.00  0.00     0.212 C  
ENDROOT
BRANCH   5  11
HETATM   11  O   UNL     1      -7.067   6.014  68.273  1.00  0.00    -0.076 OA 
BRANCH  11  12
HETATM   12  C   UNL     1      -7.745   5.243  69.278  1.00  0.00    -0.084 C  
BRANCH  12  13
HETATM   13  C   UNL     1      -9.228   5.110  68.882  1.00  0.00    -0.118 C  
BRANCH  13  14
HETATM   14  N   UNL     1     -10.170   5.810  69.782  1.00  0.00    -0.213 NA 
HETATM   15  C   UNL     1      -9.554   6.141  71.068  1.00  0.00    -0.175 C  
HETATM   16  C   UNL     1     -10.656   7.034  69.142  1.00  0.00    -0.219 C  
ENDBRANCH  13  14
ENDBRANCH  12  13
ENDBRANCH  11  12
ENDBRANCH   5  11
BRANCH   6  17
HETATM   17  O   UNL     1      -6.737  11.542  69.060  1.00  0.00    -0.081 OA 
BRANCH  17  18
HETATM   18  C   UNL     1      -6.584  12.552  68.099  1.00  0.00    -0.077 C  
HETATM   19  O   UNL     1      -5.580  12.821  67.457  1.00  0.00    -0.144 OA 
HETATM   20  C   UNL     1      -7.896  13.248  67.907  1.00  0.00    -0.152 C  
ENDBRANCH  17  18
ENDBRANCH   6  17
TORSDOF 6
ENDMDL
MODEL      180
REMARK 921   NORMALIZED FREE ENERGY PREDICTED BY IDOCK:   -1.39 KCAL/MOL
REMARK 922        TOTAL FREE ENERGY PREDICTED BY IDOCK:   -2.49 KCAL/MOL
REMARK 923 INTER-LIGAND FREE ENERGY PREDICTED BY IDOCK:   -2.02 KCAL/MOL
REMARK 924 INTRA-LIGAND FREE ENERGY PREDICTED BY IDOCK:   -0.47 KCAL/MOL
REMARK 927      BINDING AFFINITY PREDICTED BY RF-SCORE:    0.00 PKD
ROOT
HETATM    1  C   UNL     1      -8.967   9.909  68.564  1.00  0.00    -0.122 C  
HETATM    2  C   UNL     1      -9.640   8.770  69.348  1.00  0.00    -0.163 C  
HETATM    3  C   UNL     1     -10.428   7.943  68.307  1.00  0.00    -0.212 C  
HETATM    4  C   UNL     1      -8.662   7.943  70.201  1.00  0.00    -0.136 A  
HETATM    5  C   UNL     1      -7.622   8.512  70.960  1.00  0.00    -0.090 A  
HETATM    6  C   UNL     1      -7.888   5.725  70.922  1.00  0.00    -0.105 A  
HETATM    7  C   UNL     1      -6.724   7.693  71.671  1.00  0.00    -0.045 A  
HETATM    8  C   UNL     1      -6.829   6.295  71.638  1.00  0.00    -0.064 A  
HETATM    9  C   UNL     1      -8.798   6.539  70.247  1.00  0.00    -0.151 A  
HETATM   10  C   UNL     1      -5.815   5.449  72.347  1.00  0.00    -0.026 C  
ENDROOT
BRANCH   5  11
HETATM   11  O   UNL     1      -7.570   9.881  71.069  1.00  0.00    -0.255 OA 
BRANCH  11  12
HETATM   12  C   UNL     1      -6.257  10.460  70.993  1.00  0.00     0.111 C  
BRANCH  12  13
HETATM   13  C   UNL     1      -6.299  11.654  70.019  1.00  0.00    -0.098 C  
BRANCH  13  14
HETATM   14  N   UNL     1      -5.526  12.834  70.461  1.00  0.00    -0.144 NA 
HETATM   15  C   UNL     1      -6.277  14.078  70.286  1.00  0.00    -0.133 C  
HETATM   16  C   UNL     1      -5.148  12.684  71.869  1.00  0.00    -0.026 C  
ENDBRANCH  13  14
ENDBRANCH  12  13
ENDBRANCH  11  12
ENDBRANCH   5  11
BRANCH   6  17
HETATM   17  O   UNL     1      -7.946   4.303  70.885  1.00  0.00    -0.065 OA 
BRANCH  17  18
HETATM   18  C   UNL     1      -7.773   3.483  69.762  1.00  0.00    -0.050 C  
HETATM   19  O   UNL     1      -6.732   2.984  69.358  1.00  0.00    -0.033 OA 
HETATM   20  C   UNL     1      -9.106   3.233  69.128  1.00  0.00    -0.207 C  
ENDBRANCH  17  18
ENDBRANCH   6  17
TORSDOF 6
ENDMDL
MODEL      181
REMARK 921   NORMALIZED FREE ENERGY PREDICTED BY IDOCK:   -1.22 KCAL/MOL
REMARK 922        TOTAL FREE ENERGY PREDICTED BY IDOCK:   -2.26 KCAL/MOL
REMARK 923 INTER-LIGAND FREE ENERGY PREDICTED BY IDOCK:   -3.21 KCAL/MOL
REMARK 924 INTRA-LIGAND FREE ENERGY PREDICTED BY IDOCK:    0.95 KCAL/MOL
REMARK 927      BINDING AFFINITY PREDICTED BY RF-SCORE:    0.00 PKD
ROOT
HETATM    1  C   UNL     1     -11.385   8.882  71.141  1.00  0.00    -0.357 C  
HETATM    2  C   UNL     1     -11.387   9.520  69.742  1.00  0.00    -0.117 C  
HETATM    3  C   UNL     1     -12.170  10.846  69.880  1.00  0.00    -0.408 C  
HETATM    4  C   UNL     1      -9.983   9.678  69.132  1.00  0.00    -0.189 A  
HETATM    5  C   UNL     1      -8.984   8.689  69.218  1.00  0.00    -0.145 A  
HETATM    6  C   UNL     1      -8.375  11.108  67.945  1.00  0.00    -0.129 A  
HETATM    7  C   UNL     1      -7.700   8.921  68.689  1.00  0.00    -0.097 A  
HETATM    8  C   UNL     1      -7.374  10.139  68.074  1.00  0.00    -0.086 A  
HETATM    9  C   UNL     1      -9.657  10.863  68.439  1.00  0.00    -0.177 A  
HETATM   10  C   UNL     1      -5.978  10.382  67.586  1.00  0.00    -0.048 C  
ENDROOT
BRANCH   5  11
HETATM   11  O   UNL     1      -9.326   7.464  69.737  1.00  0.00    -0.148 OA 
BRANCH  11  12
HETATM   12  C   UNL     1      -8.885   7.216  71.082  1.00  0.00    -0.144 C  
BRANCH  12  13
HETATM   13  C   UNL     1      -9.433   5.850  71.539  1.00  0.00    -0.152 C  
BRANCH  13  14
HETATM   14  N   UNL     1      -9.816   5.787  72.965  1.00  0.00    -0.165 NA 
HETATM   15  C   UNL     1     -11.263   5.659  73.139  1.00  0.00    -0.236 C  
HETATM   16  C   UNL     1      -9.142   4.659  73.614  1.00  0.00    -0.105 C  
ENDBRANCH  13  14
ENDBRANCH  12  13
ENDBRANCH  11  12
ENDBRANCH   5  11
BRANCH   6  17
HETATM   17  O   UNL     1      -8.000  12.342  67.343  1.00  0.00    -0.153 OA 
BRANCH  17  18
HETATM   18  C   UNL     1      -8.570  13.601  67.581  1.00  0.00    -0.185 C  
HETATM   19  O   UNL     1      -8.392  14.630  66.944  1.00  0.00    -0.203 OA 
HETATM   20  C   UNL     1      -9.521  13.500  68.733  1.00  0.00     0.037 C  
ENDBRANCH  17  18
ENDBRANCH   6  17
TORSDOF 6
ENDMDL
MODEL      182
REMARK 921   NORMALIZED FREE ENERGY PREDICTED BY IDOCK:   -0.68 KCAL/MOL
REMARK 922        TOTAL FREE ENERGY PREDICTED BY IDOCK:   -1.52 KCAL/MOL
REMARK 923 INTER-LIGAND FREE ENERGY PREDICTED BY IDOCK:   -1.22 KCAL/MOL
REMARK 924 INTRA-LIGAND FREE ENERGY PREDICTED BY IDOCK:   -0.30 KCAL/MOL
REMARK 927      BINDING AFFINITY PREDICTED BY RF-SCORE:    0.00 PKD
ROOT
HETATM    1  C   UNL     1     -11.240   7.543  68.018  1.00  0.00     0.329 C  
HETATM    2  C   UNL     1     -10.306   8.310  67.067  1.00  0.00    -0.393 C  
HETATM    3  C   UNL     1     -11.100   9.552  66.601  1.00  0.00     0.448 C  
HETATM    4  C   UNL     1      -8.931   8.633  67.678  1.00  0.00    -0.141 A  
HETATM    5  C   UNL     1      -8.194   7.721  68.457  1.00  0.00    -0.128 A  
HETATM    6  C   UNL     1      -7.156  10.291  68.055  1.00  0.00    -0.083 A  
HETATM    7  C   UNL     1      -6.968   8.102  69.036  1.00  0.00    -0.061 A  
HETATM    8  C   UNL     1      -6.451   9.394  68.866  1.00  0.00    -0.047 A  
HETATM    9  C   UNL     1      -8.353   9.902  67.454  1.00  0.00    -0.118 A  
HETATM   10  C   UNL     1      -5.180   9.790  69.555  1.00  0.00    -0.035 C  
ENDROOT
BRANCH   5  11
HETATM   11  O   UNL     1      -8.652   6.429  68.551  1.00  0.00    -0.122 OA 
BRANCH  11  12
HETATM   12  C   UNL     1      -7.964   5.595  69.497  1.00  0.00    -0.092 C  
BRANCH  12  13
HETATM   13  C   UNL     1      -8.766   5.574  70.813  1.00  0.00    -0.130 C  
BRANCH  13  14
HETATM   14  N   UNL     1      -9.029   6.908  71.394  1.00  0.00    -0.141 NA 
HETATM   15  C   UNL     1     -10.455   7.236  71.390  1.00  0.00    -0.203 C  
HETATM   16  C   UNL     1      -8.516   6.965  72.765  1.00  0.00    -0.116 C  
ENDBRANCH  13  14
ENDBRANCH  12  13
ENDBRANCH  11  12
ENDBRANCH   5  11
BRANCH   6  17
HETATM   17  O   UNL     1      -6.618  11.602  67.930  1.00  0.00    -0.060 OA 
BRANCH  17  18
HETATM   18  C   UNL     1      -6.975  12.734  68.676  1.00  0.00    -0.101 C  
HETATM   19  O   UNL     1      -6.844  12.903  69.880  1.00  0.00     0.139 OA 
HETATM   20  C   UNL     1      -7.506  13.784  67.750  1.00  0.00    -0.168 C  
ENDBRANCH  17  18
ENDBRANCH   6  17
TORSDOF 6
ENDMDL
MODEL      183
REMARK 921   NORMALIZED FREE ENERGY PREDICTED BY IDOCK:   -0.52 KCAL/MOL
REMARK 922        TOTAL FREE ENERGY PREDICTED BY IDOCK:   -1.30 KCAL/MOL
REMARK 923 INTER-LIGAND FREE ENERGY PREDICTED BY IDOCK:   -0.93 KCAL/MOL
REMARK 924 INTRA-LIGAND FREE ENERGY PREDICTED BY IDOCK:   -0.38 KCAL/MOL
REMARK 927      BINDING AFFINITY PREDICTED BY RF-SCORE:    0.00 PKD
ROOT
HETATM    1  C   UNL     1     -11.236   7.542  68.016  1.00  0.00     0.329 C  
HETATM    2  C   UNL     1     -10.304   8.286  67.044  1.00  0.00    -0.393 C  
HETATM    3  C   UNL     1     -11.094   9.523  66.559  1.00  0.00     0.567 C  
HETATM    4  C   UNL     1      -8.923   8.612  67.640  1.00  0.00    -0.141 A  
HETATM    5  C   UNL     1      -8.186   7.711  68.431  1.00  0.00    -0.125 A  
HETATM    6  C   UNL     1      -7.136  10.266  67.973  1.00  0.00    -0.083 A  
HETATM    7  C   UNL     1      -6.955   8.096  68.995  1.00  0.00    -0.061 A  
HETATM    8  C   UNL     1      -6.431   9.381  68.796  1.00  0.00    -0.048 A  
HETATM    9  C   UNL     1      -8.339   9.873  67.387  1.00  0.00    -0.118 A  
HETATM   10  C   UNL     1      -5.153   9.783  69.469  1.00  0.00    -0.035 C  
ENDROOT
BRANCH   5  11
HETATM   11  O   UNL     1      -8.651   6.424  68.554  1.00  0.00    -0.122 OA 
BRANCH  11  12
HETATM   12  C   UNL     1      -8.240   5.515  67.519  1.00  0.00    -0.101 C  
BRANCH  12  13
HETATM   13  C   UNL     1      -7.019   4.718  68.017  1.00  0.00    -0.061 C  
BRANCH  13  14
HETATM   14  N   UNL     1      -7.258   3.269  68.185  1.00  0.00    -0.050 NA 
HETATM   15  C   UNL     1      -6.904   2.807  69.528  1.00  0.00    -0.034 C  
HETATM   16  C   UNL     1      -8.665   2.961  67.916  1.00  0.00    -0.109 C  
ENDBRANCH  13  14
ENDBRANCH  12  13
ENDBRANCH  11  12
ENDBRANCH   5  11
BRANCH   6  17
HETATM   17  O   UNL     1      -6.591  11.572  67.818  1.00  0.00    -0.061 OA 
BRANCH  17  18
HETATM   18  C   UNL     1      -6.939  12.721  68.543  1.00  0.00    -0.095 C  
HETATM   19  O   UNL     1      -8.056  13.195  68.693  1.00  0.00    -0.112 OA 
HETATM   20  C   UNL     1      -5.712  13.280  69.193  1.00  0.00    -0.076 C  
ENDBRANCH  17  18
ENDBRANCH   6  17
TORSDOF 6
ENDMDL
MODEL      184
REMARK 921   NORMALIZED FREE ENERGY PREDICTED BY IDOCK:    0.27 KCAL/MOL
REMARK 922        TOTAL FREE ENERGY PREDICTED BY IDOCK:   -0.24 KCAL/MOL
REMARK 923 INTER-LIGAND FREE ENERGY PREDICTED BY IDOCK:   -2.83 KCAL/MOL
REMARK 924 INTRA-LIGAND FREE ENERGY PREDICTED BY IDOCK:    2.59 KCAL/MOL
REMARK 927      BINDING AFFINITY PREDICTED BY RF-SCORE:    0.00 PKD
ROOT
HETATM    1  C   UNL     1     -11.178   9.514  70.065  1.00  0.00    -0.243 C  
HETATM    2  C   UNL     1      -9.980   9.159  69.168  1.00  0.00    -0.189 C  
HETATM    3  C   UNL     1     -10.040   7.628  68.963  1.00  0.00    -0.199 C  
HETATM    4  C   UNL     1      -9.924   9.968  67.860  1.00  0.00    -0.183 A  
HETATM    5  C   UNL     1     -10.197  11.348  67.789  1.00  0.00    -0.181 A  
HETATM    6  C   UNL     1      -9.600   9.972  65.424  1.00  0.00    -0.279 A  
HETATM    7  C   UNL     1     -10.186  12.016  66.550  1.00  0.00    -0.232 A  
HETATM    8  C   UNL     1      -9.917  11.333  65.355  1.00  0.00    -0.297 A  
HETATM    9  C   UNL     1      -9.576   9.318  66.656  1.00  0.00    -0.263 A  
HETATM   10  C   UNL     1      -9.985  12.058  64.045  1.00  0.00    -0.317 C  
ENDROOT
BRANCH   5  11
HETATM   11  O   UNL     1     -10.372  12.037  68.965  1.00  0.00    -0.143 OA 
BRANCH  11  12
HETATM   12  C   UNL     1     -11.272  13.154  68.900  1.00  0.00    -0.277 C  
BRANCH  12  13
HETATM   13  C   UNL     1     -11.077  13.869  67.549  1.00  0.00    -0.286 C  
BRANCH  13  14
HETATM   14  N   UNL     1     -12.332  14.206  66.845  1.00  0.00    -0.364 NA 
HETATM   15  C   UNL     1     -12.148  15.297  65.887  1.00  0.00     0.425 C  
HETATM   16  C   UNL     1     -12.847  13.025  66.149  1.00  0.00     0.590 C  
ENDBRANCH  13  14
ENDBRANCH  12  13
ENDBRANCH  11  12
ENDBRANCH   5  11
BRANCH   6  17
HETATM   17  O   UNL     1      -9.362   9.305  64.190  1.00  0.00    -0.023 OA 
BRANCH  17  18
HETATM   18  C   UNL     1      -8.197   9.366  63.411  1.00  0.00    -0.168 C  
HETATM   19  O   UNL     1      -8.005  10.042  62.411  1.00  0.00    -0.115 OA 
HETATM   20  C   UNL     1      -7.146   8.500  64.034  1.00  0.00    -0.090 C  
ENDBRANCH  17  18
ENDBRANCH   6  17
TORSDOF 6
ENDMDL
MODEL      185
REMARK 921   NORMALIZED FREE ENERGY PREDICTED BY IDOCK:    1.05 KCAL/MOL
REMARK 922        TOTAL FREE ENERGY PREDICTED BY IDOCK:    0.81 KCAL/MOL
REMARK 923 INTER-LIGAND FREE ENERGY PREDICTED BY IDOCK:   -1.34 KCAL/MOL
REMARK 924 INTRA-LIGAND FREE ENERGY PREDICTED BY IDOCK:    2.15 KCAL/MOL
REMARK 927      BINDING AFFINITY PREDICTED BY RF-SCORE:    0.00 PKD
ROOT
HETATM    1  C   UNL     1      -8.618   5.786  71.045  1.00  0.00    -0.131 C  
HETATM    2  C   UNL     1      -8.350   7.299  71.104  1.00  0.00    -0.112 C  
HETATM    3  C   UNL     1      -6.817   7.456  71.217  1.00  0.00    -0.050 C  
HETATM    4  C   UNL     1      -8.981   8.086  69.941  1.00  0.00    -0.145 A  
HETATM    5  C   UNL     1     -10.276   7.837  69.449  1.00  0.00    -0.208 A  
HETATM    6  C   UNL     1      -8.721   9.807  68.207  1.00  0.00    -0.119 A  
HETATM    7  C   UNL     1     -10.770   8.554  68.342  1.00  0.00    -0.084 A  
HETATM    8  C   UNL     1      -9.991   9.523  67.693  1.00  0.00    -0.226 A  
HETATM    9  C   UNL     1      -8.245   9.121  69.324  1.00  0.00    -0.118 A  
HETATM   10  C   UNL     1     -10.519  10.217  66.474  1.00  0.00    -0.236 C  
ENDROOT
BRANCH   5  11
HETATM   11  O   UNL     1     -11.075   6.954  70.135  1.00  0.00    -0.266 OA 
BRANCH  11  12
HETATM   12  C   UNL     1     -10.935   5.574  69.763  1.00  0.00    -0.105 C  
BRANCH  12  13
HETATM   13  C   UNL     1      -9.978   5.481  68.559  1.00  0.00    -0.157 C  
BRANCH  13  14
HETATM   14  N   UNL     1     -10.627   5.096  67.287  1.00  0.00    -0.137 NA 
HETATM   15  C   UNL     1     -10.257   5.992  66.190  1.00  0.00     0.116 C  
HETATM   16  C   UNL     1     -10.266   3.719  66.939  1.00  0.00     0.642 C  
ENDBRANCH  13  14
ENDBRANCH  12  13
ENDBRANCH  11  12
ENDBRANCH   5  11
BRANCH   6  17
HETATM   17  O   UNL     1      -7.947  10.774  67.505  1.00  0.00    -0.109 OA 
BRANCH  17  18
HETATM   18  C   UNL     1      -7.356  11.928  68.041  1.00  0.00    -0.100 C  
HETATM   19  O   UNL     1      -6.220  12.338  67.850  1.00  0.00    -0.069 OA 
HETATM   20  C   UNL     1      -8.370  12.660  68.864  1.00  0.00     0.270 C  
ENDBRANCH  17  18
ENDBRANCH   6  17
TORSDOF 6
ENDMDL
MODEL      186
REMARK 921   NORMALIZED FREE ENERGY PREDICTED BY IDOCK:    2.58 KCAL/MOL
REMARK 922        TOTAL FREE ENERGY PREDICTED BY IDOCK:    2.88 KCAL/MOL
REMARK 923 INTER-LIGAND FREE ENERGY PREDICTED BY IDOCK:   -0.92 KCAL/MOL
REMARK 924 INTRA-LIGAND FREE ENERGY PREDICTED BY IDOCK:    3.80 KCAL/MOL
REMARK 927      BINDING AFFINITY PREDICTED BY RF-SCORE:    0.00 PKD
ROOT
HETATM    1  C   UNL     1     -10.196   9.871  69.831  1.00  0.00    -0.298 C  
HETATM    2  C   UNL     1     -10.795  10.946  68.908  1.00  0.00    -0.262 C  
HETATM    3  C   UNL     1     -12.151  11.341  69.539  1.00  0.00    -0.386 C  
HETATM    4  C   UNL     1      -9.852  12.133  68.647  1.00  0.00    -0.110 A  
HETATM    5  C   UNL     1      -8.473  11.989  68.399  1.00  0.00    -0.147 A  
HETATM    6  C   UNL     1      -9.557  14.569  68.506  1.00  0.00    -0.220 A  
HETATM    7  C   UNL     1      -7.655  13.122  68.227  1.00  0.00    -0.139 A  
HETATM    8  C   UNL     1      -8.180  14.420  68.306  1.00  0.00    -0.149 A  
HETATM    9  C   UNL     1     -10.373  13.445  68.642  1.00  0.00    -0.213 A  
HETATM   10  C   UNL     1      -7.270  15.605  68.190  1.00  0.00    -0.122 C  
ENDROOT
BRANCH   5  11
HETATM   11  O   UNL     1      -7.972  10.720  68.232  1.00  0.00    -0.109 OA 
BRANCH  11  12
HETATM   12  C   UNL     1      -8.684   9.891  67.299  1.00  0.00    -0.128 C  
BRANCH  12  13
HETATM   13  C   UNL     1      -7.662   9.092  66.467  1.00  0.00    -0.096 C  
BRANCH  13  14
HETATM   14  N   UNL     1      -7.162   7.865  67.122  1.00  0.00    -0.088 NA 
HETATM   15  C   UNL     1      -6.768   6.846  66.148  1.00  0.00    -0.052 C  
HETATM   16  C   UNL     1      -6.021   8.187  67.983  1.00  0.00    -0.042 C  
ENDBRANCH  13  14
ENDBRANCH  12  13
ENDBRANCH  11  12
ENDBRANCH   5  11
BRANCH   6  17
HETATM   17  O   UNL     1     -10.050  15.900  68.611  1.00  0.00    -0.207 OA 
BRANCH  17  18
HETATM   18  C   UNL     1      -9.384  17.002  69.167  1.00  0.00    -0.088 C  
HETATM   19  O   UNL     1      -9.522  18.181  68.872  1.00  0.00    -0.283 OA 
HETATM   20  C   UNL     1      -8.485  16.528  70.267  1.00  0.00     2.221 C  
ENDBRANCH  17  18
ENDBRANCH   6  17
TORSDOF 6
ENDMDL
MODEL      187
REMARK 921   NORMALIZED FREE ENERGY PREDICTED BY IDOCK:    5.46 KCAL/MOL
REMARK 922        TOTAL FREE ENERGY PREDICTED BY IDOCK:    6.77 KCAL/MOL
REMARK 923 INTER-LIGAND FREE ENERGY PREDICTED BY IDOCK:    0.17 KCAL/MOL
REMARK 924 INTRA-LIGAND FREE ENERGY PREDICTED BY IDOCK:    6.60 KCAL/MOL
REMARK 927      BINDING AFFINITY PREDICTED BY RF-SCORE:    0.00 PKD
ROOT
HETATM    1  C   UNL     1      -8.954   5.073  71.047  1.00  0.00    -0.162 C  
HETATM    2  C   UNL     1      -8.346   6.381  70.515  1.00  0.00    -0.129 C  
HETATM    3  C   UNL     1      -6.819   6.255  70.720  1.00  0.00    -0.063 C  
HETATM    4  C   UNL     1      -8.764   6.715  69.072  1.00  0.00    -0.129 A  
HETATM    5  C   UNL     1     -10.075   6.551  68.585  1.00  0.00    -0.161 A  
HETATM    6  C   UNL     1      -8.091   7.454  66.826  1.00  0.00    -0.123 A  
HETATM    7  C   UNL     1     -10.376   6.820  67.236  1.00  0.00    -0.311 A  
HETATM    8  C   UNL     1      -9.386   7.245  66.338  1.00  0.00    -0.199 A  
HETATM    9  C   UNL     1      -7.801   7.221  68.171  1.00  0.00    -0.118 A  
HETATM   10  C   UNL     1      -9.724   7.453  64.893  1.00  0.00     2.275 C  
ENDROOT
BRANCH   5  11
HETATM   11  O   UNL     1     -11.064   6.222  69.481  1.00  0.00    -0.338 OA 
BRANCH  11  12
HETATM   12  C   UNL     1     -10.627   5.525  70.658  1.00  0.00    -0.259 C  
BRANCH  12  13
HETATM   13  C   UNL     1     -11.332   6.135  71.885  1.00  0.00    -0.296 C  
BRANCH  13  14
HETATM   14  N   UNL     1     -11.046   7.568  72.108  1.00  0.00    -0.243 NA 
HETATM   15  C   UNL     1     -11.758   8.424  71.157  1.00  0.00    -0.280 C  
HETATM   16  C   UNL     1     -11.413   7.943  73.476  1.00  0.00     1.018 C  
ENDBRANCH  13  14
ENDBRANCH  12  13
ENDBRANCH  11  12
ENDBRANCH   5  11
BRANCH   6  17
HETATM   17  O   UNL     1      -7.107   7.856  65.881  1.00  0.00    -0.060 OA 
BRANCH  17  18
HETATM   18  C   UNL     1      -6.685   9.166  65.611  1.00  0.00    -0.072 C  
HETATM   19  O   UNL     1      -5.564   9.632  65.755  1.00  0.00    -0.046 OA 
HETATM   20  C   UNL     1      -7.830   9.940  65.033  1.00  0.00    -0.131 C  
ENDBRANCH  17  18
ENDBRANCH   6  17
TORSDOF 6
ENDMDL
MODEL      188
REMARK 921   NORMALIZED FREE ENERGY PREDICTED BY IDOCK:   14.31 KCAL/MOL
REMARK 922        TOTAL FREE ENERGY PREDICTED BY IDOCK:   18.73 KCAL/MOL
REMARK 923 INTER-LIGAND FREE ENERGY PREDICTED BY IDOCK:    1.30 KCAL/MOL
REMARK 924 INTRA-LIGAND FREE ENERGY PREDICTED BY IDOCK:   17.43 KCAL/MOL
REMARK 927      BINDING AFFINITY PREDICTED BY RF-SCORE:    0.00 PKD
ROOT
HETATM    1  C   UNL     1      -9.708   4.501  70.653  1.00  0.00    -0.282 C  
HETATM    2  C   UNL     1      -9.599   5.838  69.899  1.00  0.00    -0.201 C  
HETATM    3  C   UNL     1      -8.962   6.836  70.892  1.00  0.00    -0.150 C  
HETATM    4  C   UNL     1      -8.862   5.731  68.552  1.00  0.00    -0.110 A  
HETATM    5  C   UNL     1      -9.053   4.671  67.645  1.00  0.00    -0.118 A  
HETATM    6  C   UNL     1      -7.177   6.654  67.020  1.00  0.00    -0.081 A  
HETATM    7  C   UNL     1      -8.302   4.603  66.456  1.00  0.00    -0.106 A  
HETATM    8  C   UNL     1      -7.339   5.574  66.145  1.00  0.00    -0.078 A  
HETATM    9  C   UNL     1      -7.946   6.739  68.181  1.00  0.00    -0.114 A  
HETATM   10  C   UNL     1      -6.505   5.434  64.907  1.00  0.00    -0.039 C  
ENDROOT
BRANCH   5  11
HETATM   11  O   UNL     1     -10.057   3.768  67.902  1.00  0.00     0.077 OA 
BRANCH  11  12
HETATM   12  C   UNL     1     -10.500   3.706  69.267  1.00  0.00     1.789 C  
BRANCH  12  13
HETATM   13  C   UNL     1      -9.977   2.401  69.898  1.00  0.00     0.541 C  
BRANCH  13  14
HETATM   14  N   UNL     1      -9.904   2.418  71.374  1.00  0.00    -0.144 NA 
HETATM   15  C   UNL     1      -9.967   3.779  71.910  1.00  0.00    -0.160 C  
HETATM   16  C   UNL     1     -10.994   1.619  71.938  1.00  0.00     0.658 C  
ENDBRANCH  13  14
ENDBRANCH  12  13
ENDBRANCH  11  12
ENDBRANCH   5  11
BRANCH   6  17
HETATM   17  O   UNL     1      -6.171   7.604  66.688  1.00  0.00    -0.043 OA 
BRANCH  17  18
HETATM   18  C   UNL     1      -6.091   8.370  65.516  1.00  0.00    -0.045 C  
HETATM   19  O   UNL     1      -5.648   9.503  65.397  1.00  0.00    -0.050 OA 
HETATM   20  C   UNL     1      -6.584   7.553  64.362  1.00  0.00    -0.048 C  
ENDBRANCH  17  18
ENDBRANCH   6  17
TORSDOF 6
ENDMDL
MODEL      189
REMARK 921   NORMALIZED FREE ENERGY PREDICTED BY IDOCK:   14.74 KCAL/MOL
REMARK 922        TOTAL FREE ENERGY PREDICTED BY IDOCK:   19.31 KCAL/MOL
REMARK 923 INTER-LIGAND FREE ENERGY PREDICTED BY IDOCK:   14.56 KCAL/MOL
REMARK 924 INTRA-LIGAND FREE ENERGY PREDICTED BY IDOCK:    4.75 KCAL/MOL
REMARK 927      BINDING AFFINITY PREDICTED BY RF-SCORE:    0.00 PKD
ROOT
HETATM    1  C   UNL     1      -7.473   7.841  70.248  1.00  0.00    -0.079 C  
HETATM    2  C   UNL     1      -8.373   9.068  70.467  1.00  0.00    -0.205 C  
HETATM    3  C   UNL     1      -8.989   8.898  71.875  1.00  0.00    -0.154 C  
HETATM    4  C   UNL     1      -7.652  10.411  70.252  1.00  0.00     0.215 A  
HETATM    5  C   UNL     1      -6.751  10.647  69.197  1.00  0.00    -0.073 A  
HETATM    6  C   UNL     1      -7.205  12.689  71.059  1.00  0.00     4.567 A  
HETATM    7  C   UNL     1      -6.079  11.881  69.092  1.00  0.00    -0.078 A  
HETATM    8  C   UNL     1      -6.277  12.901  70.034  1.00  0.00    -0.058 A  
HETATM    9  C   UNL     1      -7.896  11.480  71.142  1.00  0.00     6.621 A  
HETATM   10  C   UNL     1      -5.492  14.175  69.935  1.00  0.00    -0.099 C  
ENDROOT
BRANCH   5  11
HETATM   11  O   UNL     1      -6.623   9.686  68.224  1.00  0.00    -0.056 OA 
BRANCH  11  12
HETATM   12  C   UNL     1      -7.843   9.039  67.827  1.00  0.00    -0.101 C  
BRANCH  12  13
HETATM   13  C   UNL     1      -7.886   8.968  66.288  1.00  0.00    -0.099 C  
BRANCH  13  14
HETATM   14  N   UNL     1      -8.746   9.988  65.650  1.00  0.00    -0.149 NA 
HETATM   15  C   UNL     1      -8.164  11.328  65.739  1.00  0.00     0.071 C  
HETATM   16  C   UNL     1      -8.970   9.643  64.244  1.00  0.00    -0.229 C  
ENDBRANCH  13  14
ENDBRANCH  12  13
ENDBRANCH  11  12
ENDBRANCH   5  11
BRANCH   6  17
HETATM   17  O   UNL     1      -7.358  13.734  72.013  1.00  0.00     3.440 OA 
BRANCH  17  18
HETATM   18  C   UNL     1      -6.365  14.254  72.857  1.00  0.00     1.229 C  
HETATM   19  O   UNL     1      -6.386  14.321  74.077  1.00  0.00    -0.066 OA 
HETATM   20  C   UNL     1      -5.193  14.680  72.029  1.00  0.00    -0.140 C  
ENDBRANCH  17  18
ENDBRANCH   6  17
TORSDOF 6
ENDMDL
