MODEL        1
REMARK 921   NORMALIZED FREE ENERGY PREDICTED BY IDOCK:   -7.50 KCAL/MOL
REMARK 922        TOTAL FREE ENERGY PREDICTED BY IDOCK:   -9.63 KCAL/MOL
REMARK 923 INTER-LIGAND FREE ENERGY PREDICTED BY IDOCK:   -8.82 KCAL/MOL
REMARK 924 INTRA-LIGAND FREE ENERGY PREDICTED BY IDOCK:   -0.81 KCAL/MOL
REMARK 927      BINDING AFFINITY PREDICTED BY RF-SCORE:    0.00 PKD
ROOT
HETATM    1  C   UNL     1      -8.990  17.933  68.071  1.00  0.00    -0.267 C  
HETATM    2  C   UNL     1      -9.135  16.703  68.990  1.00  0.00    -0.209 C  
HETATM    3  N   UNL     1     -10.383  16.042  68.547  1.00  0.00    -0.233 NA 
HETATM    4  C   UNL     1      -9.764  19.148  68.605  1.00  0.00    -0.478 C  
HETATM    5  C   UNL     1     -10.746  16.533  67.221  1.00  0.00    -0.243 C  
HETATM    6  C   UNL     1      -9.548  17.387  66.752  1.00  0.00    -0.277 C  
HETATM    7  C   UNL     1     -10.122  20.145  67.505  1.00  0.00    -0.549 C  
HETATM    8  N   UNL     1      -9.848  18.422  65.758  1.00  0.00    -0.466 NA 
HETATM    9  H   UNL     1     -10.240  18.009  64.911  1.00  0.00     0.000 HD 
HETATM   10  C   UNL     1     -10.720  19.480  66.273  1.00  0.00    -0.429 C  
ENDROOT
BRANCH   3  11
HETATM   11  C   UNL     1     -10.938  14.924  69.155  1.00  0.00    -0.260 A  
HETATM   12  C   UNL     1     -12.395  14.062  70.954  1.00  0.00    -0.443 A  
HETATM   13  F   UNL     1     -12.071  16.333  70.738  1.00  0.00    -0.372 F  
HETATM   14  C   UNL     1     -11.815  15.106  70.255  1.00  0.00    -0.311 A  
HETATM   15  C   UNL     1     -12.815  11.684  71.350  1.00  0.00    -0.356 C  
HETATM   16  O   UNL     1     -13.455  11.935  72.369  1.00  0.00    -0.355 OA 
HETATM   17  C   UNL     1     -12.703  10.303  70.886  1.00  0.00    -0.462 C  
HETATM   18  C   UNL     1     -12.168  12.753  70.551  1.00  0.00    -0.389 A  
HETATM   19  C   UNL     1     -13.355   9.146  71.541  1.00  0.00    -0.355 C  
HETATM   20  C   UNL     1     -11.944  10.099  69.798  1.00  0.00    -0.037 C  
HETATM   21  N   UNL     1     -11.218  11.047  69.091  1.00  0.00    -0.232 NA 
HETATM   22  O   UNL     1     -14.049   9.456  72.655  1.00  0.00    -0.418 OA 
HETATM   23  O   UNL     1     -13.276   8.001  71.121  1.00  0.00    -0.183 OA 
HETATM   24  C   UNL     1     -11.343  12.447  69.443  1.00  0.00    -0.220 A  
HETATM   25  C   UNL     1     -10.697  13.550  68.775  1.00  0.00    -0.238 A  
BRANCH  21  26
HETATM   26  C   UNL     1     -10.599  10.584  67.829  1.00  0.00    -0.243 C  
HETATM   27  C   UNL     1      -9.344   9.745  67.833  1.00  0.00    -0.139 C  
HETATM   28  C   UNL     1     -10.623   9.137  67.369  1.00  0.00    -0.315 C  
ENDBRANCH  21  26
BRANCH  25  29
HETATM   29  O   UNL     1      -9.663  13.231  67.915  1.00  0.00    -0.210 OA 
HETATM   30  C   UNL     1      -8.343  13.234  68.454  1.00  0.00    -0.131 C  
ENDBRANCH  25  29
ENDBRANCH   3  11
TORSDOF 3
ENDMDL
MODEL        2
REMARK 921   NORMALIZED FREE ENERGY PREDICTED BY IDOCK:   -7.20 KCAL/MOL
REMARK 922        TOTAL FREE ENERGY PREDICTED BY IDOCK:   -9.27 KCAL/MOL
REMARK 923 INTER-LIGAND FREE ENERGY PREDICTED BY IDOCK:   -8.84 KCAL/MOL
REMARK 924 INTRA-LIGAND FREE ENERGY PREDICTED BY IDOCK:   -0.42 KCAL/MOL
REMARK 927      BINDING AFFINITY PREDICTED BY RF-SCORE:    0.00 PKD
ROOT
HETATM    1  C   UNL     1     -10.125  17.285  66.341  1.00  0.00    -0.321 C  
HETATM    2  C   UNL     1     -10.743  15.901  66.621  1.00  0.00    -0.270 C  
HETATM    3  N   UNL     1     -10.696  15.753  68.093  1.00  0.00    -0.275 NA 
HETATM    4  C   UNL     1      -8.593  17.223  66.236  1.00  0.00    -0.264 C  
HETATM    5  C   UNL     1     -10.491  17.062  68.703  1.00  0.00    -0.363 C  
HETATM    6  C   UNL     1     -10.620  18.083  67.552  1.00  0.00    -0.388 C  
HETATM    7  C   UNL     1      -7.930  18.565  66.535  1.00  0.00    -0.295 C  
HETATM    8  N   UNL     1      -9.929  19.361  67.748  1.00  0.00    -0.355 NA 
HETATM    9  H   UNL     1     -10.278  19.838  68.579  1.00  0.00     0.000 HD 
HETATM   10  C   UNL     1      -8.471  19.227  67.796  1.00  0.00    -0.305 C  
ENDROOT
BRANCH   3  11
HETATM   11  C   UNL     1     -11.089  14.613  68.781  1.00  0.00    -0.260 A  
HETATM   12  C   UNL     1     -12.533  13.661  70.546  1.00  0.00    -0.394 A  
HETATM   13  F   UNL     1     -12.622  15.919  70.093  1.00  0.00    -0.395 F  
HETATM   14  C   UNL     1     -12.092  14.726  69.778  1.00  0.00    -0.319 A  
HETATM   15  C   UNL     1     -12.536  11.298  71.181  1.00  0.00    -0.397 C  
HETATM   16  O   UNL     1     -13.313  11.517  72.109  1.00  0.00    -0.477 OA 
HETATM   17  C   UNL     1     -12.121   9.928  70.892  1.00  0.00    -0.431 C  
HETATM   18  C   UNL     1     -12.025  12.390  70.317  1.00  0.00    -0.371 A  
HETATM   19  C   UNL     1     -12.606   8.735  71.623  1.00  0.00    -0.345 C  
HETATM   20  C   UNL     1     -11.231   9.772  69.899  1.00  0.00    -0.229 C  
HETATM   21  N   UNL     1     -10.628  10.770  69.147  1.00  0.00    -0.211 NA 
HETATM   22  O   UNL     1     -13.456   9.010  72.634  1.00  0.00    -0.463 OA 
HETATM   23  O   UNL     1     -12.272   7.593  71.346  1.00  0.00    -0.307 OA 
HETATM   24  C   UNL     1     -11.049  12.145  69.322  1.00  0.00    -0.167 A  
HETATM   25  C   UNL     1     -10.557  13.283  68.584  1.00  0.00    -0.246 A  
BRANCH  21  26
HETATM   26  C   UNL     1      -9.808  10.316  68.001  1.00  0.00    -0.150 C  
HETATM   27  C   UNL     1      -9.840   8.881  67.535  1.00  0.00    -0.237 C  
HETATM   28  C   UNL     1     -10.394   9.945  66.651  1.00  0.00    -0.275 C  
ENDBRANCH  21  26
BRANCH  25  29
HETATM   29  O   UNL     1      -9.400  13.091  67.853  1.00  0.00    -0.196 OA 
HETATM   30  C   UNL     1      -8.178  13.530  68.441  1.00  0.00    -0.141 C  
ENDBRANCH  25  29
ENDBRANCH   3  11
TORSDOF 3
ENDMDL
MODEL        3
REMARK 921   NORMALIZED FREE ENERGY PREDICTED BY IDOCK:   -7.00 KCAL/MOL
REMARK 922        TOTAL FREE ENERGY PREDICTED BY IDOCK:   -9.03 KCAL/MOL
REMARK 923 INTER-LIGAND FREE ENERGY PREDICTED BY IDOCK:   -8.52 KCAL/MOL
REMARK 924 INTRA-LIGAND FREE ENERGY PREDICTED BY IDOCK:   -0.52 KCAL/MOL
REMARK 927      BINDING AFFINITY PREDICTED BY RF-SCORE:    0.00 PKD
ROOT
HETATM    1  C   UNL     1     -11.880   8.726  72.120  1.00  0.00    -0.436 C  
HETATM    2  C   UNL     1     -11.166   9.967  71.547  1.00  0.00    -0.099 C  
HETATM    3  N   UNL     1     -12.207  10.681  70.774  1.00  0.00    -0.341 NA 
HETATM    4  C   UNL     1     -11.880   7.551  71.129  1.00  0.00    -0.324 C  
HETATM    5  C   UNL     1     -13.524  10.198  71.176  1.00  0.00    -0.201 C  
HETATM    6  C   UNL     1     -13.278   9.287  72.397  1.00  0.00    -0.426 C  
HETATM    7  C   UNL     1     -13.015   6.563  71.389  1.00  0.00     0.057 C  
HETATM    8  N   UNL     1     -14.295   8.260  72.647  1.00  0.00    -0.808 NA 
HETATM    9  H   UNL     1     -15.209   8.685  72.800  1.00  0.00     0.000 HD 
HETATM   10  C   UNL     1     -14.361   7.247  71.592  1.00  0.00    -0.421 C  
ENDROOT
BRANCH   3  11
HETATM   11  C   UNL     1     -11.980  11.828  70.025  1.00  0.00    -0.344 A  
HETATM   12  C   UNL     1     -11.864  14.296  70.011  1.00  0.00    -0.378 A  
HETATM   13  F   UNL     1     -12.359  13.188  71.970  1.00  0.00    -0.162 F  
HETATM   14  C   UNL     1     -12.040  13.091  70.669  1.00  0.00    -0.248 A  
HETATM   15  C   UNL     1     -11.391  15.630  68.015  1.00  0.00    -0.324 C  
HETATM   16  O   UNL     1     -11.590  16.676  68.629  1.00  0.00    -0.190 OA 
HETATM   17  C   UNL     1     -10.947  15.680  66.624  1.00  0.00    -0.212 C  
HETATM   18  C   UNL     1     -11.558  14.303  68.658  1.00  0.00    -0.352 A  
HETATM   19  C   UNL     1     -10.670  16.929  65.880  1.00  0.00    -0.149 C  
HETATM   20  C   UNL     1     -10.802  14.499  66.002  1.00  0.00    -0.310 C  
HETATM   21  N   UNL     1     -11.067  13.239  66.520  1.00  0.00    -0.290 NA 
HETATM   22  O   UNL     1     -10.899  18.058  66.581  1.00  0.00    -0.211 OA 
HETATM   23  O   UNL     1     -10.269  16.951  64.725  1.00  0.00    -0.056 OA 
HETATM   24  C   UNL     1     -11.432  13.105  67.915  1.00  0.00    -0.308 A  
HETATM   25  C   UNL     1     -11.688  11.867  68.610  1.00  0.00    -0.323 A  
BRANCH  21  26
HETATM   26  C   UNL     1     -10.661  12.091  65.677  1.00  0.00    -0.272 C  
HETATM   27  C   UNL     1     -11.384  11.768  64.393  1.00  0.00    -0.373 C  
HETATM   28  C   UNL     1      -9.974  12.244  64.332  1.00  0.00    -0.231 C  
ENDBRANCH  21  26
BRANCH  25  29
HETATM   29  O   UNL     1     -11.875  10.745  67.823  1.00  0.00    -0.538 OA 
HETATM   30  C   UNL     1     -10.836   9.770  67.824  1.00  0.00    -0.246 C  
ENDBRANCH  25  29
ENDBRANCH   3  11
TORSDOF 3
ENDMDL
MODEL        4
REMARK 921   NORMALIZED FREE ENERGY PREDICTED BY IDOCK:   -6.82 KCAL/MOL
REMARK 922        TOTAL FREE ENERGY PREDICTED BY IDOCK:   -8.82 KCAL/MOL
REMARK 923 INTER-LIGAND FREE ENERGY PREDICTED BY IDOCK:   -8.15 KCAL/MOL
REMARK 924 INTRA-LIGAND FREE ENERGY PREDICTED BY IDOCK:   -0.68 KCAL/MOL
REMARK 927      BINDING AFFINITY PREDICTED BY RF-SCORE:    0.00 PKD
ROOT
HETATM    1  C   UNL     1     -10.167  13.995  64.834  1.00  0.00    -0.377 C  
HETATM    2  C   UNL     1      -9.686  12.951  65.862  1.00  0.00    -0.184 C  
HETATM    3  N   UNL     1     -10.926  12.384  66.438  1.00  0.00    -0.265 NA 
HETATM    4  C   UNL     1     -10.432  15.363  65.482  1.00  0.00    -0.402 C  
HETATM    5  C   UNL     1     -12.052  12.702  65.567  1.00  0.00    -0.458 C  
HETATM    6  C   UNL     1     -11.433  13.321  64.295  1.00  0.00    -0.396 C  
HETATM    7  C   UNL     1     -11.415  16.212  64.678  1.00  0.00    -0.225 C  
HETATM    8  N   UNL     1     -12.305  14.216  63.528  1.00  0.00    -1.127 NA 
HETATM    9  H   UNL     1     -13.142  13.726  63.215  1.00  0.00     0.000 HD 
HETATM   10  C   UNL     1     -12.656  15.439  64.253  1.00  0.00     0.245 C  
ENDROOT
BRANCH   3  11
HETATM   11  C   UNL     1     -10.959  11.450  67.464  1.00  0.00    -0.260 A  
HETATM   12  C   UNL     1     -11.294  11.046  69.879  1.00  0.00    -0.364 A  
HETATM   13  F   UNL     1     -11.477  13.186  69.043  1.00  0.00    -0.259 F  
HETATM   14  C   UNL     1     -11.268  11.886  68.779  1.00  0.00    -0.259 A  
HETATM   15  C   UNL     1     -11.098   8.848  70.936  1.00  0.00    -0.271 C  
HETATM   16  O   UNL     1     -11.247   9.338  72.054  1.00  0.00    -0.343 OA 
HETATM   17  C   UNL     1     -10.983   7.399  70.790  1.00  0.00    -0.272 C  
HETATM   18  C   UNL     1     -11.062   9.688  69.713  1.00  0.00    -0.247 A  
HETATM   19  C   UNL     1     -11.074   6.436  71.911  1.00  0.00    -0.268 C  
HETATM   20  C   UNL     1     -10.768   6.940  69.547  1.00  0.00    -0.246 C  
HETATM   21  N   UNL     1     -10.601   7.691  68.392  1.00  0.00    -0.164 NA 
HETATM   22  O   UNL     1     -11.236   7.006  73.123  1.00  0.00    -0.253 OA 
HETATM   23  O   UNL     1     -11.006   5.224  71.766  1.00  0.00    -0.183 OA 
HETATM   24  C   UNL     1     -10.783   9.128  68.445  1.00  0.00    -0.115 A  
HETATM   25  C   UNL     1     -10.693  10.035  67.327  1.00  0.00    -0.244 A  
BRANCH  21  26
HETATM   26  C   UNL     1     -10.546   6.930  67.123  1.00  0.00    -0.338 C  
HETATM   27  C   UNL     1      -9.349   6.083  66.770  1.00  0.00    -0.148 C  
HETATM   28  C   UNL     1     -10.652   5.417  67.052  1.00  0.00    -0.298 C  
ENDBRANCH  21  26
BRANCH  25  29
HETATM   29  O   UNL     1     -10.116   9.538  66.173  1.00  0.00    -0.284 OA 
HETATM   30  C   UNL     1      -8.701   9.650  66.053  1.00  0.00    -0.138 C  
ENDBRANCH  25  29
ENDBRANCH   3  11
TORSDOF 3
ENDMDL
MODEL        5
REMARK 921   NORMALIZED FREE ENERGY PREDICTED BY IDOCK:   -6.81 KCAL/MOL
REMARK 922        TOTAL FREE ENERGY PREDICTED BY IDOCK:   -8.81 KCAL/MOL
REMARK 923 INTER-LIGAND FREE ENERGY PREDICTED BY IDOCK:   -8.12 KCAL/MOL
REMARK 924 INTRA-LIGAND FREE ENERGY PREDICTED BY IDOCK:   -0.69 KCAL/MOL
REMARK 927      BINDING AFFINITY PREDICTED BY RF-SCORE:    0.00 PKD
ROOT
HETATM    1  C   UNL     1     -10.747  16.289  66.888  1.00  0.00    -0.217 C  
HETATM    2  C   UNL     1     -11.340  14.879  67.083  1.00  0.00    -0.343 C  
HETATM    3  N   UNL     1     -10.787  14.408  68.372  1.00  0.00    -0.241 NA 
HETATM    4  C   UNL     1      -9.363  16.246  66.222  1.00  0.00    -0.360 C  
HETATM    5  C   UNL     1     -10.269  15.548  69.121  1.00  0.00    -0.240 C  
HETATM    6  C   UNL     1     -10.712  16.799  68.332  1.00  0.00    -0.362 C  
HETATM    7  C   UNL     1      -8.526  17.487  66.529  1.00  0.00    -0.300 C  
HETATM    8  N   UNL     1      -9.892  18.000  68.521  1.00  0.00    -0.360 NA 
HETATM    9  H   UNL     1      -9.883  18.282  69.501  1.00  0.00     0.000 HD 
HETATM   10  C   UNL     1      -8.529  17.854  68.007  1.00  0.00    -0.256 C  
ENDROOT
BRANCH   3  11
HETATM   11  C   UNL     1     -11.005  13.145  68.906  1.00  0.00    -0.230 A  
HETATM   12  C   UNL     1     -12.225  11.791  70.574  1.00  0.00    -0.438 A  
HETATM   13  F   UNL     1     -12.601  14.061  70.451  1.00  0.00    -0.363 F  
HETATM   14  C   UNL     1     -11.955  12.996  69.949  1.00  0.00    -0.311 A  
HETATM   15  C   UNL     1     -11.917   9.381  70.866  1.00  0.00    -0.280 C  
HETATM   16  O   UNL     1     -12.659   9.373  71.846  1.00  0.00    -0.358 OA 
HETATM   17  C   UNL     1     -11.363   8.124  70.368  1.00  0.00    -0.181 C  
HETATM   18  C   UNL     1     -11.586  10.635  70.146  1.00  0.00    -0.414 A  
HETATM   19  C   UNL     1     -11.664   6.793  70.940  1.00  0.00    -0.372 C  
HETATM   20  C   UNL     1     -10.519   8.216  69.328  1.00  0.00    -0.214 C  
HETATM   21  N   UNL     1     -10.080   9.374  68.702  1.00  0.00    -0.184 NA 
HETATM   22  O   UNL     1     -12.480   6.820  72.014  1.00  0.00    -0.316 OA 
HETATM   23  O   UNL     1     -11.215   5.748  70.491  1.00  0.00    -0.270 OA 
HETATM   24  C   UNL     1     -10.647  10.650  69.088  1.00  0.00    -0.226 A  
HETATM   25  C   UNL     1     -10.334  11.930  68.500  1.00  0.00    -0.218 A  
BRANCH  21  26
HETATM   26  C   UNL     1      -9.280   9.185  67.471  1.00  0.00    -0.128 C  
HETATM   27  C   UNL     1      -9.318   7.886  66.704  1.00  0.00    -0.244 C  
HETATM   28  C   UNL     1      -9.890   9.113  66.082  1.00  0.00    -0.363 C  
ENDBRANCH  21  26
BRANCH  25  29
HETATM   29  O   UNL     1      -9.206  11.983  67.703  1.00  0.00    -0.172 OA 
HETATM   30  C   UNL     1      -7.995  12.416  68.318  1.00  0.00    -0.160 C  
ENDBRANCH  25  29
ENDBRANCH   3  11
TORSDOF 3
ENDMDL
MODEL        6
REMARK 921   NORMALIZED FREE ENERGY PREDICTED BY IDOCK:   -6.78 KCAL/MOL
REMARK 922        TOTAL FREE ENERGY PREDICTED BY IDOCK:   -8.78 KCAL/MOL
REMARK 923 INTER-LIGAND FREE ENERGY PREDICTED BY IDOCK:   -7.97 KCAL/MOL
REMARK 924 INTRA-LIGAND FREE ENERGY PREDICTED BY IDOCK:   -0.81 KCAL/MOL
REMARK 927      BINDING AFFINITY PREDICTED BY RF-SCORE:    0.00 PKD
ROOT
HETATM    1  C   UNL     1      -7.288   9.121  65.655  1.00  0.00    -0.086 C  
HETATM    2  C   UNL     1      -7.763   9.723  66.992  1.00  0.00    -0.095 C  
HETATM    3  N   UNL     1      -9.188  10.060  66.773  1.00  0.00    -0.146 NA 
HETATM    4  C   UNL     1      -6.828  10.203  64.665  1.00  0.00    -0.117 C  
HETATM    5  C   UNL     1      -9.677   9.349  65.597  1.00  0.00    -0.266 C  
HETATM    6  C   UNL     1      -8.546   8.376  65.199  1.00  0.00    -0.132 C  
HETATM    7  C   UNL     1      -6.906   9.741  63.212  1.00  0.00    -0.117 C  
HETATM    8  N   UNL     1      -8.520   7.964  63.792  1.00  0.00    -0.378 NA 
HETATM    9  H   UNL     1      -9.389   7.496  63.535  1.00  0.00     0.000 HD 
HETATM   10  C   UNL     1      -8.230   9.067  62.874  1.00  0.00    -0.186 C  
ENDROOT
BRANCH   3  11
HETATM   11  C   UNL     1      -9.996  10.697  67.705  1.00  0.00    -0.167 A  
HETATM   12  C   UNL     1     -11.375  10.467  69.742  1.00  0.00    -0.367 A  
HETATM   13  F   UNL     1     -10.306   8.620  68.873  1.00  0.00    -0.199 F  
HETATM   14  C   UNL     1     -10.532   9.940  68.779  1.00  0.00    -0.213 A  
HETATM   15  C   UNL     1     -12.607  12.313  70.773  1.00  0.00    -0.213 C  
HETATM   16  O   UNL     1     -13.126  11.552  71.588  1.00  0.00    -0.452 OA 
HETATM   17  C   UNL     1     -12.867  13.748  70.855  1.00  0.00    -0.341 C  
HETATM   18  C   UNL     1     -11.692  11.818  69.715  1.00  0.00    -0.408 A  
HETATM   19  C   UNL     1     -13.698  14.389  71.898  1.00  0.00    -0.431 C  
HETATM   20  C   UNL     1     -12.310  14.510  69.899  1.00  0.00    -0.298 C  
HETATM   21  N   UNL     1     -11.553  14.081  68.819  1.00  0.00    -0.307 NA 
HETATM   22  O   UNL     1     -14.252  13.528  72.776  1.00  0.00    -0.692 OA 
HETATM   23  O   UNL     1     -13.879  15.596  71.970  1.00  0.00    -0.477 OA 
HETATM   24  C   UNL     1     -11.187  12.683  68.716  1.00  0.00    -0.280 A  
HETATM   25  C   UNL     1     -10.366  12.095  67.686  1.00  0.00    -0.203 A  
BRANCH  21  26
HETATM   26  C   UNL     1     -10.918  15.144  68.006  1.00  0.00    -0.295 C  
HETATM   27  C   UNL     1     -10.976  16.591  68.428  1.00  0.00    -0.348 C  
HETATM   28  C   UNL     1      -9.664  15.885  68.435  1.00  0.00    -0.214 C  
ENDBRANCH  21  26
BRANCH  25  29
HETATM   29  O   UNL     1     -10.144  12.864  66.559  1.00  0.00    -0.249 OA 
HETATM   30  C   UNL     1     -11.060  12.715  65.478  1.00  0.00    -0.294 C  
ENDBRANCH  25  29
ENDBRANCH   3  11
TORSDOF 3
ENDMDL
MODEL        7
REMARK 921   NORMALIZED FREE ENERGY PREDICTED BY IDOCK:   -6.75 KCAL/MOL
REMARK 922        TOTAL FREE ENERGY PREDICTED BY IDOCK:   -8.75 KCAL/MOL
REMARK 923 INTER-LIGAND FREE ENERGY PREDICTED BY IDOCK:   -8.03 KCAL/MOL
REMARK 924 INTRA-LIGAND FREE ENERGY PREDICTED BY IDOCK:   -0.72 KCAL/MOL
REMARK 927      BINDING AFFINITY PREDICTED BY RF-SCORE:    0.00 PKD
ROOT
HETATM    1  C   UNL     1      -9.849   7.293  73.152  1.00  0.00    -0.281 C  
HETATM    2  C   UNL     1      -9.750   8.535  72.244  1.00  0.00    -0.310 C  
HETATM    3  N   UNL     1     -10.618   8.229  71.085  1.00  0.00    -0.209 NA 
HETATM    4  C   UNL     1      -8.843   6.202  72.750  1.00  0.00    -0.123 C  
HETATM    5  C   UNL     1     -11.510   7.126  71.427  1.00  0.00    -0.272 C  
HETATM    6  C   UNL     1     -11.309   6.882  72.938  1.00  0.00    -0.162 C  
HETATM    7  C   UNL     1      -9.275   4.810  73.205  1.00  0.00    -0.123 C  
HETATM    8  N   UNL     1     -11.627   5.534  73.418  1.00  0.00    -0.441 NA 
HETATM    9  H   UNL     1     -12.602   5.302  73.229  1.00  0.00     0.000 HD 
HETATM   10  C   UNL     1     -10.732   4.506  72.882  1.00  0.00    -0.208 C  
ENDROOT
BRANCH   3  11
HETATM   11  C   UNL     1     -10.768   9.053  69.977  1.00  0.00    -0.229 A  
HETATM   12  C   UNL     1     -11.708  11.154  69.079  1.00  0.00    -0.408 A  
HETATM   13  F   UNL     1     -12.027  10.617  71.297  1.00  0.00    -0.416 F  
HETATM   14  C   UNL     1     -11.471  10.277  70.123  1.00  0.00    -0.309 A  
HETATM   15  C   UNL     1     -11.497  11.857  66.745  1.00  0.00    -0.316 C  
HETATM   16  O   UNL     1     -12.226  12.828  66.938  1.00  0.00    -0.454 OA 
HETATM   17  C   UNL     1     -10.876  11.667  65.436  1.00  0.00    -0.336 C  
HETATM   18  C   UNL     1     -11.198  10.877  67.818  1.00  0.00    -0.384 A  
HETATM   19  C   UNL     1     -11.026  12.601  64.297  1.00  0.00    -0.366 C  
HETATM   20  C   UNL     1     -10.136  10.558  65.282  1.00  0.00    -0.300 C  
HETATM   21  N   UNL     1      -9.931   9.550  66.213  1.00  0.00    -0.268 NA 
HETATM   22  O   UNL     1     -11.832  13.654  64.542  1.00  0.00    -0.377 OA 
HETATM   23  O   UNL     1     -10.474  12.442  63.218  1.00  0.00    -0.395 OA 
HETATM   24  C   UNL     1     -10.447   9.707  67.558  1.00  0.00    -0.262 A  
HETATM   25  C   UNL     1     -10.274   8.777  68.647  1.00  0.00    -0.194 A  
BRANCH  21  26
HETATM   26  C   UNL     1      -8.934   8.518  65.846  1.00  0.00    -0.189 C  
HETATM   27  C   UNL     1      -8.186   8.583  64.538  1.00  0.00    -0.158 C  
HETATM   28  C   UNL     1      -7.439   8.777  65.813  1.00  0.00    -0.085 C  
ENDBRANCH  21  26
BRANCH  25  29
HETATM   29  O   UNL     1      -9.825   7.512  68.313  1.00  0.00    -0.155 OA 
HETATM   30  C   UNL     1     -10.813   6.524  68.035  1.00  0.00    -0.295 C  
ENDBRANCH  25  29
ENDBRANCH   3  11
TORSDOF 3
ENDMDL
MODEL        8
REMARK 921   NORMALIZED FREE ENERGY PREDICTED BY IDOCK:   -6.66 KCAL/MOL
REMARK 922        TOTAL FREE ENERGY PREDICTED BY IDOCK:   -8.63 KCAL/MOL
REMARK 923 INTER-LIGAND FREE ENERGY PREDICTED BY IDOCK:   -7.87 KCAL/MOL
REMARK 924 INTRA-LIGAND FREE ENERGY PREDICTED BY IDOCK:   -0.76 KCAL/MOL
REMARK 927      BINDING AFFINITY PREDICTED BY RF-SCORE:    0.00 PKD
ROOT
HETATM    1  C   UNL     1     -11.533  14.958  66.872  1.00  0.00    -0.318 C  
HETATM    2  C   UNL     1     -11.928  13.514  67.239  1.00  0.00    -0.365 C  
HETATM    3  N   UNL     1     -11.177  13.217  68.479  1.00  0.00    -0.254 NA 
HETATM    4  C   UNL     1     -10.240  15.010  66.042  1.00  0.00    -0.318 C  
HETATM    5  C   UNL     1     -10.714  14.467  69.074  1.00  0.00    -0.250 C  
HETATM    6  C   UNL     1     -11.390  15.591  68.260  1.00  0.00    -0.357 C  
HETATM    7  C   UNL     1      -9.526  16.355  66.152  1.00  0.00    -0.363 C  
HETATM    8  N   UNL     1     -10.701  16.885  68.258  1.00  0.00    -0.368 NA 
HETATM    9  H   UNL     1     -10.611  17.249  69.207  1.00  0.00     0.000 HD 
HETATM   10  C   UNL     1      -9.399  16.844  67.589  1.00  0.00    -0.233 C  
ENDROOT
BRANCH   3  11
HETATM   11  C   UNL     1     -11.180  11.988  69.125  1.00  0.00    -0.246 A  
HETATM   12  C   UNL     1     -12.077  10.638  70.990  1.00  0.00    -0.473 A  
HETATM   13  F   UNL     1     -12.767  12.821  70.726  1.00  0.00    -0.371 F  
HETATM   14  C   UNL     1     -12.021  11.809  70.254  1.00  0.00    -0.343 A  
HETATM   15  C   UNL     1     -11.423   8.323  71.438  1.00  0.00    -0.269 C  
HETATM   16  O   UNL     1     -12.082   8.305  72.476  1.00  0.00    -0.385 OA 
HETATM   17  C   UNL     1     -10.742   7.110  70.992  1.00  0.00    -0.252 C  
HETATM   18  C   UNL     1     -11.321   9.542  70.598  1.00  0.00    -0.364 A  
HETATM   19  C   UNL     1     -10.815   5.806  71.688  1.00  0.00    -0.255 C  
HETATM   20  C   UNL     1      -9.998   7.220  69.880  1.00  0.00    -0.183 C  
HETATM   21  N   UNL     1      -9.769   8.366  69.132  1.00  0.00    -0.168 NA 
HETATM   22  O   UNL     1     -11.545   5.821  72.822  1.00  0.00    -0.281 OA 
HETATM   23  O   UNL     1     -10.263   4.793  71.283  1.00  0.00    -0.197 OA 
HETATM   24  C   UNL     1     -10.474   9.586  69.466  1.00  0.00    -0.220 A  
HETATM   25  C   UNL     1     -10.383  10.840  68.757  1.00  0.00    -0.192 A  
BRANCH  21  26
HETATM   26  C   UNL     1      -9.044   8.175  67.854  1.00  0.00    -0.132 C  
HETATM   27  C   UNL     1      -8.765   6.796  67.311  1.00  0.00    -0.119 C  
HETATM   28  C   UNL     1      -9.711   7.687  66.582  1.00  0.00    -0.283 C  
ENDBRANCH  21  26
BRANCH  25  29
HETATM   29  O   UNL     1      -9.335  10.969  67.865  1.00  0.00    -0.152 OA 
HETATM   30  C   UNL     1      -8.166  11.641  68.327  1.00  0.00    -0.156 C  
ENDBRANCH  25  29
ENDBRANCH   3  11
TORSDOF 3
ENDMDL
MODEL        9
REMARK 921   NORMALIZED FREE ENERGY PREDICTED BY IDOCK:   -6.62 KCAL/MOL
REMARK 922        TOTAL FREE ENERGY PREDICTED BY IDOCK:   -8.59 KCAL/MOL
REMARK 923 INTER-LIGAND FREE ENERGY PREDICTED BY IDOCK:   -8.10 KCAL/MOL
REMARK 924 INTRA-LIGAND FREE ENERGY PREDICTED BY IDOCK:   -0.49 KCAL/MOL
REMARK 927      BINDING AFFINITY PREDICTED BY RF-SCORE:    0.00 PKD
ROOT
HETATM    1  C   UNL     1      -9.541   6.375  66.613  1.00  0.00    -0.194 C  
HETATM    2  C   UNL     1     -10.573   7.466  66.962  1.00  0.00    -0.344 C  
HETATM    3  N   UNL     1      -9.971   8.212  68.089  1.00  0.00    -0.179 NA 
HETATM    4  C   UNL     1      -9.718   5.116  67.475  1.00  0.00    -0.177 C  
HETATM    5  C   UNL     1      -8.543   7.922  68.154  1.00  0.00    -0.123 C  
HETATM    6  C   UNL     1      -8.225   7.114  66.877  1.00  0.00    -0.117 C  
HETATM    7  C   UNL     1      -8.436   4.292  67.579  1.00  0.00    -0.100 C  
HETATM    8  N   UNL     1      -7.052   6.237  66.948  1.00  0.00    -0.071 NA 
HETATM    9  H   UNL     1      -6.209   6.774  67.150  1.00  0.00     0.000 HD 
HETATM   10  C   UNL     1      -7.212   5.137  67.902  1.00  0.00    -0.067 C  
ENDROOT
BRANCH   3  11
HETATM   11  C   UNL     1     -10.599   9.247  68.770  1.00  0.00    -0.193 A  
HETATM   12  C   UNL     1     -11.728   9.966  70.847  1.00  0.00    -0.449 A  
HETATM   13  F   UNL     1     -10.939   7.808  70.665  1.00  0.00    -0.231 F  
HETATM   14  C   UNL     1     -11.060   9.017  70.093  1.00  0.00    -0.207 A  
HETATM   15  C   UNL     1     -12.658  12.203  71.193  1.00  0.00    -0.260 C  
HETATM   16  O   UNL     1     -13.134  11.871  72.277  1.00  0.00    -0.385 OA 
HETATM   17  C   UNL     1     -12.780  13.586  70.741  1.00  0.00    -0.316 C  
HETATM   18  C   UNL     1     -11.928  11.239  70.333  1.00  0.00    -0.471 A  
HETATM   19  C   UNL     1     -13.416  14.669  71.525  1.00  0.00    -0.388 C  
HETATM   20  C   UNL     1     -12.284  13.862  69.524  1.00  0.00    -0.306 C  
HETATM   21  N   UNL     1     -11.707  12.970  68.631  1.00  0.00    -0.305 NA 
HETATM   22  O   UNL     1     -13.928  14.272  72.708  1.00  0.00    -0.600 OA 
HETATM   23  O   UNL     1     -13.482  15.828  71.144  1.00  0.00    -0.575 OA 
HETATM   24  C   UNL     1     -11.478  11.600  69.041  1.00  0.00    -0.294 A  
HETATM   25  C   UNL     1     -10.847  10.572  68.249  1.00  0.00    -0.248 A  
BRANCH  21  26
HETATM   26  C   UNL     1     -11.089  13.567  67.424  1.00  0.00    -0.281 C  
HETATM   27  C   UNL     1     -11.930  14.025  66.259  1.00  0.00    -0.454 C  
HETATM   28  C   UNL     1     -11.199  15.039  67.071  1.00  0.00    -0.328 C  
ENDBRANCH  21  26
BRANCH  25  29
HETATM   29  O   UNL     1     -10.701  10.835  66.900  1.00  0.00    -0.256 OA 
HETATM   30  C   UNL     1      -9.374  11.007  66.410  1.00  0.00    -0.183 C  
ENDBRANCH  25  29
ENDBRANCH   3  11
TORSDOF 3
ENDMDL
MODEL       10
REMARK 921   NORMALIZED FREE ENERGY PREDICTED BY IDOCK:   -6.62 KCAL/MOL
REMARK 922        TOTAL FREE ENERGY PREDICTED BY IDOCK:   -8.59 KCAL/MOL
REMARK 923 INTER-LIGAND FREE ENERGY PREDICTED BY IDOCK:   -7.77 KCAL/MOL
REMARK 924 INTRA-LIGAND FREE ENERGY PREDICTED BY IDOCK:   -0.82 KCAL/MOL
REMARK 927      BINDING AFFINITY PREDICTED BY RF-SCORE:    0.00 PKD
ROOT
HETATM    1  C   UNL     1      -8.632   9.244  64.443  1.00  0.00    -0.216 C  
HETATM    2  C   UNL     1      -9.863   9.733  65.233  1.00  0.00    -0.265 C  
HETATM    3  N   UNL     1      -9.306  10.513  66.361  1.00  0.00    -0.165 NA 
HETATM    4  C   UNL     1      -8.068   7.931  65.008  1.00  0.00    -0.144 C  
HETATM    5  C   UNL     1      -7.918  10.856  66.073  1.00  0.00    -0.132 C  
HETATM    6  C   UNL     1      -7.681  10.434  64.607  1.00  0.00    -0.063 C  
HETATM    7  C   UNL     1      -6.595   7.729  64.663  1.00  0.00    -0.044 C  
HETATM    8  N   UNL     1      -6.292  10.143  64.239  1.00  0.00    -0.143 NA 
HETATM    9  H   UNL     1      -5.698  10.958  64.390  1.00  0.00     0.000 HD 
HETATM   10  C   UNL     1      -5.749   8.968  64.925  1.00  0.00    -0.062 C  
ENDROOT
BRANCH   3  11
HETATM   11  C   UNL     1     -10.067  11.082  67.374  1.00  0.00    -0.186 A  
HETATM   12  C   UNL     1     -11.371  10.703  69.438  1.00  0.00    -0.348 A  
HETATM   13  F   UNL     1     -10.368   8.919  68.378  1.00  0.00    -0.198 F  
HETATM   14  C   UNL     1     -10.574  10.246  68.402  1.00  0.00    -0.216 A  
HETATM   15  C   UNL     1     -12.531  12.473  70.665  1.00  0.00    -0.238 C  
HETATM   16  O   UNL     1     -13.031  11.655  71.435  1.00  0.00    -0.404 OA 
HETATM   17  C   UNL     1     -12.763  13.900  70.875  1.00  0.00    -0.410 C  
HETATM   18  C   UNL     1     -11.666  12.055  69.535  1.00  0.00    -0.408 A  
HETATM   19  C   UNL     1     -13.542  14.464  72.000  1.00  0.00    -0.424 C  
HETATM   20  C   UNL     1     -12.231  14.731  69.964  1.00  0.00    -0.333 C  
HETATM   21  N   UNL     1     -11.523  14.382  68.823  1.00  0.00    -0.272 NA 
HETATM   22  O   UNL     1     -14.077  13.540  72.825  1.00  0.00    -0.719 OA 
HETATM   23  O   UNL     1     -13.700  15.663  72.178  1.00  0.00    -0.474 OA 
HETATM   24  C   UNL     1     -11.184  12.993  68.591  1.00  0.00    -0.277 A  
HETATM   25  C   UNL     1     -10.414  12.481  67.484  1.00  0.00    -0.219 A  
BRANCH  21  26
HETATM   26  C   UNL     1     -10.901  15.500  68.076  1.00  0.00    -0.300 C  
HETATM   27  C   UNL     1     -10.750  16.868  68.697  1.00  0.00    -0.345 C  
HETATM   28  C   UNL     1      -9.530  16.063  68.406  1.00  0.00    -0.207 C  
ENDBRANCH  21  26
BRANCH  25  29
HETATM   29  O   UNL     1     -10.222  13.338  66.417  1.00  0.00    -0.278 OA 
HETATM   30  C   UNL     1     -11.157  13.262  65.344  1.00  0.00    -0.282 C  
ENDBRANCH  25  29
ENDBRANCH   3  11
TORSDOF 3
ENDMDL
MODEL       11
REMARK 921   NORMALIZED FREE ENERGY PREDICTED BY IDOCK:   -6.56 KCAL/MOL
REMARK 922        TOTAL FREE ENERGY PREDICTED BY IDOCK:   -8.52 KCAL/MOL
REMARK 923 INTER-LIGAND FREE ENERGY PREDICTED BY IDOCK:   -7.79 KCAL/MOL
REMARK 924 INTRA-LIGAND FREE ENERGY PREDICTED BY IDOCK:   -0.74 KCAL/MOL
REMARK 927      BINDING AFFINITY PREDICTED BY RF-SCORE:    0.00 PKD
ROOT
HETATM    1  C   UNL     1     -10.052   5.200  69.384  1.00  0.00    -0.305 C  
HETATM    2  C   UNL     1     -11.096   6.333  69.442  1.00  0.00    -0.410 C  
HETATM    3  N   UNL     1     -10.351   7.511  69.942  1.00  0.00    -0.217 NA 
HETATM    4  C   UNL     1      -9.909   4.476  70.731  1.00  0.00    -0.280 C  
HETATM    5  C   UNL     1      -8.919   7.276  69.790  1.00  0.00    -0.142 C  
HETATM    6  C   UNL     1      -8.795   5.972  68.972  1.00  0.00    -0.121 C  
HETATM    7  C   UNL     1      -8.556   3.786  70.887  1.00  0.00    -0.109 C  
HETATM    8  N   UNL     1      -7.548   5.221  69.147  1.00  0.00    -0.073 NA 
HETATM    9  H   UNL     1      -6.743   5.788  68.884  1.00  0.00     0.000 HD 
HETATM   10  C   UNL     1      -7.386   4.681  70.499  1.00  0.00    -0.050 C  
ENDROOT
BRANCH   3  11
HETATM   11  C   UNL     1     -10.925   8.744  70.217  1.00  0.00    -0.235 A  
HETATM   12  C   UNL     1     -12.442  10.036  71.679  1.00  0.00    -0.513 A  
HETATM   13  F   UNL     1     -12.092   7.795  72.091  1.00  0.00    -0.294 F  
HETATM   14  C   UNL     1     -11.790   8.863  71.335  1.00  0.00    -0.317 A  
HETATM   15  C   UNL     1     -12.954  12.407  71.361  1.00  0.00    -0.250 C  
HETATM   16  O   UNL     1     -13.784  12.381  72.267  1.00  0.00    -0.441 OA 
HETATM   17  C   UNL     1     -12.653  13.670  70.691  1.00  0.00    -0.366 C  
HETATM   18  C   UNL     1     -12.217  11.190  70.941  1.00  0.00    -0.468 A  
HETATM   19  C   UNL     1     -13.256  14.973  71.052  1.00  0.00    -0.425 C  
HETATM   20  C   UNL     1     -11.777  13.611  69.675  1.00  0.00    -0.320 C  
HETATM   21  N   UNL     1     -11.158  12.479  69.164  1.00  0.00    -0.227 NA 
HETATM   22  O   UNL     1     -14.162  14.909  72.049  1.00  0.00    -0.450 OA 
HETATM   23  O   UNL     1     -12.969  16.025  70.500  1.00  0.00    -0.337 OA 
HETATM   24  C   UNL     1     -11.345  11.205  69.827  1.00  0.00    -0.278 A  
HETATM   25  C   UNL     1     -10.733   9.955  69.450  1.00  0.00    -0.232 A  
BRANCH  21  26
HETATM   26  C   UNL     1     -10.105  12.715  68.150  1.00  0.00    -0.231 C  
HETATM   27  C   UNL     1     -10.456  13.047  66.720  1.00  0.00    -0.264 C  
HETATM   28  C   UNL     1      -9.799  14.083  67.567  1.00  0.00    -0.236 C  
ENDBRANCH  21  26
BRANCH  25  29
HETATM   29  O   UNL     1     -10.148   9.907  68.198  1.00  0.00    -0.154 OA 
HETATM   30  C   UNL     1     -10.890   9.279  67.156  1.00  0.00    -0.043 C  
ENDBRANCH  25  29
ENDBRANCH   3  11
TORSDOF 3
ENDMDL
MODEL       12
REMARK 921   NORMALIZED FREE ENERGY PREDICTED BY IDOCK:   -6.50 KCAL/MOL
REMARK 922        TOTAL FREE ENERGY PREDICTED BY IDOCK:   -8.45 KCAL/MOL
REMARK 923 INTER-LIGAND FREE ENERGY PREDICTED BY IDOCK:   -7.72 KCAL/MOL
REMARK 924 INTRA-LIGAND FREE ENERGY PREDICTED BY IDOCK:   -0.73 KCAL/MOL
REMARK 927      BINDING AFFINITY PREDICTED BY RF-SCORE:    0.00 PKD
ROOT
HETATM    1  C   UNL     1     -10.759   5.361  71.612  1.00  0.00    -0.266 C  
HETATM    2  C   UNL     1     -11.370   6.295  70.549  1.00  0.00    -0.361 C  
HETATM    3  N   UNL     1     -10.462   7.464  70.504  1.00  0.00    -0.215 NA 
HETATM    4  C   UNL     1     -11.228   5.717  73.032  1.00  0.00    -0.319 C  
HETATM    5  C   UNL     1      -9.192   7.114  71.130  1.00  0.00    -0.157 C  
HETATM    6  C   UNL     1      -9.261   5.594  71.390  1.00  0.00    -0.146 C  
HETATM    7  C   UNL     1     -10.256   5.238  74.108  1.00  0.00    -0.279 C  
HETATM    8  N   UNL     1      -8.411   5.088  72.472  1.00  0.00    -0.119 NA 
HETATM    9  H   UNL     1      -7.429   5.291  72.287  1.00  0.00     0.000 HD 
HETATM   10  C   UNL     1      -8.806   5.583  73.793  1.00  0.00    -0.124 C  
ENDROOT
BRANCH   3  11
HETATM   11  C   UNL     1     -10.675   8.593  69.724  1.00  0.00    -0.215 A  
HETATM   12  C   UNL     1     -11.590  10.886  69.618  1.00  0.00    -0.394 A  
HETATM   13  F   UNL     1     -11.725   9.693  71.585  1.00  0.00    -0.410 F  
HETATM   14  C   UNL     1     -11.300   9.724  70.312  1.00  0.00    -0.272 A  
HETATM   15  C   UNL     1     -11.565  12.274  67.603  1.00  0.00    -0.354 C  
HETATM   16  O   UNL     1     -12.224  13.150  68.161  1.00  0.00    -0.247 OA 
HETATM   17  C   UNL     1     -11.080  12.489  66.242  1.00  0.00    -0.336 C  
HETATM   18  C   UNL     1     -11.215  11.005  68.287  1.00  0.00    -0.340 A  
HETATM   19  C   UNL     1     -11.290  13.732  65.466  1.00  0.00    -0.307 C  
HETATM   20  C   UNL     1     -10.414  11.469  65.678  1.00  0.00    -0.266 C  
HETATM   21  N   UNL     1     -10.173  10.218  66.229  1.00  0.00    -0.233 NA 
HETATM   22  O   UNL     1     -12.017  14.672  66.106  1.00  0.00    -0.338 OA 
HETATM   23  O   UNL     1     -10.851  13.906  64.339  1.00  0.00    -0.388 OA 
HETATM   24  C   UNL     1     -10.551   9.960  67.603  1.00  0.00    -0.270 A  
HETATM   25  C   UNL     1     -10.323   8.734  68.329  1.00  0.00    -0.207 A  
BRANCH  21  26
HETATM   26  C   UNL     1      -9.267   9.333  65.460  1.00  0.00    -0.231 C  
HETATM   27  C   UNL     1      -8.913   9.632  64.024  1.00  0.00    -0.261 C  
HETATM   28  C   UNL     1      -7.853   9.723  65.068  1.00  0.00    -0.128 C  
ENDBRANCH  21  26
BRANCH  25  29
HETATM   29  O   UNL     1      -9.970   7.628  67.579  1.00  0.00    -0.153 OA 
HETATM   30  C   UNL     1     -11.028   6.791  67.119  1.00  0.00    -0.388 C  
ENDBRANCH  25  29
ENDBRANCH   3  11
TORSDOF 3
ENDMDL
MODEL       13
REMARK 921   NORMALIZED FREE ENERGY PREDICTED BY IDOCK:   -6.43 KCAL/MOL
REMARK 922        TOTAL FREE ENERGY PREDICTED BY IDOCK:   -8.37 KCAL/MOL
REMARK 923 INTER-LIGAND FREE ENERGY PREDICTED BY IDOCK:   -7.59 KCAL/MOL
REMARK 924 INTRA-LIGAND FREE ENERGY PREDICTED BY IDOCK:   -0.78 KCAL/MOL
REMARK 927      BINDING AFFINITY PREDICTED BY RF-SCORE:    0.00 PKD
ROOT
HETATM    1  C   UNL     1     -11.669  14.215  66.938  1.00  0.00    -0.437 C  
HETATM    2  C   UNL     1     -12.028  12.741  67.211  1.00  0.00    -0.280 C  
HETATM    3  N   UNL     1     -10.734  12.080  67.494  1.00  0.00    -0.220 NA 
HETATM    4  C   UNL     1     -11.282  14.453  65.470  1.00  0.00    -0.330 C  
HETATM    5  C   UNL     1      -9.732  13.093  67.807  1.00  0.00    -0.218 C  
HETATM    6  C   UNL     1     -10.506  14.425  67.915  1.00  0.00    -0.239 C  
HETATM    7  C   UNL     1     -10.401  15.687  65.288  1.00  0.00    -0.405 C  
HETATM    8  N   UNL     1      -9.728  15.642  67.664  1.00  0.00    -0.224 NA 
HETATM    9  H   UNL     1      -8.955  15.720  68.324  1.00  0.00     0.000 HD 
HETATM   10  C   UNL     1      -9.250  15.745  66.284  1.00  0.00    -0.333 C  
ENDROOT
BRANCH   3  11
HETATM   11  C   UNL     1     -10.582  10.719  67.725  1.00  0.00    -0.228 A  
HETATM   12  C   UNL     1     -10.233   8.483  66.734  1.00  0.00    -0.370 A  
HETATM   13  F   UNL     1     -10.353  10.332  65.365  1.00  0.00    -0.352 F  
HETATM   14  C   UNL     1     -10.364   9.857  66.620  1.00  0.00    -0.205 A  
HETATM   15  C   UNL     1     -10.122   6.414  68.036  1.00  0.00    -0.148 C  
HETATM   16  O   UNL     1     -10.067   5.736  67.012  1.00  0.00    -0.149 OA 
HETATM   17  C   UNL     1     -10.019   5.765  69.341  1.00  0.00    -0.244 C  
HETATM   18  C   UNL     1     -10.259   7.891  67.989  1.00  0.00    -0.256 A  
HETATM   19  C   UNL     1      -9.807   4.313  69.538  1.00  0.00    -0.154 C  
HETATM   20  C   UNL     1     -10.141   6.562  70.414  1.00  0.00    -0.184 C  
HETATM   21  N   UNL     1     -10.397   7.926  70.423  1.00  0.00    -0.209 NA 
HETATM   22  O   UNL     1      -9.752   3.599  68.395  1.00  0.00    -0.130 OA 
HETATM   23  O   UNL     1      -9.692   3.792  70.637  1.00  0.00    -0.181 OA 
HETATM   24  C   UNL     1     -10.431   8.652  69.170  1.00  0.00    -0.211 A  
HETATM   25  C   UNL     1     -10.633  10.072  69.017  1.00  0.00    -0.214 A  
BRANCH  21  26
HETATM   26  C   UNL     1     -10.317   8.595  71.742  1.00  0.00    -0.316 C  
HETATM   27  C   UNL     1     -10.775   7.901  73.001  1.00  0.00    -0.408 C  
HETATM   28  C   UNL     1      -9.326   8.197  72.820  1.00  0.00    -0.344 C  
ENDBRANCH  21  26
BRANCH  25  29
HETATM   29  O   UNL     1     -11.110  10.750  70.124  1.00  0.00    -0.281 OA 
HETATM   30  C   UNL     1     -12.524  10.823  70.283  1.00  0.00    -0.317 C  
ENDBRANCH  25  29
ENDBRANCH   3  11
TORSDOF 3
ENDMDL
MODEL       14
REMARK 921   NORMALIZED FREE ENERGY PREDICTED BY IDOCK:   -6.41 KCAL/MOL
REMARK 922        TOTAL FREE ENERGY PREDICTED BY IDOCK:   -8.34 KCAL/MOL
REMARK 923 INTER-LIGAND FREE ENERGY PREDICTED BY IDOCK:   -7.65 KCAL/MOL
REMARK 924 INTRA-LIGAND FREE ENERGY PREDICTED BY IDOCK:   -0.69 KCAL/MOL
REMARK 927      BINDING AFFINITY PREDICTED BY RF-SCORE:    0.00 PKD
ROOT
HETATM    1  C   UNL     1     -10.252  13.446  65.510  1.00  0.00    -0.300 C  
HETATM    2  C   UNL     1      -9.891  12.700  66.810  1.00  0.00    -0.235 C  
HETATM    3  N   UNL     1     -10.690  11.455  66.768  1.00  0.00    -0.259 NA 
HETATM    4  C   UNL     1     -11.514  14.309  65.671  1.00  0.00    -0.329 C  
HETATM    5  C   UNL     1     -11.155  11.224  65.405  1.00  0.00    -0.067 C  
HETATM    6  C   UNL     1     -10.435  12.278  64.536  1.00  0.00    -0.309 C  
HETATM    7  C   UNL     1     -12.212  14.581  64.340  1.00  0.00    -0.480 C  
HETATM    8  N   UNL     1     -11.104  12.643  63.284  1.00  0.00    -0.701 NA 
HETATM    9  H   UNL     1     -11.222  11.827  62.684  1.00  0.00     0.000 HD 
HETATM   10  C   UNL     1     -12.382  13.327  63.492  1.00  0.00    -0.366 C  
ENDROOT
BRANCH   3  11
HETATM   11  C   UNL     1     -10.726  10.511  67.786  1.00  0.00    -0.272 A  
HETATM   12  C   UNL     1     -11.365  10.016  70.121  1.00  0.00    -0.357 A  
HETATM   13  F   UNL     1     -11.773  12.108  69.245  1.00  0.00    -0.291 F  
HETATM   14  C   UNL     1     -11.308  10.867  69.031  1.00  0.00    -0.281 A  
HETATM   15  C   UNL     1     -10.970   7.865  71.219  1.00  0.00    -0.238 C  
HETATM   16  O   UNL     1     -11.374   8.305  72.294  1.00  0.00    -0.325 OA 
HETATM   17  C   UNL     1     -10.590   6.459  71.108  1.00  0.00    -0.282 C  
HETATM   18  C   UNL     1     -10.884   8.720  70.009  1.00  0.00    -0.231 A  
HETATM   19  C   UNL     1     -10.693   5.476  72.210  1.00  0.00    -0.231 C  
HETATM   20  C   UNL     1     -10.108   6.064  69.919  1.00  0.00    -0.185 C  
HETATM   21  N   UNL     1      -9.889   6.852  68.798  1.00  0.00    -0.147 NA 
HETATM   22  O   UNL     1     -11.139   5.990  73.375  1.00  0.00    -0.222 OA 
HETATM   23  O   UNL     1     -10.399   4.296  72.090  1.00  0.00    -0.181 OA 
HETATM   24  C   UNL     1     -10.317   8.236  68.806  1.00  0.00    -0.205 A  
HETATM   25  C   UNL     1     -10.207   9.164  67.707  1.00  0.00    -0.224 A  
BRANCH  21  26
HETATM   26  C   UNL     1      -9.507   6.132  67.561  1.00  0.00    -0.112 C  
HETATM   27  C   UNL     1      -9.726   4.646  67.422  1.00  0.00    -0.215 C  
HETATM   28  C   UNL     1     -10.516   5.580  66.571  1.00  0.00    -0.331 C  
ENDBRANCH  21  26
BRANCH  25  29
HETATM   29  O   UNL     1      -9.380   8.791  66.664  1.00  0.00    -0.162 OA 
HETATM   30  C   UNL     1      -8.042   9.281  66.688  1.00  0.00    -0.108 C  
ENDBRANCH  25  29
ENDBRANCH   3  11
TORSDOF 3
ENDMDL
MODEL       15
REMARK 921   NORMALIZED FREE ENERGY PREDICTED BY IDOCK:   -6.39 KCAL/MOL
REMARK 922        TOTAL FREE ENERGY PREDICTED BY IDOCK:   -8.32 KCAL/MOL
REMARK 923 INTER-LIGAND FREE ENERGY PREDICTED BY IDOCK:   -7.53 KCAL/MOL
REMARK 924 INTRA-LIGAND FREE ENERGY PREDICTED BY IDOCK:   -0.79 KCAL/MOL
REMARK 927      BINDING AFFINITY PREDICTED BY RF-SCORE:    0.00 PKD
ROOT
HETATM    1  C   UNL     1      -8.479   9.226  64.251  1.00  0.00    -0.202 C  
HETATM    2  C   UNL     1      -9.666   9.981  64.880  1.00  0.00    -0.307 C  
HETATM    3  N   UNL     1      -9.117  10.600  66.107  1.00  0.00    -0.164 NA 
HETATM    4  C   UNL     1      -8.321   7.812  64.833  1.00  0.00    -0.071 C  
HETATM    5  C   UNL     1      -7.660  10.612  66.031  1.00  0.00    -0.142 C  
HETATM    6  C   UNL     1      -7.314  10.159  64.596  1.00  0.00    -0.129 C  
HETATM    7  C   UNL     1      -6.899   7.274  64.690  1.00  0.00    -0.050 C  
HETATM    8  N   UNL     1      -5.991   9.555  64.415  1.00  0.00    -0.077 NA 
HETATM    9  H   UNL     1      -5.254  10.208  64.682  1.00  0.00     0.000 HD 
HETATM   10  C   UNL     1      -5.838   8.280  65.120  1.00  0.00    -0.045 C  
ENDROOT
BRANCH   3  11
HETATM   11  C   UNL     1      -9.866  11.322  67.026  1.00  0.00    -0.191 A  
HETATM   12  C   UNL     1     -10.797  13.521  67.659  1.00  0.00    -0.273 A  
HETATM   13  F   UNL     1      -9.557  13.319  65.727  1.00  0.00    -0.255 F  
HETATM   14  C   UNL     1     -10.094  12.702  66.792  1.00  0.00    -0.237 A  
HETATM   15  C   UNL     1     -12.100  13.920  69.691  1.00  0.00    -0.349 C  
HETATM   16  O   UNL     1     -12.135  15.129  69.470  1.00  0.00    -0.310 OA 
HETATM   17  C   UNL     1     -12.820  13.374  70.839  1.00  0.00    -0.279 C  
HETATM   18  C   UNL     1     -11.368  12.983  68.804  1.00  0.00    -0.332 A  
HETATM   19  C   UNL     1     -13.649  14.177  71.766  1.00  0.00    -0.399 C  
HETATM   20  C   UNL     1     -12.692  12.054  71.049  1.00  0.00    -0.241 C  
HETATM   21  N   UNL     1     -11.919  11.159  70.324  1.00  0.00    -0.344 NA 
HETATM   22  O   UNL     1     -13.665  15.498  71.495  1.00  0.00    -0.492 OA 
HETATM   23  O   UNL     1     -14.270  13.698  72.703  1.00  0.00    -0.735 OA 
HETATM   24  C   UNL     1     -11.243  11.611  69.125  1.00  0.00    -0.263 A  
HETATM   25  C   UNL     1     -10.448  10.795  68.241  1.00  0.00    -0.181 A  
BRANCH  21  26
HETATM   26  C   UNL     1     -12.089   9.727  70.664  1.00  0.00    -0.230 C  
HETATM   27  C   UNL     1     -11.407   9.122  71.866  1.00  0.00    -0.416 C  
HETATM   28  C   UNL     1     -12.892   9.243  71.857  1.00  0.00    -0.485 C  
ENDBRANCH  21  26
BRANCH  25  29
HETATM   29  O   UNL     1     -10.070   9.554  68.719  1.00  0.00    -0.175 OA 
HETATM   30  C   UNL     1      -8.791   9.458  69.342  1.00  0.00    -0.159 C  
ENDBRANCH  25  29
ENDBRANCH   3  11
TORSDOF 3
ENDMDL
MODEL       16
REMARK 921   NORMALIZED FREE ENERGY PREDICTED BY IDOCK:   -6.33 KCAL/MOL
REMARK 922        TOTAL FREE ENERGY PREDICTED BY IDOCK:   -8.25 KCAL/MOL
REMARK 923 INTER-LIGAND FREE ENERGY PREDICTED BY IDOCK:   -7.58 KCAL/MOL
REMARK 924 INTRA-LIGAND FREE ENERGY PREDICTED BY IDOCK:   -0.67 KCAL/MOL
REMARK 927      BINDING AFFINITY PREDICTED BY RF-SCORE:    0.00 PKD
ROOT
HETATM    1  C   UNL     1     -11.748  15.974  71.043  1.00  0.00    -0.458 C  
HETATM    2  C   UNL     1     -10.977  15.567  69.772  1.00  0.00    -0.294 C  
HETATM    3  N   UNL     1     -11.595  14.292  69.344  1.00  0.00    -0.287 NA 
HETATM    4  C   UNL     1     -11.163  15.324  72.307  1.00  0.00    -0.242 C  
HETATM    5  C   UNL     1     -12.890  14.139  69.999  1.00  0.00     0.030 C  
HETATM    6  C   UNL     1     -13.160  15.484  70.706  1.00  0.00    -0.390 C  
HETATM    7  C   UNL     1     -12.181  15.223  73.440  1.00  0.00    -0.595 C  
HETATM    8  N   UNL     1     -14.066  15.434  71.857  1.00  0.00    -0.521 NA 
HETATM    9  H   UNL     1     -14.981  15.078  71.584  1.00  0.00     0.000 HD 
HETATM   10  C   UNL     1     -13.524  14.668  72.983  1.00  0.00    -0.346 C  
ENDROOT
BRANCH   3  11
HETATM   11  C   UNL     1     -11.157  13.529  68.270  1.00  0.00    -0.261 A  
HETATM   12  C   UNL     1     -10.906  13.367  65.817  1.00  0.00    -0.283 A  
HETATM   13  F   UNL     1     -11.852  15.252  66.747  1.00  0.00    -0.242 F  
HETATM   14  C   UNL     1     -11.279  14.056  66.959  1.00  0.00    -0.313 A  
HETATM   15  C   UNL     1      -9.962  11.426  64.665  1.00  0.00    -0.268 C  
HETATM   16  O   UNL     1     -10.226  11.910  63.567  1.00  0.00    -0.387 OA 
HETATM   17  C   UNL     1      -9.241  10.158  64.744  1.00  0.00    -0.291 C  
HETATM   18  C   UNL     1     -10.330  12.110  65.930  1.00  0.00    -0.286 A  
HETATM   19  C   UNL     1      -8.749   9.402  63.569  1.00  0.00    -0.204 C  
HETATM   20  C   UNL     1      -9.036   9.663  65.975  1.00  0.00    -0.162 C  
HETATM   21  N   UNL     1      -9.470  10.200  67.178  1.00  0.00    -0.156 NA 
HETATM   22  O   UNL     1      -9.055   9.960  62.380  1.00  0.00    -0.253 OA 
HETATM   23  O   UNL     1      -8.120   8.358  63.655  1.00  0.00    -0.156 OA 
HETATM   24  C   UNL     1     -10.120  11.495  67.187  1.00  0.00    -0.197 A  
HETATM   25  C   UNL     1     -10.580  12.205  68.355  1.00  0.00    -0.226 A  
BRANCH  21  26
HETATM   26  C   UNL     1      -8.963   9.543  68.405  1.00  0.00    -0.127 C  
HETATM   27  C   UNL     1      -7.863   8.512  68.343  1.00  0.00    -0.106 C  
HETATM   28  C   UNL     1      -7.594   9.824  68.997  1.00  0.00    -0.082 C  
ENDBRANCH  21  26
BRANCH  25  29
HETATM   29  O   UNL     1     -10.662  11.477  69.527  1.00  0.00    -0.142 OA 
HETATM   30  C   UNL     1     -11.882  10.785  69.779  1.00  0.00    -0.335 C  
ENDBRANCH  25  29
ENDBRANCH   3  11
TORSDOF 3
ENDMDL
MODEL       17
REMARK 921   NORMALIZED FREE ENERGY PREDICTED BY IDOCK:   -6.32 KCAL/MOL
REMARK 922        TOTAL FREE ENERGY PREDICTED BY IDOCK:   -8.24 KCAL/MOL
REMARK 923 INTER-LIGAND FREE ENERGY PREDICTED BY IDOCK:   -7.72 KCAL/MOL
REMARK 924 INTRA-LIGAND FREE ENERGY PREDICTED BY IDOCK:   -0.53 KCAL/MOL
REMARK 927      BINDING AFFINITY PREDICTED BY RF-SCORE:    0.00 PKD
ROOT
HETATM    1  C   UNL     1     -10.001   9.369  66.616  1.00  0.00    -0.326 C  
HETATM    2  C   UNL     1     -10.581  10.780  66.836  1.00  0.00    -0.258 C  
HETATM    3  N   UNL     1      -9.700  11.680  66.058  1.00  0.00    -0.226 NA 
HETATM    4  C   UNL     1      -8.876   9.046  67.612  1.00  0.00    -0.127 C  
HETATM    5  C   UNL     1      -8.929  10.893  65.102  1.00  0.00    -0.180 C  
HETATM    6  C   UNL     1      -9.518   9.467  65.165  1.00  0.00    -0.236 C  
HETATM    7  C   UNL     1      -7.924   7.970  67.094  1.00  0.00    -0.113 C  
HETATM    8  N   UNL     1      -8.620   8.382  64.760  1.00  0.00    -0.368 NA 
HETATM    9  H   UNL     1      -8.309   8.509  63.797  1.00  0.00     0.000 HD 
HETATM   10  C   UNL     1      -7.475   8.216  65.659  1.00  0.00    -0.081 C  
ENDROOT
BRANCH   3  11
HETATM   11  C   UNL     1      -9.817  13.063  66.032  1.00  0.00    -0.255 A  
HETATM   12  C   UNL     1     -11.003  15.018  65.096  1.00  0.00    -0.417 A  
HETATM   13  F   UNL     1     -11.620  12.893  64.452  1.00  0.00    -0.336 F  
HETATM   14  C   UNL     1     -10.822  13.651  65.222  1.00  0.00    -0.322 A  
HETATM   15  C   UNL     1     -10.452  17.339  65.639  1.00  0.00    -0.181 C  
HETATM   16  O   UNL     1     -11.262  17.757  64.814  1.00  0.00    -0.767 OA 
HETATM   17  C   UNL     1      -9.724  18.284  66.482  1.00  0.00    -0.343 C  
HETATM   18  C   UNL     1     -10.208  15.888  65.829  1.00  0.00    -0.389 A  
HETATM   19  C   UNL     1      -9.918  19.752  66.453  1.00  0.00    -0.470 C  
HETATM   20  C   UNL     1      -8.817  17.759  67.321  1.00  0.00    -0.238 C  
HETATM   21  N   UNL     1      -8.464  16.422  67.445  1.00  0.00    -0.174 NA 
HETATM   22  O   UNL     1     -10.813  20.177  65.538  1.00  0.00    -0.323 OA 
HETATM   23  O   UNL     1      -9.322  20.525  67.189  1.00  0.00    -0.394 OA 
HETATM   24  C   UNL     1      -9.198  15.420  66.702  1.00  0.00    -0.275 A  
HETATM   25  C   UNL     1      -8.985  13.994  66.762  1.00  0.00    -0.197 A  
BRANCH  21  26
HETATM   26  C   UNL     1      -7.554  16.092  68.567  1.00  0.00    -0.155 C  
HETATM   27  C   UNL     1      -6.058  16.226  68.427  1.00  0.00    -0.112 C  
HETATM   28  C   UNL     1      -6.786  17.137  69.354  1.00  0.00    -0.199 C  
ENDBRANCH  21  26
BRANCH  25  29
HETATM   29  O   UNL     1      -7.812  13.570  67.357  1.00  0.00    -0.163 OA 
HETATM   30  C   UNL     1      -7.928  12.675  68.460  1.00  0.00    -0.093 C  
ENDBRANCH  25  29
ENDBRANCH   3  11
TORSDOF 3
ENDMDL
MODEL       18
REMARK 921   NORMALIZED FREE ENERGY PREDICTED BY IDOCK:   -6.32 KCAL/MOL
REMARK 922        TOTAL FREE ENERGY PREDICTED BY IDOCK:   -8.24 KCAL/MOL
REMARK 923 INTER-LIGAND FREE ENERGY PREDICTED BY IDOCK:   -7.64 KCAL/MOL
REMARK 924 INTRA-LIGAND FREE ENERGY PREDICTED BY IDOCK:   -0.60 KCAL/MOL
REMARK 927      BINDING AFFINITY PREDICTED BY RF-SCORE:    0.00 PKD
ROOT
HETATM    1  C   UNL     1      -8.394  18.234  67.700  1.00  0.00    -0.252 C  
HETATM    2  C   UNL     1      -8.341  16.868  68.412  1.00  0.00    -0.238 C  
HETATM    3  N   UNL     1      -9.537  16.141  67.930  1.00  0.00    -0.222 NA 
HETATM    4  C   UNL     1      -9.257  19.250  68.464  1.00  0.00    -0.434 C  
HETATM    5  C   UNL     1     -10.041  16.787  66.723  1.00  0.00    -0.294 C  
HETATM    6  C   UNL     1      -8.979  17.840  66.340  1.00  0.00    -0.229 C  
HETATM    7  C   UNL     1      -9.796  20.358  67.563  1.00  0.00    -0.564 C  
HETATM    8  N   UNL     1      -9.458  18.975  65.545  1.00  0.00     0.024 NA 
HETATM    9  H   UNL     1      -9.859  18.656  64.663  1.00  0.00     0.000 HD 
HETATM   10  C   UNL     1     -10.402  19.829  66.270  1.00  0.00    -0.519 C  
ENDROOT
BRANCH   3  11
HETATM   11  C   UNL     1      -9.924  14.884  68.375  1.00  0.00    -0.222 A  
HETATM   12  C   UNL     1      -9.522  12.447  68.282  1.00  0.00    -0.203 A  
HETATM   13  F   UNL     1      -8.190  13.871  67.055  1.00  0.00    -0.190 F  
HETATM   14  C   UNL     1      -9.201  13.747  67.929  1.00  0.00    -0.200 A  
HETATM   15  C   UNL     1     -10.865  10.795  69.489  1.00  0.00    -0.242 C  
HETATM   16  O   UNL     1     -10.263   9.868  68.950  1.00  0.00    -0.179 OA 
HETATM   17  C   UNL     1     -11.877  10.510  70.503  1.00  0.00    -0.442 C  
HETATM   18  C   UNL     1     -10.571  12.212  69.160  1.00  0.00    -0.046 A  
HETATM   19  C   UNL     1     -12.222   9.152  70.981  1.00  0.00    -0.242 C  
HETATM   20  C   UNL     1     -12.530  11.569  71.007  1.00  0.00    -0.356 C  
HETATM   21  N   UNL     1     -12.381  12.899  70.642  1.00  0.00    -0.346 NA 
HETATM   22  O   UNL     1     -11.544   8.158  70.370  1.00  0.00    -0.198 OA 
HETATM   23  O   UNL     1     -13.050   8.935  71.853  1.00  0.00    -0.335 OA 
HETATM   24  C   UNL     1     -11.341  13.268  69.703  1.00  0.00    -0.122 A  
HETATM   25  C   UNL     1     -11.029  14.606  69.265  1.00  0.00    -0.260 A  
BRANCH  21  26
HETATM   26  C   UNL     1     -13.104  13.888  71.474  1.00  0.00    -0.365 C  
HETATM   27  C   UNL     1     -14.089  13.450  72.530  1.00  0.00    -0.418 C  
HETATM   28  C   UNL     1     -12.818  14.105  72.949  1.00  0.00    -0.433 C  
ENDBRANCH  21  26
BRANCH  25  29
HETATM   29  O   UNL     1     -11.969  15.581  69.542  1.00  0.00    -0.343 OA 
HETATM   30  C   UNL     1     -11.535  16.705  70.303  1.00  0.00     0.230 C  
ENDBRANCH  25  29
ENDBRANCH   3  11
TORSDOF 3
ENDMDL
MODEL       19
REMARK 921   NORMALIZED FREE ENERGY PREDICTED BY IDOCK:   -6.32 KCAL/MOL
REMARK 922        TOTAL FREE ENERGY PREDICTED BY IDOCK:   -8.24 KCAL/MOL
REMARK 923 INTER-LIGAND FREE ENERGY PREDICTED BY IDOCK:   -8.71 KCAL/MOL
REMARK 924 INTRA-LIGAND FREE ENERGY PREDICTED BY IDOCK:    0.47 KCAL/MOL
REMARK 927      BINDING AFFINITY PREDICTED BY RF-SCORE:    0.00 PKD
ROOT
HETATM    1  C   UNL     1     -12.444  15.555  70.457  1.00  0.00    -0.472 C  
HETATM    2  C   UNL     1     -11.862  14.544  69.449  1.00  0.00    -0.325 C  
HETATM    3  N   UNL     1     -12.115  13.216  70.053  1.00  0.00    -0.326 NA 
HETATM    4  C   UNL     1     -11.436  15.919  71.558  1.00  0.00    -0.484 C  
HETATM    5  C   UNL     1     -13.130  13.344  71.093  1.00  0.00    -0.178 C  
HETATM    6  C   UNL     1     -13.664  14.788  70.979  1.00  0.00    -0.264 C  
HETATM    7  C   UNL     1     -12.113  16.420  72.832  1.00  0.00    -0.567 C  
HETATM    8  N   UNL     1     -14.249  15.355  72.198  1.00  0.00    -0.558 NA 
HETATM    9  H   UNL     1     -15.039  14.794  72.515  1.00  0.00     0.000 HD 
HETATM   10  C   UNL     1     -13.273  15.538  73.274  1.00  0.00    -0.522 C  
ENDROOT
BRANCH   3  11
HETATM   11  C   UNL     1     -11.687  12.013  69.509  1.00  0.00    -0.342 A  
HETATM   12  C   UNL     1     -11.038  10.784  67.466  1.00  0.00    -0.374 A  
HETATM   13  F   UNL     1     -11.650  13.001  67.319  1.00  0.00    -0.306 F  
HETATM   14  C   UNL     1     -11.434  11.941  68.115  1.00  0.00    -0.320 A  
HETATM   15  C   UNL     1     -10.400   8.422  67.437  1.00  0.00    -0.285 C  
HETATM   16  O   UNL     1     -10.332   8.423  66.210  1.00  0.00    -0.154 OA 
HETATM   17  C   UNL     1     -10.036   7.218  68.181  1.00  0.00    -0.201 C  
HETATM   18  C   UNL     1     -10.816   9.626  68.198  1.00  0.00    -0.241 A  
HETATM   19  C   UNL     1      -9.537   5.971  67.561  1.00  0.00    -0.113 C  
HETATM   20  C   UNL     1     -10.187   7.274  69.514  1.00  0.00    -0.198 C  
HETATM   21  N   UNL     1     -10.691   8.330  70.259  1.00  0.00    -0.232 NA 
HETATM   22  O   UNL     1      -9.474   6.006  66.214  1.00  0.00    -0.159 OA 
HETATM   23  O   UNL     1      -9.207   4.984  68.202  1.00  0.00    -0.112 OA 
HETATM   24  C   UNL     1     -10.996   9.584  69.601  1.00  0.00    -0.212 A  
HETATM   25  C   UNL     1     -11.475  10.784  70.242  1.00  0.00    -0.319 A  
BRANCH  21  26
HETATM   26  C   UNL     1     -10.593   8.194  71.731  1.00  0.00    -0.250 C  
HETATM   27  C   UNL     1      -9.890   7.018  72.363  1.00  0.00    -0.172 C  
HETATM   28  C   UNL     1      -9.298   8.378  72.502  1.00  0.00    -0.346 C  
ENDBRANCH  21  26
BRANCH  25  29
HETATM   29  O   UNL     1     -11.946  10.647  71.535  1.00  0.00    -0.257 OA 
HETATM   30  C   UNL     1     -13.272  10.149  71.695  1.00  0.00    -0.418 C  
ENDBRANCH  25  29
ENDBRANCH   3  11
TORSDOF 3
ENDMDL
MODEL       20
REMARK 921   NORMALIZED FREE ENERGY PREDICTED BY IDOCK:   -6.32 KCAL/MOL
REMARK 922        TOTAL FREE ENERGY PREDICTED BY IDOCK:   -8.23 KCAL/MOL
REMARK 923 INTER-LIGAND FREE ENERGY PREDICTED BY IDOCK:   -7.69 KCAL/MOL
REMARK 924 INTRA-LIGAND FREE ENERGY PREDICTED BY IDOCK:   -0.54 KCAL/MOL
REMARK 927      BINDING AFFINITY PREDICTED BY RF-SCORE:    0.00 PKD
ROOT
HETATM    1  C   UNL     1     -10.602   9.368  67.541  1.00  0.00    -0.333 C  
HETATM    2  C   UNL     1     -11.051  10.841  67.611  1.00  0.00    -0.319 C  
HETATM    3  N   UNL     1     -10.109  11.569  66.731  1.00  0.00    -0.210 NA 
HETATM    4  C   UNL     1      -9.490   9.054  68.555  1.00  0.00    -0.148 C  
HETATM    5  C   UNL     1      -9.430  10.616  65.859  1.00  0.00    -0.196 C  
HETATM    6  C   UNL     1     -10.142   9.265  66.083  1.00  0.00    -0.233 C  
HETATM    7  C   UNL     1      -8.648   7.847  68.148  1.00  0.00    -0.123 C  
HETATM    8  N   UNL     1      -9.351   8.066  65.790  1.00  0.00    -0.413 NA 
HETATM    9  H   UNL     1      -9.049   8.060  64.816  1.00  0.00     0.000 HD 
HETATM   10  C   UNL     1      -8.208   7.896  66.691  1.00  0.00    -0.119 C  
ENDROOT
BRANCH   3  11
HETATM   11  C   UNL     1     -10.104  12.946  66.555  1.00  0.00    -0.261 A  
HETATM   12  C   UNL     1     -11.050  14.875  65.335  1.00  0.00    -0.366 A  
HETATM   13  F   UNL     1     -11.802  12.748  64.867  1.00  0.00    -0.347 F  
HETATM   14  C   UNL     1     -10.997  13.520  65.614  1.00  0.00    -0.289 A  
HETATM   15  C   UNL     1     -10.338  17.191  65.680  1.00  0.00    -0.183 C  
HETATM   16  O   UNL     1     -11.051  17.580  64.757  1.00  0.00    -0.959 OA 
HETATM   17  C   UNL     1      -9.591  18.161  66.476  1.00  0.00    -0.318 C  
HETATM   18  C   UNL     1     -10.235  15.754  66.035  1.00  0.00    -0.352 A  
HETATM   19  C   UNL     1      -9.654  19.628  66.282  1.00  0.00    -0.405 C  
HETATM   20  C   UNL     1      -8.793  17.659  67.432  1.00  0.00    -0.235 C  
HETATM   21  N   UNL     1      -8.565  16.321  67.718  1.00  0.00    -0.170 NA 
HETATM   22  O   UNL     1     -10.445  20.020  65.262  1.00  0.00    -0.269 OA 
HETATM   23  O   UNL     1      -9.046  20.427  66.979  1.00  0.00    -0.359 OA 
HETATM   24  C   UNL     1      -9.331  15.305  67.026  1.00  0.00    -0.224 A  
HETATM   25  C   UNL     1      -9.246  13.881  67.248  1.00  0.00    -0.235 A  
BRANCH  21  26
HETATM   26  C   UNL     1      -7.767  16.042  68.934  1.00  0.00    -0.196 C  
HETATM   27  C   UNL     1      -6.270  15.869  68.865  1.00  0.00    -0.120 C  
HETATM   28  C   UNL     1      -6.832  17.056  69.569  1.00  0.00    -0.111 C  
ENDBRANCH  21  26
BRANCH  25  29
HETATM   29  O   UNL     1      -8.158  13.433  67.972  1.00  0.00    -0.136 OA 
HETATM   30  C   UNL     1      -7.077  12.864  67.237  1.00  0.00    -0.063 C  
ENDBRANCH  25  29
ENDBRANCH   3  11
TORSDOF 3
ENDMDL
MODEL       21
REMARK 921   NORMALIZED FREE ENERGY PREDICTED BY IDOCK:   -6.31 KCAL/MOL
REMARK 922        TOTAL FREE ENERGY PREDICTED BY IDOCK:   -8.23 KCAL/MOL
REMARK 923 INTER-LIGAND FREE ENERGY PREDICTED BY IDOCK:   -7.47 KCAL/MOL
REMARK 924 INTRA-LIGAND FREE ENERGY PREDICTED BY IDOCK:   -0.75 KCAL/MOL
REMARK 927      BINDING AFFINITY PREDICTED BY RF-SCORE:    0.00 PKD
ROOT
HETATM    1  C   UNL     1      -8.405   5.372  66.222  1.00  0.00    -0.115 C  
HETATM    2  C   UNL     1      -8.416   6.685  67.030  1.00  0.00    -0.113 C  
HETATM    3  N   UNL     1      -9.840   7.083  67.091  1.00  0.00    -0.160 NA 
HETATM    4  C   UNL     1      -8.347   5.627  64.708  1.00  0.00    -0.128 C  
HETATM    5  C   UNL     1     -10.677   5.936  66.755  1.00  0.00    -0.299 C  
HETATM    6  C   UNL     1      -9.718   4.729  66.681  1.00  0.00    -0.191 C  
HETATM    7  C   UNL     1      -8.901   4.458  63.895  1.00  0.00    -0.139 C  
HETATM    8  N   UNL     1     -10.159   3.609  65.844  1.00  0.00    -0.410 NA 
HETATM    9  H   UNL     1     -11.047   3.235  66.177  1.00  0.00     0.000 HD 
HETATM   10  C   UNL     1     -10.237   3.950  64.421  1.00  0.00    -0.230 C  
ENDROOT
BRANCH   3  11
HETATM   11  C   UNL     1     -10.303   8.257  67.670  1.00  0.00    -0.248 A  
HETATM   12  C   UNL     1     -10.705  10.679  67.389  1.00  0.00    -0.326 A  
HETATM   13  F   UNL     1      -9.811   9.461  65.649  1.00  0.00    -0.325 F  
HETATM   14  C   UNL     1     -10.299   9.449  66.900  1.00  0.00    -0.238 A  
HETATM   15  C   UNL     1     -11.610  12.126  69.142  1.00  0.00    -0.319 C  
HETATM   16  O   UNL     1     -11.447  13.126  68.444  1.00  0.00    -0.271 OA 
HETATM   17  C   UNL     1     -12.249  12.252  70.449  1.00  0.00    -0.371 C  
HETATM   18  C   UNL     1     -11.199  10.777  68.682  1.00  0.00    -0.333 A  
HETATM   19  C   UNL     1     -12.773  13.520  71.005  1.00  0.00    -0.322 C  
HETATM   20  C   UNL     1     -12.344  11.128  71.177  1.00  0.00    -0.346 C  
HETATM   21  N   UNL     1     -11.863   9.870  70.845  1.00  0.00    -0.329 NA 
HETATM   22  O   UNL     1     -12.579  14.596  70.215  1.00  0.00    -0.342 OA 
HETATM   23  O   UNL     1     -13.334  13.601  72.088  1.00  0.00    -0.412 OA 
HETATM   24  C   UNL     1     -11.290   9.650  69.533  1.00  0.00    -0.040 A  
HETATM   25  C   UNL     1     -10.795   8.395  69.022  1.00  0.00     0.009 A  
BRANCH  21  26
HETATM   26  C   UNL     1     -12.249   8.765  71.753  1.00  0.00    -0.349 C  
HETATM   27  C   UNL     1     -13.445   8.883  72.665  1.00  0.00    -0.386 C  
HETATM   28  C   UNL     1     -13.481   7.904  71.542  1.00  0.00    -0.352 C  
ENDBRANCH  21  26
BRANCH  25  29
HETATM   29  O   UNL     1     -10.594   7.388  69.948  1.00  0.00    -0.226 OA 
HETATM   30  C   UNL     1      -9.341   7.370  70.627  1.00  0.00    -0.160 C  
ENDBRANCH  25  29
ENDBRANCH   3  11
TORSDOF 3
ENDMDL
MODEL       22
REMARK 921   NORMALIZED FREE ENERGY PREDICTED BY IDOCK:   -6.30 KCAL/MOL
REMARK 922        TOTAL FREE ENERGY PREDICTED BY IDOCK:   -8.22 KCAL/MOL
REMARK 923 INTER-LIGAND FREE ENERGY PREDICTED BY IDOCK:   -8.70 KCAL/MOL
REMARK 924 INTRA-LIGAND FREE ENERGY PREDICTED BY IDOCK:    0.48 KCAL/MOL
REMARK 927      BINDING AFFINITY PREDICTED BY RF-SCORE:    0.00 PKD
ROOT
HETATM    1  C   UNL     1     -12.902  15.389  70.920  1.00  0.00    -0.536 C  
HETATM    2  C   UNL     1     -12.483  14.371  69.841  1.00  0.00    -0.261 C  
HETATM    3  N   UNL     1     -12.272  13.103  70.576  1.00  0.00    -0.361 NA 
HETATM    4  C   UNL     1     -11.690  16.043  71.600  1.00  0.00    -0.583 C  
HETATM    5  C   UNL     1     -12.913  13.191  71.884  1.00  0.00    -0.314 C  
HETATM    6  C   UNL     1     -13.724  14.504  71.862  1.00  0.00    -0.428 C  
HETATM    7  C   UNL     1     -12.016  16.580  72.992  1.00  0.00    -0.481 C  
HETATM    8  N   UNL     1     -13.995  15.112  73.168  1.00  0.00    -0.489 NA 
HETATM    9  H   UNL     1     -14.521  14.474  73.764  1.00  0.00     0.000 HD 
HETATM   10  C   UNL     1     -12.785  15.581  73.847  1.00  0.00    -0.580 C  
ENDROOT
BRANCH   3  11
HETATM   11  C   UNL     1     -11.812  11.928  69.998  1.00  0.00    -0.328 A  
HETATM   12  C   UNL     1     -11.504   9.489  70.244  1.00  0.00    -0.256 A  
HETATM   13  F   UNL     1     -12.485  10.693  71.947  1.00  0.00    -0.450 F  
HETATM   14  C   UNL     1     -11.957  10.710  70.712  1.00  0.00    -0.374 A  
HETATM   15  C   UNL     1     -10.447   8.068  68.555  1.00  0.00    -0.164 C  
HETATM   16  O   UNL     1     -10.500   7.090  69.299  1.00  0.00    -0.197 OA 
HETATM   17  C   UNL     1      -9.938   7.915  67.195  1.00  0.00    -0.298 C  
HETATM   18  C   UNL     1     -10.917   9.407  68.989  1.00  0.00    -0.094 A  
HETATM   19  C   UNL     1      -9.504   6.629  66.604  1.00  0.00    -0.164 C  
HETATM   20  C   UNL     1      -9.859   9.035  66.459  1.00  0.00    -0.268 C  
HETATM   21  N   UNL     1     -10.166  10.328  66.861  1.00  0.00    -0.220 NA 
HETATM   22  O   UNL     1      -9.574   5.578  67.446  1.00  0.00    -0.114 OA 
HETATM   23  O   UNL     1      -9.110   6.515  65.452  1.00  0.00     0.055 OA 
HETATM   24  C   UNL     1     -10.752  10.546  68.167  1.00  0.00    -0.233 A  
HETATM   25  C   UNL     1     -11.171  11.817  68.707  1.00  0.00    -0.251 A  
BRANCH  21  26
HETATM   26  C   UNL     1     -10.151  11.360  65.799  1.00  0.00    -0.246 C  
HETATM   27  C   UNL     1     -10.173  10.982  64.339  1.00  0.00    -0.409 C  
HETATM   28  C   UNL     1     -11.352  11.678  64.927  1.00  0.00    -0.252 C  
ENDBRANCH  21  26
BRANCH  25  29
HETATM   29  O   UNL     1     -10.724  12.946  68.045  1.00  0.00    -0.217 OA 
HETATM   30  C   UNL     1      -9.462  13.475  68.442  1.00  0.00    -0.185 C  
ENDBRANCH  25  29
ENDBRANCH   3  11
TORSDOF 3
ENDMDL
MODEL       23
REMARK 921   NORMALIZED FREE ENERGY PREDICTED BY IDOCK:   -6.25 KCAL/MOL
REMARK 922        TOTAL FREE ENERGY PREDICTED BY IDOCK:   -8.16 KCAL/MOL
REMARK 923 INTER-LIGAND FREE ENERGY PREDICTED BY IDOCK:   -7.67 KCAL/MOL
REMARK 924 INTRA-LIGAND FREE ENERGY PREDICTED BY IDOCK:   -0.49 KCAL/MOL
REMARK 927      BINDING AFFINITY PREDICTED BY RF-SCORE:    0.00 PKD
ROOT
HETATM    1  C   UNL     1     -10.206  17.939  66.438  1.00  0.00    -0.372 C  
HETATM    2  C   UNL     1     -10.776  16.511  66.549  1.00  0.00    -0.144 C  
HETATM    3  N   UNL     1     -10.532  16.112  67.953  1.00  0.00    -0.281 NA 
HETATM    4  C   UNL     1      -8.702  17.938  66.123  1.00  0.00    -0.119 C  
HETATM    5  C   UNL     1     -10.252  17.300  68.751  1.00  0.00    -0.353 C  
HETATM    6  C   UNL     1     -10.537  18.501  67.824  1.00  0.00    -0.385 C  
HETATM    7  C   UNL     1      -8.009  19.226  66.564  1.00  0.00    -0.306 C  
HETATM    8  N   UNL     1      -9.832  19.745  68.148  1.00  0.00    -0.402 NA 
HETATM    9  H   UNL     1     -10.068  20.061  69.089  1.00  0.00     0.000 HD 
HETATM   10  C   UNL     1      -8.380  19.644  67.981  1.00  0.00    -0.306 C  
ENDROOT
BRANCH   3  11
HETATM   11  C   UNL     1     -10.825  14.859  68.475  1.00  0.00    -0.247 A  
HETATM   12  C   UNL     1     -12.126  13.566  70.130  1.00  0.00    -0.425 A  
HETATM   13  F   UNL     1     -12.368  15.855  70.026  1.00  0.00    -0.367 F  
HETATM   14  C   UNL     1     -11.785  14.758  69.516  1.00  0.00    -0.321 A  
HETATM   15  C   UNL     1     -11.962  11.139  70.402  1.00  0.00    -0.378 C  
HETATM   16  O   UNL     1     -12.706  11.168  71.381  1.00  0.00    -0.405 OA 
HETATM   17  C   UNL     1     -11.482   9.857  69.894  1.00  0.00    -0.234 C  
HETATM   18  C   UNL     1     -11.556  12.378  69.693  1.00  0.00    -0.330 A  
HETATM   19  C   UNL     1     -11.862   8.540  70.455  1.00  0.00    -0.014 C  
HETATM   20  C   UNL     1     -10.631   9.907  68.857  1.00  0.00    -0.218 C  
HETATM   21  N   UNL     1     -10.124  11.043  68.242  1.00  0.00    -0.171 NA 
HETATM   22  O   UNL     1     -12.678   8.607  71.527  1.00  0.00    -0.313 OA 
HETATM   23  O   UNL     1     -11.475   7.475  69.997  1.00  0.00    -0.169 OA 
HETATM   24  C   UNL     1     -10.616  12.347  68.637  1.00  0.00    -0.218 A  
HETATM   25  C   UNL     1     -10.226  13.610  68.061  1.00  0.00    -0.248 A  
BRANCH  21  26
HETATM   26  C   UNL     1      -9.333  10.817  67.010  1.00  0.00    -0.156 C  
HETATM   27  C   UNL     1      -8.393   9.643  66.887  1.00  0.00    -0.117 C  
HETATM   28  C   UNL     1      -9.614   9.689  66.033  1.00  0.00    -0.305 C  
ENDBRANCH  21  26
BRANCH  25  29
HETATM   29  O   UNL     1      -9.095  13.604  67.266  1.00  0.00    -0.208 OA 
HETATM   30  C   UNL     1      -7.867  13.988  67.879  1.00  0.00    -0.160 C  
ENDBRANCH  25  29
ENDBRANCH   3  11
TORSDOF 3
ENDMDL
MODEL       24
REMARK 921   NORMALIZED FREE ENERGY PREDICTED BY IDOCK:   -6.24 KCAL/MOL
REMARK 922        TOTAL FREE ENERGY PREDICTED BY IDOCK:   -8.14 KCAL/MOL
REMARK 923 INTER-LIGAND FREE ENERGY PREDICTED BY IDOCK:   -7.37 KCAL/MOL
REMARK 924 INTRA-LIGAND FREE ENERGY PREDICTED BY IDOCK:   -0.78 KCAL/MOL
REMARK 927      BINDING AFFINITY PREDICTED BY RF-SCORE:    0.00 PKD
ROOT
HETATM    1  C   UNL     1      -7.774   7.887  69.659  1.00  0.00    -0.103 C  
HETATM    2  C   UNL     1      -7.912   8.871  68.480  1.00  0.00    -0.104 C  
HETATM    3  N   UNL     1      -8.987   9.804  68.887  1.00  0.00    -0.138 NA 
HETATM    4  C   UNL     1      -8.763   6.716  69.553  1.00  0.00    -0.135 C  
HETATM    5  C   UNL     1      -9.194   9.704  70.328  1.00  0.00    -0.236 C  
HETATM    6  C   UNL     1      -8.049   8.809  70.851  1.00  0.00    -0.150 C  
HETATM    7  C   UNL     1      -9.061   6.075  70.906  1.00  0.00    -0.161 C  
HETATM    8  N   UNL     1      -8.312   8.099  72.107  1.00  0.00    -0.143 NA 
HETATM    9  H   UNL     1      -8.514   8.756  72.860  1.00  0.00     0.000 HD 
HETATM   10  C   UNL     1      -9.375   7.097  71.990  1.00  0.00    -0.137 C  
ENDROOT
BRANCH   3  11
HETATM   11  C   UNL     1      -9.491  10.819  68.085  1.00  0.00    -0.158 A  
HETATM   12  C   UNL     1     -11.170  11.473  66.395  1.00  0.00    -0.307 A  
HETATM   13  F   UNL     1     -11.148   9.317  67.207  1.00  0.00    -0.306 F  
HETATM   14  C   UNL     1     -10.610  10.546  67.257  1.00  0.00    -0.264 A  
HETATM   15  C   UNL     1     -11.309  13.705  65.400  1.00  0.00    -0.301 C  
HETATM   16  O   UNL     1     -12.192  13.339  64.627  1.00  0.00    -0.383 OA 
HETATM   17  C   UNL     1     -10.892  15.105  65.413  1.00  0.00    -0.393 C  
HETATM   18  C   UNL     1     -10.666  12.766  66.352  1.00  0.00    -0.282 A  
HETATM   19  C   UNL     1     -11.494  16.164  64.572  1.00  0.00    -0.230 C  
HETATM   20  C   UNL     1      -9.885  15.419  66.244  1.00  0.00    -0.297 C  
HETATM   21  N   UNL     1      -9.168  14.555  67.059  1.00  0.00    -0.229 NA 
HETATM   22  O   UNL     1     -12.459  15.729  63.736  1.00  0.00    -0.674 OA 
HETATM   23  O   UNL     1     -11.153  17.337  64.618  1.00  0.00    -1.052 OA 
HETATM   24  C   UNL     1      -9.577  13.169  67.160  1.00  0.00    -0.235 A  
HETATM   25  C   UNL     1      -8.969  12.165  67.999  1.00  0.00    -0.189 A  
BRANCH  21  26
HETATM   26  C   UNL     1      -8.219  15.188  68.003  1.00  0.00    -0.142 C  
HETATM   27  C   UNL     1      -7.017  15.955  67.508  1.00  0.00    -0.209 C  
HETATM   28  C   UNL     1      -8.114  16.690  68.199  1.00  0.00    -0.186 C  
ENDBRANCH  21  26
BRANCH  25  29
HETATM   29  O   UNL     1      -7.732  12.473  68.533  1.00  0.00    -0.129 OA 
HETATM   30  C   UNL     1      -6.583  12.035  67.812  1.00  0.00    -0.093 C  
ENDBRANCH  25  29
ENDBRANCH   3  11
TORSDOF 3
ENDMDL
MODEL       25
REMARK 921   NORMALIZED FREE ENERGY PREDICTED BY IDOCK:   -6.24 KCAL/MOL
REMARK 922        TOTAL FREE ENERGY PREDICTED BY IDOCK:   -8.14 KCAL/MOL
REMARK 923 INTER-LIGAND FREE ENERGY PREDICTED BY IDOCK:   -8.73 KCAL/MOL
REMARK 924 INTRA-LIGAND FREE ENERGY PREDICTED BY IDOCK:    0.59 KCAL/MOL
REMARK 927      BINDING AFFINITY PREDICTED BY RF-SCORE:    0.00 PKD
ROOT
HETATM    1  C   UNL     1     -12.812  15.321  70.723  1.00  0.00    -0.494 C  
HETATM    2  C   UNL     1     -12.381  14.223  69.730  1.00  0.00    -0.292 C  
HETATM    3  N   UNL     1     -12.316  12.984  70.537  1.00  0.00    -0.324 NA 
HETATM    4  C   UNL     1     -11.613  15.928  71.468  1.00  0.00    -0.537 C  
HETATM    5  C   UNL     1     -13.048  13.180  71.784  1.00  0.00    -0.383 C  
HETATM    6  C   UNL     1     -13.763  14.540  71.636  1.00  0.00    -0.407 C  
HETATM    7  C   UNL     1     -12.009  16.556  72.803  1.00  0.00    -0.484 C  
HETATM    8  N   UNL     1     -14.092  15.232  72.887  1.00  0.00    -0.465 NA 
HETATM    9  H   UNL     1     -14.705  14.660  73.467  1.00  0.00     0.000 HD 
HETATM   10  C   UNL     1     -12.908  15.655  73.639  1.00  0.00    -0.574 C  
ENDROOT
BRANCH   3  11
HETATM   11  C   UNL     1     -11.894  11.753  70.053  1.00  0.00    -0.342 A  
HETATM   12  C   UNL     1     -11.634   9.337  70.502  1.00  0.00    -0.266 A  
HETATM   13  F   UNL     1     -12.550  10.705  72.114  1.00  0.00    -0.445 F  
HETATM   14  C   UNL     1     -12.050  10.604  70.872  1.00  0.00    -0.385 A  
HETATM   15  C   UNL     1     -10.647   7.752  68.920  1.00  0.00    -0.150 C  
HETATM   16  O   UNL     1     -10.704   6.844  69.746  1.00  0.00    -0.222 OA 
HETATM   17  C   UNL     1     -10.172   7.472  67.567  1.00  0.00    -0.288 C  
HETATM   18  C   UNL     1     -11.078   9.134  69.247  1.00  0.00     0.001 A  
HETATM   19  C   UNL     1      -9.779   6.131  67.080  1.00  0.00    -0.135 C  
HETATM   20  C   UNL     1     -10.085   8.523  66.736  1.00  0.00    -0.299 C  
HETATM   21  N   UNL     1     -10.355   9.852  67.032  1.00  0.00    -0.235 NA 
HETATM   22  O   UNL     1      -9.853   5.157  68.011  1.00  0.00    -0.140 OA 
HETATM   23  O   UNL     1      -9.413   5.909  65.935  1.00  0.00    -0.118 OA 
HETATM   24  C   UNL     1     -10.907  10.195  68.326  1.00  0.00    -0.252 A  
HETATM   25  C   UNL     1     -11.285  11.517  68.763  1.00  0.00    -0.249 A  
BRANCH  21  26
HETATM   26  C   UNL     1     -10.341  10.789  65.885  1.00  0.00    -0.238 C  
HETATM   27  C   UNL     1      -9.048  11.194  65.220  1.00  0.00    -0.183 C  
HETATM   28  C   UNL     1     -10.026  10.363  64.463  1.00  0.00    -0.401 C  
ENDBRANCH  21  26
BRANCH  25  29
HETATM   29  O   UNL     1     -10.829  12.574  67.998  1.00  0.00    -0.211 OA 
HETATM   30  C   UNL     1      -9.525  13.071  68.287  1.00  0.00    -0.208 C  
ENDBRANCH  25  29
ENDBRANCH   3  11
TORSDOF 3
ENDMDL
MODEL       26
REMARK 921   NORMALIZED FREE ENERGY PREDICTED BY IDOCK:   -6.18 KCAL/MOL
REMARK 922        TOTAL FREE ENERGY PREDICTED BY IDOCK:   -8.07 KCAL/MOL
REMARK 923 INTER-LIGAND FREE ENERGY PREDICTED BY IDOCK:   -7.42 KCAL/MOL
REMARK 924 INTRA-LIGAND FREE ENERGY PREDICTED BY IDOCK:   -0.65 KCAL/MOL
REMARK 927      BINDING AFFINITY PREDICTED BY RF-SCORE:    0.00 PKD
ROOT
HETATM    1  C   UNL     1     -10.560   6.457  68.563  1.00  0.00    -0.302 C  
HETATM    2  C   UNL     1     -10.337   7.950  68.873  1.00  0.00    -0.213 C  
HETATM    3  N   UNL     1      -9.834   8.531  67.608  1.00  0.00    -0.163 NA 
HETATM    4  C   UNL     1      -9.278   5.630  68.751  1.00  0.00    -0.133 C  
HETATM    5  C   UNL     1     -10.128   7.619  66.508  1.00  0.00    -0.135 C  
HETATM    6  C   UNL     1     -11.033   6.522  67.107  1.00  0.00    -0.408 C  
HETATM    7  C   UNL     1      -9.288   4.338  67.938  1.00  0.00    -0.200 C  
HETATM    8  N   UNL     1     -11.018   5.229  66.416  1.00  0.00    -0.628 NA 
HETATM    9  H   UNL     1     -11.317   5.332  65.447  1.00  0.00     0.000 HD 
HETATM   10  C   UNL     1      -9.722   4.550  66.493  1.00  0.00    -0.207 C  
ENDROOT
BRANCH   3  11
HETATM   11  C   UNL     1      -9.432   9.851  67.455  1.00  0.00    -0.151 A  
HETATM   12  C   UNL     1      -7.541  11.440  67.398  1.00  0.00    -0.124 A  
HETATM   13  F   UNL     1      -7.138   9.198  67.744  1.00  0.00    -0.074 F  
HETATM   14  C   UNL     1      -8.047  10.156  67.504  1.00  0.00    -0.113 A  
HETATM   15  C   UNL     1      -7.794  13.854  67.082  1.00  0.00    -0.012 C  
HETATM   16  O   UNL     1      -6.592  14.035  67.268  1.00  0.00    -0.266 OA 
HETATM   17  C   UNL     1      -8.650  14.982  66.728  1.00  0.00    -0.279 C  
HETATM   18  C   UNL     1      -8.404  12.504  67.178  1.00  0.00    -0.179 A  
HETATM   19  C   UNL     1      -8.168  16.368  66.527  1.00  0.00    -0.306 C  
HETATM   20  C   UNL     1      -9.960  14.718  66.595  1.00  0.00    -0.264 C  
HETATM   21  N   UNL     1     -10.596  13.502  66.798  1.00  0.00    -0.271 NA 
HETATM   22  O   UNL     1      -6.846  16.532  66.738  1.00  0.00    -0.210 OA 
HETATM   23  O   UNL     1      -8.895  17.294  66.200  1.00  0.00    -0.427 OA 
HETATM   24  C   UNL     1      -9.803  12.321  67.071  1.00  0.00    -0.205 A  
HETATM   25  C   UNL     1     -10.310  10.983  67.254  1.00  0.00    -0.211 A  
BRANCH  21  26
HETATM   26  C   UNL     1     -12.026  13.444  66.418  1.00  0.00    -0.406 C  
HETATM   27  C   UNL     1     -12.612  14.414  65.422  1.00  0.00    -0.339 C  
HETATM   28  C   UNL     1     -12.511  12.973  65.059  1.00  0.00    -0.534 C  
ENDBRANCH  21  26
BRANCH  25  29
HETATM   29  O   UNL     1     -11.671  10.861  67.464  1.00  0.00    -0.543 OA 
HETATM   30  C   UNL     1     -12.141  11.027  68.799  1.00  0.00    -0.114 C  
ENDBRANCH  25  29
ENDBRANCH   3  11
TORSDOF 3
ENDMDL
MODEL       27
REMARK 921   NORMALIZED FREE ENERGY PREDICTED BY IDOCK:   -6.17 KCAL/MOL
REMARK 922        TOTAL FREE ENERGY PREDICTED BY IDOCK:   -8.06 KCAL/MOL
REMARK 923 INTER-LIGAND FREE ENERGY PREDICTED BY IDOCK:   -7.24 KCAL/MOL
REMARK 924 INTRA-LIGAND FREE ENERGY PREDICTED BY IDOCK:   -0.82 KCAL/MOL
REMARK 927      BINDING AFFINITY PREDICTED BY RF-SCORE:    0.00 PKD
ROOT
HETATM    1  C   UNL     1      -6.412   8.326  69.034  1.00  0.00    -0.047 C  
HETATM    2  C   UNL     1      -6.502   9.582  68.145  1.00  0.00    -0.057 C  
HETATM    3  N   UNL     1      -7.683  10.320  68.647  1.00  0.00    -0.090 NA 
HETATM    4  C   UNL     1      -7.290   7.181  68.507  1.00  0.00    -0.100 C  
HETATM    5  C   UNL     1      -8.031   9.828  69.975  1.00  0.00    -0.184 C  
HETATM    6  C   UNL     1      -6.882   8.881  70.383  1.00  0.00    -0.049 C  
HETATM    7  C   UNL     1      -7.677   6.187  69.600  1.00  0.00    -0.098 C  
HETATM    8  N   UNL     1      -7.219   7.849  71.368  1.00  0.00    -0.062 NA 
HETATM    9  H   UNL     1      -7.549   8.271  72.236  1.00  0.00     0.000 HD 
HETATM   10  C   UNL     1      -8.182   6.866  70.867  1.00  0.00    -0.118 C  
ENDROOT
BRANCH   3  11
HETATM   11  C   UNL     1      -8.178  11.487  68.081  1.00  0.00    -0.149 A  
HETATM   12  C   UNL     1      -8.072  13.955  68.012  1.00  0.00    -0.154 A  
HETATM   13  F   UNL     1      -6.681  12.792  69.435  1.00  0.00    -0.107 F  
HETATM   14  C   UNL     1      -7.629  12.732  68.486  1.00  0.00    -0.120 A  
HETATM   15  C   UNL     1      -9.500  15.345  66.593  1.00  0.00    -0.259 C  
HETATM   16  O   UNL     1      -9.054  16.373  67.097  1.00  0.00    -0.200 OA 
HETATM   17  C   UNL     1     -10.457  15.434  65.493  1.00  0.00    -0.402 C  
HETATM   18  C   UNL     1      -9.069  14.000  67.049  1.00  0.00    -0.256 A  
HETATM   19  C   UNL     1     -10.920  16.703  64.888  1.00  0.00    -0.150 C  
HETATM   20  C   UNL     1     -10.941  14.271  65.028  1.00  0.00    -0.387 C  
HETATM   21  N   UNL     1     -10.667  12.997  65.505  1.00  0.00    -0.277 NA 
HETATM   22  O   UNL     1     -10.413  17.812  65.465  1.00  0.00    -0.646 OA 
HETATM   23  O   UNL     1     -11.698  16.758  63.947  1.00  0.00    -1.076 OA 
HETATM   24  C   UNL     1      -9.667  12.824  66.538  1.00  0.00    -0.255 A  
HETATM   25  C   UNL     1      -9.236  11.566  67.099  1.00  0.00    -0.169 A  
BRANCH  21  26
HETATM   26  C   UNL     1     -11.203  11.873  64.703  1.00  0.00    -0.305 C  
HETATM   27  C   UNL     1     -12.023  12.119  63.460  1.00  0.00    -0.619 C  
HETATM   28  C   UNL     1     -10.674  11.500  63.330  1.00  0.00    -0.444 C  
ENDBRANCH  21  26
BRANCH  25  29
HETATM   29  O   UNL     1     -10.031  10.467  66.834  1.00  0.00    -0.186 OA 
HETATM   30  C   UNL     1     -11.004  10.116  67.814  1.00  0.00    -0.277 C  
ENDBRANCH  25  29
ENDBRANCH   3  11
TORSDOF 3
ENDMDL
MODEL       28
REMARK 921   NORMALIZED FREE ENERGY PREDICTED BY IDOCK:   -6.15 KCAL/MOL
REMARK 922        TOTAL FREE ENERGY PREDICTED BY IDOCK:   -8.03 KCAL/MOL
REMARK 923 INTER-LIGAND FREE ENERGY PREDICTED BY IDOCK:   -7.29 KCAL/MOL
REMARK 924 INTRA-LIGAND FREE ENERGY PREDICTED BY IDOCK:   -0.74 KCAL/MOL
REMARK 927      BINDING AFFINITY PREDICTED BY RF-SCORE:    0.00 PKD
ROOT
HETATM    1  C   UNL     1      -8.805  18.183  68.198  1.00  0.00    -0.289 C  
HETATM    2  C   UNL     1      -8.497  16.783  68.766  1.00  0.00    -0.253 C  
HETATM    3  N   UNL     1      -8.899  15.842  67.697  1.00  0.00    -0.174 NA 
HETATM    4  C   UNL     1     -10.263  18.600  68.448  1.00  0.00    -0.415 C  
HETATM    5  C   UNL     1      -9.024  16.567  66.437  1.00  0.00    -0.305 C  
HETATM    6  C   UNL     1      -8.475  17.983  66.716  1.00  0.00    -0.257 C  
HETATM    7  C   UNL     1     -10.752  19.649  67.453  1.00  0.00    -0.563 C  
HETATM    8  N   UNL     1      -8.977  19.048  65.843  1.00  0.00    -0.407 NA 
HETATM    9  H   UNL     1      -8.754  18.854  64.867  1.00  0.00     0.000 HD 
HETATM   10  C   UNL     1     -10.411  19.302  66.009  1.00  0.00    -0.475 C  
ENDROOT
BRANCH   3  11
HETATM   11  C   UNL     1      -8.860  14.459  67.813  1.00  0.00    -0.186 A  
HETATM   12  C   UNL     1      -7.503  12.406  67.593  1.00  0.00    -0.138 A  
HETATM   13  F   UNL     1      -6.556  14.455  67.130  1.00  0.00    -0.141 F  
HETATM   14  C   UNL     1      -7.643  13.782  67.541  1.00  0.00    -0.173 A  
HETATM   15  C   UNL     1      -8.360  10.151  68.005  1.00  0.00    -0.117 C  
HETATM   16  O   UNL     1      -7.305   9.647  67.627  1.00  0.00    -0.089 OA 
HETATM   17  C   UNL     1      -9.425   9.297  68.525  1.00  0.00    -0.150 C  
HETATM   18  C   UNL     1      -8.579  11.618  67.980  1.00  0.00    -0.152 A  
HETATM   19  C   UNL     1      -9.320   7.828  68.676  1.00  0.00    -0.148 C  
HETATM   20  C   UNL     1     -10.568   9.912  68.868  1.00  0.00    -0.218 C  
HETATM   21  N   UNL     1     -10.866  11.261  68.744  1.00  0.00    -0.195 NA 
HETATM   22  O   UNL     1      -8.150   7.307  68.252  1.00  0.00    -0.121 OA 
HETATM   23  O   UNL     1     -10.210   7.133  69.142  1.00  0.00    -0.182 OA 
HETATM   24  C   UNL     1      -9.833  12.181  68.314  1.00  0.00    -0.212 A  
HETATM   25  C   UNL     1      -9.971  13.612  68.185  1.00  0.00    -0.246 A  
BRANCH  21  26
HETATM   26  C   UNL     1     -12.139  11.706  69.355  1.00  0.00    -0.263 C  
HETATM   27  C   UNL     1     -12.783  10.928  70.477  1.00  0.00    -0.363 C  
HETATM   28  C   UNL     1     -12.236  12.286  70.755  1.00  0.00    -0.354 C  
ENDBRANCH  21  26
BRANCH  25  29
HETATM   29  O   UNL     1     -11.260  14.111  68.203  1.00  0.00    -0.256 OA 
HETATM   30  C   UNL     1     -11.935  14.215  66.952  1.00  0.00    -0.449 C  
ENDBRANCH  25  29
ENDBRANCH   3  11
TORSDOF 3
ENDMDL
MODEL       29
REMARK 921   NORMALIZED FREE ENERGY PREDICTED BY IDOCK:   -6.11 KCAL/MOL
REMARK 922        TOTAL FREE ENERGY PREDICTED BY IDOCK:   -7.99 KCAL/MOL
REMARK 923 INTER-LIGAND FREE ENERGY PREDICTED BY IDOCK:   -7.70 KCAL/MOL
REMARK 924 INTRA-LIGAND FREE ENERGY PREDICTED BY IDOCK:   -0.29 KCAL/MOL
REMARK 927      BINDING AFFINITY PREDICTED BY RF-SCORE:    0.00 PKD
ROOT
HETATM    1  C   UNL     1      -9.983  13.374  64.491  1.00  0.00    -0.080 C  
HETATM    2  C   UNL     1      -9.384  12.154  65.217  1.00  0.00     0.125 C  
HETATM    3  N   UNL     1     -10.553  11.396  65.717  1.00  0.00    -0.261 NA 
HETATM    4  C   UNL     1     -10.263  14.539  65.453  1.00  0.00    -0.415 C  
HETATM    5  C   UNL     1     -11.752  11.837  65.012  1.00  0.00    -0.105 C  
HETATM    6  C   UNL     1     -11.253  12.767  63.886  1.00  0.00    -0.440 C  
HETATM    7  C   UNL     1     -11.337  15.489  64.929  1.00  0.00    -0.339 C  
HETATM    8  N   UNL     1     -12.217  13.760  63.400  1.00  0.00    -1.075 NA 
HETATM    9  H   UNL     1     -13.052  13.305  63.032  1.00  0.00     0.000 HD 
HETATM   10  C   UNL     1     -12.570  14.761  64.409  1.00  0.00    -0.081 C  
ENDROOT
BRANCH   3  11
HETATM   11  C   UNL     1     -10.471  10.252  66.499  1.00  0.00    -0.173 A  
HETATM   12  C   UNL     1      -9.690   7.913  66.659  1.00  0.00    -0.305 A  
HETATM   13  F   UNL     1      -9.294   9.119  64.736  1.00  0.00    -0.262 F  
HETATM   14  C   UNL     1      -9.800   9.114  65.979  1.00  0.00    -0.272 A  
HETATM   15  C   UNL     1     -10.061   6.479  68.607  1.00  0.00    -0.161 C  
HETATM   16  O   UNL     1      -9.577   5.510  68.025  1.00  0.00    -0.117 OA 
HETATM   17  C   UNL     1     -10.480   6.352  70.001  1.00  0.00    -0.267 C  
HETATM   18  C   UNL     1     -10.207   7.797  67.941  1.00  0.00    -0.259 A  
HETATM   19  C   UNL     1     -10.327   5.122  70.811  1.00  0.00    -0.224 C  
HETATM   20  C   UNL     1     -11.049   7.435  70.553  1.00  0.00    -0.261 C  
HETATM   21  N   UNL     1     -11.322   8.647  69.936  1.00  0.00    -0.043 NA 
HETATM   22  O   UNL     1      -9.794   4.079  70.143  1.00  0.00    -0.210 OA 
HETATM   23  O   UNL     1     -10.655   5.044  71.986  1.00  0.00    -0.214 OA 
HETATM   24  C   UNL     1     -10.864   8.875  68.581  1.00  0.00     0.009 A  
HETATM   25  C   UNL     1     -11.025  10.093  67.825  1.00  0.00    -0.277 A  
BRANCH  21  26
HETATM   26  C   UNL     1     -11.802   9.734  70.820  1.00  0.00    -0.319 C  
HETATM   27  C   UNL     1     -13.276   9.980  71.030  1.00  0.00    -0.399 C  
HETATM   28  C   UNL     1     -12.451   9.487  72.170  1.00  0.00    -0.376 C  
ENDBRANCH  21  26
BRANCH  25  29
HETATM   29  O   UNL     1     -11.927  11.014  68.323  1.00  0.00    -0.593 OA 
HETATM   30  C   UNL     1     -11.412  12.285  68.713  1.00  0.00    -0.311 C  
ENDBRANCH  25  29
ENDBRANCH   3  11
TORSDOF 3
ENDMDL
MODEL       30
REMARK 921   NORMALIZED FREE ENERGY PREDICTED BY IDOCK:   -6.06 KCAL/MOL
REMARK 922        TOTAL FREE ENERGY PREDICTED BY IDOCK:   -7.93 KCAL/MOL
REMARK 923 INTER-LIGAND FREE ENERGY PREDICTED BY IDOCK:   -7.09 KCAL/MOL
REMARK 924 INTRA-LIGAND FREE ENERGY PREDICTED BY IDOCK:   -0.83 KCAL/MOL
REMARK 927      BINDING AFFINITY PREDICTED BY RF-SCORE:    0.00 PKD
ROOT
HETATM    1  C   UNL     1     -10.555  13.966  66.046  1.00  0.00    -0.293 C  
HETATM    2  C   UNL     1     -10.302  13.455  67.478  1.00  0.00    -0.226 C  
HETATM    3  N   UNL     1     -10.424  11.983  67.384  1.00  0.00    -0.213 NA 
HETATM    4  C   UNL     1     -12.052  14.159  65.757  1.00  0.00    -0.433 C  
HETATM    5  C   UNL     1     -10.320  11.578  65.986  1.00  0.00    -0.246 C  
HETATM    6  C   UNL     1      -9.914  12.851  65.213  1.00  0.00    -0.176 C  
HETATM    7  C   UNL     1     -12.375  14.096  64.266  1.00  0.00    -0.398 C  
HETATM    8  N   UNL     1     -10.276  12.883  63.793  1.00  0.00    -0.684 NA 
HETATM    9  H   UNL     1      -9.845  12.107  63.291  1.00  0.00     0.000 HD 
HETATM   10  C   UNL     1     -11.723  12.909  63.568  1.00  0.00    -0.512 C  
ENDROOT
BRANCH   3  11
HETATM   11  C   UNL     1     -10.341  11.117  68.466  1.00  0.00    -0.193 A  
HETATM   12  C   UNL     1     -11.513  10.088  70.382  1.00  0.00    -0.389 A  
HETATM   13  F   UNL     1     -12.640  11.558  69.011  1.00  0.00    -0.236 F  
HETATM   14  C   UNL     1     -11.495  10.902  69.263  1.00  0.00    -0.302 A  
HETATM   15  C   UNL     1     -10.459   8.541  71.958  1.00  0.00    -0.336 C  
HETATM   16  O   UNL     1     -11.468   8.518  72.659  1.00  0.00    -0.351 OA 
HETATM   17  C   UNL     1      -9.320   7.693  72.300  1.00  0.00    -0.199 C  
HETATM   18  C   UNL     1     -10.370   9.388  70.743  1.00  0.00    -0.366 A  
HETATM   19  C   UNL     1      -9.294   6.746  73.438  1.00  0.00    -0.148 C  
HETATM   20  C   UNL     1      -8.233   7.810  71.520  1.00  0.00    -0.105 C  
HETATM   21  N   UNL     1      -8.056   8.678  70.452  1.00  0.00    -0.098 NA 
HETATM   22  O   UNL     1     -10.416   6.747  74.187  1.00  0.00    -0.365 OA 
HETATM   23  O   UNL     1      -8.343   6.021  73.692  1.00  0.00    -0.115 OA 
HETATM   24  C   UNL     1      -9.168   9.490  70.003  1.00  0.00    -0.234 A  
HETATM   25  C   UNL     1      -9.157  10.398  68.882  1.00  0.00    -0.173 A  
BRANCH  21  26
HETATM   26  C   UNL     1      -6.823   8.486  69.655  1.00  0.00    -0.043 C  
HETATM   27  C   UNL     1      -5.857   7.368  69.964  1.00  0.00    -0.024 C  
HETATM   28  C   UNL     1      -6.626   7.333  68.688  1.00  0.00    -0.045 C  
ENDBRANCH  21  26
BRANCH  25  29
HETATM   29  O   UNL     1      -7.918  10.730  68.369  1.00  0.00    -0.111 OA 
HETATM   30  C   UNL     1      -7.309  11.922  68.859  1.00  0.00    -0.080 C  
ENDBRANCH  25  29
ENDBRANCH   3  11
TORSDOF 3
ENDMDL
MODEL       31
REMARK 921   NORMALIZED FREE ENERGY PREDICTED BY IDOCK:   -6.05 KCAL/MOL
REMARK 922        TOTAL FREE ENERGY PREDICTED BY IDOCK:   -7.92 KCAL/MOL
REMARK 923 INTER-LIGAND FREE ENERGY PREDICTED BY IDOCK:   -7.33 KCAL/MOL
REMARK 924 INTRA-LIGAND FREE ENERGY PREDICTED BY IDOCK:   -0.59 KCAL/MOL
REMARK 927      BINDING AFFINITY PREDICTED BY RF-SCORE:    0.00 PKD
ROOT
HETATM    1  C   UNL     1      -6.175  18.300  67.404  1.00  0.00    -0.184 C  
HETATM    2  C   UNL     1      -6.543  17.031  68.198  1.00  0.00    -0.147 C  
HETATM    3  N   UNL     1      -7.751  16.499  67.527  1.00  0.00    -0.144 NA 
HETATM    4  C   UNL     1      -6.937  19.536  67.906  1.00  0.00    -0.288 C  
HETATM    5  C   UNL     1      -7.871  17.099  66.203  1.00  0.00    -0.268 C  
HETATM    6  C   UNL     1      -6.561  17.884  65.981  1.00  0.00    -0.281 C  
HETATM    7  C   UNL     1      -7.053  20.626  66.842  1.00  0.00    -0.353 C  
HETATM    8  N   UNL     1      -6.634  18.999  65.032  1.00  0.00    -0.494 NA 
HETATM    9  H   UNL     1      -6.918  18.672  64.109  1.00  0.00     0.000 HD 
HETATM   10  C   UNL     1      -7.500  20.089  65.489  1.00  0.00    -0.187 C  
ENDROOT
BRANCH   3  11
HETATM   11  C   UNL     1      -8.467  15.392  67.962  1.00  0.00    -0.146 A  
HETATM   12  C   UNL     1      -8.538  12.931  68.174  1.00  0.00    -0.188 A  
HETATM   13  F   UNL     1      -6.707  13.941  67.206  1.00  0.00    -0.189 F  
HETATM   14  C   UNL     1      -7.897  14.102  67.807  1.00  0.00    -0.170 A  
HETATM   15  C   UNL     1     -10.418  11.697  69.137  1.00  0.00    -0.064 C  
HETATM   16  O   UNL     1      -9.902  10.620  68.845  1.00  0.00    -0.185 OA 
HETATM   17  C   UNL     1     -11.673  11.719  69.885  1.00  0.00    -0.399 C  
HETATM   18  C   UNL     1      -9.786  12.990  68.778  1.00  0.00     0.015 A  
HETATM   19  C   UNL     1     -12.377  10.511  70.372  1.00  0.00    -0.324 C  
HETATM   20  C   UNL     1     -12.205  12.928  70.122  1.00  0.00    -0.266 C  
HETATM   21  N   UNL     1     -11.719  14.157  69.697  1.00  0.00    -0.297 NA 
HETATM   22  O   UNL     1     -11.784   9.347  70.034  1.00  0.00    -0.104 OA 
HETATM   23  O   UNL     1     -13.410  10.549  71.024  1.00  0.00    -0.306 OA 
HETATM   24  C   UNL     1     -10.440  14.221  69.022  1.00  0.00    -0.204 A  
HETATM   25  C   UNL     1      -9.780  15.421  68.567  1.00  0.00    -0.204 A  
BRANCH  21  26
HETATM   26  C   UNL     1     -12.408  15.351  70.239  1.00  0.00    -0.388 C  
HETATM   27  C   UNL     1     -13.471  15.227  71.301  1.00  0.00    -0.591 C  
HETATM   28  C   UNL     1     -12.178  15.883  71.642  1.00  0.00    -0.544 C  
ENDBRANCH  21  26
BRANCH  25  29
HETATM   29  O   UNL     1     -10.549  16.569  68.520  1.00  0.00    -0.280 OA 
HETATM   30  C   UNL     1     -10.078  17.699  69.249  1.00  0.00    -0.147 C  
ENDBRANCH  25  29
ENDBRANCH   3  11
TORSDOF 3
ENDMDL
MODEL       32
REMARK 921   NORMALIZED FREE ENERGY PREDICTED BY IDOCK:   -6.03 KCAL/MOL
REMARK 922        TOTAL FREE ENERGY PREDICTED BY IDOCK:   -7.90 KCAL/MOL
REMARK 923 INTER-LIGAND FREE ENERGY PREDICTED BY IDOCK:   -7.29 KCAL/MOL
REMARK 924 INTRA-LIGAND FREE ENERGY PREDICTED BY IDOCK:   -0.61 KCAL/MOL
REMARK 927      BINDING AFFINITY PREDICTED BY RF-SCORE:    0.00 PKD
ROOT
HETATM    1  C   UNL     1     -10.643  18.865  67.722  1.00  0.00    -0.471 C  
HETATM    2  C   UNL     1     -11.226  17.454  67.934  1.00  0.00     0.154 C  
HETATM    3  N   UNL     1     -10.059  16.546  67.866  1.00  0.00    -0.249 NA 
HETATM    4  C   UNL     1     -10.517  19.221  66.233  1.00  0.00    -0.567 C  
HETATM    5  C   UNL     1      -8.834  17.319  68.040  1.00  0.00    -0.238 C  
HETATM    6  C   UNL     1      -9.292  18.740  68.434  1.00  0.00    -0.343 C  
HETATM    7  C   UNL     1      -9.462  20.294  65.973  1.00  0.00    -0.274 C  
HETATM    8  N   UNL     1      -8.354  19.825  68.129  1.00  0.00    -0.310 NA 
HETATM    9  H   UNL     1      -7.465  19.680  68.607  1.00  0.00     0.000 HD 
HETATM   10  C   UNL     1      -8.148  20.021  66.692  1.00  0.00    -0.315 C  
ENDROOT
BRANCH   3  11
HETATM   11  C   UNL     1     -10.136  15.161  67.935  1.00  0.00    -0.222 A  
HETATM   12  C   UNL     1     -10.339  13.174  69.390  1.00  0.00     0.409 A  
HETATM   13  F   UNL     1     -10.304  15.278  70.329  1.00  0.00    -0.285 F  
HETATM   14  C   UNL     1     -10.286  14.545  69.204  1.00  0.00    -0.189 A  
HETATM   15  C   UNL     1     -10.351  10.872  68.563  1.00  0.00    -0.187 C  
HETATM   16  O   UNL     1     -10.350  10.427  69.709  1.00  0.00    -0.240 OA 
HETATM   17  C   UNL     1     -10.437   9.953  67.430  1.00  0.00    -0.325 C  
HETATM   18  C   UNL     1     -10.298  12.329  68.290  1.00  0.00    -0.227 A  
HETATM   19  C   UNL     1     -10.568   8.484  67.553  1.00  0.00    -0.214 C  
HETATM   20  C   UNL     1     -10.378  10.507  66.208  1.00  0.00    -0.212 C  
HETATM   21  N   UNL     1     -10.201  11.849  65.902  1.00  0.00    -0.228 NA 
HETATM   22  O   UNL     1     -10.563   8.029  68.823  1.00  0.00    -0.195 OA 
HETATM   23  O   UNL     1     -10.669   7.733  66.594  1.00  0.00    -0.231 OA 
HETATM   24  C   UNL     1     -10.190  12.827  66.970  1.00  0.00    -0.241 A  
HETATM   25  C   UNL     1     -10.068  14.255  66.810  1.00  0.00    -0.264 A  
BRANCH  21  26
HETATM   26  C   UNL     1     -10.342  12.214  64.473  1.00  0.00    -0.304 C  
HETATM   27  C   UNL     1     -10.657  11.174  63.427  1.00  0.00    -0.340 C  
HETATM   28  C   UNL     1     -11.671  12.220  63.740  1.00  0.00    -0.566 C  
ENDBRANCH  21  26
BRANCH  25  29
HETATM   29  O   UNL     1      -9.649  14.704  65.571  1.00  0.00    -0.273 OA 
HETATM   30  C   UNL     1     -10.538  15.556  64.854  1.00  0.00    -0.342 C  
ENDBRANCH  25  29
ENDBRANCH   3  11
TORSDOF 3
ENDMDL
MODEL       33
REMARK 921   NORMALIZED FREE ENERGY PREDICTED BY IDOCK:   -6.02 KCAL/MOL
REMARK 922        TOTAL FREE ENERGY PREDICTED BY IDOCK:   -7.88 KCAL/MOL
REMARK 923 INTER-LIGAND FREE ENERGY PREDICTED BY IDOCK:   -7.37 KCAL/MOL
REMARK 924 INTRA-LIGAND FREE ENERGY PREDICTED BY IDOCK:   -0.51 KCAL/MOL
REMARK 927      BINDING AFFINITY PREDICTED BY RF-SCORE:    0.00 PKD
ROOT
HETATM    1  C   UNL     1     -11.064   5.813  71.964  1.00  0.00    -0.318 C  
HETATM    2  C   UNL     1     -11.526   6.510  70.670  1.00  0.00    -0.374 C  
HETATM    3  N   UNL     1     -10.331   7.231  70.178  1.00  0.00    -0.208 NA 
HETATM    4  C   UNL     1     -11.177   6.734  73.189  1.00  0.00    -0.136 C  
HETATM    5  C   UNL     1      -9.141   6.695  70.830  1.00  0.00    -0.154 C  
HETATM    6  C   UNL     1      -9.619   5.450  71.608  1.00  0.00    -0.150 C  
HETATM    7  C   UNL     1     -10.236   6.325  74.320  1.00  0.00    -0.351 C  
HETATM    8  N   UNL     1      -8.800   5.060  72.760  1.00  0.00    -0.121 NA 
HETATM    9  H   UNL     1      -7.843   4.854  72.472  1.00  0.00     0.000 HD 
HETATM   10  C   UNL     1      -8.818   6.048  73.841  1.00  0.00    -0.126 C  
ENDROOT
BRANCH   3  11
HETATM   11  C   UNL     1     -10.316   8.059  69.063  1.00  0.00    -0.218 A  
HETATM   12  C   UNL     1      -9.978   8.229  66.622  1.00  0.00    -0.348 A  
HETATM   13  F   UNL     1      -9.769   6.184  67.664  1.00  0.00    -0.116 F  
HETATM   14  C   UNL     1     -10.051   7.491  67.791  1.00  0.00    -0.185 A  
HETATM   15  C   UNL     1     -10.124  10.323  65.364  1.00  0.00    -0.284 C  
HETATM   16  O   UNL     1      -9.760   9.764  64.331  1.00  0.00    -0.213 OA 
HETATM   17  C   UNL     1     -10.498  11.735  65.331  1.00  0.00    -0.317 C  
HETATM   18  C   UNL     1     -10.226   9.594  66.653  1.00  0.00    -0.302 A  
HETATM   19  C   UNL     1     -10.514  12.566  64.107  1.00  0.00    -0.403 C  
HETATM   20  C   UNL     1     -10.833  12.290  66.507  1.00  0.00    -0.259 C  
HETATM   21  N   UNL     1     -10.821  11.685  67.755  1.00  0.00    -0.206 NA 
HETATM   22  O   UNL     1     -10.110  11.924  62.992  1.00  0.00    -0.379 OA 
HETATM   23  O   UNL     1     -10.860  13.739  64.092  1.00  0.00    -0.302 OA 
HETATM   24  C   UNL     1     -10.541  10.268  67.856  1.00  0.00    -0.239 A  
HETATM   25  C   UNL     1     -10.541   9.487  69.070  1.00  0.00    -0.219 A  
BRANCH  21  26
HETATM   26  C   UNL     1     -11.398  12.475  68.867  1.00  0.00    -0.297 C  
HETATM   27  C   UNL     1     -10.801  13.799  69.278  1.00  0.00    -0.141 C  
HETATM   28  C   UNL     1     -12.158  13.774  68.661  1.00  0.00    -0.333 C  
ENDBRANCH  21  26
BRANCH  25  29
HETATM   29  O   UNL     1     -10.533  10.194  70.258  1.00  0.00    -0.281 OA 
HETATM   30  C   UNL     1     -11.684  10.081  71.090  1.00  0.00    -0.387 C  
ENDBRANCH  25  29
ENDBRANCH   3  11
TORSDOF 3
ENDMDL
MODEL       34
REMARK 921   NORMALIZED FREE ENERGY PREDICTED BY IDOCK:   -6.01 KCAL/MOL
REMARK 922        TOTAL FREE ENERGY PREDICTED BY IDOCK:   -7.88 KCAL/MOL
REMARK 923 INTER-LIGAND FREE ENERGY PREDICTED BY IDOCK:   -7.06 KCAL/MOL
REMARK 924 INTRA-LIGAND FREE ENERGY PREDICTED BY IDOCK:   -0.82 KCAL/MOL
REMARK 927      BINDING AFFINITY PREDICTED BY RF-SCORE:    0.00 PKD
ROOT
HETATM    1  C   UNL     1      -8.182   8.467  70.823  1.00  0.00    -0.141 C  
HETATM    2  C   UNL     1      -9.125   9.585  70.336  1.00  0.00    -0.246 C  
HETATM    3  N   UNL     1      -8.714   9.848  68.939  1.00  0.00    -0.133 NA 
HETATM    4  C   UNL     1      -6.859   9.026  71.370  1.00  0.00    -0.073 C  
HETATM    5  C   UNL     1      -7.913   8.730  68.452  1.00  0.00    -0.109 C  
HETATM    6  C   UNL     1      -8.011   7.643  69.543  1.00  0.00    -0.125 C  
HETATM    7  C   UNL     1      -5.724   8.005  71.316  1.00  0.00    -0.034 C  
HETATM    8  N   UNL     1      -6.903   6.684  69.594  1.00  0.00    -0.056 NA 
HETATM    9  H   UNL     1      -6.818   6.181  68.712  1.00  0.00     0.000 HD 
HETATM   10  C   UNL     1      -5.627   7.297  69.971  1.00  0.00    -0.023 C  
ENDROOT
BRANCH   3  11
HETATM   11  C   UNL     1      -9.257  10.841  68.134  1.00  0.00    -0.151 A  
HETATM   12  C   UNL     1     -11.025  11.454  66.521  1.00  0.00    -0.328 A  
HETATM   13  F   UNL     1     -10.970   9.324  67.399  1.00  0.00    -0.348 F  
HETATM   14  C   UNL     1     -10.423  10.550  67.379  1.00  0.00    -0.244 A  
HETATM   15  C   UNL     1     -11.208  13.654  65.464  1.00  0.00    -0.293 C  
HETATM   16  O   UNL     1     -12.136  13.271  64.755  1.00  0.00    -0.372 OA 
HETATM   17  C   UNL     1     -10.783  15.050  65.409  1.00  0.00    -0.389 C  
HETATM   18  C   UNL     1     -10.518  12.741  66.409  1.00  0.00    -0.265 A  
HETATM   19  C   UNL     1     -11.426  16.087  64.570  1.00  0.00    -0.271 C  
HETATM   20  C   UNL     1      -9.730  15.384  66.172  1.00  0.00    -0.318 C  
HETATM   21  N   UNL     1      -8.973  14.540  66.973  1.00  0.00    -0.229 NA 
HETATM   22  O   UNL     1     -12.439  15.634  63.804  1.00  0.00    -0.642 OA 
HETATM   23  O   UNL     1     -11.077  17.258  64.560  1.00  0.00    -1.082 OA 
HETATM   24  C   UNL     1      -9.382  13.161  67.141  1.00  0.00    -0.235 A  
HETATM   25  C   UNL     1      -8.733  12.179  67.975  1.00  0.00    -0.180 A  
BRANCH  21  26
HETATM   26  C   UNL     1      -7.968  15.196  67.841  1.00  0.00    -0.135 C  
HETATM   27  C   UNL     1      -7.906  16.698  67.970  1.00  0.00    -0.173 C  
HETATM   28  C   UNL     1      -8.317  15.884  69.149  1.00  0.00    -0.253 C  
ENDBRANCH  21  26
BRANCH  25  29
HETATM   29  O   UNL     1      -7.467  12.496  68.430  1.00  0.00    -0.114 OA 
HETATM   30  C   UNL     1      -6.363  11.971  67.697  1.00  0.00    -0.099 C  
ENDBRANCH  25  29
ENDBRANCH   3  11
TORSDOF 3
ENDMDL
MODEL       35
REMARK 921   NORMALIZED FREE ENERGY PREDICTED BY IDOCK:   -6.00 KCAL/MOL
REMARK 922        TOTAL FREE ENERGY PREDICTED BY IDOCK:   -7.86 KCAL/MOL
REMARK 923 INTER-LIGAND FREE ENERGY PREDICTED BY IDOCK:   -7.07 KCAL/MOL
REMARK 924 INTRA-LIGAND FREE ENERGY PREDICTED BY IDOCK:   -0.79 KCAL/MOL
REMARK 927      BINDING AFFINITY PREDICTED BY RF-SCORE:    0.00 PKD
ROOT
HETATM    1  C   UNL     1     -10.088   7.421  71.080  1.00  0.00    -0.189 C  
HETATM    2  C   UNL     1      -9.792   8.933  71.020  1.00  0.00    -0.253 C  
HETATM    3  N   UNL     1      -9.694   9.244  69.576  1.00  0.00    -0.166 NA 
HETATM    4  C   UNL     1      -8.804   6.579  71.038  1.00  0.00    -0.139 C  
HETATM    5  C   UNL     1     -10.297   8.161  68.806  1.00  0.00    -0.202 C  
HETATM    6  C   UNL     1     -10.975   7.240  69.844  1.00  0.00    -0.243 C  
HETATM    7  C   UNL     1      -9.048   5.161  70.526  1.00  0.00    -0.177 C  
HETATM    8  N   UNL     1     -11.158   5.843  69.439  1.00  0.00    -0.357 NA 
HETATM    9  H   UNL     1     -11.733   5.781  68.600  1.00  0.00     0.000 HD 
HETATM   10  C   UNL     1      -9.894   5.125  69.261  1.00  0.00    -0.190 C  
ENDROOT
BRANCH   3  11
HETATM   11  C   UNL     1      -9.364  10.490  69.062  1.00  0.00    -0.196 A  
HETATM   12  C   UNL     1      -7.585  12.163  68.684  1.00  0.00    -0.097 A  
HETATM   13  F   UNL     1      -7.077  10.174  69.730  1.00  0.00    -0.066 F  
HETATM   14  C   UNL     1      -8.015  10.926  69.133  1.00  0.00    -0.112 A  
HETATM   15  C   UNL     1      -7.957  14.338  67.626  1.00  0.00    -0.180 C  
HETATM   16  O   UNL     1      -6.797  14.679  67.848  1.00  0.00    -0.129 OA 
HETATM   17  C   UNL     1      -8.841  15.224  66.872  1.00  0.00    -0.281 C  
HETATM   18  C   UNL     1      -8.486  13.027  68.077  1.00  0.00    -0.181 A  
HETATM   19  C   UNL     1      -8.430  16.526  66.300  1.00  0.00    -0.328 C  
HETATM   20  C   UNL     1     -10.108  14.808  66.715  1.00  0.00    -0.256 C  
HETATM   21  N   UNL     1     -10.682  13.652  67.225  1.00  0.00    -0.277 NA 
HETATM   22  O   UNL     1      -7.153  16.870  66.562  1.00  0.00    -0.222 OA 
HETATM   23  O   UNL     1      -9.175  17.240  65.645  1.00  0.00    -0.501 OA 
HETATM   24  C   UNL     1      -9.849  12.687  67.912  1.00  0.00    -0.218 A  
HETATM   25  C   UNL     1     -10.285  11.422  68.451  1.00  0.00    -0.198 A  
BRANCH  21  26
HETATM   26  C   UNL     1     -12.056  13.349  66.761  1.00  0.00    -0.365 C  
HETATM   27  C   UNL     1     -12.711  14.161  65.671  1.00  0.00    -0.469 C  
HETATM   28  C   UNL     1     -12.363  12.737  65.406  1.00  0.00    -0.528 C  
ENDBRANCH  21  26
BRANCH  25  29
HETATM   29  O   UNL     1     -11.650  11.240  68.571  1.00  0.00    -0.274 OA 
HETATM   30  C   UNL     1     -12.227  11.465  69.855  1.00  0.00    -0.277 C  
ENDBRANCH  25  29
ENDBRANCH   3  11
TORSDOF 3
ENDMDL
MODEL       36
REMARK 921   NORMALIZED FREE ENERGY PREDICTED BY IDOCK:   -5.99 KCAL/MOL
REMARK 922        TOTAL FREE ENERGY PREDICTED BY IDOCK:   -7.85 KCAL/MOL
REMARK 923 INTER-LIGAND FREE ENERGY PREDICTED BY IDOCK:   -7.05 KCAL/MOL
REMARK 924 INTRA-LIGAND FREE ENERGY PREDICTED BY IDOCK:   -0.80 KCAL/MOL
REMARK 927      BINDING AFFINITY PREDICTED BY RF-SCORE:    0.00 PKD
ROOT
HETATM    1  C   UNL     1      -9.106   7.155  68.814  1.00  0.00    -0.134 C  
HETATM    2  C   UNL     1      -8.776   8.395  67.960  1.00  0.00    -0.139 C  
HETATM    3  N   UNL     1      -9.129   9.551  68.814  1.00  0.00    -0.131 NA 
HETATM    4  C   UNL     1     -10.580   6.739  68.683  1.00  0.00    -0.263 C  
HETATM    5  C   UNL     1      -9.244   9.110  70.200  1.00  0.00    -0.206 C  
HETATM    6  C   UNL     1      -8.738   7.652  70.216  1.00  0.00    -0.144 C  
HETATM    7  C   UNL     1     -11.073   5.936  69.885  1.00  0.00    -0.417 C  
HETATM    8  N   UNL     1      -9.247   6.808  71.302  1.00  0.00    -0.154 NA 
HETATM    9  H   UNL     1      -8.996   7.196  72.211  1.00  0.00     0.000 HD 
HETATM   10  C   UNL     1     -10.689   6.568  71.217  1.00  0.00    -0.237 C  
ENDROOT
BRANCH   3  11
HETATM   11  C   UNL     1      -9.058  10.877  68.410  1.00  0.00    -0.164 A  
HETATM   12  C   UNL     1      -7.670  12.915  68.249  1.00  0.00    -0.137 A  
HETATM   13  F   UNL     1      -6.784  11.001  69.177  1.00  0.00    -0.055 F  
HETATM   14  C   UNL     1      -7.839  11.583  68.585  1.00  0.00    -0.137 A  
HETATM   15  C   UNL     1      -8.464  15.040  67.331  1.00  0.00    -0.184 C  
HETATM   16  O   UNL     1      -7.414  15.601  67.640  1.00  0.00    -0.135 OA 
HETATM   17  C   UNL     1      -9.489  15.776  66.596  1.00  0.00    -0.279 C  
HETATM   18  C   UNL     1      -8.712  13.614  67.658  1.00  0.00    -0.182 A  
HETATM   19  C   UNL     1      -9.348  17.177  66.141  1.00  0.00    -0.192 C  
HETATM   20  C   UNL     1     -10.629  15.114  66.340  1.00  0.00    -0.305 C  
HETATM   21  N   UNL     1     -10.959  13.825  66.734  1.00  0.00    -0.301 NA 
HETATM   22  O   UNL     1      -8.186  17.764  66.497  1.00  0.00    -0.246 OA 
HETATM   23  O   UNL     1     -10.205  17.768  65.500  1.00  0.00    -0.589 OA 
HETATM   24  C   UNL     1      -9.963  13.007  67.395  1.00  0.00    -0.228 A  
HETATM   25  C   UNL     1     -10.135  11.638  67.818  1.00  0.00    -0.187 A  
BRANCH  21  26
HETATM   26  C   UNL     1     -12.215  13.275  66.176  1.00  0.00    -0.405 C  
HETATM   27  C   UNL     1     -12.882  13.907  64.978  1.00  0.00    -0.309 C  
HETATM   28  C   UNL     1     -12.289  12.546  64.846  1.00  0.00    -0.539 C  
ENDBRANCH  21  26
BRANCH  25  29
HETATM   29  O   UNL     1     -11.432  11.160  67.850  1.00  0.00    -0.368 OA 
HETATM   30  C   UNL     1     -12.114  11.211  69.100  1.00  0.00    -0.283 C  
ENDBRANCH  25  29
ENDBRANCH   3  11
TORSDOF 3
ENDMDL
MODEL       37
REMARK 921   NORMALIZED FREE ENERGY PREDICTED BY IDOCK:   -5.98 KCAL/MOL
REMARK 922        TOTAL FREE ENERGY PREDICTED BY IDOCK:   -7.84 KCAL/MOL
REMARK 923 INTER-LIGAND FREE ENERGY PREDICTED BY IDOCK:   -8.47 KCAL/MOL
REMARK 924 INTRA-LIGAND FREE ENERGY PREDICTED BY IDOCK:    0.63 KCAL/MOL
REMARK 927      BINDING AFFINITY PREDICTED BY RF-SCORE:    0.00 PKD
ROOT
HETATM    1  C   UNL     1     -12.789  15.299  70.612  1.00  0.00    -0.462 C  
HETATM    2  C   UNL     1     -12.217  14.476  69.440  1.00  0.00    -0.247 C  
HETATM    3  N   UNL     1     -12.003  13.121  69.995  1.00  0.00    -0.339 NA 
HETATM    4  C   UNL     1     -11.681  15.890  71.497  1.00  0.00    -0.545 C  
HETATM    5  C   UNL     1     -12.764  12.980  71.232  1.00  0.00    -0.293 C  
HETATM    6  C   UNL     1     -13.642  14.246  71.327  1.00  0.00    -0.288 C  
HETATM    7  C   UNL     1     -12.161  16.193  72.915  1.00  0.00    -0.640 C  
HETATM    8  N   UNL     1     -14.063  14.635  72.676  1.00  0.00    -0.495 NA 
HETATM    9  H   UNL     1     -14.605  13.892  73.115  1.00  0.00     0.000 HD 
HETATM   10  C   UNL     1     -12.947  15.044  73.533  1.00  0.00    -0.433 C  
ENDROOT
BRANCH   3  11
HETATM   11  C   UNL     1     -11.429  12.068  69.296  1.00  0.00    -0.301 A  
HETATM   12  C   UNL     1     -10.658   9.721  69.363  1.00  0.00    -0.248 A  
HETATM   13  F   UNL     1     -11.585  10.673  71.246  1.00  0.00    -0.384 F  
HETATM   14  C   UNL     1     -11.251  10.824  69.954  1.00  0.00    -0.300 A  
HETATM   15  C   UNL     1      -9.617   8.571  67.471  1.00  0.00    -0.154 C  
HETATM   16  O   UNL     1      -9.388   7.579  68.160  1.00  0.00    -0.137 OA 
HETATM   17  C   UNL     1      -9.289   8.555  66.047  1.00  0.00    -0.266 C  
HETATM   18  C   UNL     1     -10.252   9.786  68.038  1.00  0.00    -0.229 A  
HETATM   19  C   UNL     1      -8.721   7.389  65.333  1.00  0.00     0.030 C  
HETATM   20  C   UNL     1      -9.517   9.692  65.371  1.00  0.00    -0.278 C  
HETATM   21  N   UNL     1      -9.989  10.893  65.881  1.00  0.00    -0.233 NA 
HETATM   22  O   UNL     1      -8.482   6.319  66.118  1.00  0.00    -0.126 OA 
HETATM   23  O   UNL     1      -8.482   7.384  64.135  1.00  0.00     0.072 OA 
HETATM   24  C   UNL     1     -10.412  10.961  67.265  1.00  0.00    -0.232 A  
HETATM   25  C   UNL     1     -10.969  12.116  67.926  1.00  0.00    -0.229 A  
BRANCH  21  26
HETATM   26  C   UNL     1     -10.311  11.941  64.886  1.00  0.00    -0.286 C  
HETATM   27  C   UNL     1     -10.346  11.634  63.409  1.00  0.00    -0.482 C  
HETATM   28  C   UNL     1     -11.614  11.983  64.109  1.00  0.00    -0.460 C  
ENDBRANCH  21  26
BRANCH  25  29
HETATM   29  O   UNL     1     -10.831  13.327  67.273  1.00  0.00    -0.260 OA 
HETATM   30  C   UNL     1      -9.594  14.015  67.436  1.00  0.00    -0.227 C  
ENDBRANCH  25  29
ENDBRANCH   3  11
TORSDOF 3
ENDMDL
MODEL       38
REMARK 921   NORMALIZED FREE ENERGY PREDICTED BY IDOCK:   -5.96 KCAL/MOL
REMARK 922        TOTAL FREE ENERGY PREDICTED BY IDOCK:   -7.81 KCAL/MOL
REMARK 923 INTER-LIGAND FREE ENERGY PREDICTED BY IDOCK:   -7.01 KCAL/MOL
REMARK 924 INTRA-LIGAND FREE ENERGY PREDICTED BY IDOCK:   -0.80 KCAL/MOL
REMARK 927      BINDING AFFINITY PREDICTED BY RF-SCORE:    0.00 PKD
ROOT
HETATM    1  C   UNL     1      -9.678   6.749  69.852  1.00  0.00    -0.164 C  
HETATM    2  C   UNL     1      -9.262   7.837  68.842  1.00  0.00    -0.140 C  
HETATM    3  N   UNL     1      -9.262   9.097  69.620  1.00  0.00    -0.160 NA 
HETATM    4  C   UNL     1     -11.204   6.620  69.966  1.00  0.00    -0.425 C  
HETATM    5  C   UNL     1      -9.240   8.785  71.045  1.00  0.00    -0.222 C  
HETATM    6  C   UNL     1      -9.013   7.261  71.134  1.00  0.00    -0.147 C  
HETATM    7  C   UNL     1     -11.645   6.015  71.297  1.00  0.00    -0.186 C  
HETATM    8  N   UNL     1      -9.495   6.611  72.356  1.00  0.00    -0.149 NA 
HETATM    9  H   UNL     1      -9.040   7.005  73.180  1.00  0.00     0.000 HD 
HETATM   10  C   UNL     1     -10.952   6.652  72.495  1.00  0.00    -0.247 C  
ENDROOT
BRANCH   3  11
HETATM   11  C   UNL     1      -9.013  10.352  69.081  1.00  0.00    -0.179 A  
HETATM   12  C   UNL     1      -7.338  12.114  68.639  1.00  0.00    -0.109 A  
HETATM   13  F   UNL     1      -6.698  10.171  69.701  1.00  0.00    -0.045 F  
HETATM   14  C   UNL     1      -7.689  10.862  69.115  1.00  0.00    -0.127 A  
HETATM   15  C   UNL     1      -7.852  14.248  67.559  1.00  0.00    -0.194 C  
HETATM   16  O   UNL     1      -6.708  14.656  67.750  1.00  0.00    -0.150 OA 
HETATM   17  C   UNL     1      -8.800  15.073  66.813  1.00  0.00    -0.299 C  
HETATM   18  C   UNL     1      -8.298  12.917  68.040  1.00  0.00    -0.169 A  
HETATM   19  C   UNL     1      -8.474  16.386  66.214  1.00  0.00    -0.337 C  
HETATM   20  C   UNL     1     -10.045  14.586  66.691  1.00  0.00    -0.272 C  
HETATM   21  N   UNL     1     -10.544  13.409  67.230  1.00  0.00    -0.254 NA 
HETATM   22  O   UNL     1      -7.212  16.805  66.442  1.00  0.00    -0.250 OA 
HETATM   23  O   UNL     1      -9.272  17.049  65.566  1.00  0.00    -0.416 OA 
HETATM   24  C   UNL     1      -9.644  12.501  67.911  1.00  0.00    -0.206 A  
HETATM   25  C   UNL     1      -9.998  11.223  68.478  1.00  0.00    -0.202 A  
BRANCH  21  26
HETATM   26  C   UNL     1     -11.908  13.024  66.802  1.00  0.00    -0.388 C  
HETATM   27  C   UNL     1     -12.690  13.869  65.827  1.00  0.00    -0.503 C  
HETATM   28  C   UNL     1     -12.233  12.513  65.410  1.00  0.00    -0.475 C  
ENDBRANCH  21  26
BRANCH  25  29
HETATM   29  O   UNL     1     -11.348  10.968  68.632  1.00  0.00    -0.235 OA 
HETATM   30  C   UNL     1     -11.934  11.302  69.887  1.00  0.00    -0.365 C  
ENDBRANCH  25  29
ENDBRANCH   3  11
TORSDOF 3
ENDMDL
MODEL       39
REMARK 921   NORMALIZED FREE ENERGY PREDICTED BY IDOCK:   -5.93 KCAL/MOL
REMARK 922        TOTAL FREE ENERGY PREDICTED BY IDOCK:   -7.78 KCAL/MOL
REMARK 923 INTER-LIGAND FREE ENERGY PREDICTED BY IDOCK:   -6.95 KCAL/MOL
REMARK 924 INTRA-LIGAND FREE ENERGY PREDICTED BY IDOCK:   -0.83 KCAL/MOL
REMARK 927      BINDING AFFINITY PREDICTED BY RF-SCORE:    0.00 PKD
ROOT
HETATM    1  C   UNL     1     -11.160   5.318  71.387  1.00  0.00     0.016 C  
HETATM    2  C   UNL     1     -11.845   6.570  70.803  1.00  0.00    -0.332 C  
HETATM    3  N   UNL     1     -10.958   7.696  71.172  1.00  0.00    -0.243 NA 
HETATM    4  C   UNL     1     -11.548   5.078  72.854  1.00  0.00    -0.261 C  
HETATM    5  C   UNL     1      -9.648   7.175  71.549  1.00  0.00    -0.157 C  
HETATM    6  C   UNL     1      -9.681   5.672  71.199  1.00  0.00    -0.172 C  
HETATM    7  C   UNL     1     -10.508   4.253  73.609  1.00  0.00    -0.273 C  
HETATM    8  N   UNL     1      -8.762   4.816  71.955  1.00  0.00    -0.122 NA 
HETATM    9  H   UNL     1      -7.795   5.110  71.815  1.00  0.00     0.000 HD 
HETATM   10  C   UNL     1      -9.084   4.744  73.382  1.00  0.00    -0.110 C  
ENDROOT
BRANCH   3  11
HETATM   11  C   UNL     1     -11.231   9.030  70.907  1.00  0.00    -0.287 A  
HETATM   12  C   UNL     1     -12.541  11.033  71.525  1.00  0.00    -0.461 A  
HETATM   13  F   UNL     1     -12.822   9.075  72.707  1.00  0.00    -0.457 F  
HETATM   14  C   UNL     1     -12.170   9.714  71.723  1.00  0.00    -0.384 A  
HETATM   15  C   UNL     1     -12.395  13.176  70.353  1.00  0.00    -0.279 C  
HETATM   16  O   UNL     1     -13.310  13.643  71.029  1.00  0.00    -0.187 OA 
HETATM   17  C   UNL     1     -11.704  14.024  69.384  1.00  0.00    -0.365 C  
HETATM   18  C   UNL     1     -11.943  11.772  70.514  1.00  0.00    -0.383 A  
HETATM   19  C   UNL     1     -11.998  15.458  69.170  1.00  0.00    -0.299 C  
HETATM   20  C   UNL     1     -10.752  13.431  68.646  1.00  0.00    -0.255 C  
HETATM   21  N   UNL     1     -10.382  12.094  68.669  1.00  0.00    -0.218 NA 
HETATM   22  O   UNL     1     -13.007  15.939  69.926  1.00  0.00    -0.081 OA 
HETATM   23  O   UNL     1     -11.388  16.160  68.376  1.00  0.00    -0.366 OA 
HETATM   24  C   UNL     1     -10.964  11.211  69.659  1.00  0.00    -0.192 A  
HETATM   25  C   UNL     1     -10.647   9.816  69.843  1.00  0.00    -0.265 A  
BRANCH  21  26
HETATM   26  C   UNL     1      -9.187  11.736  67.871  1.00  0.00    -0.181 C  
HETATM   27  C   UNL     1      -9.212  11.776  66.363  1.00  0.00    -0.223 C  
HETATM   28  C   UNL     1      -8.362  12.752  67.102  1.00  0.00    -0.164 C  
ENDBRANCH  21  26
BRANCH  25  29
HETATM   29  O   UNL     1      -9.943   9.204  68.823  1.00  0.00    -0.166 OA 
HETATM   30  C   UNL     1     -10.700   8.513  67.833  1.00  0.00    -0.082 C  
ENDBRANCH  25  29
ENDBRANCH   3  11
TORSDOF 3
ENDMDL
MODEL       40
REMARK 921   NORMALIZED FREE ENERGY PREDICTED BY IDOCK:   -5.90 KCAL/MOL
REMARK 922        TOTAL FREE ENERGY PREDICTED BY IDOCK:   -7.74 KCAL/MOL
REMARK 923 INTER-LIGAND FREE ENERGY PREDICTED BY IDOCK:   -7.39 KCAL/MOL
REMARK 924 INTRA-LIGAND FREE ENERGY PREDICTED BY IDOCK:   -0.36 KCAL/MOL
REMARK 927      BINDING AFFINITY PREDICTED BY RF-SCORE:    0.00 PKD
ROOT
HETATM    1  C   UNL     1     -10.150   9.005  66.593  1.00  0.00    -0.355 C  
HETATM    2  C   UNL     1     -10.795  10.383  66.837  1.00  0.00    -0.161 C  
HETATM    3  N   UNL     1      -9.902  11.348  66.156  1.00  0.00    -0.214 NA 
HETATM    4  C   UNL     1      -9.077   8.676  67.643  1.00  0.00    -0.145 C  
HETATM    5  C   UNL     1      -9.045  10.632  65.217  1.00  0.00    -0.195 C  
HETATM    6  C   UNL     1      -9.583   9.186  65.181  1.00  0.00     0.070 C  
HETATM    7  C   UNL     1      -8.056   7.658  67.139  1.00  0.00    -0.118 C  
HETATM    8  N   UNL     1      -8.622   8.152  64.786  1.00  0.00    -0.383 NA 
HETATM    9  H   UNL     1      -8.258   8.334  63.851  1.00  0.00     0.000 HD 
HETATM   10  C   UNL     1      -7.529   7.985  65.748  1.00  0.00    -0.081 C  
ENDROOT
BRANCH   3  11
HETATM   11  C   UNL     1     -10.068  12.726  66.183  1.00  0.00    -0.266 A  
HETATM   12  C   UNL     1     -10.482  14.781  64.876  1.00  0.00    -0.398 A  
HETATM   13  F   UNL     1     -10.376  12.746  63.800  1.00  0.00    -0.400 F  
HETATM   14  C   UNL     1     -10.334  13.408  64.967  1.00  0.00    -0.347 A  
HETATM   15  C   UNL     1     -10.585  17.023  65.851  1.00  0.00    -0.216 C  
HETATM   16  O   UNL     1     -10.682  17.537  64.738  1.00  0.00    -0.596 OA 
HETATM   17  C   UNL     1     -10.656  17.862  67.045  1.00  0.00    -0.287 C  
HETATM   18  C   UNL     1     -10.426  15.558  66.024  1.00  0.00    -0.335 A  
HETATM   19  C   UNL     1     -10.885  19.325  67.026  1.00  0.00    -0.414 C  
HETATM   20  C   UNL     1     -10.488  17.239  68.222  1.00  0.00    -0.385 C  
HETATM   21  N   UNL     1     -10.211  15.895  68.429  1.00  0.00    -0.222 NA 
HETATM   22  O   UNL     1     -10.987  19.856  65.790  1.00  0.00    -0.341 OA 
HETATM   23  O   UNL     1     -10.973  20.007  68.037  1.00  0.00    -0.091 OA 
HETATM   24  C   UNL     1     -10.206  14.988  67.300  1.00  0.00    -0.242 A  
HETATM   25  C   UNL     1      -9.986  13.563  67.359  1.00  0.00    -0.234 A  
BRANCH  21  26
HETATM   26  C   UNL     1     -10.240  15.434  69.836  1.00  0.00    -0.266 C  
HETATM   27  C   UNL     1     -11.136  16.091  70.857  1.00  0.00    -0.288 C  
HETATM   28  C   UNL     1     -11.412  14.686  70.445  1.00  0.00    -0.283 C  
ENDBRANCH  21  26
BRANCH  25  29
HETATM   29  O   UNL     1      -9.465  13.067  68.539  1.00  0.00    -0.190 OA 
HETATM   30  C   UNL     1      -8.050  12.905  68.608  1.00  0.00    -0.007 C  
ENDBRANCH  25  29
ENDBRANCH   3  11
TORSDOF 3
ENDMDL
MODEL       41
REMARK 921   NORMALIZED FREE ENERGY PREDICTED BY IDOCK:   -5.90 KCAL/MOL
REMARK 922        TOTAL FREE ENERGY PREDICTED BY IDOCK:   -7.74 KCAL/MOL
REMARK 923 INTER-LIGAND FREE ENERGY PREDICTED BY IDOCK:   -7.06 KCAL/MOL
REMARK 924 INTRA-LIGAND FREE ENERGY PREDICTED BY IDOCK:   -0.69 KCAL/MOL
REMARK 927      BINDING AFFINITY PREDICTED BY RF-SCORE:    0.00 PKD
ROOT
HETATM    1  C   UNL     1      -8.625   9.029  66.886  1.00  0.00    -0.128 C  
HETATM    2  C   UNL     1      -8.490  10.414  66.221  1.00  0.00    -0.144 C  
HETATM    3  N   UNL     1      -9.184  11.346  67.139  1.00  0.00    -0.164 NA 
HETATM    4  C   UNL     1      -9.944   8.336  66.513  1.00  0.00    -0.320 C  
HETATM    5  C   UNL     1      -9.346  10.710  68.442  1.00  0.00    -0.163 C  
HETATM    6  C   UNL     1      -8.531   9.400  68.370  1.00  0.00    -0.120 C  
HETATM    7  C   UNL     1     -10.373   7.295  67.545  1.00  0.00    -0.310 C  
HETATM    8  N   UNL     1      -8.953   8.331  69.280  1.00  0.00    -0.146 NA 
HETATM    9  H   UNL     1      -8.895   8.638  70.251  1.00  0.00     0.000 HD 
HETATM   10  C   UNL     1     -10.287   7.809  68.976  1.00  0.00    -0.211 C  
ENDROOT
BRANCH   3  11
HETATM   11  C   UNL     1      -9.367  12.700  66.891  1.00  0.00    -0.228 A  
HETATM   12  C   UNL     1     -10.626  14.418  65.638  1.00  0.00    -0.339 A  
HETATM   13  F   UNL     1     -11.122  12.188  65.331  1.00  0.00    -0.317 F  
HETATM   14  C   UNL     1     -10.381  13.099  65.982  1.00  0.00    -0.287 A  
HETATM   15  C   UNL     1     -10.202  16.821  65.815  1.00  0.00    -0.291 C  
HETATM   16  O   UNL     1     -11.012  17.061  64.921  1.00  0.00    -0.678 OA 
HETATM   17  C   UNL     1      -9.542  17.924  66.509  1.00  0.00    -0.318 C  
HETATM   18  C   UNL     1      -9.893  15.433  66.236  1.00  0.00    -0.320 A  
HETATM   19  C   UNL     1      -9.807  19.356  66.244  1.00  0.00    -0.403 C  
HETATM   20  C   UNL     1      -8.631  17.585  67.435  1.00  0.00    -0.220 C  
HETATM   21  N   UNL     1      -8.215  16.306  67.775  1.00  0.00    -0.148 NA 
HETATM   22  O   UNL     1     -10.700  19.584  65.259  1.00  0.00    -0.408 OA 
HETATM   23  O   UNL     1      -9.268  20.266  66.857  1.00  0.00    -0.358 OA 
HETATM   24  C   UNL     1      -8.881  15.161  67.188  1.00  0.00    -0.216 A  
HETATM   25  C   UNL     1      -8.600  13.776  67.477  1.00  0.00    -0.193 A  
BRANCH  21  26
HETATM   26  C   UNL     1      -7.318  16.204  68.949  1.00  0.00    -0.186 C  
HETATM   27  C   UNL     1      -5.824  16.368  68.809  1.00  0.00    -0.126 C  
HETATM   28  C   UNL     1      -6.601  17.396  69.557  1.00  0.00    -0.172 C  
ENDBRANCH  21  26
BRANCH  25  29
HETATM   29  O   UNL     1      -7.422  13.513  68.150  1.00  0.00    -0.106 OA 
HETATM   30  C   UNL     1      -6.274  13.213  67.360  1.00  0.00    -0.035 C  
ENDBRANCH  25  29
ENDBRANCH   3  11
TORSDOF 3
ENDMDL
MODEL       42
REMARK 921   NORMALIZED FREE ENERGY PREDICTED BY IDOCK:   -5.89 KCAL/MOL
REMARK 922        TOTAL FREE ENERGY PREDICTED BY IDOCK:   -7.74 KCAL/MOL
REMARK 923 INTER-LIGAND FREE ENERGY PREDICTED BY IDOCK:   -7.30 KCAL/MOL
REMARK 924 INTRA-LIGAND FREE ENERGY PREDICTED BY IDOCK:   -0.44 KCAL/MOL
REMARK 927      BINDING AFFINITY PREDICTED BY RF-SCORE:    0.00 PKD
ROOT
HETATM    1  C   UNL     1     -11.371  11.264  67.281  1.00  0.00    -0.329 C  
HETATM    2  C   UNL     1     -11.090  12.625  67.947  1.00  0.00    -0.247 C  
HETATM    3  N   UNL     1      -9.709  12.970  67.541  1.00  0.00    -0.202 NA 
HETATM    4  C   UNL     1     -10.878  10.088  68.138  1.00  0.00    -0.303 C  
HETATM    5  C   UNL     1      -9.324  12.152  66.396  1.00  0.00    -0.224 C  
HETATM    6  C   UNL     1     -10.608  11.415  65.960  1.00  0.00    -0.266 C  
HETATM    7  C   UNL     1     -10.609   8.832  67.313  1.00  0.00    -0.303 C  
HETATM    8  N   UNL     1     -10.411  10.155  65.237  1.00  0.00    -0.195 NA 
HETATM    9  H   UNL     1      -9.878  10.308  64.381  1.00  0.00     0.000 HD 
HETATM   10  C   UNL     1      -9.793   9.111  66.058  1.00  0.00    -0.272 C  
ENDROOT
BRANCH   3  11
HETATM   11  C   UNL     1      -9.020  14.093  67.979  1.00  0.00    -0.183 A  
HETATM   12  C   UNL     1      -7.160  14.970  69.350  1.00  0.00    -0.186 A  
HETATM   13  F   UNL     1      -7.530  12.697  69.247  1.00  0.00    -0.026 F  
HETATM   14  C   UNL     1      -7.896  13.919  68.829  1.00  0.00    -0.079 A  
HETATM   15  C   UNL     1      -6.652  17.350  69.601  1.00  0.00    -0.100 C  
HETATM   16  O   UNL     1      -5.778  17.108  70.431  1.00  0.00    -0.220 OA 
HETATM   17  C   UNL     1      -6.873  18.726  69.163  1.00  0.00    -0.299 C  
HETATM   18  C   UNL     1      -7.478  16.274  68.999  1.00  0.00    -0.220 A  
HETATM   19  C   UNL     1      -6.078  19.887  69.622  1.00  0.00    -0.331 C  
HETATM   20  C   UNL     1      -7.879  18.921  68.295  1.00  0.00    -0.308 C  
HETATM   21  N   UNL     1      -8.759  17.968  67.802  1.00  0.00    -0.248 NA 
HETATM   22  O   UNL     1      -5.129  19.587  70.532  1.00  0.00    -0.188 OA 
HETATM   23  O   UNL     1      -6.257  21.028  69.220  1.00  0.00    -0.101 OA 
HETATM   24  C   UNL     1      -8.552  16.572  68.128  1.00  0.00    -0.193 A  
HETATM   25  C   UNL     1      -9.346  15.464  67.655  1.00  0.00    -0.203 A  
BRANCH  21  26
HETATM   26  C   UNL     1      -9.673  18.420  66.728  1.00  0.00    -0.326 C  
HETATM   27  C   UNL     1     -10.727  19.467  66.986  1.00  0.00    -0.592 C  
HETATM   28  C   UNL     1      -9.588  19.791  66.082  1.00  0.00    -0.484 C  
ENDBRANCH  21  26
BRANCH  25  29
HETATM   29  O   UNL     1     -10.561  15.778  67.075  1.00  0.00    -0.309 OA 
HETATM   30  C   UNL     1     -10.676  15.595  65.666  1.00  0.00    -0.364 C  
ENDBRANCH  25  29
ENDBRANCH   3  11
TORSDOF 3
ENDMDL
MODEL       43
REMARK 921   NORMALIZED FREE ENERGY PREDICTED BY IDOCK:   -5.86 KCAL/MOL
REMARK 922        TOTAL FREE ENERGY PREDICTED BY IDOCK:   -7.70 KCAL/MOL
REMARK 923 INTER-LIGAND FREE ENERGY PREDICTED BY IDOCK:   -6.87 KCAL/MOL
REMARK 924 INTRA-LIGAND FREE ENERGY PREDICTED BY IDOCK:   -0.83 KCAL/MOL
REMARK 927      BINDING AFFINITY PREDICTED BY RF-SCORE:    0.00 PKD
ROOT
HETATM    1  C   UNL     1     -10.426   7.048  70.212  1.00  0.00    -0.227 C  
HETATM    2  C   UNL     1     -10.330   8.067  69.059  1.00  0.00    -0.218 C  
HETATM    3  N   UNL     1     -10.282   9.389  69.723  1.00  0.00    -0.206 NA 
HETATM    4  C   UNL     1     -11.877   6.820  70.661  1.00  0.00    -0.442 C  
HETATM    5  C   UNL     1      -9.936   9.212  71.129  1.00  0.00    -0.307 C  
HETATM    6  C   UNL     1      -9.558   7.723  71.280  1.00  0.00    -0.157 C  
HETATM    7  C   UNL     1     -11.974   6.309  72.097  1.00  0.00    -0.338 C  
HETATM    8  N   UNL     1      -9.713   7.154  72.622  1.00  0.00    -0.153 NA 
HETATM    9  H   UNL     1      -9.135   7.654  73.297  1.00  0.00     0.000 HD 
HETATM   10  C   UNL     1     -11.108   7.101  73.068  1.00  0.00    -0.283 C  
ENDROOT
BRANCH   3  11
HETATM   11  C   UNL     1     -10.265  10.605  69.051  1.00  0.00    -0.215 A  
HETATM   12  C   UNL     1     -11.592  12.371  67.944  1.00  0.00    -0.415 A  
HETATM   13  F   UNL     1     -12.660  10.548  68.864  1.00  0.00    -0.071 F  
HETATM   14  C   UNL     1     -11.497  11.182  68.648  1.00  0.00    -0.298 A  
HETATM   15  C   UNL     1     -10.617  14.349  66.884  1.00  0.00    -0.278 C  
HETATM   16  O   UNL     1     -11.717  14.704  66.464  1.00  0.00    -0.369 OA 
HETATM   17  C   UNL     1      -9.448  15.196  66.659  1.00  0.00    -0.285 C  
HETATM   18  C   UNL     1     -10.442  13.089  67.647  1.00  0.00    -0.228 A  
HETATM   19  C   UNL     1      -9.487  16.510  65.979  1.00  0.00    -0.282 C  
HETATM   20  C   UNL     1      -8.273  14.718  67.098  1.00  0.00    -0.211 C  
HETATM   21  N   UNL     1      -8.038  13.491  67.702  1.00  0.00    -0.166 NA 
HETATM   22  O   UNL     1     -10.707  16.870  65.531  1.00  0.00    -0.445 OA 
HETATM   23  O   UNL     1      -8.503  17.220  65.827  1.00  0.00    -0.532 OA 
HETATM   24  C   UNL     1      -9.158  12.634  68.032  1.00  0.00    -0.207 A  
HETATM   25  C   UNL     1      -9.082  11.359  68.703  1.00  0.00    -0.135 A  
BRANCH  21  26
HETATM   26  C   UNL     1      -6.675  13.283  68.243  1.00  0.00    -0.103 C  
HETATM   27  C   UNL     1      -5.504  13.012  67.331  1.00  0.00     0.030 C  
HETATM   28  C   UNL     1      -5.553  14.293  68.090  1.00  0.00    -0.124 C  
ENDBRANCH  21  26
BRANCH  25  29
HETATM   29  O   UNL     1      -7.830  10.781  68.789  1.00  0.00    -0.112 OA 
HETATM   30  C   UNL     1      -7.468   9.857  67.765  1.00  0.00    -0.090 C  
ENDBRANCH  25  29
ENDBRANCH   3  11
TORSDOF 3
ENDMDL
MODEL       44
REMARK 921   NORMALIZED FREE ENERGY PREDICTED BY IDOCK:   -5.81 KCAL/MOL
REMARK 922        TOTAL FREE ENERGY PREDICTED BY IDOCK:   -7.63 KCAL/MOL
REMARK 923 INTER-LIGAND FREE ENERGY PREDICTED BY IDOCK:   -6.92 KCAL/MOL
REMARK 924 INTRA-LIGAND FREE ENERGY PREDICTED BY IDOCK:   -0.72 KCAL/MOL
REMARK 927      BINDING AFFINITY PREDICTED BY RF-SCORE:    0.00 PKD
ROOT
HETATM    1  C   UNL     1     -10.859  16.668  67.036  1.00  0.00    -0.091 C  
HETATM    2  C   UNL     1     -11.293  15.189  66.985  1.00  0.00    -0.277 C  
HETATM    3  N   UNL     1     -10.618  14.554  68.139  1.00  0.00    -0.235 NA 
HETATM    4  C   UNL     1      -9.520  16.902  66.318  1.00  0.00    -0.298 C  
HETATM    5  C   UNL     1     -10.174  15.588  69.067  1.00  0.00    -0.229 C  
HETATM    6  C   UNL     1     -10.788  16.906  68.547  1.00  0.00    -0.335 C  
HETATM    7  C   UNL     1      -8.796  18.150  66.818  1.00  0.00    -0.273 C  
HETATM    8  N   UNL     1     -10.084  18.135  68.926  1.00  0.00    -0.380 NA 
HETATM    9  H   UNL     1     -10.043  18.232  69.940  1.00  0.00     0.000 HD 
HETATM   10  C   UNL     1      -8.746  18.237  68.338  1.00  0.00    -0.309 C  
ENDROOT
BRANCH   3  11
HETATM   11  C   UNL     1     -10.675  13.199  68.433  1.00  0.00    -0.253 A  
HETATM   12  C   UNL     1     -11.626  11.438  69.883  1.00  0.00    -0.402 A  
HETATM   13  F   UNL     1     -12.219  13.639  70.220  1.00  0.00    -0.352 F  
HETATM   14  C   UNL     1     -11.520  12.760  69.485  1.00  0.00    -0.225 A  
HETATM   15  C   UNL     1     -11.074   9.062  69.688  1.00  0.00    -0.067 C  
HETATM   16  O   UNL     1     -11.731   8.796  70.692  1.00  0.00    -0.260 OA 
HETATM   17  C   UNL     1     -10.447   7.986  68.925  1.00  0.00    -0.207 C  
HETATM   18  C   UNL     1     -10.920  10.456  69.203  1.00  0.00    -0.285 A  
HETATM   19  C   UNL     1     -10.576   6.547  69.249  1.00  0.00    -0.247 C  
HETATM   20  C   UNL     1      -9.701   8.357  67.872  1.00  0.00    -0.158 C  
HETATM   21  N   UNL     1      -9.424   9.650  67.454  1.00  0.00    -0.140 NA 
HETATM   22  O   UNL     1     -11.303   6.289  70.356  1.00  0.00    -0.345 OA 
HETATM   23  O   UNL     1     -10.071   5.657  68.581  1.00  0.00    -0.156 OA 
HETATM   24  C   UNL     1     -10.074  10.766  68.111  1.00  0.00    -0.164 A  
HETATM   25  C   UNL     1      -9.929  12.158  67.761  1.00  0.00    -0.198 A  
BRANCH  21  26
HETATM   26  C   UNL     1      -8.711   9.778  66.162  1.00  0.00    -0.136 C  
HETATM   27  C   UNL     1      -8.555   8.598  65.235  1.00  0.00    -0.206 C  
HETATM   28  C   UNL     1      -9.411   9.744  64.816  1.00  0.00    -0.318 C  
ENDBRANCH  21  26
BRANCH  25  29
HETATM   29  O   UNL     1      -8.878  12.477  66.922  1.00  0.00    -0.205 OA 
HETATM   30  C   UNL     1      -7.696  12.996  67.526  1.00  0.00    -0.168 C  
ENDBRANCH  25  29
ENDBRANCH   3  11
TORSDOF 3
ENDMDL
MODEL       45
REMARK 921   NORMALIZED FREE ENERGY PREDICTED BY IDOCK:   -5.79 KCAL/MOL
REMARK 922        TOTAL FREE ENERGY PREDICTED BY IDOCK:   -7.62 KCAL/MOL
REMARK 923 INTER-LIGAND FREE ENERGY PREDICTED BY IDOCK:   -6.84 KCAL/MOL
REMARK 924 INTRA-LIGAND FREE ENERGY PREDICTED BY IDOCK:   -0.77 KCAL/MOL
REMARK 927      BINDING AFFINITY PREDICTED BY RF-SCORE:    0.00 PKD
ROOT
HETATM    1  C   UNL     1      -8.341   6.077  71.592  1.00  0.00    -0.127 C  
HETATM    2  C   UNL     1      -8.354   7.465  70.921  1.00  0.00    -0.115 C  
HETATM    3  N   UNL     1      -9.726   7.617  70.387  1.00  0.00    -0.179 NA 
HETATM    4  C   UNL     1      -8.023   4.955  70.592  1.00  0.00    -0.078 C  
HETATM    5  C   UNL     1     -10.605   6.645  71.029  1.00  0.00    -0.226 C  
HETATM    6  C   UNL     1      -9.764   6.005  72.155  1.00  0.00    -0.154 C  
HETATM    7  C   UNL     1      -8.550   3.596  71.047  1.00  0.00    -0.109 C  
HETATM    8  N   UNL     1     -10.172   4.661  72.575  1.00  0.00    -0.180 NA 
HETATM    9  H   UNL     1     -11.133   4.664  72.917  1.00  0.00     0.000 HD 
HETATM   10  C   UNL     1      -9.994   3.651  71.529  1.00  0.00    -0.111 C  
ENDROOT
BRANCH   3  11
HETATM   11  C   UNL     1     -10.161   8.701  69.637  1.00  0.00    -0.208 A  
HETATM   12  C   UNL     1     -11.346  10.870  69.636  1.00  0.00    -0.362 A  
HETATM   13  F   UNL     1     -11.106   9.701  71.607  1.00  0.00    -0.422 F  
HETATM   14  C   UNL     1     -10.841   9.761  70.292  1.00  0.00    -0.301 A  
HETATM   15  C   UNL     1     -11.723  12.219  67.629  1.00  0.00    -0.334 C  
HETATM   16  O   UNL     1     -12.410  13.020  68.260  1.00  0.00    -0.097 OA 
HETATM   17  C   UNL     1     -11.432  12.467  66.220  1.00  0.00    -0.423 C  
HETATM   18  C   UNL     1     -11.148  11.010  68.269  1.00  0.00    -0.316 A  
HETATM   19  C   UNL     1     -11.878  13.664  65.472  1.00  0.00    -0.362 C  
HETATM   20  C   UNL     1     -10.722  11.522  65.583  1.00  0.00    -0.267 C  
HETATM   21  N   UNL     1     -10.271  10.317  66.103  1.00  0.00    -0.234 NA 
HETATM   22  O   UNL     1     -12.629  14.522  66.192  1.00  0.00    -0.286 OA 
HETATM   23  O   UNL     1     -11.598  13.870  64.300  1.00  0.00    -0.390 OA 
HETATM   24  C   UNL     1     -10.451  10.038  67.513  1.00  0.00    -0.254 A  
HETATM   25  C   UNL     1      -9.996   8.860  68.209  1.00  0.00    -0.175 A  
BRANCH  21  26
HETATM   26  C   UNL     1      -9.365   9.532  65.233  1.00  0.00    -0.253 C  
HETATM   27  C   UNL     1      -8.988  10.016  63.855  1.00  0.00    -0.271 C  
HETATM   28  C   UNL     1      -7.942   9.953  64.914  1.00  0.00    -0.138 C  
ENDBRANCH  21  26
BRANCH  25  29
HETATM   29  O   UNL     1      -9.607   7.791  67.424  1.00  0.00    -0.140 OA 
HETATM   30  C   UNL     1     -10.602   6.821  67.106  1.00  0.00    -0.331 C  
ENDBRANCH  25  29
ENDBRANCH   3  11
TORSDOF 3
ENDMDL
MODEL       46
REMARK 921   NORMALIZED FREE ENERGY PREDICTED BY IDOCK:   -5.77 KCAL/MOL
REMARK 922        TOTAL FREE ENERGY PREDICTED BY IDOCK:   -7.59 KCAL/MOL
REMARK 923 INTER-LIGAND FREE ENERGY PREDICTED BY IDOCK:   -6.78 KCAL/MOL
REMARK 924 INTRA-LIGAND FREE ENERGY PREDICTED BY IDOCK:   -0.81 KCAL/MOL
REMARK 927      BINDING AFFINITY PREDICTED BY RF-SCORE:    0.00 PKD
ROOT
HETATM    1  C   UNL     1      -8.452   6.773  65.798  1.00  0.00    -0.150 C  
HETATM    2  C   UNL     1      -9.683   7.482  66.397  1.00  0.00    -0.110 C  
HETATM    3  N   UNL     1      -9.126   8.483  67.335  1.00  0.00    -0.133 NA 
HETATM    4  C   UNL     1      -7.972   5.608  66.677  1.00  0.00    -0.101 C  
HETATM    5  C   UNL     1      -7.714   8.693  67.036  1.00  0.00    -0.095 C  
HETATM    6  C   UNL     1      -7.449   7.929  65.720  1.00  0.00    -0.078 C  
HETATM    7  C   UNL     1      -6.499   5.272  66.453  1.00  0.00    -0.044 C  
HETATM    8  N   UNL     1      -6.065   7.505  65.492  1.00  0.00    -0.038 NA 
HETATM    9  H   UNL     1      -5.437   8.309  65.474  1.00  0.00     0.000 HD 
HETATM   10  C   UNL     1      -5.603   6.504  66.456  1.00  0.00    -0.014 C  
ENDROOT
BRANCH   3  11
HETATM   11  C   UNL     1      -9.892   9.303  68.153  1.00  0.00    -0.162 A  
HETATM   12  C   UNL     1     -11.281   9.471  70.189  1.00  0.00    -0.275 A  
HETATM   13  F   UNL     1     -10.332   7.450  69.619  1.00  0.00    -0.199 F  
HETATM   14  C   UNL     1     -10.474   8.752  69.324  1.00  0.00    -0.219 A  
HETATM   15  C   UNL     1     -12.393  11.525  70.919  1.00  0.00    -0.359 C  
HETATM   16  O   UNL     1     -12.958  10.931  71.835  1.00  0.00    -0.458 OA 
HETATM   17  C   UNL     1     -12.561  12.970  70.780  1.00  0.00    -0.321 C  
HETATM   18  C   UNL     1     -11.512  10.819  69.956  1.00  0.00    -0.412 A  
HETATM   19  C   UNL     1     -13.349  13.812  71.708  1.00  0.00    -0.383 C  
HETATM   20  C   UNL     1     -11.958  13.541  69.726  1.00  0.00    -0.340 C  
HETATM   21  N   UNL     1     -11.230  12.907  68.729  1.00  0.00    -0.263 NA 
HETATM   22  O   UNL     1     -13.955  13.130  72.701  1.00  0.00    -0.708 OA 
HETATM   23  O   UNL     1     -13.453  15.025  71.594  1.00  0.00    -0.349 OA 
HETATM   24  C   UNL     1     -10.953  11.490  68.842  1.00  0.00    -0.229 A  
HETATM   25  C   UNL     1     -10.173  10.702  67.920  1.00  0.00    -0.177 A  
BRANCH  21  26
HETATM   26  C   UNL     1     -10.530  13.793  67.771  1.00  0.00    -0.240 C  
HETATM   27  C   UNL     1     -11.295  14.636  66.780  1.00  0.00    -0.360 C  
HETATM   28  C   UNL     1     -10.539  15.307  67.875  1.00  0.00    -0.260 C  
ENDBRANCH  21  26
BRANCH  25  29
HETATM   29  O   UNL     1      -9.903  11.277  66.692  1.00  0.00    -0.198 OA 
HETATM   30  C   UNL     1     -10.753  10.919  65.605  1.00  0.00    -0.108 C  
ENDBRANCH  25  29
ENDBRANCH   3  11
TORSDOF 3
ENDMDL
MODEL       47
REMARK 921   NORMALIZED FREE ENERGY PREDICTED BY IDOCK:   -5.75 KCAL/MOL
REMARK 922        TOTAL FREE ENERGY PREDICTED BY IDOCK:   -7.57 KCAL/MOL
REMARK 923 INTER-LIGAND FREE ENERGY PREDICTED BY IDOCK:   -6.85 KCAL/MOL
REMARK 924 INTRA-LIGAND FREE ENERGY PREDICTED BY IDOCK:   -0.72 KCAL/MOL
REMARK 927      BINDING AFFINITY PREDICTED BY RF-SCORE:    0.00 PKD
ROOT
HETATM    1  C   UNL     1      -8.297   4.334  72.007  1.00  0.00    -0.106 C  
HETATM    2  C   UNL     1      -8.249   5.794  71.514  1.00  0.00    -0.119 C  
HETATM    3  N   UNL     1      -9.667   6.197  71.380  1.00  0.00    -0.166 NA 
HETATM    4  C   UNL     1      -8.419   3.336  70.845  1.00  0.00    -0.100 C  
HETATM    5  C   UNL     1     -10.507   5.264  72.123  1.00  0.00    -0.220 C  
HETATM    6  C   UNL     1      -9.532   4.365  72.913  1.00  0.00    -0.130 C  
HETATM    7  C   UNL     1      -9.031   2.005  71.276  1.00  0.00    -0.134 C  
HETATM    8  N   UNL     1     -10.036   3.039  73.281  1.00  0.00    -0.114 NA 
HETATM    9  H   UNL     1     -10.871   3.116  73.862  1.00  0.00     0.000 HD 
HETATM   10  C   UNL     1     -10.285   2.176  72.124  1.00  0.00    -0.132 C  
ENDROOT
BRANCH   3  11
HETATM   11  C   UNL     1     -10.091   7.425  70.890  1.00  0.00    -0.188 A  
HETATM   12  C   UNL     1     -11.016   9.653  71.423  1.00  0.00    -0.354 A  
HETATM   13  F   UNL     1     -10.605   8.151  73.122  1.00  0.00    -0.396 F  
HETATM   14  C   UNL     1     -10.541   8.411  71.806  1.00  0.00    -0.282 A  
HETATM   15  C   UNL     1     -11.549  11.349  69.742  1.00  0.00    -0.332 C  
HETATM   16  O   UNL     1     -12.038  12.087  70.596  1.00  0.00    -0.373 OA 
HETATM   17  C   UNL     1     -11.453  11.808  68.358  1.00  0.00    -0.354 C  
HETATM   18  C   UNL     1     -11.018  10.006  70.081  1.00  0.00    -0.368 A  
HETATM   19  C   UNL     1     -11.874  13.147  67.890  1.00  0.00    -0.348 C  
HETATM   20  C   UNL     1     -10.957  10.929  67.472  1.00  0.00    -0.293 C  
HETATM   21  N   UNL     1     -10.567   9.620  67.717  1.00  0.00    -0.254 NA 
HETATM   22  O   UNL     1     -12.406  13.931  68.851  1.00  0.00    -0.301 OA 
HETATM   23  O   UNL     1     -11.758  13.525  66.734  1.00  0.00    -0.350 OA 
HETATM   24  C   UNL     1     -10.556   9.122  69.077  1.00  0.00    -0.199 A  
HETATM   25  C   UNL     1     -10.131   7.809  69.497  1.00  0.00    -0.194 A  
BRANCH  21  26
HETATM   26  C   UNL     1      -9.897   8.921  66.596  1.00  0.00    -0.262 C  
HETATM   27  C   UNL     1      -9.639   9.616  65.282  1.00  0.00    -0.347 C  
HETATM   28  C   UNL     1      -8.483   9.235  66.142  1.00  0.00    -0.135 C  
ENDBRANCH  21  26
BRANCH  25  29
HETATM   29  O   UNL     1      -9.988   6.860  68.502  1.00  0.00    -0.142 OA 
HETATM   30  C   UNL     1     -11.121   6.045  68.212  1.00  0.00    -0.160 C  
ENDBRANCH  25  29
ENDBRANCH   3  11
TORSDOF 3
ENDMDL
MODEL       48
REMARK 921   NORMALIZED FREE ENERGY PREDICTED BY IDOCK:   -5.73 KCAL/MOL
REMARK 922        TOTAL FREE ENERGY PREDICTED BY IDOCK:   -7.55 KCAL/MOL
REMARK 923 INTER-LIGAND FREE ENERGY PREDICTED BY IDOCK:   -7.06 KCAL/MOL
REMARK 924 INTRA-LIGAND FREE ENERGY PREDICTED BY IDOCK:   -0.49 KCAL/MOL
REMARK 927      BINDING AFFINITY PREDICTED BY RF-SCORE:    0.00 PKD
ROOT
HETATM    1  C   UNL     1     -11.596  13.253  68.147  1.00  0.00    -0.373 C  
HETATM    2  C   UNL     1     -11.889  11.862  68.745  1.00  0.00    -0.313 C  
HETATM    3  N   UNL     1     -10.684  11.057  68.446  1.00  0.00    -0.189 NA 
HETATM    4  C   UNL     1     -11.972  13.333  66.659  1.00  0.00    -0.446 C  
HETATM    5  C   UNL     1      -9.581  11.948  68.101  1.00  0.00    -0.195 C  
HETATM    6  C   UNL     1     -10.090  13.375  68.401  1.00  0.00    -0.244 C  
HETATM    7  C   UNL     1     -11.202  14.423  65.917  1.00  0.00    -0.324 C  
HETATM    8  N   UNL     1      -9.444  14.457  67.652  1.00  0.00    -0.210 NA 
HETATM    9  H   UNL     1      -8.442  14.478  67.837  1.00  0.00     0.000 HD 
HETATM   10  C   UNL     1      -9.708  14.399  66.212  1.00  0.00    -0.310 C  
ENDROOT
BRANCH   3  11
HETATM   11  C   UNL     1     -10.547   9.708  68.744  1.00  0.00    -0.216 A  
HETATM   12  C   UNL     1     -10.352   7.408  67.864  1.00  0.00    -0.258 A  
HETATM   13  F   UNL     1     -10.551   9.177  66.401  1.00  0.00    -0.302 F  
HETATM   14  C   UNL     1     -10.456   8.776  67.678  1.00  0.00    -0.244 A  
HETATM   15  C   UNL     1     -10.174   5.416  69.273  1.00  0.00    -0.245 C  
HETATM   16  O   UNL     1     -10.233   4.678  68.292  1.00  0.00    -0.057 OA 
HETATM   17  C   UNL     1      -9.967   4.841  70.600  1.00  0.00    -0.300 C  
HETATM   18  C   UNL     1     -10.276   6.891  69.149  1.00  0.00    -0.196 A  
HETATM   19  C   UNL     1      -9.776   3.397  70.865  1.00  0.00    -0.130 C  
HETATM   20  C   UNL     1      -9.967   5.703  71.630  1.00  0.00    -0.174 C  
HETATM   21  N   UNL     1     -10.185   7.072  71.579  1.00  0.00    -0.198 NA 
HETATM   22  O   UNL     1      -9.847   2.616  69.768  1.00  0.00     0.039 OA 
HETATM   23  O   UNL     1      -9.573   2.937  71.979  1.00  0.00    -0.120 OA 
HETATM   24  C   UNL     1     -10.316   7.724  70.292  1.00  0.00    -0.215 A  
HETATM   25  C   UNL     1     -10.494   9.139  70.072  1.00  0.00    -0.221 A  
BRANCH  21  26
HETATM   26  C   UNL     1      -9.964   7.814  72.841  1.00  0.00    -0.279 C  
HETATM   27  C   UNL     1      -9.421   7.125  74.069  1.00  0.00    -0.303 C  
HETATM   28  C   UNL     1      -8.585   8.150  73.381  1.00  0.00    -0.313 C  
ENDBRANCH  21  26
BRANCH  25  29
HETATM   29  O   UNL     1     -10.847   9.895  71.175  1.00  0.00    -0.309 OA 
HETATM   30  C   UNL     1     -12.222   9.897  71.549  1.00  0.00    -0.416 C  
ENDBRANCH  25  29
ENDBRANCH   3  11
TORSDOF 3
ENDMDL
MODEL       49
REMARK 921   NORMALIZED FREE ENERGY PREDICTED BY IDOCK:   -5.73 KCAL/MOL
REMARK 922        TOTAL FREE ENERGY PREDICTED BY IDOCK:   -7.55 KCAL/MOL
REMARK 923 INTER-LIGAND FREE ENERGY PREDICTED BY IDOCK:   -7.07 KCAL/MOL
REMARK 924 INTRA-LIGAND FREE ENERGY PREDICTED BY IDOCK:   -0.48 KCAL/MOL
REMARK 927      BINDING AFFINITY PREDICTED BY RF-SCORE:    0.00 PKD
ROOT
HETATM    1  C   UNL     1     -10.609  17.546  67.062  1.00  0.00    -0.245 C  
HETATM    2  C   UNL     1     -10.748  16.026  66.846  1.00  0.00    -0.262 C  
HETATM    3  N   UNL     1      -9.980  15.412  67.952  1.00  0.00    -0.221 NA 
HETATM    4  C   UNL     1      -9.331  18.107  66.420  1.00  0.00    -0.274 C  
HETATM    5  C   UNL     1      -9.759  16.407  68.996  1.00  0.00    -0.262 C  
HETATM    6  C   UNL     1     -10.608  17.631  68.592  1.00  0.00    -0.244 C  
HETATM    7  C   UNL     1      -8.870  19.409  67.069  1.00  0.00    -0.341 C  
HETATM    8  N   UNL     1     -10.161  18.924  69.118  1.00  0.00    -0.498 NA 
HETATM    9  H   UNL     1     -10.155  18.919  70.138  1.00  0.00     0.000 HD 
HETATM   10  C   UNL     1      -8.860  19.342  68.591  1.00  0.00    -0.374 C  
ENDROOT
BRANCH   3  11
HETATM   11  C   UNL     1      -9.778  14.047  68.105  1.00  0.00    -0.220 A  
HETATM   12  C   UNL     1      -8.242  12.139  67.783  1.00  0.00    -0.154 A  
HETATM   13  F   UNL     1      -7.584  14.254  67.146  1.00  0.00    -0.197 F  
HETATM   14  C   UNL     1      -8.535  13.490  67.707  1.00  0.00    -0.184 A  
HETATM   15  C   UNL     1      -8.794   9.827  68.365  1.00  0.00    -0.120 C  
HETATM   16  O   UNL     1      -7.742   9.420  67.877  1.00  0.00    -0.087 OA 
HETATM   17  C   UNL     1      -9.691   8.890  69.037  1.00  0.00    -0.171 C  
HETATM   18  C   UNL     1      -9.172  11.262  68.322  1.00  0.00    -0.176 A  
HETATM   19  C   UNL     1      -9.410   7.448  69.219  1.00  0.00    -0.154 C  
HETATM   20  C   UNL     1     -10.846   9.397  69.498  1.00  0.00    -0.213 C  
HETATM   21  N   UNL     1     -11.301  10.702  69.370  1.00  0.00    -0.263 NA 
HETATM   22  O   UNL     1      -8.249   7.034  68.671  1.00  0.00    -0.119 OA 
HETATM   23  O   UNL     1     -10.159   6.685  69.811  1.00  0.00    -0.177 OA 
HETATM   24  C   UNL     1     -10.432  11.705  68.789  1.00  0.00    -0.204 A  
HETATM   25  C   UNL     1     -10.739  13.106  68.635  1.00  0.00    -0.250 A  
BRANCH  21  26
HETATM   26  C   UNL     1     -12.534  11.037  70.118  1.00  0.00    -0.269 C  
HETATM   27  C   UNL     1     -13.253  10.001  70.947  1.00  0.00    -0.336 C  
HETATM   28  C   UNL     1     -12.589  11.146  71.631  1.00  0.00    -0.386 C  
ENDBRANCH  21  26
BRANCH  25  29
HETATM   29  O   UNL     1     -12.063  13.469  68.794  1.00  0.00    -0.344 OA 
HETATM   30  C   UNL     1     -12.376  14.322  69.892  1.00  0.00    -0.324 C  
ENDBRANCH  25  29
ENDBRANCH   3  11
TORSDOF 3
ENDMDL
MODEL       50
REMARK 921   NORMALIZED FREE ENERGY PREDICTED BY IDOCK:   -5.70 KCAL/MOL
REMARK 922        TOTAL FREE ENERGY PREDICTED BY IDOCK:   -7.51 KCAL/MOL
REMARK 923 INTER-LIGAND FREE ENERGY PREDICTED BY IDOCK:   -6.93 KCAL/MOL
REMARK 924 INTRA-LIGAND FREE ENERGY PREDICTED BY IDOCK:   -0.58 KCAL/MOL
REMARK 927      BINDING AFFINITY PREDICTED BY RF-SCORE:    0.00 PKD
ROOT
HETATM    1  C   UNL     1      -9.825  18.659  68.574  1.00  0.00    -0.427 C  
HETATM    2  C   UNL     1     -10.012  17.147  68.810  1.00  0.00    -0.315 C  
HETATM    3  N   UNL     1      -9.072  16.495  67.871  1.00  0.00    -0.204 NA 
HETATM    4  C   UNL     1     -10.698  19.176  67.420  1.00  0.00    -0.578 C  
HETATM    5  C   UNL     1      -8.088  17.473  67.417  1.00  0.00    -0.202 C  
HETATM    6  C   UNL     1      -8.323  18.731  68.280  1.00  0.00    -0.330 C  
HETATM    7  C   UNL     1     -10.147  20.455  66.794  1.00  0.00    -0.478 C  
HETATM    8  N   UNL     1      -7.891  20.002  67.692  1.00  0.00    -0.299 NA 
HETATM    9  H   UNL     1      -6.891  19.988  67.493  1.00  0.00     0.000 HD 
HETATM   10  C   UNL     1      -8.655  20.375  66.499  1.00  0.00    -0.104 C  
ENDROOT
BRANCH   3  11
HETATM   11  C   UNL     1      -8.962  15.123  67.696  1.00  0.00    -0.180 A  
HETATM   12  C   UNL     1      -8.145  12.982  68.621  1.00  0.00    -0.011 A  
HETATM   13  F   UNL     1      -7.816  14.935  69.800  1.00  0.00    -0.185 F  
HETATM   14  C   UNL     1      -8.337  14.350  68.710  1.00  0.00    -0.126 A  
HETATM   15  C   UNL     1      -8.375  10.827  67.487  1.00  0.00    -0.115 C  
HETATM   16  O   UNL     1      -7.709  10.264  68.353  1.00  0.00    -0.089 OA 
HETATM   17  C   UNL     1      -8.969  10.042  66.407  1.00  0.00    -0.164 C  
HETATM   18  C   UNL     1      -8.623  12.289  67.519  1.00  0.00    -0.174 A  
HETATM   19  C   UNL     1      -8.866   8.570  66.288  1.00  0.00    -0.156 C  
HETATM   20  C   UNL     1      -9.637  10.731  65.468  1.00  0.00    -0.222 C  
HETATM   21  N   UNL     1      -9.789  12.108  65.385  1.00  0.00    -0.239 NA 
HETATM   22  O   UNL     1      -8.128   7.985  67.254  1.00  0.00    -0.118 OA 
HETATM   23  O   UNL     1      -9.396   7.927  65.395  1.00  0.00     0.171 OA 
HETATM   24  C   UNL     1      -9.298  12.944  66.461  1.00  0.00    -0.222 A  
HETATM   25  C   UNL     1      -9.424  14.379  66.546  1.00  0.00    -0.289 A  
BRANCH  21  26
HETATM   26  C   UNL     1     -10.717  12.598  64.340  1.00  0.00    -0.359 C  
HETATM   27  C   UNL     1     -11.562  11.644  63.533  1.00  0.00    -0.408 C  
HETATM   28  C   UNL     1     -12.228  12.575  64.488  1.00  0.00    -0.528 C  
ENDBRANCH  21  26
BRANCH  25  29
HETATM   29  O   UNL     1      -9.791  15.035  65.386  1.00  0.00    -0.339 OA 
HETATM   30  C   UNL     1     -10.919  15.903  65.458  1.00  0.00    -0.241 C  
ENDBRANCH  25  29
ENDBRANCH   3  11
TORSDOF 3
ENDMDL
MODEL       51
REMARK 921   NORMALIZED FREE ENERGY PREDICTED BY IDOCK:   -5.70 KCAL/MOL
REMARK 922        TOTAL FREE ENERGY PREDICTED BY IDOCK:   -7.51 KCAL/MOL
REMARK 923 INTER-LIGAND FREE ENERGY PREDICTED BY IDOCK:   -6.72 KCAL/MOL
REMARK 924 INTRA-LIGAND FREE ENERGY PREDICTED BY IDOCK:   -0.79 KCAL/MOL
REMARK 927      BINDING AFFINITY PREDICTED BY RF-SCORE:    0.00 PKD
ROOT
HETATM    1  C   UNL     1      -9.906  18.296  66.333  1.00  0.00    -0.358 C  
HETATM    2  C   UNL     1     -10.051  16.835  65.861  1.00  0.00    -0.304 C  
HETATM    3  N   UNL     1      -9.959  16.025  67.096  1.00  0.00    -0.244 NA 
HETATM    4  C   UNL     1      -8.434  18.723  66.443  1.00  0.00    -0.296 C  
HETATM    5  C   UNL     1     -10.179  16.884  68.255  1.00  0.00    -0.318 C  
HETATM    6  C   UNL     1     -10.627  18.246  67.684  1.00  0.00    -0.405 C  
HETATM    7  C   UNL     1      -8.231  19.885  67.412  1.00  0.00    -0.356 C  
HETATM    8  N   UNL     1     -10.378  19.413  68.537  1.00  0.00    -0.494 NA 
HETATM    9  H   UNL     1     -10.860  19.318  69.431  1.00  0.00     0.000 HD 
HETATM   10  C   UNL     1      -8.953  19.685  68.738  1.00  0.00    -0.255 C  
ENDROOT
BRANCH   3  11
HETATM   11  C   UNL     1      -9.969  14.637  67.128  1.00  0.00    -0.240 A  
HETATM   12  C   UNL     1     -11.341  12.582  67.168  1.00  0.00    -0.381 A  
HETATM   13  F   UNL     1     -12.372  14.642  67.105  1.00  0.00    -0.392 F  
HETATM   14  C   UNL     1     -11.216  13.960  67.106  1.00  0.00    -0.313 A  
HETATM   15  C   UNL     1     -10.412  10.321  67.275  1.00  0.00    -0.253 C  
HETATM   16  O   UNL     1     -11.534   9.832  67.382  1.00  0.00     0.081 OA 
HETATM   17  C   UNL     1      -9.245   9.446  67.186  1.00  0.00    -0.159 C  
HETATM   18  C   UNL     1     -10.203  11.788  67.201  1.00  0.00    -0.236 A  
HETATM   19  C   UNL     1      -9.309   7.967  67.173  1.00  0.00    -0.149 C  
HETATM   20  C   UNL     1      -8.049  10.052  67.125  1.00  0.00    -0.117 C  
HETATM   21  N   UNL     1      -7.794  11.415  67.180  1.00  0.00    -0.148 NA 
HETATM   22  O   UNL     1     -10.554   7.463  67.293  1.00  0.00    -0.278 OA 
HETATM   23  O   UNL     1      -8.324   7.251  67.067  1.00  0.00    -0.115 OA 
HETATM   24  C   UNL     1      -8.903  12.347  67.187  1.00  0.00    -0.197 A  
HETATM   25  C   UNL     1      -8.802  13.786  67.192  1.00  0.00    -0.231 A  
BRANCH  21  26
HETATM   26  C   UNL     1      -6.395  11.826  66.922  1.00  0.00    -0.131 C  
HETATM   27  C   UNL     1      -5.233  10.973  67.369  1.00  0.00    -0.040 C  
HETATM   28  C   UNL     1      -5.496  11.138  65.911  1.00  0.00    -0.096 C  
ENDBRANCH  21  26
BRANCH  25  29
HETATM   29  O   UNL     1      -7.562  14.316  67.495  1.00  0.00    -0.163 OA 
HETATM   30  C   UNL     1      -7.288  14.587  68.868  1.00  0.00    -0.128 C  
ENDBRANCH  25  29
ENDBRANCH   3  11
TORSDOF 3
ENDMDL
MODEL       52
REMARK 921   NORMALIZED FREE ENERGY PREDICTED BY IDOCK:   -5.68 KCAL/MOL
REMARK 922        TOTAL FREE ENERGY PREDICTED BY IDOCK:   -7.48 KCAL/MOL
REMARK 923 INTER-LIGAND FREE ENERGY PREDICTED BY IDOCK:   -7.03 KCAL/MOL
REMARK 924 INTRA-LIGAND FREE ENERGY PREDICTED BY IDOCK:   -0.46 KCAL/MOL
REMARK 927      BINDING AFFINITY PREDICTED BY RF-SCORE:    0.00 PKD
ROOT
HETATM    1  C   UNL     1      -9.863  13.480  65.548  1.00  0.00    -0.165 C  
HETATM    2  C   UNL     1      -9.327  12.653  66.733  1.00  0.00    -0.232 C  
HETATM    3  N   UNL     1     -10.106  11.394  66.702  1.00  0.00    -0.207 NA 
HETATM    4  C   UNL     1     -11.106  14.298  65.929  1.00  0.00    -0.310 C  
HETATM    5  C   UNL     1     -10.738  11.250  65.395  1.00  0.00    -0.227 C  
HETATM    6  C   UNL     1     -10.151  12.380  64.521  1.00  0.00    -0.250 C  
HETATM    7  C   UNL     1     -11.973  14.648  64.721  1.00  0.00    -0.439 C  
HETATM    8  N   UNL     1     -10.979  12.817  63.394  1.00  0.00    -0.586 NA 
HETATM    9  H   UNL     1     -11.161  12.042  62.756  1.00  0.00     0.000 HD 
HETATM   10  C   UNL     1     -12.231  13.454  63.812  1.00  0.00    -0.417 C  
ENDROOT
BRANCH   3  11
HETATM   11  C   UNL     1      -9.998  10.380  67.644  1.00  0.00    -0.174 A  
HETATM   12  C   UNL     1      -8.782   8.355  68.368  1.00  0.00    -0.136 A  
HETATM   13  F   UNL     1      -8.120   9.463  66.459  1.00  0.00    -0.107 F  
HETATM   14  C   UNL     1      -8.959   9.424  67.506  1.00  0.00    -0.121 A  
HETATM   15  C   UNL     1      -9.376   7.038  70.343  1.00  0.00    -0.159 C  
HETATM   16  O   UNL     1      -8.529   6.189  70.069  1.00  0.00    -0.125 OA 
HETATM   17  C   UNL     1     -10.150   6.918  71.575  1.00  0.00    -0.195 C  
HETATM   18  C   UNL     1      -9.617   8.211  69.466  1.00  0.00    -0.168 A  
HETATM   19  C   UNL     1      -9.966   5.843  72.577  1.00  0.00    -0.177 C  
HETATM   20  C   UNL     1     -11.093   7.851  71.781  1.00  0.00    -0.253 C  
HETATM   21  N   UNL     1     -11.442   8.892  70.932  1.00  0.00    -0.282 NA 
HETATM   22  O   UNL     1      -9.031   4.929  72.247  1.00  0.00    -0.128 OA 
HETATM   23  O   UNL     1     -10.602   5.776  73.618  1.00  0.00    -0.248 OA 
HETATM   24  C   UNL     1     -10.666   9.123  69.732  1.00  0.00    -0.228 A  
HETATM   25  C   UNL     1     -10.871  10.188  68.781  1.00  0.00    -0.225 A  
BRANCH  21  26
HETATM   26  C   UNL     1     -12.402   9.880  71.476  1.00  0.00    -0.412 C  
HETATM   27  C   UNL     1     -13.888   9.727  71.263  1.00  0.00    -0.101 C  
HETATM   28  C   UNL     1     -13.333   9.587  72.639  1.00  0.00    -0.240 C  
ENDBRANCH  21  26
BRANCH  25  29
HETATM   29  O   UNL     1     -12.069  10.873  68.870  1.00  0.00    -0.463 OA 
HETATM   30  C   UNL     1     -12.003  12.262  69.182  1.00  0.00    -0.249 C  
ENDBRANCH  25  29
ENDBRANCH   3  11
TORSDOF 3
ENDMDL
MODEL       53
REMARK 921   NORMALIZED FREE ENERGY PREDICTED BY IDOCK:   -5.63 KCAL/MOL
REMARK 922        TOTAL FREE ENERGY PREDICTED BY IDOCK:   -7.43 KCAL/MOL
REMARK 923 INTER-LIGAND FREE ENERGY PREDICTED BY IDOCK:   -6.76 KCAL/MOL
REMARK 924 INTRA-LIGAND FREE ENERGY PREDICTED BY IDOCK:   -0.67 KCAL/MOL
REMARK 927      BINDING AFFINITY PREDICTED BY RF-SCORE:    0.00 PKD
ROOT
HETATM    1  C   UNL     1      -8.907   7.408  68.301  1.00  0.00    -0.128 C  
HETATM    2  C   UNL     1      -8.313   8.698  67.699  1.00  0.00    -0.121 C  
HETATM    3  N   UNL     1      -8.911   9.797  68.489  1.00  0.00    -0.123 NA 
HETATM    4  C   UNL     1     -10.265   7.052  67.677  1.00  0.00    -0.245 C  
HETATM    5  C   UNL     1      -9.463   9.257  69.727  1.00  0.00    -0.191 C  
HETATM    6  C   UNL     1      -8.999   7.786  69.783  1.00  0.00    -0.146 C  
HETATM    7  C   UNL     1     -11.120   6.178  68.592  1.00  0.00    -0.378 C  
HETATM    8  N   UNL     1      -9.832   6.880  70.579  1.00  0.00    -0.179 NA 
HETATM    9  H   UNL     1      -9.880   7.190  71.549  1.00  0.00     0.000 HD 
HETATM   10  C   UNL     1     -11.175   6.694  70.024  1.00  0.00    -0.369 C  
ENDROOT
BRANCH   3  11
HETATM   11  C   UNL     1      -8.705  11.147  68.238  1.00  0.00    -0.151 A  
HETATM   12  C   UNL     1      -7.308  13.138  68.671  1.00  0.00    -0.102 A  
HETATM   13  F   UNL     1      -6.765  11.127  69.655  1.00  0.00    -0.092 F  
HETATM   14  C   UNL     1      -7.587  11.791  68.827  1.00  0.00    -0.104 A  
HETATM   15  C   UNL     1      -7.764  15.355  67.741  1.00  0.00    -0.145 C  
HETATM   16  O   UNL     1      -6.849  15.852  68.394  1.00  0.00    -0.112 OA 
HETATM   17  C   UNL     1      -8.513  16.183  66.798  1.00  0.00    -0.289 C  
HETATM   18  C   UNL     1      -8.117  13.919  67.856  1.00  0.00    -0.158 A  
HETATM   19  C   UNL     1      -8.225  17.609  66.527  1.00  0.00    -0.273 C  
HETATM   20  C   UNL     1      -9.532  15.586  66.160  1.00  0.00    -0.341 C  
HETATM   21  N   UNL     1      -9.981  14.284  66.328  1.00  0.00    -0.295 NA 
HETATM   22  O   UNL     1      -7.216  18.123  67.260  1.00  0.00    -0.195 OA 
HETATM   23  O   UNL     1      -8.843  18.279  65.711  1.00  0.00    -0.443 OA 
HETATM   24  C   UNL     1      -9.239  13.380  67.183  1.00  0.00    -0.240 A  
HETATM   25  C   UNL     1      -9.547  11.990  67.419  1.00  0.00    -0.176 A  
BRANCH  21  26
HETATM   26  C   UNL     1     -11.019  13.825  65.376  1.00  0.00    -0.309 C  
HETATM   27  C   UNL     1     -12.485  14.060  65.645  1.00  0.00    -0.531 C  
HETATM   28  C   UNL     1     -11.831  14.770  64.509  1.00  0.00    -0.428 C  
ENDBRANCH  21  26
BRANCH  25  29
HETATM   29  O   UNL     1     -10.799  11.560  67.023  1.00  0.00    -0.244 OA 
HETATM   30  C   UNL     1     -11.784  11.401  68.040  1.00  0.00    -0.254 C  
ENDBRANCH  25  29
ENDBRANCH   3  11
TORSDOF 3
ENDMDL
MODEL       54
REMARK 921   NORMALIZED FREE ENERGY PREDICTED BY IDOCK:   -5.62 KCAL/MOL
REMARK 922        TOTAL FREE ENERGY PREDICTED BY IDOCK:   -7.42 KCAL/MOL
REMARK 923 INTER-LIGAND FREE ENERGY PREDICTED BY IDOCK:   -6.78 KCAL/MOL
REMARK 924 INTRA-LIGAND FREE ENERGY PREDICTED BY IDOCK:   -0.64 KCAL/MOL
REMARK 927      BINDING AFFINITY PREDICTED BY RF-SCORE:    0.00 PKD
ROOT
HETATM    1  C   UNL     1      -9.594  13.498  66.730  1.00  0.00    -0.268 C  
HETATM    2  C   UNL     1      -9.056  12.185  67.335  1.00  0.00    -0.181 C  
HETATM    3  N   UNL     1     -10.089  11.171  67.023  1.00  0.00    -0.195 NA 
HETATM    4  C   UNL     1     -10.538  14.234  67.694  1.00  0.00    -0.253 C  
HETATM    5  C   UNL     1     -10.956  11.676  65.964  1.00  0.00    -0.286 C  
HETATM    6  C   UNL     1     -10.295  12.980  65.470  1.00  0.00    -0.294 C  
HETATM    7  C   UNL     1     -11.503  15.170  66.970  1.00  0.00    -0.230 C  
HETATM    8  N   UNL     1     -11.190  13.956  64.841  1.00  0.00    -0.340 NA 
HETATM    9  H   UNL     1     -11.649  13.554  64.024  1.00  0.00     0.000 HD 
HETATM   10  C   UNL     1     -12.175  14.515  65.770  1.00  0.00    -0.261 C  
ENDROOT
BRANCH   3  11
HETATM   11  C   UNL     1     -10.045   9.850  67.447  1.00  0.00    -0.205 A  
HETATM   12  C   UNL     1      -9.734   7.484  66.807  1.00  0.00    -0.283 A  
HETATM   13  F   UNL     1      -9.595   9.130  65.199  1.00  0.00    -0.302 F  
HETATM   14  C   UNL     1      -9.767   8.834  66.498  1.00  0.00    -0.259 A  
HETATM   15  C   UNL     1      -9.887   5.613  68.375  1.00  0.00    -0.139 C  
HETATM   16  O   UNL     1      -9.767   4.798  67.462  1.00  0.00    -0.156 OA 
HETATM   17  C   UNL     1      -9.962   5.146  69.757  1.00  0.00    -0.313 C  
HETATM   18  C   UNL     1      -9.928   7.073  68.118  1.00  0.00    -0.169 A  
HETATM   19  C   UNL     1      -9.862   3.727  70.167  1.00  0.00    -0.047 C  
HETATM   20  C   UNL     1     -10.147   6.089  70.695  1.00  0.00    -0.194 C  
HETATM   21  N   UNL     1     -10.318   7.451  70.494  1.00  0.00    -0.212 NA 
HETATM   22  O   UNL     1      -9.731   2.860  69.143  1.00  0.00    -0.059 OA 
HETATM   23  O   UNL     1      -9.896   3.358  71.332  1.00  0.00    -0.174 OA 
HETATM   24  C   UNL     1     -10.175   7.997  69.160  1.00  0.00    -0.217 A  
HETATM   25  C   UNL     1     -10.272   9.391  68.799  1.00  0.00    -0.203 A  
BRANCH  21  26
HETATM   26  C   UNL     1     -10.335   8.292  71.714  1.00  0.00    -0.254 C  
HETATM   27  C   UNL     1     -11.517   8.285  72.652  1.00  0.00    -0.423 C  
HETATM   28  C   UNL     1     -10.215   7.727  73.118  1.00  0.00    -0.398 C  
ENDBRANCH  21  26
BRANCH  25  29
HETATM   29  O   UNL     1     -10.820  10.237  69.746  1.00  0.00    -0.247 OA 
HETATM   30  C   UNL     1     -12.157  10.678  69.528  1.00  0.00    -0.214 C  
ENDBRANCH  25  29
ENDBRANCH   3  11
TORSDOF 3
ENDMDL
MODEL       55
REMARK 921   NORMALIZED FREE ENERGY PREDICTED BY IDOCK:   -5.62 KCAL/MOL
REMARK 922        TOTAL FREE ENERGY PREDICTED BY IDOCK:   -7.41 KCAL/MOL
REMARK 923 INTER-LIGAND FREE ENERGY PREDICTED BY IDOCK:   -6.70 KCAL/MOL
REMARK 924 INTRA-LIGAND FREE ENERGY PREDICTED BY IDOCK:   -0.72 KCAL/MOL
REMARK 927      BINDING AFFINITY PREDICTED BY RF-SCORE:    0.00 PKD
ROOT
HETATM    1  C   UNL     1     -11.827  14.493  66.482  1.00  0.00    -0.367 C  
HETATM    2  C   UNL     1     -12.032  12.989  66.757  1.00  0.00    -0.369 C  
HETATM    3  N   UNL     1     -11.083  12.668  67.846  1.00  0.00    -0.234 NA 
HETATM    4  C   UNL     1     -10.681  14.748  65.491  1.00  0.00    -0.369 C  
HETATM    5  C   UNL     1     -10.652  13.904  68.491  1.00  0.00    -0.252 C  
HETATM    6  C   UNL     1     -11.539  15.017  67.893  1.00  0.00    -0.333 C  
HETATM    7  C   UNL     1     -10.083  16.146  65.633  1.00  0.00    -0.366 C  
HETATM    8  N   UNL     1     -10.979  16.371  67.924  1.00  0.00    -0.328 NA 
HETATM    9  H   UNL     1     -10.783  16.660  68.882  1.00  0.00     0.000 HD 
HETATM   10  C   UNL     1      -9.791  16.522  67.080  1.00  0.00    -0.255 C  
ENDROOT
BRANCH   3  11
HETATM   11  C   UNL     1     -10.881  11.395  68.361  1.00  0.00    -0.207 A  
HETATM   12  C   UNL     1     -11.315   9.827  70.221  1.00  0.00    -0.333 A  
HETATM   13  F   UNL     1     -12.190  11.958  70.296  1.00  0.00    -0.353 F  
HETATM   14  C   UNL     1     -11.479  11.055  69.602  1.00  0.00    -0.303 A  
HETATM   15  C   UNL     1     -10.431   7.548  70.321  1.00  0.00    -0.222 C  
HETATM   16  O   UNL     1     -10.880   7.390  71.454  1.00  0.00    -0.228 OA 
HETATM   17  C   UNL     1      -9.765   6.437  69.645  1.00  0.00    -0.170 C  
HETATM   18  C   UNL     1     -10.573   8.835  69.596  1.00  0.00    -0.220 A  
HETATM   19  C   UNL     1      -9.616   5.079  70.215  1.00  0.00    -0.187 C  
HETATM   20  C   UNL     1      -9.254   6.699  68.431  1.00  0.00    -0.122 C  
HETATM   21  N   UNL     1      -9.249   7.917  67.767  1.00  0.00    -0.137 NA 
HETATM   22  O   UNL     1     -10.119   4.940  71.459  1.00  0.00    -0.185 OA 
HETATM   23  O   UNL     1      -9.083   4.153  69.622  1.00  0.00    -0.096 OA 
HETATM   24  C   UNL     1      -9.960   9.042  68.338  1.00  0.00    -0.180 A  
HETATM   25  C   UNL     1     -10.090  10.352  67.747  1.00  0.00    -0.181 A  
BRANCH  21  26
HETATM   26  C   UNL     1      -8.767   7.893  66.367  1.00  0.00    -0.153 C  
HETATM   27  C   UNL     1      -7.357   7.472  66.031  1.00  0.00    -0.081 C  
HETATM   28  C   UNL     1      -8.495   6.611  65.600  1.00  0.00    -0.147 C  
ENDBRANCH  21  26
BRANCH  25  29
HETATM   29  O   UNL     1      -9.241  10.641  66.696  1.00  0.00    -0.160 OA 
HETATM   30  C   UNL     1      -8.062  11.383  66.997  1.00  0.00    -0.157 C  
ENDBRANCH  25  29
ENDBRANCH   3  11
TORSDOF 3
ENDMDL
MODEL       56
REMARK 921   NORMALIZED FREE ENERGY PREDICTED BY IDOCK:   -5.62 KCAL/MOL
REMARK 922        TOTAL FREE ENERGY PREDICTED BY IDOCK:   -7.41 KCAL/MOL
REMARK 923 INTER-LIGAND FREE ENERGY PREDICTED BY IDOCK:   -7.00 KCAL/MOL
REMARK 924 INTRA-LIGAND FREE ENERGY PREDICTED BY IDOCK:   -0.41 KCAL/MOL
REMARK 927      BINDING AFFINITY PREDICTED BY RF-SCORE:    0.00 PKD
ROOT
HETATM    1  C   UNL     1      -9.287   7.670  69.179  1.00  0.00    -0.147 C  
HETATM    2  C   UNL     1      -9.020   9.183  69.303  1.00  0.00    -0.145 C  
HETATM    3  N   UNL     1      -9.853   9.804  68.250  1.00  0.00    -0.145 NA 
HETATM    4  C   UNL     1      -8.376   7.005  68.136  1.00  0.00    -0.123 C  
HETATM    5  C   UNL     1     -10.866   8.851  67.809  1.00  0.00    -0.036 C  
HETATM    6  C   UNL     1     -10.768   7.660  68.787  1.00  0.00    -0.077 C  
HETATM    7  C   UNL     1      -8.965   5.712  67.579  1.00  0.00    -0.107 C  
HETATM    8  N   UNL     1     -11.242   6.370  68.276  1.00  0.00    -0.518 NA 
HETATM    9  H   UNL     1     -12.224   6.425  68.006  1.00  0.00     0.000 HD 
HETATM   10  C   UNL     1     -10.427   5.852  67.174  1.00  0.00    -0.272 C  
ENDROOT
BRANCH   3  11
HETATM   11  C   UNL     1      -9.864  11.161  67.956  1.00  0.00    -0.174 A  
HETATM   12  C   UNL     1      -9.059  12.957  66.461  1.00  0.00    -0.138 A  
HETATM   13  F   UNL     1      -8.420  10.777  66.074  1.00  0.00    -0.147 F  
HETATM   14  C   UNL     1      -9.143  11.623  66.824  1.00  0.00    -0.186 A  
HETATM   15  C   UNL     1      -9.607  15.324  66.751  1.00  0.00    -0.241 C  
HETATM   16  O   UNL     1      -8.854  15.643  65.834  1.00  0.00    -0.279 OA 
HETATM   17  C   UNL     1     -10.413  16.345  67.415  1.00  0.00    -0.309 C  
HETATM   18  C   UNL     1      -9.749  13.914  67.192  1.00  0.00    -0.244 A  
HETATM   19  C   UNL     1     -10.429  17.776  67.034  1.00  0.00    -0.322 C  
HETATM   20  C   UNL     1     -11.171  15.932  68.443  1.00  0.00    -0.368 C  
HETATM   21  N   UNL     1     -11.242  14.651  68.972  1.00  0.00    -0.255 NA 
HETATM   22  O   UNL     1      -9.591  18.092  66.024  1.00  0.00    -0.496 OA 
HETATM   23  O   UNL     1     -11.134  18.612  67.580  1.00  0.00    -0.303 OA 
HETATM   24  C   UNL     1     -10.534  13.570  68.318  1.00  0.00    -0.253 A  
HETATM   25  C   UNL     1     -10.549  12.184  68.715  1.00  0.00    -0.201 A  
BRANCH  21  26
HETATM   26  C   UNL     1     -12.285  14.428  69.999  1.00  0.00    -0.351 C  
HETATM   27  C   UNL     1     -12.038  14.758  71.451  1.00  0.00    -0.401 C  
HETATM   28  C   UNL     1     -13.036  15.556  70.685  1.00  0.00    -0.425 C  
ENDBRANCH  21  26
BRANCH  25  29
HETATM   29  O   UNL     1     -11.046  11.908  69.975  1.00  0.00     0.007 OA 
HETATM   30  C   UNL     1     -12.196  11.069  70.051  1.00  0.00    -0.343 C  
ENDBRANCH  25  29
ENDBRANCH   3  11
TORSDOF 3
ENDMDL
MODEL       57
REMARK 921   NORMALIZED FREE ENERGY PREDICTED BY IDOCK:   -5.60 KCAL/MOL
REMARK 922        TOTAL FREE ENERGY PREDICTED BY IDOCK:   -7.39 KCAL/MOL
REMARK 923 INTER-LIGAND FREE ENERGY PREDICTED BY IDOCK:   -6.57 KCAL/MOL
REMARK 924 INTRA-LIGAND FREE ENERGY PREDICTED BY IDOCK:   -0.81 KCAL/MOL
REMARK 927      BINDING AFFINITY PREDICTED BY RF-SCORE:    0.00 PKD
ROOT
HETATM    1  C   UNL     1      -7.057   7.765  68.454  1.00  0.00    -0.077 C  
HETATM    2  C   UNL     1      -6.992   9.093  67.673  1.00  0.00    -0.078 C  
HETATM    3  N   UNL     1      -7.933   9.994  68.376  1.00  0.00    -0.096 NA 
HETATM    4  C   UNL     1      -8.204   6.865  67.969  1.00  0.00    -0.115 C  
HETATM    5  C   UNL     1      -8.218   9.455  69.702  1.00  0.00    -0.136 C  
HETATM    6  C   UNL     1      -7.245   8.271  69.888  1.00  0.00    -0.059 C  
HETATM    7  C   UNL     1      -8.656   5.867  69.033  1.00  0.00    -0.114 C  
HETATM    8  N   UNL     1      -7.669   7.236  70.836  1.00  0.00    -0.091 NA 
HETATM    9  H   UNL     1      -7.804   7.630  71.766  1.00  0.00     0.000 HD 
HETATM   10  C   UNL     1      -8.863   6.508  70.398  1.00  0.00    -0.151 C  
ENDROOT
BRANCH   3  11
HETATM   11  C   UNL     1      -8.243  11.283  67.962  1.00  0.00    -0.134 A  
HETATM   12  C   UNL     1      -7.698  13.688  68.117  1.00  0.00    -0.138 A  
HETATM   13  F   UNL     1      -6.457  12.157  69.312  1.00  0.00    -0.080 F  
HETATM   14  C   UNL     1      -7.455  12.363  68.438  1.00  0.00    -0.123 A  
HETATM   15  C   UNL     1      -8.936  15.446  66.949  1.00  0.00    -0.247 C  
HETATM   16  O   UNL     1      -8.282  16.323  67.512  1.00  0.00    -0.143 OA 
HETATM   17  C   UNL     1      -9.925  15.816  65.940  1.00  0.00    -0.380 C  
HETATM   18  C   UNL     1      -8.727  14.007  67.242  1.00  0.00    -0.227 A  
HETATM   19  C   UNL     1     -10.187  17.203  65.495  1.00  0.00    -0.051 C  
HETATM   20  C   UNL     1     -10.637  14.810  65.407  1.00  0.00    -0.378 C  
HETATM   21  N   UNL     1     -10.569  13.464  65.739  1.00  0.00    -0.278 NA 
HETATM   22  O   UNL     1      -9.455  18.140  66.132  1.00  0.00    -0.466 OA 
HETATM   23  O   UNL     1     -10.997  17.491  64.626  1.00  0.00    -0.892 OA 
HETATM   24  C   UNL     1      -9.556  13.012  66.671  1.00  0.00    -0.259 A  
HETATM   25  C   UNL     1      -9.326  11.647  67.077  1.00  0.00    -0.181 A  
BRANCH  21  26
HETATM   26  C   UNL     1     -11.345  12.542  64.880  1.00  0.00    -0.310 C  
HETATM   27  C   UNL     1     -12.850  12.626  64.800  1.00  0.00    -0.349 C  
HETATM   28  C   UNL     1     -12.037  12.976  63.601  1.00  0.00    -0.604 C  
ENDBRANCH  21  26
BRANCH  25  29
HETATM   29  O   UNL     1     -10.320  10.736  66.772  1.00  0.00    -0.225 OA 
HETATM   30  C   UNL     1     -11.302  10.486  67.774  1.00  0.00    -0.190 C  
ENDBRANCH  25  29
ENDBRANCH   3  11
TORSDOF 3
ENDMDL
MODEL       58
REMARK 921   NORMALIZED FREE ENERGY PREDICTED BY IDOCK:   -5.54 KCAL/MOL
REMARK 922        TOTAL FREE ENERGY PREDICTED BY IDOCK:   -7.32 KCAL/MOL
REMARK 923 INTER-LIGAND FREE ENERGY PREDICTED BY IDOCK:   -6.50 KCAL/MOL
REMARK 924 INTRA-LIGAND FREE ENERGY PREDICTED BY IDOCK:   -0.82 KCAL/MOL
REMARK 927      BINDING AFFINITY PREDICTED BY RF-SCORE:    0.00 PKD
ROOT
HETATM    1  C   UNL     1      -7.782   4.340  70.382  1.00  0.00    -0.049 C  
HETATM    2  C   UNL     1      -7.748   5.767  69.800  1.00  0.00    -0.084 C  
HETATM    3  N   UNL     1      -9.131   6.023  69.340  1.00  0.00    -0.132 NA 
HETATM    4  C   UNL     1      -7.566   3.270  69.301  1.00  0.00    -0.048 C  
HETATM    5  C   UNL     1     -10.033   5.058  69.959  1.00  0.00    -0.254 C  
HETATM    6  C   UNL     1      -9.182   4.304  71.003  1.00  0.00    -0.140 C  
HETATM    7  C   UNL     1      -8.146   1.913  69.694  1.00  0.00    -0.060 C  
HETATM    8  N   UNL     1      -9.643   2.958  71.357  1.00  0.00    -0.147 NA 
HETATM    9  H   UNL     1     -10.587   2.988  71.742  1.00  0.00     0.000 HD 
HETATM   10  C   UNL     1      -9.563   2.011  70.243  1.00  0.00    -0.021 C  
ENDROOT
BRANCH   3  11
HETATM   11  C   UNL     1      -9.538   7.174  68.678  1.00  0.00    -0.140 A  
HETATM   12  C   UNL     1      -9.746   8.349  66.514  1.00  0.00    -0.330 A  
HETATM   13  F   UNL     1      -8.848   6.227  66.581  1.00  0.00    -0.119 F  
HETATM   14  C   UNL     1      -9.404   7.238  67.267  1.00  0.00    -0.132 A  
HETATM   15  C   UNL     1     -10.637  10.614  66.270  1.00  0.00    -0.161 C  
HETATM   16  O   UNL     1     -10.364  10.626  65.071  1.00  0.00    -0.310 OA 
HETATM   17  C   UNL     1     -11.338  11.750  66.864  1.00  0.00    -0.386 C  
HETATM   18  C   UNL     1     -10.302   9.457  67.136  1.00  0.00    -0.326 A  
HETATM   19  C   UNL     1     -11.797  12.937  66.108  1.00  0.00    -0.429 C  
HETATM   20  C   UNL     1     -11.555  11.691  68.187  1.00  0.00    -0.319 C  
HETATM   21  N   UNL     1     -11.149  10.692  69.060  1.00  0.00    -0.235 NA 
HETATM   22  O   UNL     1     -11.481  12.918  64.796  1.00  0.00    -0.302 OA 
HETATM   23  O   UNL     1     -12.410  13.865  66.616  1.00  0.00    -0.435 OA 
HETATM   24  C   UNL     1     -10.522   9.497  68.533  1.00  0.00    -0.217 A  
HETATM   25  C   UNL     1     -10.094   8.354  69.303  1.00  0.00    -0.202 A  
BRANCH  21  26
HETATM   26  C   UNL     1     -11.665  10.789  70.445  1.00  0.00    -0.351 C  
HETATM   27  C   UNL     1     -12.652  11.861  70.839  1.00  0.00    -0.361 C  
HETATM   28  C   UNL     1     -13.090  10.437  70.832  1.00  0.00    -0.412 C  
ENDBRANCH  21  26
BRANCH  25  29
HETATM   29  O   UNL     1     -10.018   8.526  70.672  1.00  0.00    -0.181 OA 
HETATM   30  C   UNL     1      -8.794   9.032  71.198  1.00  0.00    -0.215 C  
ENDBRANCH  25  29
ENDBRANCH   3  11
TORSDOF 3
ENDMDL
MODEL       59
REMARK 921   NORMALIZED FREE ENERGY PREDICTED BY IDOCK:   -5.50 KCAL/MOL
REMARK 922        TOTAL FREE ENERGY PREDICTED BY IDOCK:   -7.28 KCAL/MOL
REMARK 923 INTER-LIGAND FREE ENERGY PREDICTED BY IDOCK:   -6.60 KCAL/MOL
REMARK 924 INTRA-LIGAND FREE ENERGY PREDICTED BY IDOCK:   -0.68 KCAL/MOL
REMARK 927      BINDING AFFINITY PREDICTED BY RF-SCORE:    0.00 PKD
ROOT
HETATM    1  C   UNL     1     -10.610   6.156  68.694  1.00  0.00    -0.324 C  
HETATM    2  C   UNL     1     -10.332   7.558  69.270  1.00  0.00    -0.209 C  
HETATM    3  N   UNL     1      -9.812   8.343  68.128  1.00  0.00    -0.163 NA 
HETATM    4  C   UNL     1      -9.359   5.264  68.715  1.00  0.00    -0.157 C  
HETATM    5  C   UNL     1     -10.142   7.660  66.882  1.00  0.00    -0.278 C  
HETATM    6  C   UNL     1     -11.085   6.503  67.279  1.00  0.00    -0.350 C  
HETATM    7  C   UNL     1      -9.419   4.144  67.679  1.00  0.00    -0.225 C  
HETATM    8  N   UNL     1     -11.119   5.359  66.363  1.00  0.00    -0.673 NA 
HETATM    9  H   UNL     1     -11.416   5.650  65.431  1.00  0.00     0.000 HD 
HETATM   10  C   UNL     1      -9.849   4.632  66.302  1.00  0.00    -0.226 C  
ENDROOT
BRANCH   3  11
HETATM   11  C   UNL     1      -9.362   9.653  68.216  1.00  0.00    -0.133 A  
HETATM   12  C   UNL     1      -7.448  11.155  68.648  1.00  0.00    -0.119 A  
HETATM   13  F   UNL     1      -7.151   8.872  68.737  1.00  0.00    -0.062 F  
HETATM   14  C   UNL     1      -7.993   9.891  68.504  1.00  0.00    -0.086 A  
HETATM   15  C   UNL     1      -7.598  13.598  68.632  1.00  0.00    -0.115 C  
HETATM   16  O   UNL     1      -6.432  13.702  69.010  1.00  0.00    -0.094 OA 
HETATM   17  C   UNL     1      -8.367  14.798  68.317  1.00  0.00    -0.148 C  
HETATM   18  C   UNL     1      -8.245  12.275  68.454  1.00  0.00    -0.146 A  
HETATM   19  C   UNL     1      -7.829  16.176  68.378  1.00  0.00    -0.160 C  
HETATM   20  C   UNL     1      -9.648  14.609  67.963  1.00  0.00    -0.212 C  
HETATM   21  N   UNL     1     -10.335  13.405  67.905  1.00  0.00    -0.233 NA 
HETATM   22  O   UNL     1      -6.549  16.256  68.796  1.00  0.00    -0.125 OA 
HETATM   23  O   UNL     1      -8.479  17.168  68.081  1.00  0.00    -0.213 OA 
HETATM   24  C   UNL     1      -9.617  12.166  68.124  1.00  0.00    -0.208 A  
HETATM   25  C   UNL     1     -10.175  10.838  68.049  1.00  0.00    -0.178 A  
BRANCH  21  26
HETATM   26  C   UNL     1     -11.695  13.458  67.321  1.00  0.00    -0.380 C  
HETATM   27  C   UNL     1     -12.081  14.531  66.333  1.00  0.00    -0.320 C  
HETATM   28  C   UNL     1     -11.995  13.117  65.873  1.00  0.00    -0.479 C  
ENDBRANCH  21  26
BRANCH  25  29
HETATM   29  O   UNL     1     -11.555  10.747  68.043  1.00  0.00    -0.470 OA 
HETATM   30  C   UNL     1     -12.211  10.728  69.308  1.00  0.00    -0.114 C  
ENDBRANCH  25  29
ENDBRANCH   3  11
TORSDOF 3
ENDMDL
MODEL       60
REMARK 921   NORMALIZED FREE ENERGY PREDICTED BY IDOCK:   -5.45 KCAL/MOL
REMARK 922        TOTAL FREE ENERGY PREDICTED BY IDOCK:   -7.22 KCAL/MOL
REMARK 923 INTER-LIGAND FREE ENERGY PREDICTED BY IDOCK:   -6.45 KCAL/MOL
REMARK 924 INTRA-LIGAND FREE ENERGY PREDICTED BY IDOCK:   -0.78 KCAL/MOL
REMARK 927      BINDING AFFINITY PREDICTED BY RF-SCORE:    0.00 PKD
ROOT
HETATM    1  C   UNL     1      -5.848  18.567  67.128  1.00  0.00    -0.156 C  
HETATM    2  C   UNL     1      -6.419  17.514  68.099  1.00  0.00    -0.178 C  
HETATM    3  N   UNL     1      -7.739  17.153  67.535  1.00  0.00    -0.172 NA 
HETATM    4  C   UNL     1      -6.327  19.987  67.469  1.00  0.00    -0.236 C  
HETATM    5  C   UNL     1      -7.804  17.585  66.143  1.00  0.00    -0.246 C  
HETATM    6  C   UNL     1      -6.377  18.053  65.785  1.00  0.00    -0.252 C  
HETATM    7  C   UNL     1      -6.278  20.927  66.267  1.00  0.00    -0.309 C  
HETATM    8  N   UNL     1      -6.275  19.025  64.692  1.00  0.00    -0.470 NA 
HETATM    9  H   UNL     1      -6.664  18.643  63.830  1.00  0.00     0.000 HD 
HETATM   10  C   UNL     1      -6.887  20.317  65.011  1.00  0.00    -0.237 C  
ENDROOT
BRANCH   3  11
HETATM   11  C   UNL     1      -8.637  16.281  68.135  1.00  0.00    -0.183 A  
HETATM   12  C   UNL     1     -10.488  16.010  69.750  1.00  0.00    -0.300 A  
HETATM   13  F   UNL     1      -9.565  18.094  69.409  1.00  0.00    -0.149 F  
HETATM   14  C   UNL     1      -9.573  16.796  69.069  1.00  0.00    -0.230 A  
HETATM   15  C   UNL     1     -11.553  13.867  70.260  1.00  0.00    -0.147 C  
HETATM   16  O   UNL     1     -12.235  14.381  71.144  1.00  0.00    -0.317 OA 
HETATM   17  C   UNL     1     -11.742  12.458  69.927  1.00  0.00    -0.339 C  
HETATM   18  C   UNL     1     -10.555  14.649  69.488  1.00  0.00    -0.166 A  
HETATM   19  C   UNL     1     -12.749  11.577  70.561  1.00  0.00    -0.110 C  
HETATM   20  C   UNL     1     -10.926  11.952  68.988  1.00  0.00    -0.219 C  
HETATM   21  N   UNL     1      -9.895  12.608  68.331  1.00  0.00    -0.222 NA 
HETATM   22  O   UNL     1     -13.479  12.171  71.527  1.00  0.00    -0.149 OA 
HETATM   23  O   UNL     1     -12.914  10.407  70.248  1.00  0.00    -0.248 OA 
HETATM   24  C   UNL     1      -9.700  14.026  68.548  1.00  0.00    -0.215 A  
HETATM   25  C   UNL     1      -8.711  14.855  67.905  1.00  0.00    -0.164 A  
BRANCH  21  26
HETATM   26  C   UNL     1      -9.258  11.866  67.218  1.00  0.00    -0.179 C  
HETATM   27  C   UNL     1      -9.942  10.689  66.569  1.00  0.00    -0.265 C  
HETATM   28  C   UNL     1      -9.742  11.938  65.782  1.00  0.00    -0.258 C  
ENDBRANCH  21  26
BRANCH  25  29
HETATM   29  O   UNL     1      -7.691  14.197  67.242  1.00  0.00    -0.181 OA 
HETATM   30  C   UNL     1      -6.483  13.975  67.965  1.00  0.00    -0.149 C  
ENDBRANCH  25  29
ENDBRANCH   3  11
TORSDOF 3
ENDMDL
MODEL       61
REMARK 921   NORMALIZED FREE ENERGY PREDICTED BY IDOCK:   -5.37 KCAL/MOL
REMARK 922        TOTAL FREE ENERGY PREDICTED BY IDOCK:   -7.12 KCAL/MOL
REMARK 923 INTER-LIGAND FREE ENERGY PREDICTED BY IDOCK:   -6.35 KCAL/MOL
REMARK 924 INTRA-LIGAND FREE ENERGY PREDICTED BY IDOCK:   -0.77 KCAL/MOL
REMARK 927      BINDING AFFINITY PREDICTED BY RF-SCORE:    0.00 PKD
ROOT
HETATM    1  C   UNL     1      -7.791   4.625  67.770  1.00  0.00    -0.086 C  
HETATM    2  C   UNL     1      -8.078   5.779  68.752  1.00  0.00    -0.102 C  
HETATM    3  N   UNL     1      -9.441   6.241  68.407  1.00  0.00    -0.119 NA 
HETATM    4  C   UNL     1      -7.228   5.131  66.433  1.00  0.00    -0.077 C  
HETATM    5  C   UNL     1     -10.111   5.218  67.611  1.00  0.00    -0.171 C  
HETATM    6  C   UNL     1      -9.178   3.988  67.644  1.00  0.00    -0.160 C  
HETATM    7  C   UNL     1      -7.470   4.152  65.286  1.00  0.00    -0.077 C  
HETATM    8  N   UNL     1      -9.307   3.055  66.520  1.00  0.00    -0.334 NA 
HETATM    9  H   UNL     1     -10.254   2.681  66.466  1.00  0.00     0.000 HD 
HETATM   10  C   UNL     1      -8.903   3.638  65.238  1.00  0.00    -0.122 C  
ENDROOT
BRANCH   3  11
HETATM   11  C   UNL     1     -10.077   7.323  69.001  1.00  0.00    -0.186 A  
HETATM   12  C   UNL     1     -11.627   8.094  70.764  1.00  0.00    -0.249 A  
HETATM   13  F   UNL     1     -11.143   5.849  70.572  1.00  0.00    -0.339 F  
HETATM   14  C   UNL     1     -10.920   7.094  70.119  1.00  0.00    -0.267 A  
HETATM   15  C   UNL     1     -12.279  10.431  71.082  1.00  0.00    -0.394 C  
HETATM   16  O   UNL     1     -13.084  10.120  71.958  1.00  0.00    -0.440 OA 
HETATM   17  C   UNL     1     -12.065  11.841  70.763  1.00  0.00    -0.352 C  
HETATM   18  C   UNL     1     -11.485   9.412  70.352  1.00  0.00    -0.272 A  
HETATM   19  C   UNL     1     -12.731  12.965  71.459  1.00  0.00    -0.239 C  
HETATM   20  C   UNL     1     -11.212  12.102  69.760  1.00  0.00     0.002 C  
HETATM   21  N   UNL     1     -10.544  11.182  68.965  1.00  0.00    -0.215 NA 
HETATM   22  O   UNL     1     -13.607  12.589  72.413  1.00  0.00    -0.521 OA 
HETATM   23  O   UNL     1     -12.516  14.140  71.199  1.00  0.00    -0.330 OA 
HETATM   24  C   UNL     1     -10.643   9.770  69.273  1.00  0.00    -0.221 A  
HETATM   25  C   UNL     1      -9.971   8.701  68.576  1.00  0.00    -0.183 A  
BRANCH  21  26
HETATM   26  C   UNL     1      -9.531  11.737  68.038  1.00  0.00    -0.188 C  
HETATM   27  C   UNL     1      -9.932  12.592  66.861  1.00  0.00    -0.229 C  
HETATM   28  C   UNL     1      -9.170  13.211  67.982  1.00  0.00    -0.211 C  
ENDBRANCH  21  26
BRANCH  25  29
HETATM   29  O   UNL     1      -9.415   9.017  67.350  1.00  0.00    -0.139 OA 
HETATM   30  C   UNL     1     -10.258   8.907  66.206  1.00  0.00    -0.133 C  
ENDBRANCH  25  29
ENDBRANCH   3  11
TORSDOF 3
ENDMDL
MODEL       62
REMARK 921   NORMALIZED FREE ENERGY PREDICTED BY IDOCK:   -5.35 KCAL/MOL
REMARK 922        TOTAL FREE ENERGY PREDICTED BY IDOCK:   -7.10 KCAL/MOL
REMARK 923 INTER-LIGAND FREE ENERGY PREDICTED BY IDOCK:   -6.59 KCAL/MOL
REMARK 924 INTRA-LIGAND FREE ENERGY PREDICTED BY IDOCK:   -0.50 KCAL/MOL
REMARK 927      BINDING AFFINITY PREDICTED BY RF-SCORE:    0.00 PKD
ROOT
HETATM    1  C   UNL     1      -7.944   6.068  70.388  1.00  0.00    -0.107 C  
HETATM    2  C   UNL     1      -8.992   6.679  69.436  1.00  0.00    -0.133 C  
HETATM    3  N   UNL     1      -8.571   8.087  69.259  1.00  0.00    -0.136 NA 
HETATM    4  C   UNL     1      -8.296   6.307  71.864  1.00  0.00    -0.117 C  
HETATM    5  C   UNL     1      -7.182   8.232  69.682  1.00  0.00    -0.061 C  
HETATM    6  C   UNL     1      -6.673   6.798  69.940  1.00  0.00    -0.049 C  
HETATM    7  C   UNL     1      -7.073   6.250  72.776  1.00  0.00    -0.076 C  
HETATM    8  N   UNL     1      -5.552   6.673  70.876  1.00  0.00    -0.026 NA 
HETATM    9  H   UNL     1      -4.742   7.196  70.544  1.00  0.00     0.000 HD 
HETATM   10  C   UNL     1      -5.899   7.062  72.245  1.00  0.00    -0.038 C  
ENDROOT
BRANCH   3  11
HETATM   11  C   UNL     1      -9.278   9.032  68.528  1.00  0.00    -0.136 A  
HETATM   12  C   UNL     1     -10.765  11.004  68.596  1.00  0.00    -0.234 A  
HETATM   13  F   UNL     1     -10.044  10.051  70.566  1.00  0.00    -0.312 F  
HETATM   14  C   UNL     1     -10.000  10.037  69.224  1.00  0.00    -0.213 A  
HETATM   15  C   UNL     1     -11.653  12.114  66.604  1.00  0.00    -0.350 C  
HETATM   16  O   UNL     1     -12.347  12.861  67.291  1.00  0.00    -0.312 OA 
HETATM   17  C   UNL     1     -11.627  12.282  65.153  1.00  0.00    -0.402 C  
HETATM   18  C   UNL     1     -10.807  11.056  67.210  1.00  0.00    -0.335 A  
HETATM   19  C   UNL     1     -12.361  13.338  64.420  1.00  0.00    -0.348 C  
HETATM   20  C   UNL     1     -10.889  11.397  64.464  1.00  0.00    -0.309 C  
HETATM   21  N   UNL     1     -10.184  10.315  64.972  1.00  0.00    -0.284 NA 
HETATM   22  O   UNL     1     -13.112  14.139  65.203  1.00  0.00    -0.757 OA 
HETATM   23  O   UNL     1     -12.303  13.482  63.208  1.00  0.00    -0.709 OA 
HETATM   24  C   UNL     1     -10.097  10.133  66.407  1.00  0.00    -0.236 A  
HETATM   25  C   UNL     1      -9.364   9.093  67.086  1.00  0.00    -0.143 A  
BRANCH  21  26
HETATM   26  C   UNL     1      -9.316   9.595  64.012  1.00  0.00    -0.057 C  
HETATM   27  C   UNL     1      -9.269   9.984  62.555  1.00  0.00    -0.319 C  
HETATM   28  C   UNL     1      -8.063  10.200  63.404  1.00  0.00    -0.161 C  
ENDBRANCH  21  26
BRANCH  25  29
HETATM   29  O   UNL     1      -8.944   8.027  66.313  1.00  0.00    -0.154 OA 
HETATM   30  C   UNL     1      -7.538   7.850  66.157  1.00  0.00    -0.083 C  
ENDBRANCH  25  29
ENDBRANCH   3  11
TORSDOF 3
ENDMDL
MODEL       63
REMARK 921   NORMALIZED FREE ENERGY PREDICTED BY IDOCK:   -5.35 KCAL/MOL
REMARK 922        TOTAL FREE ENERGY PREDICTED BY IDOCK:   -7.09 KCAL/MOL
REMARK 923 INTER-LIGAND FREE ENERGY PREDICTED BY IDOCK:   -6.62 KCAL/MOL
REMARK 924 INTRA-LIGAND FREE ENERGY PREDICTED BY IDOCK:   -0.47 KCAL/MOL
REMARK 927      BINDING AFFINITY PREDICTED BY RF-SCORE:    0.00 PKD
ROOT
HETATM    1  C   UNL     1      -9.079   6.741  73.387  1.00  0.00    -0.152 C  
HETATM    2  C   UNL     1      -8.699   7.630  72.186  1.00  0.00    -0.122 C  
HETATM    3  N   UNL     1      -9.675   7.280  71.129  1.00  0.00    -0.171 NA 
HETATM    4  C   UNL     1      -8.422   5.354  73.309  1.00  0.00    -0.117 C  
HETATM    5  C   UNL     1     -10.810   6.587  71.731  1.00  0.00    -0.238 C  
HETATM    6  C   UNL     1     -10.605   6.699  73.257  1.00  0.00    -0.291 C  
HETATM    7  C   UNL     1      -9.185   4.298  74.105  1.00  0.00    -0.109 C  
HETATM    8  N   UNL     1     -11.245   5.660  74.068  1.00  0.00    -0.308 NA 
HETATM    9  H   UNL     1     -12.254   5.659  73.926  1.00  0.00     0.000 HD 
HETATM   10  C   UNL     1     -10.685   4.325  73.841  1.00  0.00    -0.264 C  
ENDROOT
BRANCH   3  11
HETATM   11  C   UNL     1      -9.657   7.797  69.841  1.00  0.00    -0.164 A  
HETATM   12  C   UNL     1      -9.050   7.425  67.475  1.00  0.00    -0.128 A  
HETATM   13  F   UNL     1      -8.641   5.775  69.032  1.00  0.00    -0.104 F  
HETATM   14  C   UNL     1      -9.146   6.995  68.788  1.00  0.00    -0.133 A  
HETATM   15  C   UNL     1      -9.376   9.081  65.704  1.00  0.00    -0.222 C  
HETATM   16  O   UNL     1      -8.801   8.366  64.886  1.00  0.00    -0.085 OA 
HETATM   17  C   UNL     1      -9.968  10.344  65.271  1.00  0.00    -0.376 C  
HETATM   18  C   UNL     1      -9.518   8.683  67.126  1.00  0.00    -0.207 A  
HETATM   19  C   UNL     1      -9.967  10.833  63.873  1.00  0.00    -0.343 C  
HETATM   20  C   UNL     1     -10.533  11.097  66.228  1.00  0.00    -0.259 C  
HETATM   21  N   UNL     1     -10.579  10.829  67.589  1.00  0.00    -0.214 NA 
HETATM   22  O   UNL     1      -9.327  10.025  63.002  1.00  0.00    -0.287 OA 
HETATM   23  O   UNL     1     -10.494  11.878  63.524  1.00  0.00    -0.385 OA 
HETATM   24  C   UNL     1     -10.086   9.559  68.082  1.00  0.00    -0.182 A  
HETATM   25  C   UNL     1     -10.110   9.114  69.454  1.00  0.00    -0.197 A  
BRANCH  21  26
HETATM   26  C   UNL     1     -11.411  11.744  68.405  1.00  0.00    -0.270 C  
HETATM   27  C   UNL     1     -10.899  13.099  68.828  1.00  0.00    -0.278 C  
HETATM   28  C   UNL     1     -12.029  13.018  67.860  1.00  0.00    -0.338 C  
ENDBRANCH  21  26
BRANCH  25  29
HETATM   29  O   UNL     1     -10.365  10.079  70.411  1.00  0.00    -0.282 OA 
HETATM   30  C   UNL     1     -11.626  10.020  71.074  1.00  0.00    -0.393 C  
ENDBRANCH  25  29
ENDBRANCH   3  11
TORSDOF 3
ENDMDL
MODEL       64
REMARK 921   NORMALIZED FREE ENERGY PREDICTED BY IDOCK:   -5.22 KCAL/MOL
REMARK 922        TOTAL FREE ENERGY PREDICTED BY IDOCK:   -6.94 KCAL/MOL
REMARK 923 INTER-LIGAND FREE ENERGY PREDICTED BY IDOCK:   -6.37 KCAL/MOL
REMARK 924 INTRA-LIGAND FREE ENERGY PREDICTED BY IDOCK:   -0.57 KCAL/MOL
REMARK 927      BINDING AFFINITY PREDICTED BY RF-SCORE:    0.00 PKD
ROOT
HETATM    1  C   UNL     1      -7.392   8.378  68.225  1.00  0.00    -0.095 C  
HETATM    2  C   UNL     1      -7.160   9.805  67.689  1.00  0.00    -0.088 C  
HETATM    3  N   UNL     1      -8.198  10.632  68.345  1.00  0.00    -0.119 NA 
HETATM    4  C   UNL     1      -8.445   7.618  67.404  1.00  0.00    -0.122 C  
HETATM    5  C   UNL     1      -8.735   9.911  69.494  1.00  0.00    -0.190 C  
HETATM    6  C   UNL     1      -7.835   8.667  69.663  1.00  0.00    -0.094 C  
HETATM    7  C   UNL     1      -9.105   6.491  68.195  1.00  0.00    -0.114 C  
HETATM    8  N   UNL     1      -8.446   7.520  70.341  1.00  0.00    -0.139 NA 
HETATM    9  H   UNL     1      -8.745   7.773  71.283  1.00  0.00     0.000 HD 
HETATM   10  C   UNL     1      -9.550   6.925  69.585  1.00  0.00    -0.146 C  
ENDROOT
BRANCH   3  11
HETATM   11  C   UNL     1      -8.402  11.981  68.093  1.00  0.00    -0.165 A  
HETATM   12  C   UNL     1      -7.660  14.298  68.523  1.00  0.00    -0.127 A  
HETATM   13  F   UNL     1      -6.542  12.540  69.508  1.00  0.00    -0.109 F  
HETATM   14  C   UNL     1      -7.526  12.929  68.681  1.00  0.00    -0.092 A  
HETATM   15  C   UNL     1      -8.754  16.279  67.592  1.00  0.00    -0.182 C  
HETATM   16  O   UNL     1      -8.027  17.025  68.245  1.00  0.00    -0.204 OA 
HETATM   17  C   UNL     1      -9.715  16.846  66.650  1.00  0.00    -0.283 C  
HETATM   18  C   UNL     1      -8.664  14.803  67.709  1.00  0.00    -0.173 A  
HETATM   19  C   UNL     1      -9.864  18.294  66.377  1.00  0.00    -0.357 C  
HETATM   20  C   UNL     1     -10.512  15.973  66.013  1.00  0.00    -0.345 C  
HETATM   21  N   UNL     1     -10.553  14.596  66.182  1.00  0.00    -0.303 NA 
HETATM   22  O   UNL     1      -9.053  19.084  67.109  1.00  0.00    -0.276 OA 
HETATM   23  O   UNL     1     -10.653  18.749  65.562  1.00  0.00    -0.596 OA 
HETATM   24  C   UNL     1      -9.576  13.955  67.037  1.00  0.00    -0.254 A  
HETATM   25  C   UNL     1      -9.457  12.536  67.274  1.00  0.00    -0.193 A  
BRANCH  21  26
HETATM   26  C   UNL     1     -11.408  13.850  65.231  1.00  0.00    -0.314 C  
HETATM   27  C   UNL     1     -12.910  13.825  65.383  1.00  0.00    -0.455 C  
HETATM   28  C   UNL     1     -12.309  14.524  64.212  1.00  0.00    -0.396 C  
ENDBRANCH  21  26
BRANCH  25  29
HETATM   29  O   UNL     1     -10.525  11.753  66.879  1.00  0.00    -0.212 OA 
HETATM   30  C   UNL     1     -10.300  10.834  65.813  1.00  0.00    -0.230 C  
ENDBRANCH  25  29
ENDBRANCH   3  11
TORSDOF 3
ENDMDL
MODEL       65
REMARK 921   NORMALIZED FREE ENERGY PREDICTED BY IDOCK:   -5.18 KCAL/MOL
REMARK 922        TOTAL FREE ENERGY PREDICTED BY IDOCK:   -6.90 KCAL/MOL
REMARK 923 INTER-LIGAND FREE ENERGY PREDICTED BY IDOCK:   -6.44 KCAL/MOL
REMARK 924 INTRA-LIGAND FREE ENERGY PREDICTED BY IDOCK:   -0.45 KCAL/MOL
REMARK 927      BINDING AFFINITY PREDICTED BY RF-SCORE:    0.00 PKD
ROOT
HETATM    1  C   UNL     1     -11.528  14.683  66.369  1.00  0.00    -0.348 C  
HETATM    2  C   UNL     1     -11.620  13.160  66.590  1.00  0.00    -0.356 C  
HETATM    3  N   UNL     1     -10.679  12.879  67.697  1.00  0.00    -0.221 NA 
HETATM    4  C   UNL     1     -10.379  15.061  65.422  1.00  0.00    -0.410 C  
HETATM    5  C   UNL     1     -10.367  14.122  68.394  1.00  0.00    -0.249 C  
HETATM    6  C   UNL     1     -11.323  15.181  67.803  1.00  0.00    -0.328 C  
HETATM    7  C   UNL     1      -9.899  16.496  65.625  1.00  0.00    -0.187 C  
HETATM    8  N   UNL     1     -10.874  16.573  67.893  1.00  0.00    -0.344 NA 
HETATM    9  H   UNL     1     -10.728  16.846  68.865  1.00  0.00     0.000 HD 
HETATM   10  C   UNL     1      -9.678  16.846  67.091  1.00  0.00    -0.253 C  
ENDROOT
BRANCH   3  11
HETATM   11  C   UNL     1     -10.390  11.609  68.179  1.00  0.00    -0.194 A  
HETATM   12  C   UNL     1      -8.838   9.687  68.134  1.00  0.00    -0.119 A  
HETATM   13  F   UNL     1      -8.392  11.545  66.845  1.00  0.00    -0.141 F  
HETATM   14  C   UNL     1      -9.203  10.964  67.744  1.00  0.00    -0.153 A  
HETATM   15  C   UNL     1      -9.178   7.626  69.408  1.00  0.00    -0.149 C  
HETATM   16  O   UNL     1      -8.201   7.101  68.878  1.00  0.00    -0.123 OA 
HETATM   17  C   UNL     1      -9.909   6.910  70.450  1.00  0.00    -0.187 C  
HETATM   18  C   UNL     1      -9.626   8.992  69.040  1.00  0.00    -0.160 A  
HETATM   19  C   UNL     1      -9.534   5.575  70.968  1.00  0.00    -0.163 C  
HETATM   20  C   UNL     1     -10.997   7.524  70.944  1.00  0.00    -0.253 C  
HETATM   21  N   UNL     1     -11.528   8.742  70.545  1.00  0.00    -0.238 NA 
HETATM   22  O   UNL     1      -8.459   5.026  70.365  1.00  0.00    -0.097 OA 
HETATM   23  O   UNL     1     -10.140   5.004  71.863  1.00  0.00    -0.183 OA 
HETATM   24  C   UNL     1     -10.813   9.546  69.575  1.00  0.00    -0.222 A  
HETATM   25  C   UNL     1     -11.207  10.850  69.099  1.00  0.00    -0.256 A  
BRANCH  21  26
HETATM   26  C   UNL     1     -12.638   9.269  71.370  1.00  0.00    -0.336 C  
HETATM   27  C   UNL     1     -13.861   8.435  71.664  1.00  0.00    -0.428 C  
HETATM   28  C   UNL     1     -12.935   8.785  72.778  1.00  0.00    -0.175 C  
ENDBRANCH  21  26
BRANCH  25  29
HETATM   29  O   UNL     1     -12.503  11.242  69.375  1.00  0.00    -0.272 OA 
HETATM   30  C   UNL     1     -12.682  12.245  70.371  1.00  0.00     0.100 C  
ENDBRANCH  25  29
ENDBRANCH   3  11
TORSDOF 3
ENDMDL
MODEL       66
REMARK 921   NORMALIZED FREE ENERGY PREDICTED BY IDOCK:   -5.17 KCAL/MOL
REMARK 922        TOTAL FREE ENERGY PREDICTED BY IDOCK:   -6.89 KCAL/MOL
REMARK 923 INTER-LIGAND FREE ENERGY PREDICTED BY IDOCK:   -6.34 KCAL/MOL
REMARK 924 INTRA-LIGAND FREE ENERGY PREDICTED BY IDOCK:   -0.54 KCAL/MOL
REMARK 927      BINDING AFFINITY PREDICTED BY RF-SCORE:    0.00 PKD
ROOT
HETATM    1  C   UNL     1     -10.077  12.894  65.255  1.00  0.00    -0.254 C  
HETATM    2  C   UNL     1      -9.262  12.202  66.366  1.00  0.00    -0.207 C  
HETATM    3  N   UNL     1      -9.629  10.771  66.272  1.00  0.00    -0.189 NA 
HETATM    4  C   UNL     1     -11.489  13.276  65.726  1.00  0.00    -0.349 C  
HETATM    5  C   UNL     1     -10.250  10.516  64.977  1.00  0.00    -0.295 C  
HETATM    6  C   UNL     1     -10.070  11.817  64.165  1.00  0.00    -0.310 C  
HETATM    7  C   UNL     1     -12.476  13.414  64.569  1.00  0.00    -0.359 C  
HETATM    8  N   UNL     1     -11.044  12.045  63.094  1.00  0.00    -0.696 NA 
HETATM    9  H   UNL     1     -11.015  11.289  62.410  1.00  0.00     0.000 HD 
HETATM   10  C   UNL     1     -12.407  12.250  63.589  1.00  0.00    -0.562 C  
ENDROOT
BRANCH   3  11
HETATM   11  C   UNL     1      -9.177   9.787  67.140  1.00  0.00    -0.138 A  
HETATM   12  C   UNL     1      -7.408   8.140  67.655  1.00  0.00    -0.093 A  
HETATM   13  F   UNL     1      -7.223   9.465  65.778  1.00  0.00    -0.088 F  
HETATM   14  C   UNL     1      -7.934   9.156  66.875  1.00  0.00    -0.105 A  
HETATM   15  C   UNL     1      -7.465   6.630  69.579  1.00  0.00    -0.093 C  
HETATM   16  O   UNL     1      -6.447   6.056  69.198  1.00  0.00    -0.039 OA 
HETATM   17  C   UNL     1      -8.077   6.253  70.851  1.00  0.00    -0.124 C  
HETATM   18  C   UNL     1      -8.083   7.728  68.795  1.00  0.00    -0.126 A  
HETATM   19  C   UNL     1      -7.531   5.228  71.770  1.00  0.00    -0.091 C  
HETATM   20  C   UNL     1      -9.216   6.885  71.176  1.00  0.00    -0.154 C  
HETATM   21  N   UNL     1      -9.899   7.826  70.419  1.00  0.00    -0.183 NA 
HETATM   22  O   UNL     1      -6.415   4.617  71.322  1.00  0.00    -0.018 OA 
HETATM   23  O   UNL     1      -8.040   4.947  72.845  1.00  0.00    -0.100 OA 
HETATM   24  C   UNL     1      -9.312   8.310  69.186  1.00  0.00    -0.151 A  
HETATM   25  C   UNL     1      -9.872   9.317  68.318  1.00  0.00    -0.158 A  
BRANCH  21  26
HETATM   26  C   UNL     1     -11.041   8.492  71.085  1.00  0.00    -0.260 C  
HETATM   27  C   UNL     1     -12.296   7.731  71.435  1.00  0.00    -0.346 C  
HETATM   28  C   UNL     1     -11.426   8.240  72.532  1.00  0.00    -0.454 C  
ENDBRANCH  21  26
BRANCH  25  29
HETATM   29  O   UNL     1     -11.198   9.646  68.529  1.00  0.00    -0.100 OA 
HETATM   30  C   UNL     1     -11.476  10.964  68.995  1.00  0.00    -0.302 C  
ENDBRANCH  25  29
ENDBRANCH   3  11
TORSDOF 3
ENDMDL
MODEL       67
REMARK 921   NORMALIZED FREE ENERGY PREDICTED BY IDOCK:   -5.13 KCAL/MOL
REMARK 922        TOTAL FREE ENERGY PREDICTED BY IDOCK:   -6.84 KCAL/MOL
REMARK 923 INTER-LIGAND FREE ENERGY PREDICTED BY IDOCK:   -6.05 KCAL/MOL
REMARK 924 INTRA-LIGAND FREE ENERGY PREDICTED BY IDOCK:   -0.79 KCAL/MOL
REMARK 927      BINDING AFFINITY PREDICTED BY RF-SCORE:    0.00 PKD
ROOT
HETATM    1  C   UNL     1     -10.171   7.182  73.126  1.00  0.00    -0.317 C  
HETATM    2  C   UNL     1     -10.161   8.635  72.610  1.00  0.00    -0.064 C  
HETATM    3  N   UNL     1     -10.556   8.537  71.187  1.00  0.00    -0.210 NA 
HETATM    4  C   UNL     1      -8.839   6.465  72.858  1.00  0.00    -0.124 C  
HETATM    5  C   UNL     1     -11.176   7.239  70.946  1.00  0.00    -0.272 C  
HETATM    6  C   UNL     1     -11.347   6.595  72.339  1.00  0.00    -0.272 C  
HETATM    7  C   UNL     1      -8.989   4.946  72.812  1.00  0.00    -0.129 C  
HETATM    8  N   UNL     1     -11.411   5.130  72.366  1.00  0.00    -0.074 NA 
HETATM    9  H   UNL     1     -12.195   4.791  71.808  1.00  0.00     0.000 HD 
HETATM   10  C   UNL     1     -10.160   4.492  71.951  1.00  0.00    -0.188 C  
ENDROOT
BRANCH   3  11
HETATM   11  C   UNL     1     -10.607   9.612  70.310  1.00  0.00    -0.278 A  
HETATM   12  C   UNL     1     -12.020  11.315  69.211  1.00  0.00    -0.411 A  
HETATM   13  F   UNL     1     -12.973   9.813  70.675  1.00  0.00    -0.320 F  
HETATM   14  C   UNL     1     -11.851  10.258  70.089  1.00  0.00    -0.263 A  
HETATM   15  C   UNL     1     -11.179  12.958  67.604  1.00  0.00    -0.278 C  
HETATM   16  O   UNL     1     -12.317  13.367  67.380  1.00  0.00    -0.260 OA 
HETATM   17  C   UNL     1     -10.037  13.609  66.967  1.00  0.00    -0.248 C  
HETATM   18  C   UNL     1     -10.923  11.830  68.534  1.00  0.00    -0.270 A  
HETATM   19  C   UNL     1     -10.136  14.787  66.076  1.00  0.00    -0.308 C  
HETATM   20  C   UNL     1      -8.831  13.074  67.216  1.00  0.00    -0.208 C  
HETATM   21  N   UNL     1      -8.553  11.946  67.975  1.00  0.00    -0.160 NA 
HETATM   22  O   UNL     1     -11.397  15.210  65.851  1.00  0.00    -0.319 OA 
HETATM   23  O   UNL     1      -9.166  15.338  65.577  1.00  0.00    -0.140 OA 
HETATM   24  C   UNL     1      -9.624  11.296  68.702  1.00  0.00    -0.190 A  
HETATM   25  C   UNL     1      -9.488  10.151  69.570  1.00  0.00    -0.214 A  
BRANCH  21  26
HETATM   26  C   UNL     1      -7.121  11.668  68.228  1.00  0.00    -0.078 C  
HETATM   27  C   UNL     1      -6.046  12.621  67.767  1.00  0.00    -0.127 C  
HETATM   28  C   UNL     1      -6.284  12.445  69.228  1.00  0.00    -0.101 C  
ENDBRANCH  21  26
BRANCH  25  29
HETATM   29  O   UNL     1      -8.300   9.449  69.483  1.00  0.00    -0.108 OA 
HETATM   30  C   UNL     1      -8.269   8.329  68.602  1.00  0.00    -0.120 C  
ENDBRANCH  25  29
ENDBRANCH   3  11
TORSDOF 3
ENDMDL
MODEL       68
REMARK 921   NORMALIZED FREE ENERGY PREDICTED BY IDOCK:   -5.12 KCAL/MOL
REMARK 922        TOTAL FREE ENERGY PREDICTED BY IDOCK:   -6.83 KCAL/MOL
REMARK 923 INTER-LIGAND FREE ENERGY PREDICTED BY IDOCK:   -6.02 KCAL/MOL
REMARK 924 INTRA-LIGAND FREE ENERGY PREDICTED BY IDOCK:   -0.81 KCAL/MOL
REMARK 927      BINDING AFFINITY PREDICTED BY RF-SCORE:    0.00 PKD
ROOT
HETATM    1  C   UNL     1      -7.867   5.330  69.417  1.00  0.00    -0.088 C  
HETATM    2  C   UNL     1      -9.002   6.102  68.716  1.00  0.00    -0.123 C  
HETATM    3  N   UNL     1      -8.352   7.308  68.156  1.00  0.00    -0.124 NA 
HETATM    4  C   UNL     1      -7.641   5.816  70.857  1.00  0.00    -0.092 C  
HETATM    5  C   UNL     1      -6.908   7.104  68.116  1.00  0.00    -0.074 C  
HETATM    6  C   UNL     1      -6.686   5.622  68.485  1.00  0.00    -0.057 C  
HETATM    7  C   UNL     1      -6.231   5.518  71.363  1.00  0.00    -0.034 C  
HETATM    8  N   UNL     1      -5.378   5.291  69.056  1.00  0.00    -0.003 NA 
HETATM    9  H   UNL     1      -4.628   5.528  68.407  1.00  0.00     0.000 HD 
HETATM   10  C   UNL     1      -5.149   5.908  70.365  1.00  0.00    -0.009 C  
ENDROOT
BRANCH   3  11
HETATM   11  C   UNL     1      -9.025   8.328  67.497  1.00  0.00    -0.134 A  
HETATM   12  C   UNL     1      -9.814   9.220  65.332  1.00  0.00    -0.060 A  
HETATM   13  F   UNL     1      -8.666   7.223  65.394  1.00  0.00    -0.147 F  
HETATM   14  C   UNL     1      -9.191   8.244  66.090  1.00  0.00    -0.192 A  
HETATM   15  C   UNL     1     -11.010  11.340  65.082  1.00  0.00    -0.146 C  
HETATM   16  O   UNL     1     -10.991  11.242  63.857  1.00  0.00    -0.386 OA 
HETATM   17  C   UNL     1     -11.710  12.459  65.709  1.00  0.00    -0.470 C  
HETATM   18  C   UNL     1     -10.365  10.330  65.957  1.00  0.00    -0.248 A  
HETATM   19  C   UNL     1     -12.457  13.499  64.966  1.00  0.00    -0.417 C  
HETATM   20  C   UNL     1     -11.643  12.530  67.048  1.00  0.00    -0.368 C  
HETATM   21  N   UNL     1     -10.947  11.684  67.899  1.00  0.00    -0.211 NA 
HETATM   22  O   UNL     1     -12.416  13.363  63.625  1.00  0.00    -0.711 OA 
HETATM   23  O   UNL     1     -13.063  14.411  65.509  1.00  0.00    -0.553 OA 
HETATM   24  C   UNL     1     -10.298  10.507  67.359  1.00  0.00    -0.224 A  
HETATM   25  C   UNL     1      -9.583   9.509  68.118  1.00  0.00    -0.137 A  
BRANCH  21  26
HETATM   26  C   UNL     1     -11.177  11.886  69.348  1.00  0.00    -0.211 C  
HETATM   27  C   UNL     1     -12.316  12.740  69.849  1.00  0.00    -0.138 C  
HETATM   28  C   UNL     1     -12.342  11.272  70.102  1.00  0.00    -0.354 C  
ENDBRANCH  21  26
BRANCH  25  29
HETATM   29  O   UNL     1      -9.250   9.843  69.417  1.00  0.00    -0.186 OA 
HETATM   30  C   UNL     1      -7.971  10.434  69.631  1.00  0.00    -0.118 C  
ENDBRANCH  25  29
ENDBRANCH   3  11
TORSDOF 3
ENDMDL
MODEL       69
REMARK 921   NORMALIZED FREE ENERGY PREDICTED BY IDOCK:   -5.06 KCAL/MOL
REMARK 922        TOTAL FREE ENERGY PREDICTED BY IDOCK:   -6.76 KCAL/MOL
REMARK 923 INTER-LIGAND FREE ENERGY PREDICTED BY IDOCK:   -6.39 KCAL/MOL
REMARK 924 INTRA-LIGAND FREE ENERGY PREDICTED BY IDOCK:   -0.37 KCAL/MOL
REMARK 927      BINDING AFFINITY PREDICTED BY RF-SCORE:    0.00 PKD
ROOT
HETATM    1  C   UNL     1     -12.386  14.021  65.595  1.00  0.00    -0.502 C  
HETATM    2  C   UNL     1     -12.253  12.490  65.466  1.00  0.00    -0.377 C  
HETATM    3  N   UNL     1     -10.858  12.195  65.864  1.00  0.00    -0.268 NA 
HETATM    4  C   UNL     1     -11.922  14.751  64.325  1.00  0.00    -0.387 C  
HETATM    5  C   UNL     1     -10.310  13.337  66.587  1.00  0.00    -0.274 C  
HETATM    6  C   UNL     1     -11.499  14.296  66.813  1.00  0.00    -0.367 C  
HETATM    7  C   UNL     1     -11.498  16.192  64.598  1.00  0.00    -0.225 C  
HETATM    8  N   UNL     1     -11.157  15.710  66.996  1.00  0.00    -0.257 NA 
HETATM    9  H   UNL     1     -10.547  15.834  67.803  1.00  0.00     0.000 HD 
HETATM   10  C   UNL     1     -10.572  16.321  65.800  1.00  0.00    -0.324 C  
ENDROOT
BRANCH   3  11
HETATM   11  C   UNL     1     -10.281  10.933  65.826  1.00  0.00    -0.259 A  
HETATM   12  C   UNL     1      -8.876   9.342  64.560  1.00  0.00    -0.235 A  
HETATM   13  F   UNL     1      -9.297  11.435  63.691  1.00  0.00    -0.216 F  
HETATM   14  C   UNL     1      -9.470  10.583  64.715  1.00  0.00    -0.259 A  
HETATM   15  C   UNL     1      -8.362   7.072  65.316  1.00  0.00    -0.096 C  
HETATM   16  O   UNL     1      -7.786   6.818  64.260  1.00  0.00    -0.108 OA 
HETATM   17  C   UNL     1      -8.383   6.080  66.387  1.00  0.00    -0.118 C  
HETATM   18  C   UNL     1      -9.019   8.382  65.552  1.00  0.00    -0.149 A  
HETATM   19  C   UNL     1      -7.711   4.763  66.320  1.00  0.00    -0.091 C  
HETATM   20  C   UNL     1      -9.077   6.406  67.489  1.00  0.00    -0.114 C  
HETATM   21  N   UNL     1      -9.812   7.563  67.707  1.00  0.00    -0.148 NA 
HETATM   22  O   UNL     1      -7.088   4.515  65.149  1.00  0.00    -0.060 OA 
HETATM   23  O   UNL     1      -7.712   3.956  67.239  1.00  0.00    -0.079 OA 
HETATM   24  C   UNL     1      -9.771   8.627  66.725  1.00  0.00    -0.233 A  
HETATM   25  C   UNL     1     -10.436   9.903  66.829  1.00  0.00    -0.191 A  
BRANCH  21  26
HETATM   26  C   UNL     1     -10.344   7.748  69.076  1.00  0.00    -0.211 C  
HETATM   27  C   UNL     1     -10.038   6.760  70.175  1.00  0.00    -0.195 C  
HETATM   28  C   UNL     1      -9.480   8.139  70.262  1.00  0.00    -0.170 C  
ENDBRANCH  21  26
BRANCH  25  29
HETATM   29  O   UNL     1     -11.409  10.014  67.804  1.00  0.00    -0.209 OA 
HETATM   30  C   UNL     1     -11.259  11.064  68.757  1.00  0.00    -0.266 C  
ENDBRANCH  25  29
ENDBRANCH   3  11
TORSDOF 3
ENDMDL
MODEL       70
REMARK 921   NORMALIZED FREE ENERGY PREDICTED BY IDOCK:   -4.96 KCAL/MOL
REMARK 922        TOTAL FREE ENERGY PREDICTED BY IDOCK:   -6.64 KCAL/MOL
REMARK 923 INTER-LIGAND FREE ENERGY PREDICTED BY IDOCK:   -5.84 KCAL/MOL
REMARK 924 INTRA-LIGAND FREE ENERGY PREDICTED BY IDOCK:   -0.80 KCAL/MOL
REMARK 927      BINDING AFFINITY PREDICTED BY RF-SCORE:    0.00 PKD
ROOT
HETATM    1  C   UNL     1     -10.393   6.836  68.803  1.00  0.00    -0.211 C  
HETATM    2  C   UNL     1     -10.446   8.268  69.371  1.00  0.00    -0.220 C  
HETATM    3  N   UNL     1     -10.323   9.151  68.189  1.00  0.00    -0.207 NA 
HETATM    4  C   UNL     1      -8.950   6.333  68.640  1.00  0.00    -0.127 C  
HETATM    5  C   UNL     1     -10.609   8.384  66.981  1.00  0.00    -0.246 C  
HETATM    6  C   UNL     1     -11.128   7.015  67.471  1.00  0.00    -0.160 C  
HETATM    7  C   UNL     1      -8.829   5.226  67.595  1.00  0.00    -0.105 C  
HETATM    8  N   UNL     1     -10.960   5.895  66.540  1.00  0.00    -0.725 NA 
HETATM    9  H   UNL     1     -11.447   6.076  65.663  1.00  0.00     0.000 HD 
HETATM   10  C   UNL     1      -9.556   5.554  66.297  1.00  0.00    -0.156 C  
ENDROOT
BRANCH   3  11
HETATM   11  C   UNL     1     -10.252  10.536  68.248  1.00  0.00    -0.163 A  
HETATM   12  C   UNL     1     -11.499  12.663  68.401  1.00  0.00    -0.350 A  
HETATM   13  F   UNL     1     -12.648  10.665  68.377  1.00  0.00     0.160 F  
HETATM   14  C   UNL     1     -11.454  11.280  68.369  1.00  0.00    -0.307 A  
HETATM   15  C   UNL     1     -10.443  14.870  68.399  1.00  0.00    -0.243 C  
HETATM   16  O   UNL     1     -11.538  15.429  68.373  1.00  0.00    -0.341 OA 
HETATM   17  C   UNL     1      -9.224  15.670  68.493  1.00  0.00    -0.197 C  
HETATM   18  C   UNL     1     -10.319  13.392  68.369  1.00  0.00    -0.253 A  
HETATM   19  C   UNL     1      -9.199  17.146  68.603  1.00  0.00    -0.263 C  
HETATM   20  C   UNL     1      -8.064  14.995  68.462  1.00  0.00    -0.148 C  
HETATM   21  N   UNL     1      -7.893  13.626  68.307  1.00  0.00    -0.133 NA 
HETATM   22  O   UNL     1     -10.416  17.727  68.572  1.00  0.00    -0.366 OA 
HETATM   23  O   UNL     1      -8.170  17.797  68.712  1.00  0.00    -0.289 OA 
HETATM   24  C   UNL     1      -9.055  12.761  68.290  1.00  0.00    -0.180 A  
HETATM   25  C   UNL     1      -9.039  11.322  68.188  1.00  0.00    -0.166 A  
BRANCH  21  26
HETATM   26  C   UNL     1      -6.512  13.120  68.476  1.00  0.00    -0.085 C  
HETATM   27  C   UNL     1      -5.353  13.745  67.739  1.00  0.00    -0.033 C  
HETATM   28  C   UNL     1      -5.429  13.880  69.221  1.00  0.00    -0.082 C  
ENDBRANCH  21  26
BRANCH  25  29
HETATM   29  O   UNL     1      -7.847  10.744  67.796  1.00  0.00    -0.106 OA 
HETATM   30  C   UNL     1      -7.650  10.541  66.399  1.00  0.00    -0.132 C  
ENDBRANCH  25  29
ENDBRANCH   3  11
TORSDOF 3
ENDMDL
MODEL       71
REMARK 921   NORMALIZED FREE ENERGY PREDICTED BY IDOCK:   -4.95 KCAL/MOL
REMARK 922        TOTAL FREE ENERGY PREDICTED BY IDOCK:   -6.63 KCAL/MOL
REMARK 923 INTER-LIGAND FREE ENERGY PREDICTED BY IDOCK:   -5.86 KCAL/MOL
REMARK 924 INTRA-LIGAND FREE ENERGY PREDICTED BY IDOCK:   -0.77 KCAL/MOL
REMARK 927      BINDING AFFINITY PREDICTED BY RF-SCORE:    0.00 PKD
ROOT
HETATM    1  C   UNL     1      -8.551   3.924  65.536  1.00  0.00    -0.111 C  
HETATM    2  C   UNL     1      -9.569   5.041  65.843  1.00  0.00    -0.164 C  
HETATM    3  N   UNL     1      -8.775   6.113  66.484  1.00  0.00    -0.128 NA 
HETATM    4  C   UNL     1      -8.345   2.985  66.735  1.00  0.00    -0.093 C  
HETATM    5  C   UNL     1      -7.359   5.895  66.211  1.00  0.00    -0.081 C  
HETATM    6  C   UNL     1      -7.306   4.743  65.184  1.00  0.00    -0.072 C  
HETATM    7  C   UNL     1      -6.997   2.268  66.694  1.00  0.00    -0.044 C  
HETATM    8  N   UNL     1      -6.065   3.963  65.158  1.00  0.00    -0.023 NA 
HETATM    9  H   UNL     1      -5.266   4.559  64.944  1.00  0.00     0.000 HD 
HETATM   10  C   UNL     1      -5.836   3.205  66.390  1.00  0.00    -0.023 C  
ENDROOT
BRANCH   3  11
HETATM   11  C   UNL     1      -9.310   7.289  66.993  1.00  0.00    -0.148 A  
HETATM   12  C   UNL     1      -9.901   9.648  66.555  1.00  0.00    -0.298 A  
HETATM   13  F   UNL     1      -8.962   8.376  64.878  1.00  0.00    -0.159 F  
HETATM   14  C   UNL     1      -9.415   8.419  66.141  1.00  0.00    -0.194 A  
HETATM   15  C   UNL     1     -10.866  11.148  68.230  1.00  0.00    -0.212 C  
HETATM   16  O   UNL     1     -10.797  12.103  67.459  1.00  0.00    -0.227 OA 
HETATM   17  C   UNL     1     -11.480  11.321  69.544  1.00  0.00    -0.376 C  
HETATM   18  C   UNL     1     -10.367   9.802  67.853  1.00  0.00    -0.258 A  
HETATM   19  C   UNL     1     -12.083  12.584  70.025  1.00  0.00    -0.266 C  
HETATM   20  C   UNL     1     -11.470  10.249  70.352  1.00  0.00    -0.335 C  
HETATM   21  N   UNL     1     -10.905   9.008  70.094  1.00  0.00    -0.234 NA 
HETATM   22  O   UNL     1     -11.990  13.612  69.156  1.00  0.00    -0.329 OA 
HETATM   23  O   UNL     1     -12.620  12.702  71.117  1.00  0.00    -0.366 OA 
HETATM   24  C   UNL     1     -10.351   8.737  68.783  1.00  0.00    -0.213 A  
HETATM   25  C   UNL     1      -9.777   7.487  68.347  1.00  0.00    -0.156 A  
BRANCH  21  26
HETATM   26  C   UNL     1     -11.183   7.947  71.089  1.00  0.00    -0.261 C  
HETATM   27  C   UNL     1     -11.478   8.282  72.530  1.00  0.00    -0.454 C  
HETATM   28  C   UNL     1     -12.558   7.700  71.683  1.00  0.00    -0.365 C  
ENDBRANCH  21  26
BRANCH  25  29
HETATM   29  O   UNL     1      -9.476   6.568  69.335  1.00  0.00    -0.145 OA 
HETATM   30  C   UNL     1      -8.129   6.527  69.797  1.00  0.00    -0.125 C  
ENDBRANCH  25  29
ENDBRANCH   3  11
TORSDOF 3
ENDMDL
MODEL       72
REMARK 921   NORMALIZED FREE ENERGY PREDICTED BY IDOCK:   -4.88 KCAL/MOL
REMARK 922        TOTAL FREE ENERGY PREDICTED BY IDOCK:   -6.54 KCAL/MOL
REMARK 923 INTER-LIGAND FREE ENERGY PREDICTED BY IDOCK:   -6.12 KCAL/MOL
REMARK 924 INTRA-LIGAND FREE ENERGY PREDICTED BY IDOCK:   -0.42 KCAL/MOL
REMARK 927      BINDING AFFINITY PREDICTED BY RF-SCORE:    0.00 PKD
ROOT
HETATM    1  C   UNL     1     -10.090  13.449  66.009  1.00  0.00    -0.308 C  
HETATM    2  C   UNL     1      -9.247  12.206  66.356  1.00  0.00    -0.207 C  
HETATM    3  N   UNL     1      -9.883  11.095  65.613  1.00  0.00    -0.223 NA 
HETATM    4  C   UNL     1     -11.309  13.595  66.933  1.00  0.00    -0.345 C  
HETATM    5  C   UNL     1     -10.746  11.642  64.571  1.00  0.00    -0.322 C  
HETATM    6  C   UNL     1     -10.463  13.159  64.552  1.00  0.00    -0.405 C  
HETATM    7  C   UNL     1     -12.431  14.415  66.299  1.00  0.00    -0.239 C  
HETATM    8  N   UNL     1     -11.541  14.006  64.032  1.00  0.00    -0.637 NA 
HETATM    9  H   UNL     1     -11.767  13.756  63.070  1.00  0.00     0.000 HD 
HETATM   10  C   UNL     1     -12.742  13.990  64.871  1.00  0.00    -0.273 C  
ENDROOT
BRANCH   3  11
HETATM   11  C   UNL     1      -9.486   9.767  65.694  1.00  0.00    -0.246 A  
HETATM   12  C   UNL     1      -8.126   7.954  64.709  1.00  0.00    -0.141 A  
HETATM   13  F   UNL     1      -8.111  10.047  63.743  1.00  0.00    -0.134 F  
HETATM   14  C   UNL     1      -8.561   9.268  64.740  1.00  0.00    -0.184 A  
HETATM   15  C   UNL     1      -8.057   5.669  65.581  1.00  0.00    -0.120 C  
HETATM   16  O   UNL     1      -7.358   5.298  64.640  1.00  0.00    -0.063 OA 
HETATM   17  C   UNL     1      -8.386   4.733  66.653  1.00  0.00    -0.106 C  
HETATM   18  C   UNL     1      -8.557   7.063  65.681  1.00  0.00    -0.121 A  
HETATM   19  C   UNL     1      -7.898   3.337  66.722  1.00  0.00    -0.080 C  
HETATM   20  C   UNL     1      -9.197   5.193  67.618  1.00  0.00    -0.117 C  
HETATM   21  N   UNL     1      -9.792   6.445  67.690  1.00  0.00    -0.117 NA 
HETATM   22  O   UNL     1      -7.135   2.962  65.675  1.00  0.00    -0.058 OA 
HETATM   23  O   UNL     1      -8.159   2.576  67.643  1.00  0.00    -0.067 OA 
HETATM   24  C   UNL     1      -9.449   7.453  66.708  1.00  0.00    -0.176 A  
HETATM   25  C   UNL     1      -9.940   8.809  66.677  1.00  0.00    -0.285 A  
BRANCH  21  26
HETATM   26  C   UNL     1     -10.508   6.754  68.949  1.00  0.00    -0.207 C  
HETATM   27  C   UNL     1     -10.555   5.764  70.086  1.00  0.00    -0.377 C  
HETATM   28  C   UNL     1      -9.802   7.037  70.262  1.00  0.00    -0.180 C  
ENDBRANCH  21  26
BRANCH  25  29
HETATM   29  O   UNL     1     -11.034   9.087  67.476  1.00  0.00    -0.152 OA 
HETATM   30  C   UNL     1     -10.828   9.969  68.576  1.00  0.00    -0.231 C  
ENDBRANCH  25  29
ENDBRANCH   3  11
TORSDOF 3
ENDMDL
MODEL       73
REMARK 921   NORMALIZED FREE ENERGY PREDICTED BY IDOCK:   -4.81 KCAL/MOL
REMARK 922        TOTAL FREE ENERGY PREDICTED BY IDOCK:   -6.46 KCAL/MOL
REMARK 923 INTER-LIGAND FREE ENERGY PREDICTED BY IDOCK:   -6.05 KCAL/MOL
REMARK 924 INTRA-LIGAND FREE ENERGY PREDICTED BY IDOCK:   -0.41 KCAL/MOL
REMARK 927      BINDING AFFINITY PREDICTED BY RF-SCORE:    0.00 PKD
ROOT
HETATM    1  C   UNL     1     -10.810   7.865  72.706  1.00  0.00    -0.451 C  
HETATM    2  C   UNL     1     -10.356   8.820  71.584  1.00  0.00    -0.321 C  
HETATM    3  N   UNL     1     -10.544   8.052  70.333  1.00  0.00    -0.220 NA 
HETATM    4  C   UNL     1      -9.677   6.934  73.166  1.00  0.00    -0.200 C  
HETATM    5  C   UNL     1     -11.428   6.920  70.588  1.00  0.00    -0.336 C  
HETATM    6  C   UNL     1     -11.964   7.126  72.021  1.00  0.00    -0.295 C  
HETATM    7  C   UNL     1     -10.197   5.652  73.812  1.00  0.00    -0.245 C  
HETATM    8  N   UNL     1     -12.399   5.915  72.724  1.00  0.00    -0.465 NA 
HETATM    9  H   UNL     1     -13.149   5.450  72.214  1.00  0.00     0.000 HD 
HETATM   10  C   UNL     1     -11.302   4.985  73.002  1.00  0.00    -0.298 C  
ENDROOT
BRANCH   3  11
HETATM   11  C   UNL     1     -10.189   8.509  69.071  1.00  0.00    -0.207 A  
HETATM   12  C   UNL     1     -10.590  10.174  67.290  1.00  0.00    -0.321 A  
HETATM   13  F   UNL     1     -11.821  10.265  69.236  1.00  0.00    -0.264 F  
HETATM   14  C   UNL     1     -10.842   9.656  68.548  1.00  0.00    -0.161 A  
HETATM   15  C   UNL     1      -9.402  10.199  65.150  1.00  0.00    -0.235 C  
HETATM   16  O   UNL     1     -10.109  11.115  64.733  1.00  0.00    -0.253 OA 
HETATM   17  C   UNL     1      -8.303   9.701  64.328  1.00  0.00    -0.169 C  
HETATM   18  C   UNL     1      -9.614   9.597  66.490  1.00  0.00    -0.252 A  
HETATM   19  C   UNL     1      -7.930  10.254  63.006  1.00  0.00    -0.150 C  
HETATM   20  C   UNL     1      -7.609   8.664  64.825  1.00  0.00    -0.102 C  
HETATM   21  N   UNL     1      -7.848   7.986  66.012  1.00  0.00    -0.091 NA 
HETATM   22  O   UNL     1      -8.725  11.256  62.578  1.00  0.00    -0.287 OA 
HETATM   23  O   UNL     1      -6.987   9.844  62.346  1.00  0.00    -0.103 OA 
HETATM   24  C   UNL     1      -8.868   8.473  66.917  1.00  0.00    -0.137 A  
HETATM   25  C   UNL     1      -9.198   7.911  68.204  1.00  0.00    -0.136 A  
BRANCH  21  26
HETATM   26  C   UNL     1      -6.829   6.986  66.406  1.00  0.00    -0.061 C  
HETATM   27  C   UNL     1      -6.380   5.908  65.450  1.00  0.00    -0.038 C  
HETATM   28  C   UNL     1      -5.416   6.971  65.851  1.00  0.00    -0.027 C  
ENDBRANCH  21  26
BRANCH  25  29
HETATM   29  O   UNL     1      -8.701   6.649  68.473  1.00  0.00    -0.124 OA 
HETATM   30  C   UNL     1      -7.679   6.551  69.461  1.00  0.00    -0.100 C  
ENDBRANCH  25  29
ENDBRANCH   3  11
TORSDOF 3
ENDMDL
MODEL       74
REMARK 921   NORMALIZED FREE ENERGY PREDICTED BY IDOCK:   -4.71 KCAL/MOL
REMARK 922        TOTAL FREE ENERGY PREDICTED BY IDOCK:   -6.34 KCAL/MOL
REMARK 923 INTER-LIGAND FREE ENERGY PREDICTED BY IDOCK:   -5.87 KCAL/MOL
REMARK 924 INTRA-LIGAND FREE ENERGY PREDICTED BY IDOCK:   -0.48 KCAL/MOL
REMARK 927      BINDING AFFINITY PREDICTED BY RF-SCORE:    0.00 PKD
ROOT
HETATM    1  C   UNL     1     -11.016  15.693  69.125  1.00  0.00    -0.259 C  
HETATM    2  C   UNL     1     -10.171  14.843  68.155  1.00  0.00    -0.226 C  
HETATM    3  N   UNL     1     -10.763  13.488  68.220  1.00  0.00    -0.250 NA 
HETATM    4  C   UNL     1     -10.508  15.594  70.572  1.00  0.00    -0.125 C  
HETATM    5  C   UNL     1     -12.095  13.571  68.810  1.00  0.00    -0.270 C  
HETATM    6  C   UNL     1     -12.406  15.079  68.926  1.00  0.00     0.012 C  
HETATM    7  C   UNL     1     -11.592  15.916  71.598  1.00  0.00    -0.541 C  
HETATM    8  N   UNL     1     -13.379  15.457  69.955  1.00  0.00    -0.440 NA 
HETATM    9  H   UNL     1     -14.277  15.003  69.790  1.00  0.00     0.000 HD 
HETATM   10  C   UNL     1     -12.906  15.198  71.317  1.00  0.00    -0.391 C  
ENDROOT
BRANCH   3  11
HETATM   11  C   UNL     1     -10.263  12.380  67.551  1.00  0.00    -0.209 A  
HETATM   12  C   UNL     1      -9.698  11.365  65.370  1.00  0.00    -0.265 A  
HETATM   13  F   UNL     1     -10.566  13.499  65.446  1.00  0.00    -0.276 F  
HETATM   14  C   UNL     1     -10.151  12.425  66.137  1.00  0.00    -0.248 A  
HETATM   15  C   UNL     1      -8.807   9.101  65.106  1.00  0.00    -0.200 C  
HETATM   16  O   UNL     1      -8.868   9.186  63.881  1.00  0.00    -0.182 OA 
HETATM   17  C   UNL     1      -8.236   7.906  65.721  1.00  0.00    -0.130 C  
HETATM   18  C   UNL     1      -9.273  10.199  65.990  1.00  0.00    -0.198 A  
HETATM   19  C   UNL     1      -7.668   6.767  64.965  1.00  0.00    -0.108 C  
HETATM   20  C   UNL     1      -8.251   7.860  67.063  1.00  0.00    -0.117 C  
HETATM   21  N   UNL     1      -8.789   8.802  67.929  1.00  0.00    -0.136 NA 
HETATM   22  O   UNL     1      -7.751   6.892  63.625  1.00  0.00    -0.102 OA 
HETATM   23  O   UNL     1      -7.165   5.788  65.497  1.00  0.00    -0.071 OA 
HETATM   24  C   UNL     1      -9.299  10.049  67.397  1.00  0.00    -0.148 A  
HETATM   25  C   UNL     1      -9.840  11.142  68.167  1.00  0.00    -0.180 A  
BRANCH  21  26
HETATM   26  C   UNL     1      -8.523   8.588  69.370  1.00  0.00    -0.127 C  
HETATM   27  C   UNL     1      -9.160   7.445  70.122  1.00  0.00    -0.148 C  
HETATM   28  C   UNL     1      -7.686   7.438  69.902  1.00  0.00    -0.099 C  
ENDBRANCH  21  26
BRANCH  25  29
HETATM   29  O   UNL     1     -10.155  10.871  69.486  1.00  0.00    -0.155 OA 
HETATM   30  C   UNL     1     -11.463  10.374  69.753  1.00  0.00    -0.280 C  
ENDBRANCH  25  29
ENDBRANCH   3  11
TORSDOF 3
ENDMDL
MODEL       75
REMARK 921   NORMALIZED FREE ENERGY PREDICTED BY IDOCK:   -4.70 KCAL/MOL
REMARK 922        TOTAL FREE ENERGY PREDICTED BY IDOCK:   -6.33 KCAL/MOL
REMARK 923 INTER-LIGAND FREE ENERGY PREDICTED BY IDOCK:   -5.88 KCAL/MOL
REMARK 924 INTRA-LIGAND FREE ENERGY PREDICTED BY IDOCK:   -0.46 KCAL/MOL
REMARK 927      BINDING AFFINITY PREDICTED BY RF-SCORE:    0.00 PKD
ROOT
HETATM    1  C   UNL     1      -9.833  13.356  65.758  1.00  0.00    -0.213 C  
HETATM    2  C   UNL     1      -9.189  12.068  66.310  1.00  0.00    -0.206 C  
HETATM    3  N   UNL     1     -10.120  10.983  65.927  1.00  0.00    -0.240 NA 
HETATM    4  C   UNL     1     -10.855  13.956  66.736  1.00  0.00    -0.286 C  
HETATM    5  C   UNL     1     -11.012  11.461  64.875  1.00  0.00    -0.216 C  
HETATM    6  C   UNL     1     -10.463  12.842  64.459  1.00  0.00    -0.377 C  
HETATM    7  C   UNL     1     -11.888  14.837  66.038  1.00  0.00    -0.201 C  
HETATM    8  N   UNL     1     -11.432  13.764  63.860  1.00  0.00    -0.613 NA 
HETATM    9  H   UNL     1     -11.839  13.364  63.015  1.00  0.00     0.000 HD 
HETATM   10  C   UNL     1     -12.479  14.186  64.794  1.00  0.00    -0.373 C  
ENDROOT
BRANCH   3  11
HETATM   11  C   UNL     1      -9.965   9.652  66.288  1.00  0.00    -0.264 A  
HETATM   12  C   UNL     1     -10.550   7.865  67.892  1.00  0.00    -0.215 A  
HETATM   13  F   UNL     1     -11.419   9.981  68.173  1.00  0.00    -0.283 F  
HETATM   14  C   UNL     1     -10.660   9.164  67.425  1.00  0.00    -0.244 A  
HETATM   15  C   UNL     1      -9.688   5.579  67.764  1.00  0.00    -0.130 C  
HETATM   16  O   UNL     1     -10.225   5.284  68.830  1.00  0.00    -0.191 OA 
HETATM   17  C   UNL     1      -8.976   4.555  67.004  1.00  0.00    -0.120 C  
HETATM   18  C   UNL     1      -9.767   6.950  67.203  1.00  0.00    -0.197 A  
HETATM   19  C   UNL     1      -8.878   3.133  67.405  1.00  0.00    -0.137 C  
HETATM   20  C   UNL     1      -8.370   4.962  65.878  1.00  0.00    -0.114 C  
HETATM   21  N   UNL     1      -8.307   6.255  65.378  1.00  0.00    -0.148 NA 
HETATM   22  O   UNL     1      -9.477   2.843  68.578  1.00  0.00    -0.189 OA 
HETATM   23  O   UNL     1      -8.305   2.283  66.740  1.00  0.00    -0.083 OA 
HETATM   24  C   UNL     1      -9.056   7.308  66.033  1.00  0.00    -0.075 A  
HETATM   25  C   UNL     1      -9.133   8.684  65.608  1.00  0.00    -0.164 A  
BRANCH  21  26
HETATM   26  C   UNL     1      -7.718   6.403  64.028  1.00  0.00    -0.104 C  
HETATM   27  C   UNL     1      -6.985   5.263  63.364  1.00  0.00    -0.042 C  
HETATM   28  C   UNL     1      -8.281   5.725  62.792  1.00  0.00    -0.096 C  
ENDBRANCH  21  26
BRANCH  25  29
HETATM   29  O   UNL     1      -8.203   9.094  64.671  1.00  0.00    -0.134 OA 
HETATM   30  C   UNL     1      -8.696   9.483  63.391  1.00  0.00    -0.222 C  
ENDBRANCH  25  29
ENDBRANCH   3  11
TORSDOF 3
ENDMDL
MODEL       76
REMARK 921   NORMALIZED FREE ENERGY PREDICTED BY IDOCK:   -4.69 KCAL/MOL
REMARK 922        TOTAL FREE ENERGY PREDICTED BY IDOCK:   -6.32 KCAL/MOL
REMARK 923 INTER-LIGAND FREE ENERGY PREDICTED BY IDOCK:   -6.01 KCAL/MOL
REMARK 924 INTRA-LIGAND FREE ENERGY PREDICTED BY IDOCK:   -0.31 KCAL/MOL
REMARK 927      BINDING AFFINITY PREDICTED BY RF-SCORE:    0.00 PKD
ROOT
HETATM    1  C   UNL     1     -10.232  13.439  65.171  1.00  0.00    -0.316 C  
HETATM    2  C   UNL     1      -9.494  13.193  66.502  1.00  0.00    -0.243 C  
HETATM    3  N   UNL     1      -9.455  11.720  66.650  1.00  0.00    -0.199 NA 
HETATM    4  C   UNL     1     -11.757  13.467  65.353  1.00  0.00    -0.351 C  
HETATM    5  C   UNL     1      -9.732  11.098  65.359  1.00  0.00    -0.231 C  
HETATM    6  C   UNL     1      -9.741  12.253  64.334  1.00  0.00    -0.007 C  
HETATM    7  C   UNL     1     -12.508  13.133  64.066  1.00  0.00    -0.346 C  
HETATM    8  N   UNL     1     -10.519  12.021  63.113  1.00  0.00    -0.624 NA 
HETATM    9  H   UNL     1     -10.168  11.208  62.608  1.00  0.00     0.000 HD 
HETATM   10  C   UNL     1     -11.958  11.900  63.362  1.00  0.00    -0.425 C  
ENDROOT
BRANCH   3  11
HETATM   11  C   UNL     1      -8.940  11.055  67.754  1.00  0.00    -0.140 A  
HETATM   12  C   UNL     1      -7.000  10.731  69.249  1.00  0.00    -0.102 A  
HETATM   13  F   UNL     1      -6.862  12.237  67.510  1.00  0.00    -0.084 F  
HETATM   14  C   UNL     1      -7.622  11.358  68.183  1.00  0.00    -0.114 A  
HETATM   15  C   UNL     1      -6.962   9.147  71.114  1.00  0.00    -0.081 C  
HETATM   16  O   UNL     1      -5.775   9.383  71.331  1.00  0.00    -0.064 OA 
HETATM   17  C   UNL     1      -7.693   8.241  71.996  1.00  0.00    -0.153 C  
HETATM   18  C   UNL     1      -7.693   9.785  69.992  1.00  0.00    -0.179 A  
HETATM   19  C   UNL     1      -7.114   7.591  73.193  1.00  0.00    -0.072 C  
HETATM   20  C   UNL     1      -8.970   7.990  71.666  1.00  0.00    -0.150 C  
HETATM   21  N   UNL     1      -9.660   8.461  70.558  1.00  0.00    -0.167 NA 
HETATM   22  O   UNL     1      -5.811   7.870  73.402  1.00  0.00    -0.051 OA 
HETATM   23  O   UNL     1      -7.750   6.859  73.938  1.00  0.00    -0.100 OA 
HETATM   24  C   UNL     1      -9.027   9.427  69.684  1.00  0.00    -0.173 A  
HETATM   25  C   UNL     1      -9.628  10.046  68.528  1.00  0.00    -0.151 A  
BRANCH  21  26
HETATM   26  C   UNL     1     -11.111   8.167  70.521  1.00  0.00    -0.253 C  
HETATM   27  C   UNL     1     -11.621   6.774  70.246  1.00  0.00    -0.417 C  
HETATM   28  C   UNL     1     -11.828   7.370  71.596  1.00  0.00    -0.323 C  
ENDBRANCH  21  26
BRANCH  25  29
HETATM   29  O   UNL     1     -10.791   9.468  68.053  1.00  0.00    -0.233 OA 
HETATM   30  C   UNL     1     -10.652   8.361  67.166  1.00  0.00    -0.256 C  
ENDBRANCH  25  29
ENDBRANCH   3  11
TORSDOF 3
ENDMDL
MODEL       77
REMARK 921   NORMALIZED FREE ENERGY PREDICTED BY IDOCK:   -4.69 KCAL/MOL
REMARK 922        TOTAL FREE ENERGY PREDICTED BY IDOCK:   -6.32 KCAL/MOL
REMARK 923 INTER-LIGAND FREE ENERGY PREDICTED BY IDOCK:   -5.61 KCAL/MOL
REMARK 924 INTRA-LIGAND FREE ENERGY PREDICTED BY IDOCK:   -0.71 KCAL/MOL
REMARK 927      BINDING AFFINITY PREDICTED BY RF-SCORE:    0.00 PKD
ROOT
HETATM    1  C   UNL     1      -8.188  11.638  66.464  1.00  0.00    -0.101 C  
HETATM    2  C   UNL     1      -7.811  10.353  67.227  1.00  0.00    -0.106 C  
HETATM    3  N   UNL     1      -9.032   9.517  67.192  1.00  0.00    -0.134 NA 
HETATM    4  C   UNL     1      -8.864  12.674  67.376  1.00  0.00    -0.189 C  
HETATM    5  C   UNL     1      -9.927  10.012  66.151  1.00  0.00    -0.256 C  
HETATM    6  C   UNL     1      -9.120  11.081  65.383  1.00  0.00    -0.195 C  
HETATM    7  C   UNL     1      -9.738  13.657  66.601  1.00  0.00    -0.287 C  
HETATM    8  N   UNL     1      -9.907  12.103  64.688  1.00  0.00    -0.441 NA 
HETATM    9  H   UNL     1     -10.526  11.678  63.998  1.00  0.00     0.000 HD 
HETATM   10  C   UNL     1     -10.658  12.970  65.599  1.00  0.00    -0.282 C  
ENDROOT
BRANCH   3  11
HETATM   11  C   UNL     1      -9.162   8.289  67.827  1.00  0.00    -0.134 A  
HETATM   12  C   UNL     1      -9.096   5.830  67.601  1.00  0.00    -0.106 A  
HETATM   13  F   UNL     1      -8.692   7.156  65.761  1.00  0.00    -0.147 F  
HETATM   14  C   UNL     1      -8.958   7.103  67.076  1.00  0.00    -0.129 A  
HETATM   15  C   UNL     1      -9.539   4.276  69.439  1.00  0.00    -0.197 C  
HETATM   16  O   UNL     1      -9.471   3.311  68.681  1.00  0.00    -0.173 OA 
HETATM   17  C   UNL     1      -9.734   4.060  70.871  1.00  0.00    -0.257 C  
HETATM   18  C   UNL     1      -9.399   5.669  68.946  1.00  0.00    -0.144 A  
HETATM   19  C   UNL     1      -9.818   2.729  71.512  1.00  0.00    -0.125 C  
HETATM   20  C   UNL     1      -9.853   5.162  71.629  1.00  0.00    -0.173 C  
HETATM   21  N   UNL     1      -9.855   6.481  71.199  1.00  0.00    -0.182 NA 
HETATM   22  O   UNL     1      -9.740   1.692  70.652  1.00  0.00    -0.106 OA 
HETATM   23  O   UNL     1      -9.949   2.567  72.716  1.00  0.00    -0.118 OA 
HETATM   24  C   UNL     1      -9.586   6.776  69.806  1.00  0.00    -0.150 A  
HETATM   25  C   UNL     1      -9.505   8.091  69.218  1.00  0.00    -0.155 A  
BRANCH  21  26
HETATM   26  C   UNL     1      -9.833   7.512  72.261  1.00  0.00    -0.169 C  
HETATM   27  C   UNL     1     -11.102   7.962  72.943  1.00  0.00    -0.442 C  
HETATM   28  C   UNL     1     -10.085   7.206  73.727  1.00  0.00    -0.391 C  
ENDBRANCH  21  26
BRANCH  25  29
HETATM   29  O   UNL     1      -9.995   9.138  69.976  1.00  0.00    -0.180 OA 
HETATM   30  C   UNL     1     -11.280   9.646  69.629  1.00  0.00    -0.141 C  
ENDBRANCH  25  29
ENDBRANCH   3  11
TORSDOF 3
ENDMDL
MODEL       78
REMARK 921   NORMALIZED FREE ENERGY PREDICTED BY IDOCK:   -4.67 KCAL/MOL
REMARK 922        TOTAL FREE ENERGY PREDICTED BY IDOCK:   -6.30 KCAL/MOL
REMARK 923 INTER-LIGAND FREE ENERGY PREDICTED BY IDOCK:   -6.01 KCAL/MOL
REMARK 924 INTRA-LIGAND FREE ENERGY PREDICTED BY IDOCK:   -0.29 KCAL/MOL
REMARK 927      BINDING AFFINITY PREDICTED BY RF-SCORE:    0.00 PKD
ROOT
HETATM    1  C   UNL     1     -10.088  13.169  67.144  1.00  0.00    -0.242 C  
HETATM    2  C   UNL     1      -9.647  12.047  68.105  1.00  0.00    -0.200 C  
HETATM    3  N   UNL     1     -10.248  10.813  67.551  1.00  0.00    -0.188 NA 
HETATM    4  C   UNL     1     -11.468  13.736  67.513  1.00  0.00    -0.359 C  
HETATM    5  C   UNL     1     -10.644  11.048  66.167  1.00  0.00    -0.228 C  
HETATM    6  C   UNL     1     -10.072  12.435  65.800  1.00  0.00    -0.253 C  
HETATM    7  C   UNL     1     -12.170  14.390  66.325  1.00  0.00    -0.366 C  
HETATM    8  N   UNL     1     -10.761  13.149  64.721  1.00  0.00    -0.343 NA 
HETATM    9  H   UNL     1     -10.742  12.606  63.858  1.00  0.00     0.000 HD 
HETATM   10  C   UNL     1     -12.131  13.532  65.067  1.00  0.00    -0.397 C  
ENDROOT
BRANCH   3  11
HETATM   11  C   UNL     1     -10.164   9.563  68.148  1.00  0.00    -0.193 A  
HETATM   12  C   UNL     1     -10.394   8.247  70.227  1.00  0.00    -0.211 A  
HETATM   13  F   UNL     1     -10.802  10.515  70.260  1.00  0.00    -0.319 F  
HETATM   14  C   UNL     1     -10.477   9.439  69.527  1.00  0.00    -0.218 A  
HETATM   15  C   UNL     1      -9.961   5.844  70.378  1.00  0.00    -0.192 C  
HETATM   16  O   UNL     1     -10.125   5.859  71.596  1.00  0.00    -0.182 OA 
HETATM   17  C   UNL     1      -9.712   4.576  69.697  1.00  0.00    -0.288 C  
HETATM   18  C   UNL     1     -10.038   7.082  69.564  1.00  0.00    -0.179 A  
HETATM   19  C   UNL     1      -9.680   3.257  70.369  1.00  0.00    -0.055 C  
HETATM   20  C   UNL     1      -9.489   4.643  68.375  1.00  0.00    -0.145 C  
HETATM   21  N   UNL     1      -9.425   5.787  67.591  1.00  0.00    -0.111 NA 
HETATM   22  O   UNL     1      -9.864   3.310  71.705  1.00  0.00    -0.167 OA 
HETATM   23  O   UNL     1      -9.502   2.203  69.778  1.00  0.00    -0.113 OA 
HETATM   24  C   UNL     1      -9.741   7.072  68.180  1.00  0.00    -0.133 A  
HETATM   25  C   UNL     1      -9.769   8.338  67.489  1.00  0.00    -0.165 A  
BRANCH  21  26
HETATM   26  C   UNL     1      -9.333   5.570  66.129  1.00  0.00    -0.157 C  
HETATM   27  C   UNL     1      -8.308   4.631  65.541  1.00  0.00    -0.118 C  
HETATM   28  C   UNL     1      -9.754   4.279  65.449  1.00  0.00    -0.204 C  
ENDBRANCH  21  26
BRANCH  25  29
HETATM   29  O   UNL     1      -9.179   8.372  66.239  1.00  0.00    -0.182 OA 
HETATM   30  C   UNL     1      -7.793   8.697  66.183  1.00  0.00    -0.098 C  
ENDBRANCH  25  29
ENDBRANCH   3  11
TORSDOF 3
ENDMDL
MODEL       79
REMARK 921   NORMALIZED FREE ENERGY PREDICTED BY IDOCK:   -4.60 KCAL/MOL
REMARK 922        TOTAL FREE ENERGY PREDICTED BY IDOCK:   -6.22 KCAL/MOL
REMARK 923 INTER-LIGAND FREE ENERGY PREDICTED BY IDOCK:   -5.62 KCAL/MOL
REMARK 924 INTRA-LIGAND FREE ENERGY PREDICTED BY IDOCK:   -0.60 KCAL/MOL
REMARK 927      BINDING AFFINITY PREDICTED BY RF-SCORE:    0.00 PKD
ROOT
HETATM    1  C   UNL     1      -9.284   7.122  66.621  1.00  0.00    -0.193 C  
HETATM    2  C   UNL     1      -8.900   8.549  66.183  1.00  0.00    -0.167 C  
HETATM    3  N   UNL     1      -8.547   9.251  67.437  1.00  0.00    -0.122 NA 
HETATM    4  C   UNL     1     -10.760   7.021  67.035  1.00  0.00    -0.423 C  
HETATM    5  C   UNL     1      -8.301   8.269  68.488  1.00  0.00    -0.129 C  
HETATM    6  C   UNL     1      -8.310   6.895  67.783  1.00  0.00    -0.120 C  
HETATM    7  C   UNL     1     -11.027   5.853  67.981  1.00  0.00    -0.252 C  
HETATM    8  N   UNL     1      -8.645   5.743  68.626  1.00  0.00    -0.109 NA 
HETATM    9  H   UNL     1      -7.983   5.653  69.396  1.00  0.00     0.000 HD 
HETATM   10  C   UNL     1     -10.022   5.774  69.124  1.00  0.00    -0.177 C  
ENDROOT
BRANCH   3  11
HETATM   11  C   UNL     1      -8.208  10.595  67.516  1.00  0.00    -0.111 A  
HETATM   12  C   UNL     1      -6.453  12.303  67.190  1.00  0.00    -0.118 A  
HETATM   13  F   UNL     1      -5.996  10.094  66.719  1.00  0.00    -0.051 F  
HETATM   14  C   UNL     1      -6.906  10.997  67.119  1.00  0.00    -0.098 A  
HETATM   15  C   UNL     1      -6.755  14.682  67.677  1.00  0.00    -0.174 C  
HETATM   16  O   UNL     1      -5.572  14.914  67.435  1.00  0.00    -0.341 OA 
HETATM   17  C   UNL     1      -7.657  15.784  68.002  1.00  0.00    -0.134 C  
HETATM   18  C   UNL     1      -7.310  13.307  67.618  1.00  0.00    -0.164 A  
HETATM   19  C   UNL     1      -7.260  17.210  68.027  1.00  0.00    -0.184 C  
HETATM   20  C   UNL     1      -8.921  15.450  68.308  1.00  0.00    -0.185 C  
HETATM   21  N   UNL     1      -9.455  14.171  68.391  1.00  0.00    -0.211 NA 
HETATM   22  O   UNL     1      -5.957  17.430  67.757  1.00  0.00    -0.132 OA 
HETATM   23  O   UNL     1      -8.036  18.122  68.271  1.00  0.00    -0.278 OA 
HETATM   24  C   UNL     1      -8.644  13.035  68.003  1.00  0.00    -0.186 A  
HETATM   25  C   UNL     1      -9.069  11.657  67.986  1.00  0.00    -0.177 A  
BRANCH  21  26
HETATM   26  C   UNL     1     -10.921  14.090  68.583  1.00  0.00    -0.263 C  
HETATM   27  C   UNL     1     -11.718  15.285  69.044  1.00  0.00    -0.368 C  
HETATM   28  C   UNL     1     -11.922  14.765  67.662  1.00  0.00    -0.244 C  
ENDBRANCH  21  26
BRANCH  25  29
HETATM   29  O   UNL     1     -10.244  11.365  68.653  1.00  0.00    -0.198 OA 
HETATM   30  C   UNL     1     -11.321  10.847  67.877  1.00  0.00    -0.308 C  
ENDBRANCH  25  29
ENDBRANCH   3  11
TORSDOF 3
ENDMDL
MODEL       80
REMARK 921   NORMALIZED FREE ENERGY PREDICTED BY IDOCK:   -4.55 KCAL/MOL
REMARK 922        TOTAL FREE ENERGY PREDICTED BY IDOCK:   -6.15 KCAL/MOL
REMARK 923 INTER-LIGAND FREE ENERGY PREDICTED BY IDOCK:   -6.43 KCAL/MOL
REMARK 924 INTRA-LIGAND FREE ENERGY PREDICTED BY IDOCK:    0.28 KCAL/MOL
REMARK 927      BINDING AFFINITY PREDICTED BY RF-SCORE:    0.00 PKD
ROOT
HETATM    1  C   UNL     1      -9.109   6.119  65.941  1.00  0.00    -0.101 C  
HETATM    2  C   UNL     1     -10.082   6.941  66.809  1.00  0.00    -0.194 C  
HETATM    3  N   UNL     1      -9.559   8.325  66.761  1.00  0.00    -0.204 NA 
HETATM    4  C   UNL     1      -7.891   5.632  66.742  1.00  0.00    -0.101 C  
HETATM    5  C   UNL     1      -8.632   8.452  65.641  1.00  0.00    -0.174 C  
HETATM    6  C   UNL     1      -8.753   7.132  64.849  1.00  0.00     0.287 C  
HETATM    7  C   UNL     1      -6.683   5.342  65.854  1.00  0.00    -0.053 C  
HETATM    8  N   UNL     1      -7.587   6.758  64.044  1.00  0.00    -0.102 NA 
HETATM    9  H   UNL     1      -7.378   7.477  63.351  1.00  0.00     0.000 HD 
HETATM   10  C   UNL     1      -6.403   6.454  64.851  1.00  0.00    -0.034 C  
ENDROOT
BRANCH   3  11
HETATM   11  C   UNL     1     -10.095   9.392  67.469  1.00  0.00    -0.215 A  
HETATM   12  C   UNL     1     -10.419  11.839  67.585  1.00  0.00    -0.223 A  
HETATM   13  F   UNL     1      -9.273  10.922  65.808  1.00  0.00    -0.183 F  
HETATM   14  C   UNL     1      -9.954  10.703  66.944  1.00  0.00    -0.202 A  
HETATM   15  C   UNL     1     -11.574  12.978  69.416  1.00  0.00    -0.299 C  
HETATM   16  O   UNL     1     -11.292  14.080  68.950  1.00  0.00    -0.248 OA 
HETATM   17  C   UNL     1     -12.413  12.890  70.609  1.00  0.00    -0.333 C  
HETATM   18  C   UNL     1     -11.112  11.719  68.781  1.00  0.00    -0.293 A  
HETATM   19  C   UNL     1     -13.004  14.056  71.304  1.00  0.00    -0.347 C  
HETATM   20  C   UNL     1     -12.635  11.657  71.092  1.00  0.00    -0.335 C  
HETATM   21  N   UNL     1     -12.121  10.462  70.609  1.00  0.00    -0.319 NA 
HETATM   22  O   UNL     1     -12.674  15.249  70.767  1.00  0.00    -0.375 OA 
HETATM   23  O   UNL     1     -13.729  13.962  72.283  1.00  0.00    -0.466 OA 
HETATM   24  C   UNL     1     -11.349  10.461  69.383  1.00  0.00    -0.250 A  
HETATM   25  C   UNL     1     -10.794   9.301  68.731  1.00  0.00    -0.088 A  
BRANCH  21  26
HETATM   26  C   UNL     1     -12.660   9.227  71.225  1.00  0.00    -0.306 C  
HETATM   27  C   UNL     1     -12.186   8.756  72.578  1.00  0.00    -0.347 C  
HETATM   28  C   UNL     1     -13.590   9.230  72.424  1.00  0.00    -0.527 C  
ENDBRANCH  21  26
BRANCH  25  29
HETATM   29  O   UNL     1     -10.754   8.135  69.473  1.00  0.00    -0.227 OA 
HETATM   30  C   UNL     1      -9.605   7.923  70.289  1.00  0.00    -0.171 C  
ENDBRANCH  25  29
ENDBRANCH   3  11
TORSDOF 3
ENDMDL
MODEL       81
REMARK 921   NORMALIZED FREE ENERGY PREDICTED BY IDOCK:   -4.50 KCAL/MOL
REMARK 922        TOTAL FREE ENERGY PREDICTED BY IDOCK:   -6.10 KCAL/MOL
REMARK 923 INTER-LIGAND FREE ENERGY PREDICTED BY IDOCK:   -5.91 KCAL/MOL
REMARK 924 INTRA-LIGAND FREE ENERGY PREDICTED BY IDOCK:   -0.19 KCAL/MOL
REMARK 927      BINDING AFFINITY PREDICTED BY RF-SCORE:    0.00 PKD
ROOT
HETATM    1  C   UNL     1      -9.952  18.745  68.299  1.00  0.00    -0.432 C  
HETATM    2  C   UNL     1      -9.800  17.312  68.847  1.00  0.00    -0.286 C  
HETATM    3  N   UNL     1      -8.593  16.776  68.180  1.00  0.00    -0.211 NA 
HETATM    4  C   UNL     1     -10.730  18.777  66.974  1.00  0.00    -0.435 C  
HETATM    5  C   UNL     1      -7.817  17.880  67.624  1.00  0.00    -0.218 C  
HETATM    6  C   UNL     1      -8.486  19.166  68.154  1.00  0.00    -0.320 C  
HETATM    7  C   UNL     1     -10.415  20.016  66.138  1.00  0.00    -0.526 C  
HETATM    8  N   UNL     1      -8.289  20.372  67.344  1.00  0.00    -0.336 NA 
HETATM    9  H   UNL     1      -7.297  20.593  67.258  1.00  0.00     0.000 HD 
HETATM   10  C   UNL     1      -8.921  20.290  66.025  1.00  0.00    -0.048 C  
ENDROOT
BRANCH   3  11
HETATM   11  C   UNL     1      -8.124  15.477  68.330  1.00  0.00    -0.133 A  
HETATM   12  C   UNL     1      -6.541  13.974  69.485  1.00  0.00    -0.115 A  
HETATM   13  F   UNL     1      -6.557  16.222  69.992  1.00  0.00    -0.198 F  
HETATM   14  C   UNL     1      -7.102  15.222  69.280  1.00  0.00    -0.177 A  
HETATM   15  C   UNL     1      -6.363  11.574  69.041  1.00  0.00    -0.069 C  
HETATM   16  O   UNL     1      -5.394  11.475  69.791  1.00  0.00    -0.060 OA 
HETATM   17  C   UNL     1      -6.915  10.378  68.409  1.00  0.00    -0.069 C  
HETATM   18  C   UNL     1      -7.016  12.880  68.776  1.00  0.00    -0.103 A  
HETATM   19  C   UNL     1      -6.413   9.004  68.638  1.00  0.00    -0.054 C  
HETATM   20  C   UNL     1      -7.938  10.570  67.561  1.00  0.00    -0.107 C  
HETATM   21  N   UNL     1      -8.500  11.781  67.184  1.00  0.00    -0.163 NA 
HETATM   22  O   UNL     1      -5.350   8.931  69.465  1.00  0.00    -0.034 OA 
HETATM   23  O   UNL     1      -6.907   8.011  68.125  1.00  0.00    -0.065 OA 
HETATM   24  C   UNL     1      -8.060  13.001  67.829  1.00  0.00    -0.168 A  
HETATM   25  C   UNL     1      -8.580  14.325  67.585  1.00  0.00    -0.183 A  
BRANCH  21  26
HETATM   26  C   UNL     1      -9.729  11.700  66.362  1.00  0.00    -0.214 C  
HETATM   27  C   UNL     1     -10.505  10.412  66.238  1.00  0.00    -0.229 C  
HETATM   28  C   UNL     1     -11.121  11.565  66.953  1.00  0.00    -0.366 C  
ENDBRANCH  21  26
BRANCH  25  29
HETATM   29  O   UNL     1      -9.359  14.483  66.454  1.00  0.00    -0.282 OA 
HETATM   30  C   UNL     1     -10.728  14.827  66.650  1.00  0.00    -0.309 C  
ENDBRANCH  25  29
ENDBRANCH   3  11
TORSDOF 3
ENDMDL
MODEL       82
REMARK 921   NORMALIZED FREE ENERGY PREDICTED BY IDOCK:   -4.40 KCAL/MOL
REMARK 922        TOTAL FREE ENERGY PREDICTED BY IDOCK:   -5.98 KCAL/MOL
REMARK 923 INTER-LIGAND FREE ENERGY PREDICTED BY IDOCK:   -5.22 KCAL/MOL
REMARK 924 INTRA-LIGAND FREE ENERGY PREDICTED BY IDOCK:   -0.77 KCAL/MOL
REMARK 927      BINDING AFFINITY PREDICTED BY RF-SCORE:    0.00 PKD
ROOT
HETATM    1  C   UNL     1      -9.790   7.244  67.705  1.00  0.00    -0.189 C  
HETATM    2  C   UNL     1      -9.873   8.674  68.275  1.00  0.00    -0.165 C  
HETATM    3  N   UNL     1      -8.939   9.469  67.446  1.00  0.00    -0.131 NA 
HETATM    4  C   UNL     1      -8.635   6.442  68.324  1.00  0.00    -0.114 C  
HETATM    5  C   UNL     1      -8.641   8.739  66.219  1.00  0.00    -0.131 C  
HETATM    6  C   UNL     1      -9.600   7.529  66.211  1.00  0.00    -0.065 C  
HETATM    7  C   UNL     1      -8.166   5.299  67.426  1.00  0.00    -0.103 C  
HETATM    8  N   UNL     1      -9.160   6.367  65.433  1.00  0.00    -0.367 NA 
HETATM    9  H   UNL     1      -9.025   6.617  64.454  1.00  0.00     0.000 HD 
HETATM   10  C   UNL     1      -7.961   5.728  65.979  1.00  0.00    -0.103 C  
ENDROOT
BRANCH   3  11
HETATM   11  C   UNL     1      -8.646  10.809  67.660  1.00  0.00    -0.123 A  
HETATM   12  C   UNL     1      -7.233  12.449  68.853  1.00  0.00    -0.061 A  
HETATM   13  F   UNL     1      -6.907  10.195  69.201  1.00  0.00    -0.050 F  
HETATM   14  C   UNL     1      -7.586  11.147  68.542  1.00  0.00    -0.120 A  
HETATM   15  C   UNL     1      -7.471  14.874  68.630  1.00  0.00    -0.124 C  
HETATM   16  O   UNL     1      -6.628  15.068  69.504  1.00  0.00    -0.129 OA 
HETATM   17  C   UNL     1      -8.057  16.011  67.924  1.00  0.00    -0.149 C  
HETATM   18  C   UNL     1      -7.896  13.506  68.245  1.00  0.00    -0.145 A  
HETATM   19  C   UNL     1      -7.676  17.423  68.152  1.00  0.00    -0.221 C  
HETATM   20  C   UNL     1      -9.009  15.725  67.022  1.00  0.00    -0.224 C  
HETATM   21  N   UNL     1      -9.530  14.476  66.717  1.00  0.00    -0.257 NA 
HETATM   22  O   UNL     1      -6.749  17.601  69.116  1.00  0.00    -0.241 OA 
HETATM   23  O   UNL     1      -8.154  18.360  67.529  1.00  0.00    -0.243 OA 
HETATM   24  C   UNL     1      -8.944  13.295  67.318  1.00  0.00    -0.217 A  
HETATM   25  C   UNL     1      -9.338  11.930  67.065  1.00  0.00    -0.188 A  
BRANCH  21  26
HETATM   26  C   UNL     1     -10.455  14.420  65.562  1.00  0.00    -0.350 C  
HETATM   27  C   UNL     1     -11.902  14.827  65.698  1.00  0.00    -0.212 C  
HETATM   28  C   UNL     1     -10.989  15.656  64.860  1.00  0.00    -0.447 C  
ENDBRANCH  21  26
BRANCH  25  29
HETATM   29  O   UNL     1     -10.546  11.746  66.418  1.00  0.00    -0.237 OA 
HETATM   30  C   UNL     1     -11.695  11.534  67.234  1.00  0.00    -0.111 C  
ENDBRANCH  25  29
ENDBRANCH   3  11
TORSDOF 3
ENDMDL
MODEL       83
REMARK 921   NORMALIZED FREE ENERGY PREDICTED BY IDOCK:   -4.26 KCAL/MOL
REMARK 922        TOTAL FREE ENERGY PREDICTED BY IDOCK:   -5.81 KCAL/MOL
REMARK 923 INTER-LIGAND FREE ENERGY PREDICTED BY IDOCK:   -5.02 KCAL/MOL
REMARK 924 INTRA-LIGAND FREE ENERGY PREDICTED BY IDOCK:   -0.79 KCAL/MOL
REMARK 927      BINDING AFFINITY PREDICTED BY RF-SCORE:    0.00 PKD
ROOT
HETATM    1  C   UNL     1     -10.678   8.951  71.761  1.00  0.00    -0.432 C  
HETATM    2  C   UNL     1      -9.817   7.933  70.989  1.00  0.00    -0.170 C  
HETATM    3  N   UNL     1     -10.369   7.931  69.615  1.00  0.00    -0.212 NA 
HETATM    4  C   UNL     1     -11.956   8.314  72.329  1.00  0.00    -0.448 C  
HETATM    5  C   UNL     1     -11.184   9.125  69.421  1.00  0.00     0.085 C  
HETATM    6  C   UNL     1     -10.952   9.996  70.675  1.00  0.00    -0.322 C  
HETATM    7  C   UNL     1     -13.063   9.336  72.574  1.00  0.00    -0.416 C  
HETATM    8  N   UNL     1     -12.024  10.939  71.009  1.00  0.00    -0.309 NA 
HETATM    9  H   UNL     1     -12.182  11.594  70.244  1.00  0.00     0.000 HD 
HETATM   10  C   UNL     1     -13.272  10.278  71.395  1.00  0.00    -0.370 C  
ENDROOT
BRANCH   3  11
HETATM   11  C   UNL     1      -9.933   7.097  68.595  1.00  0.00    -0.159 A  
HETATM   12  C   UNL     1      -9.936   4.813  67.652  1.00  0.00    -0.178 A  
HETATM   13  F   UNL     1     -11.093   5.246  69.597  1.00  0.00    -0.323 F  
HETATM   14  C   UNL     1     -10.340   5.737  68.600  1.00  0.00    -0.221 A  
HETATM   15  C   UNL     1      -8.731   4.172  65.621  1.00  0.00    -0.119 C  
HETATM   16  O   UNL     1      -9.028   2.990  65.780  1.00  0.00    -0.135 OA 
HETATM   17  C   UNL     1      -7.990   4.578  64.429  1.00  0.00    -0.095 C  
HETATM   18  C   UNL     1      -9.132   5.217  66.595  1.00  0.00    -0.120 A  
HETATM   19  C   UNL     1      -7.589   3.659  63.340  1.00  0.00    -0.059 C  
HETATM   20  C   UNL     1      -7.655   5.876  64.349  1.00  0.00    -0.087 C  
HETATM   21  N   UNL     1      -7.895   6.865  65.292  1.00  0.00    -0.110 NA 
HETATM   22  O   UNL     1      -7.929   2.370  63.547  1.00  0.00    -0.070 OA 
HETATM   23  O   UNL     1      -6.996   4.022  62.335  1.00  0.00    -0.030 OA 
HETATM   24  C   UNL     1      -8.694   6.555  66.460  1.00  0.00    -0.134 A  
HETATM   25  C   UNL     1      -9.072   7.482  67.499  1.00  0.00    -0.125 A  
BRANCH  21  26
HETATM   26  C   UNL     1      -7.568   8.249  64.881  1.00  0.00    -0.097 C  
HETATM   27  C   UNL     1      -6.174   8.629  64.447  1.00  0.00    -0.067 C  
HETATM   28  C   UNL     1      -7.277   8.646  63.445  1.00  0.00    -0.095 C  
ENDBRANCH  21  26
BRANCH  25  29
HETATM   29  O   UNL     1      -8.391   8.685  67.531  1.00  0.00    -0.118 OA 
HETATM   30  C   UNL     1      -7.185   8.729  68.289  1.00  0.00    -0.082 C  
ENDBRANCH  25  29
ENDBRANCH   3  11
TORSDOF 3
ENDMDL
MODEL       84
REMARK 921   NORMALIZED FREE ENERGY PREDICTED BY IDOCK:   -4.26 KCAL/MOL
REMARK 922        TOTAL FREE ENERGY PREDICTED BY IDOCK:   -5.81 KCAL/MOL
REMARK 923 INTER-LIGAND FREE ENERGY PREDICTED BY IDOCK:   -5.34 KCAL/MOL
REMARK 924 INTRA-LIGAND FREE ENERGY PREDICTED BY IDOCK:   -0.47 KCAL/MOL
REMARK 927      BINDING AFFINITY PREDICTED BY RF-SCORE:    0.00 PKD
ROOT
HETATM    1  C   UNL     1     -10.105   3.926  63.549  1.00  0.00    -0.176 C  
HETATM    2  C   UNL     1     -10.762   4.201  64.916  1.00  0.00    -0.114 C  
HETATM    3  N   UNL     1      -9.631   4.428  65.843  1.00  0.00    -0.171 NA 
HETATM    4  C   UNL     1      -9.731   2.446  63.375  1.00  0.00    -0.106 C  
HETATM    5  C   UNL     1      -8.424   4.710  65.073  1.00  0.00    -0.133 C  
HETATM    6  C   UNL     1      -8.891   4.858  63.608  1.00  0.00    -0.070 C  
HETATM    7  C   UNL     1      -8.612   2.240  62.356  1.00  0.00    -0.074 C  
HETATM    8  N   UNL     1      -7.879   4.587  62.582  1.00  0.00    -0.064 NA 
HETATM    9  H   UNL     1      -7.083   5.217  62.682  1.00  0.00     0.000 HD 
HETATM   10  C   UNL     1      -7.440   3.190  62.561  1.00  0.00    -0.052 C  
ENDROOT
BRANCH   3  11
HETATM   11  C   UNL     1      -9.765   4.642  67.208  1.00  0.00    -0.185 A  
HETATM   12  C   UNL     1      -9.655   3.660  69.473  1.00  0.00    -0.207 A  
HETATM   13  F   UNL     1      -9.206   2.344  67.635  1.00  0.00    -0.162 F  
HETATM   14  C   UNL     1      -9.517   3.565  68.099  1.00  0.00    -0.155 A  
HETATM   15  C   UNL     1     -10.140   4.901  71.525  1.00  0.00    -0.197 C  
HETATM   16  O   UNL     1     -10.031   3.882  72.204  1.00  0.00    -0.162 OA 
HETATM   17  C   UNL     1     -10.381   6.185  72.179  1.00  0.00    -0.227 C  
HETATM   18  C   UNL     1     -10.002   4.874  70.048  1.00  0.00    -0.323 A  
HETATM   19  C   UNL     1     -10.468   6.373  73.645  1.00  0.00    -0.295 C  
HETATM   20  C   UNL     1     -10.543   7.245  71.371  1.00  0.00    -0.211 C  
HETATM   21  N   UNL     1     -10.549   7.249  69.983  1.00  0.00    -0.228 NA 
HETATM   22  O   UNL     1     -10.345   5.236  74.360  1.00  0.00    -0.254 OA 
HETATM   23  O   UNL     1     -10.640   7.460  74.176  1.00  0.00    -0.194 OA 
HETATM   24  C   UNL     1     -10.236   6.030  69.266  1.00  0.00    -0.207 A  
HETATM   25  C   UNL     1     -10.153   5.887  67.833  1.00  0.00    -0.162 A  
BRANCH  21  26
HETATM   26  C   UNL     1     -10.580   8.581  69.337  1.00  0.00    -0.195 C  
HETATM   27  C   UNL     1     -11.193   9.774  70.030  1.00  0.00    -0.297 C  
HETATM   28  C   UNL     1      -9.722   9.749  69.791  1.00  0.00    -0.256 C  
ENDBRANCH  21  26
BRANCH  25  29
HETATM   29  O   UNL     1     -10.685   6.916  67.078  1.00  0.00    -0.310 OA 
HETATM   30  C   UNL     1      -9.766   7.763  66.394  1.00  0.00    -0.149 C  
ENDBRANCH  25  29
ENDBRANCH   3  11
TORSDOF 3
ENDMDL
MODEL       85
REMARK 921   NORMALIZED FREE ENERGY PREDICTED BY IDOCK:   -4.19 KCAL/MOL
REMARK 922        TOTAL FREE ENERGY PREDICTED BY IDOCK:   -5.73 KCAL/MOL
REMARK 923 INTER-LIGAND FREE ENERGY PREDICTED BY IDOCK:   -5.41 KCAL/MOL
REMARK 924 INTRA-LIGAND FREE ENERGY PREDICTED BY IDOCK:   -0.33 KCAL/MOL
REMARK 927      BINDING AFFINITY PREDICTED BY RF-SCORE:    0.00 PKD
ROOT
HETATM    1  C   UNL     1      -8.229   7.132  70.642  1.00  0.00    -0.117 C  
HETATM    2  C   UNL     1      -8.854   8.508  70.338  1.00  0.00    -0.150 C  
HETATM    3  N   UNL     1      -7.909   9.157  69.402  1.00  0.00    -0.092 NA 
HETATM    4  C   UNL     1      -7.214   7.201  71.794  1.00  0.00    -0.076 C  
HETATM    5  C   UNL     1      -7.025   8.147  68.831  1.00  0.00    -0.062 C  
HETATM    6  C   UNL     1      -7.594   6.788  69.292  1.00  0.00    -0.096 C  
HETATM    7  C   UNL     1      -6.194   6.066  71.746  1.00  0.00    -0.044 C  
HETATM    8  N   UNL     1      -6.638   5.678  69.347  1.00  0.00    -0.051 NA 
HETATM    9  H   UNL     1      -6.226   5.507  68.430  1.00  0.00     0.000 HD 
HETATM   10  C   UNL     1      -5.596   5.865  70.360  1.00  0.00    -0.013 C  
ENDROOT
BRANCH   3  11
HETATM   11  C   UNL     1      -8.045  10.452  68.921  1.00  0.00    -0.129 A  
HETATM   12  C   UNL     1      -7.068  12.717  68.781  1.00  0.00    -0.089 A  
HETATM   13  F   UNL     1      -5.950  11.060  69.927  1.00  0.00    -0.053 F  
HETATM   14  C   UNL     1      -7.017  11.394  69.184  1.00  0.00    -0.118 A  
HETATM   15  C   UNL     1      -8.138  14.599  67.640  1.00  0.00    -0.173 C  
HETATM   16  O   UNL     1      -7.263  15.371  68.026  1.00  0.00    -0.108 OA 
HETATM   17  C   UNL     1      -9.188  15.082  66.747  1.00  0.00    -0.280 C  
HETATM   18  C   UNL     1      -8.145  13.167  68.031  1.00  0.00    -0.157 A  
HETATM   19  C   UNL     1      -9.266  16.463  66.218  1.00  0.00    -0.315 C  
HETATM   20  C   UNL     1     -10.139  14.197  66.410  1.00  0.00    -0.293 C  
HETATM   21  N   UNL     1     -10.259  12.886  66.850  1.00  0.00    -0.240 NA 
HETATM   22  O   UNL     1      -8.291  17.284  66.662  1.00  0.00    -0.222 OA 
HETATM   23  O   UNL     1     -10.134  16.842  65.447  1.00  0.00    -0.586 OA 
HETATM   24  C   UNL     1      -9.213  12.312  67.671  1.00  0.00    -0.183 A  
HETATM   25  C   UNL     1      -9.169  10.956  68.163  1.00  0.00    -0.158 A  
BRANCH  21  26
HETATM   26  C   UNL     1     -11.308  12.073  66.192  1.00  0.00    -0.351 C  
HETATM   27  C   UNL     1     -12.453  12.721  65.453  1.00  0.00    -0.478 C  
HETATM   28  C   UNL     1     -11.440  11.942  64.686  1.00  0.00    -0.345 C  
ENDBRANCH  21  26
BRANCH  25  29
HETATM   29  O   UNL     1     -10.343  10.231  68.081  1.00  0.00    -0.160 OA 
HETATM   30  C   UNL     1     -10.356   9.112  67.199  1.00  0.00    -0.267 C  
ENDBRANCH  25  29
ENDBRANCH   3  11
TORSDOF 3
ENDMDL
MODEL       86
REMARK 921   NORMALIZED FREE ENERGY PREDICTED BY IDOCK:   -4.15 KCAL/MOL
REMARK 922        TOTAL FREE ENERGY PREDICTED BY IDOCK:   -5.69 KCAL/MOL
REMARK 923 INTER-LIGAND FREE ENERGY PREDICTED BY IDOCK:   -4.99 KCAL/MOL
REMARK 924 INTRA-LIGAND FREE ENERGY PREDICTED BY IDOCK:   -0.70 KCAL/MOL
REMARK 927      BINDING AFFINITY PREDICTED BY RF-SCORE:    0.00 PKD
ROOT
HETATM    1  C   UNL     1      -8.844   3.097  69.981  1.00  0.00    -0.151 C  
HETATM    2  C   UNL     1      -9.466   4.329  69.294  1.00  0.00    -0.184 C  
HETATM    3  N   UNL     1      -8.901   5.492  70.015  1.00  0.00    -0.126 NA 
HETATM    4  C   UNL     1      -9.646   2.658  71.216  1.00  0.00    -0.226 C  
HETATM    5  C   UNL     1      -7.724   5.070  70.766  1.00  0.00    -0.078 C  
HETATM    6  C   UNL     1      -7.444   3.619  70.319  1.00  0.00    -0.041 C  
HETATM    7  C   UNL     1      -8.803   1.866  72.212  1.00  0.00    -0.094 C  
HETATM    8  N   UNL     1      -6.710   2.783  71.274  1.00  0.00    -0.030 NA 
HETATM    9  H   UNL     1      -5.798   3.188  71.484  1.00  0.00     0.000 HD 
HETATM   10  C   UNL     1      -7.460   2.522  72.505  1.00  0.00    -0.047 C  
ENDROOT
BRANCH   3  11
HETATM   11  C   UNL     1      -9.250   6.813  69.769  1.00  0.00    -0.146 A  
HETATM   12  C   UNL     1      -8.689   8.912  68.590  1.00  0.00    -0.134 A  
HETATM   13  F   UNL     1      -7.349   7.057  68.318  1.00  0.00    -0.084 F  
HETATM   14  C   UNL     1      -8.452   7.579  68.879  1.00  0.00    -0.129 A  
HETATM   15  C   UNL     1      -9.979  10.981  68.797  1.00  0.00    -0.207 C  
HETATM   16  O   UNL     1      -9.160  11.596  68.118  1.00  0.00    -0.170 OA 
HETATM   17  C   UNL     1     -11.191  11.655  69.257  1.00  0.00    -0.328 C  
HETATM   18  C   UNL     1      -9.790   9.550  69.144  1.00  0.00    -0.176 A  
HETATM   19  C   UNL     1     -11.545  13.054  68.928  1.00  0.00    -0.311 C  
HETATM   20  C   UNL     1     -12.012  10.937  70.039  1.00  0.00    -0.350 C  
HETATM   21  N   UNL     1     -11.818   9.640  70.494  1.00  0.00    -0.247 NA 
HETATM   22  O   UNL     1     -10.625  13.700  68.183  1.00  0.00    -0.235 OA 
HETATM   23  O   UNL     1     -12.579  13.593  69.296  1.00  0.00    -0.082 OA 
HETATM   24  C   UNL     1     -10.682   8.881  70.015  1.00  0.00    -0.228 A  
HETATM   25  C   UNL     1     -10.372   7.513  70.353  1.00  0.00    -0.214 A  
BRANCH  21  26
HETATM   26  C   UNL     1     -12.960   9.022  71.206  1.00  0.00    -0.230 C  
HETATM   27  C   UNL     1     -13.166   9.231  72.686  1.00  0.00    -0.333 C  
HETATM   28  C   UNL     1     -14.146   9.814  71.727  1.00  0.00     0.027 C  
ENDBRANCH  21  26
BRANCH  25  29
HETATM   29  O   UNL     1     -11.051   6.975  71.430  1.00  0.00    -0.238 OA 
HETATM   30  C   UNL     1     -10.375   6.963  72.685  1.00  0.00    -0.203 C  
ENDBRANCH  25  29
ENDBRANCH   3  11
TORSDOF 3
ENDMDL
MODEL       87
REMARK 921   NORMALIZED FREE ENERGY PREDICTED BY IDOCK:   -4.10 KCAL/MOL
REMARK 922        TOTAL FREE ENERGY PREDICTED BY IDOCK:   -5.63 KCAL/MOL
REMARK 923 INTER-LIGAND FREE ENERGY PREDICTED BY IDOCK:   -4.88 KCAL/MOL
REMARK 924 INTRA-LIGAND FREE ENERGY PREDICTED BY IDOCK:   -0.75 KCAL/MOL
REMARK 927      BINDING AFFINITY PREDICTED BY RF-SCORE:    0.00 PKD
ROOT
HETATM    1  C   UNL     1     -10.007   6.955  66.890  1.00  0.00    -0.264 C  
HETATM    2  C   UNL     1     -10.585   8.384  66.914  1.00  0.00    -0.215 C  
HETATM    3  N   UNL     1      -9.504   9.241  66.377  1.00  0.00    -0.198 NA 
HETATM    4  C   UNL     1      -9.196   6.639  68.156  1.00  0.00    -0.117 C  
HETATM    5  C   UNL     1      -8.530   8.409  65.679  1.00  0.00    -0.164 C  
HETATM    6  C   UNL     1      -9.156   6.999  65.617  1.00  0.00     0.139 C  
HETATM    7  C   UNL     1      -8.172   5.528  67.935  1.00  0.00    -0.100 C  
HETATM    8  N   UNL     1      -8.213   5.884  65.491  1.00  0.00    -0.131 NA 
HETATM    9  H   UNL     1      -7.655   5.975  64.642  1.00  0.00     0.000 HD 
HETATM   10  C   UNL     1      -7.353   5.721  66.665  1.00  0.00    -0.082 C  
ENDROOT
BRANCH   3  11
HETATM   11  C   UNL     1      -9.571  10.625  66.288  1.00  0.00    -0.185 A  
HETATM   12  C   UNL     1     -10.469  12.575  65.064  1.00  0.00    -0.323 A  
HETATM   13  F   UNL     1     -10.997  10.444  64.362  1.00  0.00    -0.128 F  
HETATM   14  C   UNL     1     -10.361  11.209  65.264  1.00  0.00    -0.277 A  
HETATM   15  C   UNL     1      -9.977  14.899  65.649  1.00  0.00    -0.358 C  
HETATM   16  O   UNL     1     -10.579  15.308  64.657  1.00  0.00    -0.335 OA 
HETATM   17  C   UNL     1      -9.419  15.855  66.602  1.00  0.00    -0.263 C  
HETATM   18  C   UNL     1      -9.824  13.450  65.927  1.00  0.00    -0.251 A  
HETATM   19  C   UNL     1      -9.557  17.325  66.492  1.00  0.00    -0.273 C  
HETATM   20  C   UNL     1      -8.730  15.336  67.631  1.00  0.00    -0.172 C  
HETATM   21  N   UNL     1      -8.451  13.997  67.866  1.00  0.00    -0.158 NA 
HETATM   22  O   UNL     1     -10.222  17.740  65.394  1.00  0.00    -0.551 OA 
HETATM   23  O   UNL     1      -9.110  18.108  67.316  1.00  0.00    -0.248 OA 
HETATM   24  C   UNL     1      -9.039  12.988  67.009  1.00  0.00    -0.230 A  
HETATM   25  C   UNL     1      -8.887  11.560  67.153  1.00  0.00    -0.168 A  
BRANCH  21  26
HETATM   26  C   UNL     1      -7.814  13.683  69.165  1.00  0.00     0.239 C  
HETATM   27  C   UNL     1      -6.361  13.997  69.421  1.00  0.00    -0.115 C  
HETATM   28  C   UNL     1      -7.408  14.742  70.173  1.00  0.00     0.226 C  
ENDBRANCH  21  26
BRANCH  25  29
HETATM   29  O   UNL     1      -7.882  11.129  67.999  1.00  0.00    -0.106 OA 
HETATM   30  C   UNL     1      -6.626  10.809  67.406  1.00  0.00    -0.071 C  
ENDBRANCH  25  29
ENDBRANCH   3  11
TORSDOF 3
ENDMDL
MODEL       88
REMARK 921   NORMALIZED FREE ENERGY PREDICTED BY IDOCK:   -4.08 KCAL/MOL
REMARK 922        TOTAL FREE ENERGY PREDICTED BY IDOCK:   -5.61 KCAL/MOL
REMARK 923 INTER-LIGAND FREE ENERGY PREDICTED BY IDOCK:   -4.82 KCAL/MOL
REMARK 924 INTRA-LIGAND FREE ENERGY PREDICTED BY IDOCK:   -0.79 KCAL/MOL
REMARK 927      BINDING AFFINITY PREDICTED BY RF-SCORE:    0.00 PKD
ROOT
HETATM    1  C   UNL     1      -9.593   8.320  71.564  1.00  0.00    -0.247 C  
HETATM    2  C   UNL     1      -9.329   7.998  70.080  1.00  0.00    -0.156 C  
HETATM    3  N   UNL     1      -9.855   6.627  69.888  1.00  0.00    -0.167 NA 
HETATM    4  C   UNL     1      -8.463   7.813  72.475  1.00  0.00    -0.175 C  
HETATM    5  C   UNL     1     -10.746   6.293  70.994  1.00  0.00    -0.259 C  
HETATM    6  C   UNL     1     -10.927   7.602  71.793  1.00  0.00    -0.239 C  
HETATM    7  C   UNL     1      -8.925   7.590  73.913  1.00  0.00    -0.300 C  
HETATM    8  N   UNL     1     -11.287   7.447  73.206  1.00  0.00    -0.589 NA 
HETATM    9  H   UNL     1     -12.167   6.943  73.302  1.00  0.00     0.000 HD 
HETATM   10  C   UNL     1     -10.233   6.815  74.003  1.00  0.00    -0.369 C  
ENDROOT
BRANCH   3  11
HETATM   11  C   UNL     1      -9.759   5.908  68.705  1.00  0.00    -0.131 A  
HETATM   12  C   UNL     1     -10.763   5.412  66.502  1.00  0.00    -0.309 A  
HETATM   13  F   UNL     1     -11.782   6.930  67.906  1.00  0.00    -0.015 F  
HETATM   14  C   UNL     1     -10.744   6.102  67.703  1.00  0.00    -0.308 A  
HETATM   15  C   UNL     1      -9.835   3.803  64.909  1.00  0.00    -0.183 C  
HETATM   16  O   UNL     1     -10.800   3.943  64.159  1.00  0.00    -0.287 OA 
HETATM   17  C   UNL     1      -8.725   2.942  64.509  1.00  0.00    -0.102 C  
HETATM   18  C   UNL     1      -9.748   4.512  66.210  1.00  0.00    -0.216 A  
HETATM   19  C   UNL     1      -8.644   2.231  63.213  1.00  0.00    -0.085 C  
HETATM   20  C   UNL     1      -7.733   2.795  65.402  1.00  0.00    -0.077 C  
HETATM   21  N   UNL     1      -7.665   3.335  66.678  1.00  0.00    -0.076 NA 
HETATM   22  O   UNL     1      -9.717   2.406  62.414  1.00  0.00    -0.089 OA 
HETATM   23  O   UNL     1      -7.692   1.540  62.882  1.00  0.00    -0.047 OA 
HETATM   24  C   UNL     1      -8.689   4.263  67.114  1.00  0.00    -0.106 A  
HETATM   25  C   UNL     1      -8.731   4.943  68.385  1.00  0.00    -0.101 A  
BRANCH  21  26
HETATM   26  C   UNL     1      -6.381   3.154  67.394  1.00  0.00    -0.036 C  
HETATM   27  C   UNL     1      -6.022   1.837  68.037  1.00  0.00    -0.024 C  
HETATM   28  C   UNL     1      -5.240   2.308  66.859  1.00  0.00    -0.008 C  
ENDBRANCH  21  26
BRANCH  25  29
HETATM   29  O   UNL     1      -7.887   4.464  69.370  1.00  0.00    -0.058 OA 
HETATM   30  C   UNL     1      -8.405   3.459  70.239  1.00  0.00    -0.055 C  
ENDBRANCH  25  29
ENDBRANCH   3  11
TORSDOF 3
ENDMDL
MODEL       89
REMARK 921   NORMALIZED FREE ENERGY PREDICTED BY IDOCK:   -4.05 KCAL/MOL
REMARK 922        TOTAL FREE ENERGY PREDICTED BY IDOCK:   -5.57 KCAL/MOL
REMARK 923 INTER-LIGAND FREE ENERGY PREDICTED BY IDOCK:   -4.75 KCAL/MOL
REMARK 924 INTRA-LIGAND FREE ENERGY PREDICTED BY IDOCK:   -0.82 KCAL/MOL
REMARK 927      BINDING AFFINITY PREDICTED BY RF-SCORE:    0.00 PKD
ROOT
HETATM    1  C   UNL     1      -9.212   6.692  71.591  1.00  0.00    -0.145 C  
HETATM    2  C   UNL     1     -10.081   7.712  70.830  1.00  0.00    -0.189 C  
HETATM    3  N   UNL     1      -9.277   8.089  69.646  1.00  0.00    -0.152 NA 
HETATM    4  C   UNL     1      -8.220   7.375  72.545  1.00  0.00    -0.123 C  
HETATM    5  C   UNL     1      -8.226   7.098  69.441  1.00  0.00    -0.132 C  
HETATM    6  C   UNL     1      -8.532   5.955  70.432  1.00  0.00    -0.131 C  
HETATM    7  C   UNL     1      -7.009   6.500  72.858  1.00  0.00    -0.073 C  
HETATM    8  N   UNL     1      -7.389   5.132  70.837  1.00  0.00    -0.070 NA 
HETATM    9  H   UNL     1      -6.959   4.686  70.027  1.00  0.00     0.000 HD 
HETATM   10  C   UNL     1      -6.392   5.873  71.614  1.00  0.00    -0.048 C  
ENDROOT
BRANCH   3  11
HETATM   11  C   UNL     1      -9.652   9.048  68.715  1.00  0.00    -0.152 A  
HETATM   12  C   UNL     1     -10.960   9.550  66.679  1.00  0.00     0.192 A  
HETATM   13  F   UNL     1     -10.994   7.421  67.562  1.00  0.00    -0.307 F  
HETATM   14  C   UNL     1     -10.549   8.683  67.677  1.00  0.00    -0.203 A  
HETATM   15  C   UNL     1     -11.005  11.740  65.590  1.00  0.00    -0.295 C  
HETATM   16  O   UNL     1     -11.679  11.299  64.661  1.00  0.00     0.037 OA 
HETATM   17  C   UNL     1     -10.679  13.164  65.636  1.00  0.00    -0.294 C  
HETATM   18  C   UNL     1     -10.531  10.870  66.694  1.00  0.00    -0.307 A  
HETATM   19  C   UNL     1     -11.143  14.160  64.644  1.00  0.00    -0.371 C  
HETATM   20  C   UNL     1      -9.895  13.563  66.650  1.00  0.00    -0.279 C  
HETATM   21  N   UNL     1      -9.324  12.768  67.633  1.00  0.00    -0.184 NA 
HETATM   22  O   UNL     1     -11.880  13.643  63.639  1.00  0.00    -0.380 OA 
HETATM   23  O   UNL     1     -10.887  15.353  64.716  1.00  0.00    -0.422 OA 
HETATM   24  C   UNL     1      -9.667  11.362  67.700  1.00  0.00    -0.172 A  
HETATM   25  C   UNL     1      -9.199  10.421  68.688  1.00  0.00    -0.164 A  
BRANCH  21  26
HETATM   26  C   UNL     1      -8.638  13.485  68.733  1.00  0.00     0.091 C  
HETATM   27  C   UNL     1      -7.388  14.291  68.481  1.00  0.00    -0.117 C  
HETATM   28  C   UNL     1      -8.641  14.996  68.873  1.00  0.00    -0.189 C  
ENDBRANCH  21  26
BRANCH  25  29
HETATM   29  O   UNL     1      -8.126  10.821  69.463  1.00  0.00    -0.104 OA 
HETATM   30  C   UNL     1      -6.821  10.542  68.961  1.00  0.00    -0.068 C  
ENDBRANCH  25  29
ENDBRANCH   3  11
TORSDOF 3
ENDMDL
MODEL       90
REMARK 921   NORMALIZED FREE ENERGY PREDICTED BY IDOCK:   -3.87 KCAL/MOL
REMARK 922        TOTAL FREE ENERGY PREDICTED BY IDOCK:   -5.36 KCAL/MOL
REMARK 923 INTER-LIGAND FREE ENERGY PREDICTED BY IDOCK:   -4.76 KCAL/MOL
REMARK 924 INTRA-LIGAND FREE ENERGY PREDICTED BY IDOCK:   -0.60 KCAL/MOL
REMARK 927      BINDING AFFINITY PREDICTED BY RF-SCORE:    0.00 PKD
ROOT
HETATM    1  C   UNL     1     -10.909   8.742  71.883  1.00  0.00    -0.431 C  
HETATM    2  C   UNL     1      -9.664   8.605  70.984  1.00  0.00    -0.210 C  
HETATM    3  N   UNL     1     -10.106   9.063  69.648  1.00  0.00    -0.190 NA 
HETATM    4  C   UNL     1     -11.812   7.501  71.811  1.00  0.00    -0.327 C  
HETATM    5  C   UNL     1     -11.346   9.821  69.783  1.00  0.00    -0.158 C  
HETATM    6  C   UNL     1     -11.559  10.002  71.302  1.00  0.00    -0.350 C  
HETATM    7  C   UNL     1     -13.260   7.806  72.191  1.00  0.00    -0.137 C  
HETATM    8  N   UNL     1     -12.944  10.213  71.735  1.00  0.00    -0.434 NA 
HETATM    9  H   UNL     1     -13.336  11.048  71.300  1.00  0.00     0.000 HD 
HETATM   10  C   UNL     1     -13.804   9.050  71.501  1.00  0.00    -0.313 C  
ENDROOT
BRANCH   3  11
HETATM   11  C   UNL     1      -9.315   9.039  68.507  1.00  0.00    -0.139 A  
HETATM   12  C   UNL     1      -7.917  10.337  66.936  1.00  0.00    -0.112 A  
HETATM   13  F   UNL     1      -8.908  11.397  68.727  1.00  0.00    -0.158 F  
HETATM   14  C   UNL     1      -8.697  10.241  68.077  1.00  0.00    -0.122 A  
HETATM   15  C   UNL     1      -6.826   9.378  64.967  1.00  0.00    -0.089 C  
HETATM   16  O   UNL     1      -6.441  10.487  64.602  1.00  0.00    -0.087 OA 
HETATM   17  C   UNL     1      -6.433   8.191  64.213  1.00  0.00    -0.066 C  
HETATM   18  C   UNL     1      -7.663   9.202  66.180  1.00  0.00    -0.095 A  
HETATM   19  C   UNL     1      -5.545   8.209  63.028  1.00  0.00    -0.067 C  
HETATM   20  C   UNL     1      -6.936   7.021  64.638  1.00  0.00    -0.051 C  
HETATM   21  N   UNL     1      -7.821   6.819  65.687  1.00  0.00    -0.099 NA 
HETATM   22  O   UNL     1      -5.140   9.440  62.655  1.00  0.00    -0.074 OA 
HETATM   23  O   UNL     1      -5.201   7.201  62.428  1.00  0.00    -0.032 OA 
HETATM   24  C   UNL     1      -8.192   7.937  66.530  1.00  0.00    -0.113 A  
HETATM   25  C   UNL     1      -9.057   7.879  67.684  1.00  0.00    -0.133 A  
BRANCH  21  26
HETATM   26  C   UNL     1      -8.086   5.409  66.053  1.00  0.00    -0.107 C  
HETATM   27  C   UNL     1      -7.178   4.296  65.590  1.00  0.00    -0.072 C  
HETATM   28  C   UNL     1      -7.238   4.629  67.041  1.00  0.00    -0.076 C  
ENDBRANCH  21  26
BRANCH  25  29
HETATM   29  O   UNL     1      -9.811   6.731  67.832  1.00  0.00    -0.126 OA 
HETATM   30  C   UNL     1     -11.018   6.643  67.079  1.00  0.00    -0.393 C  
ENDBRANCH  25  29
ENDBRANCH   3  11
TORSDOF 3
ENDMDL
MODEL       91
REMARK 921   NORMALIZED FREE ENERGY PREDICTED BY IDOCK:   -3.83 KCAL/MOL
REMARK 922        TOTAL FREE ENERGY PREDICTED BY IDOCK:   -5.31 KCAL/MOL
REMARK 923 INTER-LIGAND FREE ENERGY PREDICTED BY IDOCK:   -5.30 KCAL/MOL
REMARK 924 INTRA-LIGAND FREE ENERGY PREDICTED BY IDOCK:   -0.01 KCAL/MOL
REMARK 927      BINDING AFFINITY PREDICTED BY RF-SCORE:    0.00 PKD
ROOT
HETATM    1  C   UNL     1      -8.439   6.272  67.173  1.00  0.00    -0.108 C  
HETATM    2  C   UNL     1      -8.788   7.761  66.983  1.00  0.00    -0.127 C  
HETATM    3  N   UNL     1      -9.260   8.214  68.311  1.00  0.00    -0.135 NA 
HETATM    4  C   UNL     1      -9.665   5.364  66.993  1.00  0.00    -0.162 C  
HETATM    5  C   UNL     1      -8.837   7.256  69.327  1.00  0.00    -0.136 C  
HETATM    6  C   UNL     1      -7.890   6.274  68.604  1.00  0.00    -0.102 C  
HETATM    7  C   UNL     1      -9.514   4.024  67.709  1.00  0.00    -0.228 C  
HETATM    8  N   UNL     1      -7.771   4.940  69.200  1.00  0.00    -0.071 NA 
HETATM    9  H   UNL     1      -7.426   5.000  70.158  1.00  0.00     0.000 HD 
HETATM   10  C   UNL     1      -9.016   4.170  69.141  1.00  0.00    -0.110 C  
ENDROOT
BRANCH   3  11
HETATM   11  C   UNL     1      -9.748   9.486  68.579  1.00  0.00    -0.151 A  
HETATM   12  C   UNL     1     -11.543  10.833  69.613  1.00  0.00    -0.388 A  
HETATM   13  F   UNL     1     -11.638   8.533  69.717  1.00  0.00    -0.057 F  
HETATM   14  C   UNL     1     -10.951   9.616  69.320  1.00  0.00    -0.168 A  
HETATM   15  C   UNL     1     -11.619  13.278  69.560  1.00  0.00    -0.286 C  
HETATM   16  O   UNL     1     -12.727  13.286  70.094  1.00  0.00    -0.095 OA 
HETATM   17  C   UNL     1     -10.943  14.541  69.276  1.00  0.00    -0.282 C  
HETATM   18  C   UNL     1     -10.925  12.012  69.220  1.00  0.00    -0.189 A  
HETATM   19  C   UNL     1     -11.482  15.875  69.625  1.00  0.00    -0.346 C  
HETATM   20  C   UNL     1      -9.762  14.456  68.644  1.00  0.00    -0.216 C  
HETATM   21  N   UNL     1      -9.132  13.305  68.193  1.00  0.00    -0.204 NA 
HETATM   22  O   UNL     1     -12.698  15.849  70.208  1.00  0.00    -0.343 OA 
HETATM   23  O   UNL     1     -10.888  16.921  69.407  1.00  0.00    -0.308 OA 
HETATM   24  C   UNL     1      -9.701  12.011  68.510  1.00  0.00    -0.161 A  
HETATM   25  C   UNL     1      -9.142  10.729  68.158  1.00  0.00    -0.151 A  
BRANCH  21  26
HETATM   26  C   UNL     1      -7.755  13.476  67.677  1.00  0.00    -0.176 C  
HETATM   27  C   UNL     1      -7.180  14.848  67.420  1.00  0.00    -0.213 C  
HETATM   28  C   UNL     1      -6.610  14.015  68.516  1.00  0.00    -0.097 C  
ENDBRANCH  21  26
BRANCH  25  29
HETATM   29  O   UNL     1      -8.138  10.734  67.208  1.00  0.00    -0.114 OA 
HETATM   30  C   UNL     1      -8.536  10.775  65.840  1.00  0.00    -0.179 C  
ENDBRANCH  25  29
ENDBRANCH   3  11
TORSDOF 3
ENDMDL
MODEL       92
REMARK 921   NORMALIZED FREE ENERGY PREDICTED BY IDOCK:   -3.83 KCAL/MOL
REMARK 922        TOTAL FREE ENERGY PREDICTED BY IDOCK:   -5.31 KCAL/MOL
REMARK 923 INTER-LIGAND FREE ENERGY PREDICTED BY IDOCK:   -4.66 KCAL/MOL
REMARK 924 INTRA-LIGAND FREE ENERGY PREDICTED BY IDOCK:   -0.65 KCAL/MOL
REMARK 927      BINDING AFFINITY PREDICTED BY RF-SCORE:    0.00 PKD
ROOT
HETATM    1  C   UNL     1      -6.154  18.800  68.039  1.00  0.00    -0.199 C  
HETATM    2  C   UNL     1      -6.473  17.432  68.674  1.00  0.00    -0.191 C  
HETATM    3  N   UNL     1      -7.409  16.783  67.729  1.00  0.00    -0.148 NA 
HETATM    4  C   UNL     1      -7.194  19.867  68.414  1.00  0.00    -0.331 C  
HETATM    5  C   UNL     1      -7.341  17.461  66.439  1.00  0.00    -0.305 C  
HETATM    6  C   UNL     1      -6.157  18.445  66.549  1.00  0.00    -0.161 C  
HETATM    7  C   UNL     1      -7.255  21.009  67.401  1.00  0.00    -0.354 C  
HETATM    8  N   UNL     1      -6.205  19.609  65.658  1.00  0.00    -0.197 NA 
HETATM    9  H   UNL     1      -6.231  19.317  64.681  1.00  0.00     0.000 HD 
HETATM   10  C   UNL     1      -7.312  20.520  65.960  1.00  0.00    -0.084 C  
ENDROOT
BRANCH   3  11
HETATM   11  C   UNL     1      -8.014  15.552  67.944  1.00  0.00    -0.136 A  
HETATM   12  C   UNL     1     -10.070  14.347  68.599  1.00  0.00    -0.242 A  
HETATM   13  F   UNL     1     -10.070  16.651  68.526  1.00  0.00    -0.225 F  
HETATM   14  C   UNL     1      -9.380  15.516  68.326  1.00  0.00    -0.192 A  
HETATM   15  C   UNL     1     -10.232  11.911  68.766  1.00  0.00    -0.143 C  
HETATM   16  O   UNL     1     -11.374  11.987  69.215  1.00  0.00    -0.251 OA 
HETATM   17  C   UNL     1      -9.642  10.601  68.502  1.00  0.00    -0.175 C  
HETATM   18  C   UNL     1      -9.435  13.123  68.449  1.00  0.00    -0.166 A  
HETATM   19  C   UNL     1     -10.345   9.313  68.701  1.00  0.00    -0.205 C  
HETATM   20  C   UNL     1      -8.373  10.596  68.064  1.00  0.00    -0.118 C  
HETATM   21  N   UNL     1      -7.546  11.693  67.873  1.00  0.00    -0.108 NA 
HETATM   22  O   UNL     1     -11.594   9.431  69.195  1.00  0.00     0.208 OA 
HETATM   23  O   UNL     1      -9.846   8.227  68.446  1.00  0.00    -0.162 OA 
HETATM   24  C   UNL     1      -8.085  13.028  68.035  1.00  0.00    -0.157 A  
HETATM   25  C   UNL     1      -7.370  14.263  67.825  1.00  0.00    -0.174 A  
BRANCH  21  26
HETATM   26  C   UNL     1      -6.245  11.422  67.220  1.00  0.00    -0.093 C  
HETATM   27  C   UNL     1      -5.868  10.030  66.774  1.00  0.00    -0.051 C  
HETATM   28  C   UNL     1      -6.105  11.083  65.747  1.00  0.00    -0.019 C  
ENDBRANCH  21  26
BRANCH  25  29
HETATM   29  O   UNL     1      -5.994  14.171  67.735  1.00  0.00    -0.200 OA 
HETATM   30  C   UNL     1      -5.262  14.150  68.957  1.00  0.00    -0.078 C  
ENDBRANCH  25  29
ENDBRANCH   3  11
TORSDOF 3
ENDMDL
MODEL       93
REMARK 921   NORMALIZED FREE ENERGY PREDICTED BY IDOCK:   -3.80 KCAL/MOL
REMARK 922        TOTAL FREE ENERGY PREDICTED BY IDOCK:   -5.28 KCAL/MOL
REMARK 923 INTER-LIGAND FREE ENERGY PREDICTED BY IDOCK:   -4.84 KCAL/MOL
REMARK 924 INTRA-LIGAND FREE ENERGY PREDICTED BY IDOCK:   -0.44 KCAL/MOL
REMARK 927      BINDING AFFINITY PREDICTED BY RF-SCORE:    0.00 PKD
ROOT
HETATM    1  C   UNL     1     -10.651   9.168  71.713  1.00  0.00    -0.383 C  
HETATM    2  C   UNL     1      -9.572   8.407  70.915  1.00  0.00    -0.175 C  
HETATM    3  N   UNL     1     -10.084   8.365  69.527  1.00  0.00    -0.195 NA 
HETATM    4  C   UNL     1     -11.768   8.236  72.206  1.00  0.00    -0.453 C  
HETATM    5  C   UNL     1     -11.137   9.363  69.370  1.00  0.00    -0.076 C  
HETATM    6  C   UNL     1     -11.125  10.189  70.674  1.00  0.00    -0.322 C  
HETATM    7  C   UNL     1     -13.077   8.977  72.470  1.00  0.00    -0.450 C  
HETATM    8  N   UNL     1     -12.384  10.855  71.023  1.00  0.00    -0.377 NA 
HETATM    9  H   UNL     1     -12.666  11.504  70.289  1.00  0.00     0.000 HD 
HETATM   10  C   UNL     1     -13.465   9.917  71.336  1.00  0.00    -0.302 C  
ENDROOT
BRANCH   3  11
HETATM   11  C   UNL     1      -9.457   7.705  68.479  1.00  0.00    -0.147 A  
HETATM   12  C   UNL     1      -7.943   7.889  66.535  1.00  0.00    -0.102 A  
HETATM   13  F   UNL     1      -8.412   9.759  67.797  1.00  0.00    -0.118 F  
HETATM   14  C   UNL     1      -8.590   8.439  67.628  1.00  0.00    -0.130 A  
HETATM   15  C   UNL     1      -7.370   6.016  65.068  1.00  0.00    -0.073 C  
HETATM   16  O   UNL     1      -6.743   6.758  64.314  1.00  0.00    -0.043 OA 
HETATM   17  C   UNL     1      -7.393   4.578  64.814  1.00  0.00    -0.071 C  
HETATM   18  C   UNL     1      -8.086   6.536  66.259  1.00  0.00    -0.115 A  
HETATM   19  C   UNL     1      -6.667   3.912  63.710  1.00  0.00    -0.043 C  
HETATM   20  C   UNL     1      -8.141   3.837  65.648  1.00  0.00    -0.093 C  
HETATM   21  N   UNL     1      -8.929   4.291  66.697  1.00  0.00    -0.116 NA 
HETATM   22  O   UNL     1      -5.990   4.754  62.901  1.00  0.00    -0.017 OA 
HETATM   23  O   UNL     1      -6.673   2.703  63.531  1.00  0.00    -0.029 OA 
HETATM   24  C   UNL     1      -8.892   5.693  67.059  1.00  0.00    -0.111 A  
HETATM   25  C   UNL     1      -9.611   6.306  68.150  1.00  0.00    -0.115 A  
BRANCH  21  26
HETATM   26  C   UNL     1      -9.521   3.247  67.565  1.00  0.00    -0.162 C  
HETATM   27  C   UNL     1      -9.306   1.781  67.283  1.00  0.00    -0.044 C  
HETATM   28  C   UNL     1      -8.702   2.381  68.505  1.00  0.00    -0.131 C  
ENDBRANCH  21  26
BRANCH  25  29
HETATM   29  O   UNL     1     -10.624   5.558  68.719  1.00  0.00    -0.212 OA 
HETATM   30  C   UNL     1     -10.474   5.193  70.088  1.00  0.00    -0.235 C  
ENDBRANCH  25  29
ENDBRANCH   3  11
TORSDOF 3
ENDMDL
MODEL       94
REMARK 921   NORMALIZED FREE ENERGY PREDICTED BY IDOCK:   -3.68 KCAL/MOL
REMARK 922        TOTAL FREE ENERGY PREDICTED BY IDOCK:   -5.13 KCAL/MOL
REMARK 923 INTER-LIGAND FREE ENERGY PREDICTED BY IDOCK:   -4.32 KCAL/MOL
REMARK 924 INTRA-LIGAND FREE ENERGY PREDICTED BY IDOCK:   -0.81 KCAL/MOL
REMARK 927      BINDING AFFINITY PREDICTED BY RF-SCORE:    0.00 PKD
ROOT
HETATM    1  C   UNL     1     -11.028  12.333  66.504  1.00  0.00    -0.320 C  
HETATM    2  C   UNL     1     -11.216  10.967  67.193  1.00  0.00    -0.184 C  
HETATM    3  N   UNL     1     -10.405  11.049  68.429  1.00  0.00    -0.175 NA 
HETATM    4  C   UNL     1      -9.772  12.365  65.618  1.00  0.00    -0.183 C  
HETATM    5  C   UNL     1     -10.103  12.447  68.716  1.00  0.00    -0.055 C  
HETATM    6  C   UNL     1     -10.942  13.269  67.714  1.00  0.00    -0.258 C  
HETATM    7  C   UNL     1      -9.245  13.781  65.399  1.00  0.00     0.698 C  
HETATM    8  N   UNL     1     -10.436  14.608  67.398  1.00  0.00    -0.253 NA 
HETATM    9  H   UNL     1     -10.375  15.180  68.240  1.00  0.00     0.000 HD 
HETATM   10  C   UNL     1      -9.155  14.586  66.688  1.00  0.00    -0.251 C  
ENDROOT
BRANCH   3  11
HETATM   11  C   UNL     1     -10.229  10.002  69.323  1.00  0.00    -0.214 A  
HETATM   12  C   UNL     1     -11.010   8.901  71.393  1.00  0.00    -0.380 A  
HETATM   13  F   UNL     1     -12.082  10.793  70.632  1.00  0.00    -0.335 F  
HETATM   14  C   UNL     1     -11.116   9.884  70.424  1.00  0.00    -0.319 A  
HETATM   15  C   UNL     1      -9.964   6.911  72.359  1.00  0.00    -0.165 C  
HETATM   16  O   UNL     1     -10.697   6.967  73.345  1.00  0.00    -0.306 OA 
HETATM   17  C   UNL     1      -9.024   5.802  72.217  1.00  0.00    -0.139 C  
HETATM   18  C   UNL     1     -10.025   7.930  71.282  1.00  0.00    -0.206 A  
HETATM   19  C   UNL     1      -8.905   4.679  73.175  1.00  0.00    -0.111 C  
HETATM   20  C   UNL     1      -8.219   5.836  71.143  1.00  0.00    -0.122 C  
HETATM   21  N   UNL     1      -8.150   6.830  70.177  1.00  0.00    -0.125 NA 
HETATM   22  O   UNL     1      -9.723   4.770  74.244  1.00  0.00    -0.127 OA 
HETATM   23  O   UNL     1      -8.135   3.742  73.023  1.00  0.00    -0.080 OA 
HETATM   24  C   UNL     1      -9.105   7.919  70.207  1.00  0.00    -0.152 A  
HETATM   25  C   UNL     1      -9.195   8.994  69.250  1.00  0.00    -0.145 A  
BRANCH  21  26
HETATM   26  C   UNL     1      -7.292   6.540  69.006  1.00  0.00    -0.093 C  
HETATM   27  C   UNL     1      -6.570   5.222  68.872  1.00  0.00    -0.051 C  
HETATM   28  C   UNL     1      -7.669   5.548  67.920  1.00  0.00    -0.092 C  
ENDBRANCH  21  26
BRANCH  25  29
HETATM   29  O   UNL     1      -8.117   9.156  68.400  1.00  0.00    -0.102 OA 
HETATM   30  C   UNL     1      -7.119  10.098  68.786  1.00  0.00    -0.075 C  
ENDBRANCH  25  29
ENDBRANCH   3  11
TORSDOF 3
ENDMDL
MODEL       95
REMARK 921   NORMALIZED FREE ENERGY PREDICTED BY IDOCK:   -3.66 KCAL/MOL
REMARK 922        TOTAL FREE ENERGY PREDICTED BY IDOCK:   -5.12 KCAL/MOL
REMARK 923 INTER-LIGAND FREE ENERGY PREDICTED BY IDOCK:   -4.69 KCAL/MOL
REMARK 924 INTRA-LIGAND FREE ENERGY PREDICTED BY IDOCK:   -0.43 KCAL/MOL
REMARK 927      BINDING AFFINITY PREDICTED BY RF-SCORE:    0.00 PKD
ROOT
HETATM    1  C   UNL     1      -9.590  17.031  68.919  1.00  0.00    -0.248 C  
HETATM    2  C   UNL     1      -9.773  15.505  69.042  1.00  0.00    -0.237 C  
HETATM    3  N   UNL     1      -9.006  14.938  67.910  1.00  0.00    -0.173 NA 
HETATM    4  C   UNL     1     -10.620  17.662  67.970  1.00  0.00    -0.379 C  
HETATM    5  C   UNL     1      -8.082  15.945  67.400  1.00  0.00    -0.163 C  
HETATM    6  C   UNL     1      -8.151  17.118  68.401  1.00  0.00    -0.255 C  
HETATM    7  C   UNL     1     -10.143  18.990  67.386  1.00  0.00    -0.443 C  
HETATM    8  N   UNL     1      -7.786  18.436  67.872  1.00  0.00    -0.246 NA 
HETATM    9  H   UNL     1      -6.829  18.432  67.518  1.00  0.00     0.000 HD 
HETATM   10  C   UNL     1      -8.717  18.926  66.854  1.00  0.00    -0.300 C  
ENDROOT
BRANCH   3  11
HETATM   11  C   UNL     1      -8.956  13.587  67.594  1.00  0.00    -0.200 A  
HETATM   12  C   UNL     1      -9.866  11.755  66.208  1.00  0.00    -0.245 A  
HETATM   13  F   UNL     1     -10.690  13.893  65.959  1.00  0.00    -0.279 F  
HETATM   14  C   UNL     1      -9.810  13.088  66.577  1.00  0.00    -0.263 A  
HETATM   15  C   UNL     1      -9.134   9.426  66.370  1.00  0.00    -0.161 C  
HETATM   16  O   UNL     1      -9.997   9.067  65.571  1.00  0.00    -0.088 OA 
HETATM   17  C   UNL     1      -8.174   8.453  66.886  1.00  0.00    -0.103 C  
HETATM   18  C   UNL     1      -9.015  10.839  66.809  1.00  0.00    -0.157 A  
HETATM   19  C   UNL     1      -8.128   7.029  66.482  1.00  0.00    -0.111 C  
HETATM   20  C   UNL     1      -7.296   8.906  67.794  1.00  0.00    -0.085 C  
HETATM   21  N   UNL     1      -7.226  10.184  68.330  1.00  0.00    -0.079 NA 
HETATM   22  O   UNL     1      -9.088   6.668  65.605  1.00  0.00    -0.046 OA 
HETATM   23  O   UNL     1      -7.298   6.236  66.901  1.00  0.00    -0.079 OA 
HETATM   24  C   UNL     1      -8.090  11.223  67.808  1.00  0.00    -0.119 A  
HETATM   25  C   UNL     1      -8.101  12.604  68.223  1.00  0.00    -0.161 A  
BRANCH  21  26
HETATM   26  C   UNL     1      -6.054  10.465  69.191  1.00  0.00    -0.037 C  
HETATM   27  C   UNL     1      -6.054  10.102  70.656  1.00  0.00    -0.106 C  
HETATM   28  C   UNL     1      -5.135   9.383  69.729  1.00  0.00    -0.034 C  
ENDBRANCH  21  26
BRANCH  25  29
HETATM   29  O   UNL     1      -7.436  12.901  69.398  1.00  0.00     0.214 OA 
HETATM   30  C   UNL     1      -6.234  13.659  69.291  1.00  0.00    -0.104 C  
ENDBRANCH  25  29
ENDBRANCH   3  11
TORSDOF 3
ENDMDL
MODEL       96
REMARK 921   NORMALIZED FREE ENERGY PREDICTED BY IDOCK:   -3.61 KCAL/MOL
REMARK 922        TOTAL FREE ENERGY PREDICTED BY IDOCK:   -5.06 KCAL/MOL
REMARK 923 INTER-LIGAND FREE ENERGY PREDICTED BY IDOCK:   -5.36 KCAL/MOL
REMARK 924 INTRA-LIGAND FREE ENERGY PREDICTED BY IDOCK:    0.30 KCAL/MOL
REMARK 927      BINDING AFFINITY PREDICTED BY RF-SCORE:    0.00 PKD
ROOT
HETATM    1  C   UNL     1     -10.176  12.810  64.858  1.00  0.00    -0.294 C  
HETATM    2  C   UNL     1      -9.396  12.343  66.103  1.00  0.00    -0.155 C  
HETATM    3  N   UNL     1      -9.755  10.916  66.264  1.00  0.00    -0.197 NA 
HETATM    4  C   UNL     1     -11.604  13.259  65.205  1.00  0.00    -0.334 C  
HETATM    5  C   UNL     1     -10.332  10.420  65.019  1.00  0.00    -0.179 C  
HETATM    6  C   UNL     1     -10.129  11.550  63.987  1.00  0.00    -0.321 C  
HETATM    7  C   UNL     1     -12.553  13.171  64.011  1.00  0.00    -0.249 C  
HETATM    8  N   UNL     1     -11.068  11.567  62.862  1.00  0.00    -0.694 NA 
HETATM    9  H   UNL     1     -11.015  10.697  62.331  1.00  0.00     0.000 HD 
HETATM   10  C   UNL     1     -12.448  11.847  63.266  1.00  0.00    -0.384 C  
ENDROOT
BRANCH   3  11
HETATM   11  C   UNL     1      -9.329  10.113  67.314  1.00  0.00    -0.152 A  
HETATM   12  C   UNL     1      -8.573  10.016  69.664  1.00  0.00    -0.198 A  
HETATM   13  F   UNL     1      -9.120  12.048  68.724  1.00  0.00    -0.153 F  
HETATM   14  C   UNL     1      -9.036  10.717  68.564  1.00  0.00    -0.170 A  
HETATM   15  C   UNL     1      -7.918   7.953  70.804  1.00  0.00    -0.100 C  
HETATM   16  O   UNL     1      -7.567   8.579  71.802  1.00  0.00    -0.111 OA 
HETATM   17  C   UNL     1      -7.866   6.493  70.810  1.00  0.00    -0.106 C  
HETATM   18  C   UNL     1      -8.426   8.638  69.590  1.00  0.00    -0.129 A  
HETATM   19  C   UNL     1      -7.451   5.675  71.972  1.00  0.00    -0.095 C  
HETATM   20  C   UNL     1      -8.212   5.880  69.667  1.00  0.00    -0.110 C  
HETATM   21  N   UNL     1      -8.572   6.479  68.468  1.00  0.00    -0.123 NA 
HETATM   22  O   UNL     1      -7.073   6.393  73.050  1.00  0.00    -0.081 OA 
HETATM   23  O   UNL     1      -7.444   4.453  71.969  1.00  0.00    -0.070 OA 
HETATM   24  C   UNL     1      -8.724   7.918  68.409  1.00  0.00    -0.131 A  
HETATM   25  C   UNL     1      -9.139   8.681  67.257  1.00  0.00    -0.133 A  
BRANCH  21  26
HETATM   26  C   UNL     1      -9.070   5.570  67.410  1.00  0.00    -0.110 C  
HETATM   27  C   UNL     1      -8.157   4.573  66.741  1.00  0.00    -0.102 C  
HETATM   28  C   UNL     1      -9.260   4.078  67.613  1.00  0.00    -0.193 C  
ENDBRANCH  21  26
BRANCH  25  29
HETATM   29  O   UNL     1      -9.120   8.023  66.042  1.00  0.00    -0.173 OA 
HETATM   30  C   UNL     1      -7.891   8.025  65.320  1.00  0.00    -0.113 C  
ENDBRANCH  25  29
ENDBRANCH   3  11
TORSDOF 3
ENDMDL
MODEL       97
REMARK 921   NORMALIZED FREE ENERGY PREDICTED BY IDOCK:   -3.59 KCAL/MOL
REMARK 922        TOTAL FREE ENERGY PREDICTED BY IDOCK:   -5.03 KCAL/MOL
REMARK 923 INTER-LIGAND FREE ENERGY PREDICTED BY IDOCK:   -4.53 KCAL/MOL
REMARK 924 INTRA-LIGAND FREE ENERGY PREDICTED BY IDOCK:   -0.50 KCAL/MOL
REMARK 927      BINDING AFFINITY PREDICTED BY RF-SCORE:    0.00 PKD
ROOT
HETATM    1  C   UNL     1     -10.713  14.680  69.014  1.00  0.00    -0.253 C  
HETATM    2  C   UNL     1     -10.107  13.407  68.390  1.00  0.00    -0.244 C  
HETATM    3  N   UNL     1     -10.870  12.289  68.988  1.00  0.00    -0.190 NA 
HETATM    4  C   UNL     1     -10.066  15.025  70.364  1.00  0.00     0.247 C  
HETATM    5  C   UNL     1     -12.103  12.804  69.573  1.00  0.00    -0.205 C  
HETATM    6  C   UNL     1     -12.188  14.281  69.132  1.00  0.00    -0.237 C  
HETATM    7  C   UNL     1     -10.974  15.874  71.251  1.00  0.00    -0.039 C  
HETATM    8  N   UNL     1     -12.979  15.164  69.995  1.00  0.00    -0.632 NA 
HETATM    9  H   UNL     1     -13.943  14.840  70.058  1.00  0.00     0.000 HD 
HETATM   10  C   UNL     1     -12.397  15.338  71.328  1.00  0.00    -0.361 C  
ENDROOT
BRANCH   3  11
HETATM   11  C   UNL     1     -10.605  10.946  68.757  1.00  0.00    -0.201 A  
HETATM   12  C   UNL     1     -10.551   9.105  67.109  1.00  0.00    -0.286 A  
HETATM   13  F   UNL     1     -11.193  11.216  66.442  1.00  0.00    -0.328 F  
HETATM   14  C   UNL     1     -10.755  10.433  67.442  1.00  0.00    -0.283 A  
HETATM   15  C   UNL     1      -9.934   6.801  67.655  1.00  0.00    -0.137 C  
HETATM   16  O   UNL     1     -10.214   6.424  66.519  1.00  0.00    -0.158 OA 
HETATM   17  C   UNL     1      -9.367   5.855  68.613  1.00  0.00    -0.126 C  
HETATM   18  C   UNL     1     -10.125   8.210  68.080  1.00  0.00    -0.241 A  
HETATM   19  C   UNL     1      -9.056   4.440  68.306  1.00  0.00    -0.127 C  
HETATM   20  C   UNL     1      -9.137   6.324  69.849  1.00  0.00    -0.144 C  
HETATM   21  N   UNL     1      -9.416   7.596  70.330  1.00  0.00    -0.164 NA 
HETATM   22  O   UNL     1      -9.376   4.059  67.052  1.00  0.00    -0.155 OA 
HETATM   23  O   UNL     1      -8.553   3.671  69.111  1.00  0.00    -0.070 OA 
HETATM   24  C   UNL     1      -9.902   8.611  69.418  1.00  0.00    -0.184 A  
HETATM   25  C   UNL     1     -10.188   9.984  69.753  1.00  0.00    -0.250 A  
BRANCH  21  26
HETATM   26  C   UNL     1      -8.906   7.905  71.686  1.00  0.00    -0.131 C  
HETATM   27  C   UNL     1      -7.754   7.136  72.283  1.00  0.00    -0.089 C  
HETATM   28  C   UNL     1      -7.568   8.574  71.942  1.00  0.00    -0.139 C  
ENDBRANCH  21  26
BRANCH  25  29
HETATM   29  O   UNL     1     -10.275  10.286  71.099  1.00  0.00     0.527 OA 
HETATM   30  C   UNL     1     -11.496   9.967  71.761  1.00  0.00     0.073 C  
ENDBRANCH  25  29
ENDBRANCH   3  11
TORSDOF 3
ENDMDL
MODEL       98
REMARK 921   NORMALIZED FREE ENERGY PREDICTED BY IDOCK:   -3.58 KCAL/MOL
REMARK 922        TOTAL FREE ENERGY PREDICTED BY IDOCK:   -5.01 KCAL/MOL
REMARK 923 INTER-LIGAND FREE ENERGY PREDICTED BY IDOCK:   -4.96 KCAL/MOL
REMARK 924 INTRA-LIGAND FREE ENERGY PREDICTED BY IDOCK:   -0.05 KCAL/MOL
REMARK 927      BINDING AFFINITY PREDICTED BY RF-SCORE:    0.00 PKD
ROOT
HETATM    1  C   UNL     1      -7.066   4.943  65.664  1.00  0.00    -0.067 C  
HETATM    2  C   UNL     1      -7.180   6.284  66.416  1.00  0.00    -0.069 C  
HETATM    3  N   UNL     1      -8.571   6.733  66.185  1.00  0.00    -0.138 NA 
HETATM    4  C   UNL     1      -6.704   5.139  64.184  1.00  0.00    -0.046 C  
HETATM    5  C   UNL     1      -9.373   5.605  65.724  1.00  0.00    -0.060 C  
HETATM    6  C   UNL     1      -8.468   4.362  65.875  1.00  0.00    -0.114 C  
HETATM    7  C   UNL     1      -7.135   3.962  63.312  1.00  0.00    -0.045 C  
HETATM    8  N   UNL     1      -8.783   3.229  65.000  1.00  0.00    -0.112 NA 
HETATM    9  H   UNL     1      -9.734   2.898  65.163  1.00  0.00     0.000 HD 
HETATM   10  C   UNL     1      -8.568   3.520  63.581  1.00  0.00    -0.090 C  
ENDROOT
BRANCH   3  11
HETATM   11  C   UNL     1      -9.089   7.943  66.627  1.00  0.00    -0.163 A  
HETATM   12  C   UNL     1     -11.032   9.130  67.587  1.00  0.00    -0.024 A  
HETATM   13  F   UNL     1     -11.165   6.866  67.177  1.00  0.00    -0.418 F  
HETATM   14  C   UNL     1     -10.407   7.974  67.151  1.00  0.00    -0.325 A  
HETATM   15  C   UNL     1     -11.075  11.533  68.046  1.00  0.00    -0.254 C  
HETATM   16  O   UNL     1     -12.262  11.483  68.362  1.00  0.00    -0.540 OA 
HETATM   17  C   UNL     1     -10.346  12.793  68.165  1.00  0.00    -0.243 C  
HETATM   18  C   UNL     1     -10.341  10.333  67.573  1.00  0.00    -0.276 A  
HETATM   19  C   UNL     1     -10.928  14.049  68.689  1.00  0.00    -0.263 C  
HETATM   20  C   UNL     1      -9.069  12.785  67.752  1.00  0.00    -0.197 C  
HETATM   21  N   UNL     1      -8.377  11.724  67.184  1.00  0.00    -0.161 NA 
HETATM   22  O   UNL     1     -12.231  13.960  69.026  1.00  0.00    -0.350 OA 
HETATM   23  O   UNL     1     -10.294  15.087  68.811  1.00  0.00    -0.226 OA 
HETATM   24  C   UNL     1      -9.007  10.422  67.110  1.00  0.00    -0.139 A  
HETATM   25  C   UNL     1      -8.403   9.216  66.597  1.00  0.00    -0.122 A  
BRANCH  21  26
HETATM   26  C   UNL     1      -6.926  11.932  66.972  1.00  0.00    -0.116 C  
HETATM   27  C   UNL     1      -6.177  13.022  67.699  1.00  0.00    -0.158 C  
HETATM   28  C   UNL     1      -5.874  11.598  68.014  1.00  0.00    -0.044 C  
ENDBRANCH  21  26
BRANCH  25  29
HETATM   29  O   UNL     1      -7.241   9.370  65.866  1.00  0.00    -0.089 OA 
HETATM   30  C   UNL     1      -7.373   9.504  64.453  1.00  0.00    -0.115 C  
ENDBRANCH  25  29
ENDBRANCH   3  11
TORSDOF 3
ENDMDL
MODEL       99
REMARK 921   NORMALIZED FREE ENERGY PREDICTED BY IDOCK:   -3.55 KCAL/MOL
REMARK 922        TOTAL FREE ENERGY PREDICTED BY IDOCK:   -4.98 KCAL/MOL
REMARK 923 INTER-LIGAND FREE ENERGY PREDICTED BY IDOCK:   -4.24 KCAL/MOL
REMARK 924 INTRA-LIGAND FREE ENERGY PREDICTED BY IDOCK:   -0.73 KCAL/MOL
REMARK 927      BINDING AFFINITY PREDICTED BY RF-SCORE:    0.00 PKD
ROOT
HETATM    1  C   UNL     1      -6.005  12.395  68.399  1.00  0.00    -0.056 C  
HETATM    2  C   UNL     1      -5.873  10.907  68.780  1.00  0.00    -0.039 C  
HETATM    3  N   UNL     1      -7.222  10.338  68.562  1.00  0.00    -0.078 NA 
HETATM    4  C   UNL     1      -6.502  13.251  69.574  1.00  0.00    -0.078 C  
HETATM    5  C   UNL     1      -7.997  11.242  67.719  1.00  0.00    -0.117 C  
HETATM    6  C   UNL     1      -7.001  12.319  67.238  1.00  0.00    -0.142 C  
HETATM    7  C   UNL     1      -7.177  14.542  69.116  1.00  0.00    -0.138 C  
HETATM    8  N   UNL     1      -7.584  13.611  66.865  1.00  0.00    -0.265 NA 
HETATM    9  H   UNL     1      -8.257  13.501  66.107  1.00  0.00     0.000 HD 
HETATM   10  C   UNL     1      -8.186  14.320  67.997  1.00  0.00    -0.153 C  
ENDROOT
BRANCH   3  11
HETATM   11  C   UNL     1      -7.577   9.027  68.851  1.00  0.00    -0.083 A  
HETATM   12  C   UNL     1      -7.382   6.647  68.217  1.00  0.00    -0.090 A  
HETATM   13  F   UNL     1      -6.290   8.252  66.975  1.00  0.00    -0.051 F  
HETATM   14  C   UNL     1      -7.065   7.983  68.038  1.00  0.00    -0.086 A  
HETATM   15  C   UNL     1      -8.505   4.822  69.399  1.00  0.00    -0.082 C  
HETATM   16  O   UNL     1      -8.119   4.004  68.566  1.00  0.00    -0.075 OA 
HETATM   17  C   UNL     1      -9.259   4.368  70.565  1.00  0.00    -0.192 C  
HETATM   18  C   UNL     1      -8.201   6.269  69.272  1.00  0.00    -0.114 A  
HETATM   19  C   UNL     1      -9.572   2.951  70.858  1.00  0.00    -0.138 C  
HETATM   20  C   UNL     1      -9.693   5.323  71.402  1.00  0.00    -0.164 C  
HETATM   21  N   UNL     1      -9.544   6.696  71.261  1.00  0.00    -0.169 NA 
HETATM   22  O   UNL     1      -9.135   2.080  69.926  1.00  0.00    -0.081 OA 
HETATM   23  O   UNL     1     -10.177   2.587  71.856  1.00  0.00    -0.143 OA 
HETATM   24  C   UNL     1      -8.739   7.216  70.174  1.00  0.00    -0.141 A  
HETATM   25  C   UNL     1      -8.449   8.607  69.924  1.00  0.00    -0.129 A  
BRANCH  21  26
HETATM   26  C   UNL     1      -9.972   7.519  72.415  1.00  0.00    -0.184 C  
HETATM   27  C   UNL     1     -10.532   6.885  73.664  1.00  0.00    -0.400 C  
HETATM   28  C   UNL     1      -9.212   7.573  73.728  1.00  0.00    -0.327 C  
ENDBRANCH  21  26
BRANCH  25  29
HETATM   29  O   UNL     1      -9.222   9.530  70.603  1.00  0.00    -0.245 OA 
HETATM   30  C   UNL     1     -10.456   9.914  70.001  1.00  0.00    -0.284 C  
ENDBRANCH  25  29
ENDBRANCH   3  11
TORSDOF 3
ENDMDL
MODEL      100
REMARK 921   NORMALIZED FREE ENERGY PREDICTED BY IDOCK:   -3.54 KCAL/MOL
REMARK 922        TOTAL FREE ENERGY PREDICTED BY IDOCK:   -4.97 KCAL/MOL
REMARK 923 INTER-LIGAND FREE ENERGY PREDICTED BY IDOCK:   -4.35 KCAL/MOL
REMARK 924 INTRA-LIGAND FREE ENERGY PREDICTED BY IDOCK:   -0.62 KCAL/MOL
REMARK 927      BINDING AFFINITY PREDICTED BY RF-SCORE:    0.00 PKD
ROOT
HETATM    1  C   UNL     1      -8.510   6.562  70.018  1.00  0.00    -0.135 C  
HETATM    2  C   UNL     1      -9.098   7.982  70.130  1.00  0.00    -0.151 C  
HETATM    3  N   UNL     1      -8.631   8.685  68.914  1.00  0.00    -0.129 NA 
HETATM    4  C   UNL     1      -7.083   6.481  70.581  1.00  0.00    -0.069 C  
HETATM    5  C   UNL     1      -8.180   7.704  67.933  1.00  0.00    -0.123 C  
HETATM    6  C   UNL     1      -8.581   6.328  68.505  1.00  0.00    -0.114 C  
HETATM    7  C   UNL     1      -6.284   5.320  69.992  1.00  0.00    -0.022 C  
HETATM    8  N   UNL     1      -7.791   5.184  68.040  1.00  0.00    -0.087 NA 
HETATM    9  H   UNL     1      -7.853   5.089  67.027  1.00  0.00     0.000 HD 
HETATM   10  C   UNL     1      -6.394   5.234  68.475  1.00  0.00    -0.035 C  
ENDROOT
BRANCH   3  11
HETATM   11  C   UNL     1      -8.870  10.025  68.641  1.00  0.00    -0.132 A  
HETATM   12  C   UNL     1     -10.479  11.708  67.813  1.00  0.00    -0.213 A  
HETATM   13  F   UNL     1     -11.094   9.489  67.905  1.00  0.00    -0.297 F  
HETATM   14  C   UNL     1     -10.146  10.407  68.150  1.00  0.00    -0.155 A  
HETATM   15  C   UNL     1      -9.978  14.094  67.613  1.00  0.00    -0.233 C  
HETATM   16  O   UNL     1     -11.062  14.308  67.073  1.00  0.00    -0.297 OA 
HETATM   17  C   UNL     1      -9.085  15.211  67.912  1.00  0.00    -0.179 C  
HETATM   18  C   UNL     1      -9.556  12.726  68.003  1.00  0.00    -0.217 A  
HETATM   19  C   UNL     1      -9.405  16.632  67.646  1.00  0.00    -0.224 C  
HETATM   20  C   UNL     1      -7.897  14.896  68.451  1.00  0.00    -0.121 C  
HETATM   21  N   UNL     1      -7.406  13.625  68.717  1.00  0.00    -0.106 NA 
HETATM   22  O   UNL     1     -10.600  16.832  67.054  1.00  0.00    -0.305 OA 
HETATM   23  O   UNL     1      -8.658  17.556  67.931  1.00  0.00    -0.229 OA 
HETATM   24  C   UNL     1      -8.265  12.475  68.523  1.00  0.00    -0.079 A  
HETATM   25  C   UNL     1      -7.919  11.102  68.801  1.00  0.00    -0.144 A  
BRANCH  21  26
HETATM   26  C   UNL     1      -6.132  13.564  69.471  1.00  0.00    -0.112 C  
HETATM   27  C   UNL     1      -5.371  14.818  69.824  1.00  0.00    -0.094 C  
HETATM   28  C   UNL     1      -5.994  14.016  70.913  1.00  0.00    -0.184 C  
ENDBRANCH  21  26
BRANCH  25  29
HETATM   29  O   UNL     1      -6.579  10.831  69.001  1.00  0.00    -0.050 OA 
HETATM   30  C   UNL     1      -6.201  10.324  70.278  1.00  0.00    -0.113 C  
ENDBRANCH  25  29
ENDBRANCH   3  11
TORSDOF 3
ENDMDL
MODEL      101
REMARK 921   NORMALIZED FREE ENERGY PREDICTED BY IDOCK:   -3.50 KCAL/MOL
REMARK 922        TOTAL FREE ENERGY PREDICTED BY IDOCK:   -4.92 KCAL/MOL
REMARK 923 INTER-LIGAND FREE ENERGY PREDICTED BY IDOCK:   -5.06 KCAL/MOL
REMARK 924 INTRA-LIGAND FREE ENERGY PREDICTED BY IDOCK:    0.14 KCAL/MOL
REMARK 927      BINDING AFFINITY PREDICTED BY RF-SCORE:    0.00 PKD
ROOT
HETATM    1  C   UNL     1     -11.409   7.953  72.027  1.00  0.00    -0.343 C  
HETATM    2  C   UNL     1     -10.250   7.892  71.012  1.00  0.00    -0.197 C  
HETATM    3  N   UNL     1     -10.704   8.711  69.866  1.00  0.00    -0.229 NA 
HETATM    4  C   UNL     1     -12.477   6.884  71.750  1.00  0.00    -0.397 C  
HETATM    5  C   UNL     1     -11.818   9.555  70.287  1.00  0.00    -0.057 C  
HETATM    6  C   UNL     1     -11.913   9.385  71.818  1.00  0.00    -0.382 C  
HETATM    7  C   UNL     1     -13.843   7.257  72.320  1.00  0.00     0.045 C  
HETATM    8  N   UNL     1     -13.228   9.647  72.412  1.00  0.00    -0.550 NA 
HETATM    9  H   UNL     1     -13.527  10.604  72.223  1.00  0.00     0.000 HD 
HETATM   10  C   UNL     1     -14.252   8.688  71.993  1.00  0.00    -0.443 C  
ENDROOT
BRANCH   3  11
HETATM   11  C   UNL     1      -9.993   8.872  68.685  1.00  0.00    -0.177 A  
HETATM   12  C   UNL     1      -9.624   8.083  66.372  1.00  0.00    -0.267 A  
HETATM   13  F   UNL     1     -11.217   7.061  67.687  1.00  0.00    -0.284 F  
HETATM   14  C   UNL     1     -10.295   8.031  67.582  1.00  0.00    -0.246 A  
HETATM   15  C   UNL     1      -7.951   9.027  64.857  1.00  0.00    -0.126 C  
HETATM   16  O   UNL     1      -8.194   8.173  64.007  1.00  0.00    -0.149 OA 
HETATM   17  C   UNL     1      -6.991  10.088  64.564  1.00  0.00    -0.136 C  
HETATM   18  C   UNL     1      -8.633   9.034  66.175  1.00  0.00    -0.149 A  
HETATM   19  C   UNL     1      -6.291  10.248  63.269  1.00  0.00    -0.128 C  
HETATM   20  C   UNL     1      -6.737  10.953  65.559  1.00  0.00     0.102 C  
HETATM   21  N   UNL     1      -7.252  10.927  66.847  1.00  0.00    -0.117 NA 
HETATM   22  O   UNL     1      -6.579   9.295  62.360  1.00  0.00    -0.094 OA 
HETATM   23  O   UNL     1      -5.514  11.161  63.031  1.00  0.00    -0.072 OA 
HETATM   24  C   UNL     1      -8.270   9.954  67.186  1.00  0.00    -0.121 A  
HETATM   25  C   UNL     1      -8.936   9.833  68.460  1.00  0.00    -0.124 A  
BRANCH  21  26
HETATM   26  C   UNL     1      -6.938  12.098  67.697  1.00  0.00    -0.121 C  
HETATM   27  C   UNL     1      -5.720  12.950  67.437  1.00  0.00    -0.045 C  
HETATM   28  C   UNL     1      -7.075  13.534  67.224  1.00  0.00     0.028 C  
ENDBRANCH  21  26
BRANCH  25  29
HETATM   29  O   UNL     1      -8.365  10.509  69.522  1.00  0.00    -0.144 OA 
HETATM   30  C   UNL     1      -7.011  10.199  69.838  1.00  0.00    -0.133 C  
ENDBRANCH  25  29
ENDBRANCH   3  11
TORSDOF 3
ENDMDL
MODEL      102
REMARK 921   NORMALIZED FREE ENERGY PREDICTED BY IDOCK:   -3.50 KCAL/MOL
REMARK 922        TOTAL FREE ENERGY PREDICTED BY IDOCK:   -4.92 KCAL/MOL
REMARK 923 INTER-LIGAND FREE ENERGY PREDICTED BY IDOCK:   -4.36 KCAL/MOL
REMARK 924 INTRA-LIGAND FREE ENERGY PREDICTED BY IDOCK:   -0.56 KCAL/MOL
REMARK 927      BINDING AFFINITY PREDICTED BY RF-SCORE:    0.00 PKD
ROOT
HETATM    1  C   UNL     1      -8.914   5.298  73.602  1.00  0.00    -0.124 C  
HETATM    2  C   UNL     1      -8.482   6.296  72.509  1.00  0.00    -0.120 C  
HETATM    3  N   UNL     1      -9.534   6.204  71.472  1.00  0.00    -0.149 NA 
HETATM    4  C   UNL     1      -8.428   3.871  73.306  1.00  0.00    -0.088 C  
HETATM    5  C   UNL     1     -10.717   5.564  72.039  1.00  0.00    -0.234 C  
HETATM    6  C   UNL     1     -10.439   5.443  73.552  1.00  0.00    -0.247 C  
HETATM    7  C   UNL     1      -9.276   2.806  73.997  1.00  0.00    -0.093 C  
HETATM    8  N   UNL     1     -11.163   4.379  74.255  1.00  0.00    -0.115 NA 
HETATM    9  H   UNL     1     -12.171   4.509  74.170  1.00  0.00     0.000 HD 
HETATM   10  C   UNL     1     -10.772   3.035  73.823  1.00  0.00    -0.200 C  
ENDROOT
BRANCH   3  11
HETATM   11  C   UNL     1      -9.507   6.887  70.264  1.00  0.00    -0.162 A  
HETATM   12  C   UNL     1      -9.876   9.033  69.097  1.00  0.00    -0.175 A  
HETATM   13  F   UNL     1     -10.220   8.897  71.371  1.00  0.00    -0.265 F  
HETATM   14  C   UNL     1      -9.838   8.267  70.249  1.00  0.00    -0.184 A  
HETATM   15  C   UNL     1      -9.597   9.343  66.685  1.00  0.00    -0.192 C  
HETATM   16  O   UNL     1     -10.021  10.495  66.753  1.00  0.00    -0.189 OA 
HETATM   17  C   UNL     1      -9.119   8.821  65.408  1.00  0.00    -0.194 C  
HETATM   18  C   UNL     1      -9.526   8.465  67.880  1.00  0.00    -0.164 A  
HETATM   19  C   UNL     1      -9.064   9.604  64.153  1.00  0.00    -0.209 C  
HETATM   20  C   UNL     1      -8.722   7.538  65.399  1.00  0.00     0.015 C  
HETATM   21  N   UNL     1      -8.756   6.641  66.457  1.00  0.00    -0.130 NA 
HETATM   22  O   UNL     1      -9.536  10.863  64.261  1.00  0.00    -0.220 OA 
HETATM   23  O   UNL     1      -8.631   9.160  63.099  1.00  0.00    -0.203 OA 
HETATM   24  C   UNL     1      -9.140   7.108  67.774  1.00  0.00    -0.127 A  
HETATM   25  C   UNL     1      -9.175   6.315  68.978  1.00  0.00    -0.127 A  
BRANCH  21  26
HETATM   26  C   UNL     1      -8.101   5.334  66.223  1.00  0.00    -0.109 C  
HETATM   27  C   UNL     1      -8.423   4.504  65.005  1.00  0.00    -0.128 C  
HETATM   28  C   UNL     1      -7.064   5.102  65.139  1.00  0.00    -0.063 C  
ENDBRANCH  21  26
BRANCH  25  29
HETATM   29  O   UNL     1      -9.109   4.944  68.816  1.00  0.00    -0.104 OA 
HETATM   30  C   UNL     1      -7.958   4.282  69.335  1.00  0.00    -0.060 C  
ENDBRANCH  25  29
ENDBRANCH   3  11
TORSDOF 3
ENDMDL
MODEL      103
REMARK 921   NORMALIZED FREE ENERGY PREDICTED BY IDOCK:   -3.45 KCAL/MOL
REMARK 922        TOTAL FREE ENERGY PREDICTED BY IDOCK:   -4.87 KCAL/MOL
REMARK 923 INTER-LIGAND FREE ENERGY PREDICTED BY IDOCK:   -4.47 KCAL/MOL
REMARK 924 INTRA-LIGAND FREE ENERGY PREDICTED BY IDOCK:   -0.40 KCAL/MOL
REMARK 927      BINDING AFFINITY PREDICTED BY RF-SCORE:    0.00 PKD
ROOT
HETATM    1  C   UNL     1      -8.102   3.818  63.072  1.00  0.00    -0.080 C  
HETATM    2  C   UNL     1      -9.087   4.669  63.897  1.00  0.00    -0.078 C  
HETATM    3  N   UNL     1      -8.472   4.768  65.240  1.00  0.00    -0.127 NA 
HETATM    4  C   UNL     1      -8.355   2.312  63.243  1.00  0.00    -0.077 C  
HETATM    5  C   UNL     1      -7.061   4.408  65.153  1.00  0.00    -0.063 C  
HETATM    6  C   UNL     1      -6.757   4.278  63.645  1.00  0.00    -0.043 C  
HETATM    7  C   UNL     1      -7.117   1.471  62.942  1.00  0.00    -0.030 C  
HETATM    8  N   UNL     1      -5.629   3.412  63.290  1.00  0.00    -0.009 NA 
HETATM    9  H   UNL     1      -4.766   3.747  63.716  1.00  0.00     0.000 HD 
HETATM   10  C   UNL     1      -5.859   2.003  63.618  1.00  0.00    -0.009 C  
ENDROOT
BRANCH   3  11
HETATM   11  C   UNL     1      -9.063   5.393  66.330  1.00  0.00    -0.143 A  
HETATM   12  C   UNL     1     -10.280   5.112  68.461  1.00  0.00    -0.182 A  
HETATM   13  F   UNL     1      -9.657   3.254  67.249  1.00  0.00    -0.225 F  
HETATM   14  C   UNL     1      -9.637   4.592  67.351  1.00  0.00    -0.167 A  
HETATM   15  C   UNL     1     -11.050   6.973  69.851  1.00  0.00    -0.264 C  
HETATM   16  O   UNL     1     -11.630   6.204  70.615  1.00  0.00    -0.321 OA 
HETATM   17  C   UNL     1     -11.026   8.404  70.144  1.00  0.00    -0.216 C  
HETATM   18  C   UNL     1     -10.338   6.486  68.643  1.00  0.00    -0.216 A  
HETATM   19  C   UNL     1     -11.629   9.021  71.347  1.00  0.00    -0.326 C  
HETATM   20  C   UNL     1     -10.421   9.188  69.238  1.00  0.00    -0.221 C  
HETATM   21  N   UNL     1      -9.854   8.796  68.034  1.00  0.00    -0.162 NA 
HETATM   22  O   UNL     1     -12.257   8.150  72.164  1.00  0.00    -0.319 OA 
HETATM   23  O   UNL     1     -11.573  10.217  71.592  1.00  0.00    -0.267 OA 
HETATM   24  C   UNL     1      -9.767   7.387  67.713  1.00  0.00    -0.143 A  
HETATM   25  C   UNL     1      -9.164   6.821  66.531  1.00  0.00    -0.162 A  
BRANCH  21  26
HETATM   26  C   UNL     1      -9.102   9.840  67.299  1.00  0.00    -0.134 C  
HETATM   27  C   UNL     1      -9.367  11.306  67.532  1.00  0.00    -0.166 C  
HETATM   28  C   UNL     1      -8.058  10.730  67.949  1.00  0.00    -0.112 C  
ENDBRANCH  21  26
BRANCH  25  29
HETATM   29  O   UNL     1      -8.898   7.697  65.495  1.00  0.00    -0.108 OA 
HETATM   30  C   UNL     1      -7.548   7.786  65.048  1.00  0.00    -0.096 C  
ENDBRANCH  25  29
ENDBRANCH   3  11
TORSDOF 3
ENDMDL
MODEL      104
REMARK 921   NORMALIZED FREE ENERGY PREDICTED BY IDOCK:   -3.39 KCAL/MOL
REMARK 922        TOTAL FREE ENERGY PREDICTED BY IDOCK:   -4.80 KCAL/MOL
REMARK 923 INTER-LIGAND FREE ENERGY PREDICTED BY IDOCK:   -4.26 KCAL/MOL
REMARK 924 INTRA-LIGAND FREE ENERGY PREDICTED BY IDOCK:   -0.53 KCAL/MOL
REMARK 927      BINDING AFFINITY PREDICTED BY RF-SCORE:    0.00 PKD
ROOT
HETATM    1  C   UNL     1      -9.398   4.591  72.262  1.00  0.00    -0.165 C  
HETATM    2  C   UNL     1      -9.973   6.022  72.241  1.00  0.00    -0.167 C  
HETATM    3  N   UNL     1      -9.742   6.504  70.861  1.00  0.00    -0.176 NA 
HETATM    4  C   UNL     1      -7.891   4.579  72.564  1.00  0.00    -0.087 C  
HETATM    5  C   UNL     1      -9.465   5.366  69.991  1.00  0.00    -0.160 C  
HETATM    6  C   UNL     1      -9.739   4.111  70.848  1.00  0.00    -0.189 C  
HETATM    7  C   UNL     1      -7.198   3.322  72.042  1.00  0.00    -0.046 C  
HETATM    8  N   UNL     1      -9.033   2.892  70.445  1.00  0.00    -0.088 NA 
HETATM    9  H   UNL     1      -9.275   2.631  69.489  1.00  0.00     0.000 HD 
HETATM   10  C   UNL     1      -7.580   2.988  70.606  1.00  0.00    -0.040 C  
ENDROOT
BRANCH   3  11
HETATM   11  C   UNL     1     -10.043   7.784  70.416  1.00  0.00    -0.194 A  
HETATM   12  C   UNL     1     -11.803   9.477  70.035  1.00  0.00     0.053 A  
HETATM   13  F   UNL     1     -12.365   7.425  70.921  1.00  0.00    -0.332 F  
HETATM   14  C   UNL     1     -11.387   8.234  70.483  1.00  0.00    -0.219 A  
HETATM   15  C   UNL     1     -11.387  11.686  69.068  1.00  0.00    -0.275 C  
HETATM   16  O   UNL     1     -12.590  11.937  69.046  1.00  0.00     0.032 OA 
HETATM   17  C   UNL     1     -10.426  12.705  68.653  1.00  0.00    -0.224 C  
HETATM   18  C   UNL     1     -10.870  10.376  69.537  1.00  0.00    -0.295 A  
HETATM   19  C   UNL     1     -10.792  14.076  68.231  1.00  0.00    -0.255 C  
HETATM   20  C   UNL     1      -9.134  12.341  68.651  1.00  0.00     0.018 C  
HETATM   21  N   UNL     1      -8.613  11.092  68.959  1.00  0.00    -0.083 NA 
HETATM   22  O   UNL     1     -12.119  14.319  68.218  1.00  0.00    -0.322 OA 
HETATM   23  O   UNL     1      -9.972  14.927  67.917  1.00  0.00    -0.217 OA 
HETATM   24  C   UNL     1      -9.494  10.056  69.457  1.00  0.00    -0.226 A  
HETATM   25  C   UNL     1      -9.099   8.730  69.865  1.00  0.00    -0.157 A  
BRANCH  21  26
HETATM   26  C   UNL     1      -7.137  11.006  69.043  1.00  0.00    -0.106 C  
HETATM   27  C   UNL     1      -6.279  12.247  69.048  1.00  0.00    -0.082 C  
HETATM   28  C   UNL     1      -6.346  11.404  70.275  1.00  0.00    -0.043 C  
ENDBRANCH  21  26
BRANCH  25  29
HETATM   29  O   UNL     1      -7.832   8.322  69.493  1.00  0.00    -0.099 OA 
HETATM   30  C   UNL     1      -7.691   7.737  68.201  1.00  0.00    -0.119 C  
ENDBRANCH  25  29
ENDBRANCH   3  11
TORSDOF 3
ENDMDL
MODEL      105
REMARK 921   NORMALIZED FREE ENERGY PREDICTED BY IDOCK:   -3.31 KCAL/MOL
REMARK 922        TOTAL FREE ENERGY PREDICTED BY IDOCK:   -4.70 KCAL/MOL
REMARK 923 INTER-LIGAND FREE ENERGY PREDICTED BY IDOCK:   -3.92 KCAL/MOL
REMARK 924 INTRA-LIGAND FREE ENERGY PREDICTED BY IDOCK:   -0.77 KCAL/MOL
REMARK 927      BINDING AFFINITY PREDICTED BY RF-SCORE:    0.00 PKD
ROOT
HETATM    1  C   UNL     1     -11.208   6.202  71.734  1.00  0.00    -0.338 C  
HETATM    2  C   UNL     1     -11.018   6.823  70.335  1.00  0.00    -0.283 C  
HETATM    3  N   UNL     1      -9.584   6.629  70.025  1.00  0.00    -0.157 NA 
HETATM    4  C   UNL     1     -10.882   7.198  72.857  1.00  0.00    -0.362 C  
HETATM    5  C   UNL     1      -9.030   5.614  70.914  1.00  0.00    -0.140 C  
HETATM    6  C   UNL     1     -10.238   5.019  71.669  1.00  0.00    -0.208 C  
HETATM    7  C   UNL     1     -10.502   6.505  74.164  1.00  0.00    -0.261 C  
HETATM    8  N   UNL     1      -9.945   4.414  72.973  1.00  0.00    -0.144 NA 
HETATM    9  H   UNL     1      -9.277   3.650  72.877  1.00  0.00     0.000 HD 
HETATM   10  C   UNL     1      -9.487   5.386  73.968  1.00  0.00    -0.136 C  
ENDROOT
BRANCH   3  11
HETATM   11  C   UNL     1      -8.957   7.106  68.882  1.00  0.00    -0.129 A  
HETATM   12  C   UNL     1      -8.548   6.789  66.466  1.00  0.00    -0.128 A  
HETATM   13  F   UNL     1      -9.890   5.300  67.602  1.00  0.00    -0.136 F  
HETATM   14  C   UNL     1      -9.153   6.420  67.655  1.00  0.00    -0.114 A  
HETATM   15  C   UNL     1      -7.122   8.251  65.118  1.00  0.00    -0.075 C  
HETATM   16  O   UNL     1      -7.247   7.520  64.137  1.00  0.00    -0.070 OA 
HETATM   17  C   UNL     1      -6.369   9.497  65.001  1.00  0.00    -0.083 C  
HETATM   18  C   UNL     1      -7.743   7.919  66.424  1.00  0.00    -0.096 A  
HETATM   19  C   UNL     1      -5.758   9.991  63.746  1.00  0.00    -0.122 C  
HETATM   20  C   UNL     1      -6.229  10.216  66.126  1.00  0.00    -0.082 C  
HETATM   21  N   UNL     1      -6.682   9.886  67.396  1.00  0.00    -0.073 NA 
HETATM   22  O   UNL     1      -5.913   9.166  62.690  1.00  0.00    -0.093 OA 
HETATM   23  O   UNL     1      -5.158  11.052  63.660  1.00  0.00    -0.185 OA 
HETATM   24  C   UNL     1      -7.504   8.708  67.574  1.00  0.00    -0.090 A  
HETATM   25  C   UNL     1      -8.090   8.261  68.815  1.00  0.00    -0.115 A  
BRANCH  21  26
HETATM   26  C   UNL     1      -6.540  10.936  68.430  1.00  0.00    -0.058 C  
HETATM   27  C   UNL     1      -5.741  12.189  68.170  1.00  0.00    -0.053 C  
HETATM   28  C   UNL     1      -7.218  12.292  68.342  1.00  0.00    -0.102 C  
ENDBRANCH  21  26
BRANCH  25  29
HETATM   29  O   UNL     1      -7.602   8.842  69.971  1.00  0.00    -0.057 OA 
HETATM   30  C   UNL     1      -6.528   8.176  70.630  1.00  0.00    -0.036 C  
ENDBRANCH  25  29
ENDBRANCH   3  11
TORSDOF 3
ENDMDL
MODEL      106
REMARK 921   NORMALIZED FREE ENERGY PREDICTED BY IDOCK:   -3.19 KCAL/MOL
REMARK 922        TOTAL FREE ENERGY PREDICTED BY IDOCK:   -4.56 KCAL/MOL
REMARK 923 INTER-LIGAND FREE ENERGY PREDICTED BY IDOCK:   -3.79 KCAL/MOL
REMARK 924 INTRA-LIGAND FREE ENERGY PREDICTED BY IDOCK:   -0.77 KCAL/MOL
REMARK 927      BINDING AFFINITY PREDICTED BY RF-SCORE:    0.00 PKD
ROOT
HETATM    1  C   UNL     1      -5.681  11.952  68.229  1.00  0.00    -0.050 C  
HETATM    2  C   UNL     1      -5.569  10.417  68.137  1.00  0.00    -0.036 C  
HETATM    3  N   UNL     1      -6.919   9.960  67.736  1.00  0.00    -0.084 NA 
HETATM    4  C   UNL     1      -6.191  12.413  69.603  1.00  0.00    -0.130 C  
HETATM    5  C   UNL     1      -7.672  11.090  67.202  1.00  0.00    -0.131 C  
HETATM    6  C   UNL     1      -6.659  12.249  67.087  1.00  0.00    -0.109 C  
HETATM    7  C   UNL     1      -6.846  13.791  69.554  1.00  0.00     0.001 C  
HETATM    8  N   UNL     1      -7.224  13.601  67.121  1.00  0.00    -0.362 NA 
HETATM    9  H   UNL     1      -7.885  13.737  66.357  1.00  0.00     0.000 HD 
HETATM   10  C   UNL     1      -7.838  13.936  68.408  1.00  0.00    -0.138 C  
ENDROOT
BRANCH   3  11
HETATM   11  C   UNL     1      -7.290   8.629  67.605  1.00  0.00    -0.089 A  
HETATM   12  C   UNL     1      -7.187   6.583  66.224  1.00  0.00    -0.072 A  
HETATM   13  F   UNL     1      -6.121   8.497  65.510  1.00  0.00    -0.046 F  
HETATM   14  C   UNL     1      -6.847   7.902  66.470  1.00  0.00    -0.070 A  
HETATM   15  C   UNL     1      -8.291   4.480  66.813  1.00  0.00    -0.105 C  
HETATM   16  O   UNL     1      -7.968   3.974  65.740  1.00  0.00    -0.096 OA 
HETATM   17  C   UNL     1      -8.994   3.677  67.810  1.00  0.00    -0.165 C  
HETATM   18  C   UNL     1      -7.958   5.888  67.145  1.00  0.00    -0.102 A  
HETATM   19  C   UNL     1      -9.327   2.243  67.646  1.00  0.00    -0.135 C  
HETATM   20  C   UNL     1      -9.362   4.311  68.935  1.00  0.00    -0.158 C  
HETATM   21  N   UNL     1      -9.187   5.654  69.237  1.00  0.00    -0.115 NA 
HETATM   22  O   UNL     1      -8.959   1.720  66.458  1.00  0.00    -0.123 OA 
HETATM   23  O   UNL     1      -9.888   1.579  68.504  1.00  0.00    -0.132 OA 
HETATM   24  C   UNL     1      -8.427   6.493  68.334  1.00  0.00    -0.120 A  
HETATM   25  C   UNL     1      -8.117   7.888  68.532  1.00  0.00    -0.123 A  
BRANCH  21  26
HETATM   26  C   UNL     1      -9.535   6.060  70.618  1.00  0.00    -0.168 C  
HETATM   27  C   UNL     1     -10.972   6.154  71.068  1.00  0.00    -0.354 C  
HETATM   28  C   UNL     1     -10.094   5.102  71.654  1.00  0.00    -0.262 C  
ENDBRANCH  21  26
BRANCH  25  29
HETATM   29  O   UNL     1      -8.831   8.546  69.516  1.00  0.00    -0.138 OA 
HETATM   30  C   UNL     1     -10.019   9.223  69.114  1.00  0.00    -0.179 C  
ENDBRANCH  25  29
ENDBRANCH   3  11
TORSDOF 3
ENDMDL
MODEL      107
REMARK 921   NORMALIZED FREE ENERGY PREDICTED BY IDOCK:   -3.19 KCAL/MOL
REMARK 922        TOTAL FREE ENERGY PREDICTED BY IDOCK:   -4.56 KCAL/MOL
REMARK 923 INTER-LIGAND FREE ENERGY PREDICTED BY IDOCK:   -3.72 KCAL/MOL
REMARK 924 INTRA-LIGAND FREE ENERGY PREDICTED BY IDOCK:   -0.84 KCAL/MOL
REMARK 927      BINDING AFFINITY PREDICTED BY RF-SCORE:    0.00 PKD
ROOT
HETATM    1  C   UNL     1      -9.599   3.713  64.321  1.00  0.00    -0.163 C  
HETATM    2  C   UNL     1      -9.970   4.219  65.729  1.00  0.00    -0.222 C  
HETATM    3  N   UNL     1      -8.683   4.627  66.337  1.00  0.00    -0.112 NA 
HETATM    4  C   UNL     1      -9.190   2.232  64.328  1.00  0.00    -0.124 C  
HETATM    5  C   UNL     1      -7.681   4.784  65.289  1.00  0.00    -0.086 C  
HETATM    6  C   UNL     1      -8.451   4.659  63.956  1.00  0.00    -0.125 C  
HETATM    7  C   UNL     1      -8.300   1.862  63.143  1.00  0.00    -0.072 C  
HETATM    8  N   UNL     1      -7.663   4.224  62.799  1.00  0.00    -0.063 NA 
HETATM    9  H   UNL     1      -6.899   4.873  62.615  1.00  0.00     0.000 HD 
HETATM   10  C   UNL     1      -7.164   2.853  62.924  1.00  0.00    -0.044 C  
ENDROOT
BRANCH   3  11
HETATM   11  C   UNL     1      -8.541   5.081  67.642  1.00  0.00    -0.104 A  
HETATM   12  C   UNL     1      -8.427   4.481  70.036  1.00  0.00    -0.088 A  
HETATM   13  F   UNL     1      -8.700   2.825  68.456  1.00  0.00    -0.089 F  
HETATM   14  C   UNL     1      -8.528   4.135  68.699  1.00  0.00    -0.087 A  
HETATM   15  C   UNL     1      -8.179   6.113  71.842  1.00  0.00    -0.114 C  
HETATM   16  O   UNL     1      -8.308   5.235  72.694  1.00  0.00    -0.113 OA 
HETATM   17  C   UNL     1      -7.893   7.485  72.254  1.00  0.00    -0.109 C  
HETATM   18  C   UNL     1      -8.274   5.813  70.392  1.00  0.00    -0.107 A  
HETATM   19  C   UNL     1      -7.700   7.914  73.657  1.00  0.00    -0.162 C  
HETATM   20  C   UNL     1      -7.819   8.398  71.272  1.00  0.00    -0.111 C  
HETATM   21  N   UNL     1      -8.025   8.191  69.916  1.00  0.00    -0.107 NA 
HETATM   22  O   UNL     1      -7.849   6.928  74.566  1.00  0.00    -0.116 OA 
HETATM   23  O   UNL     1      -7.431   9.062  73.981  1.00  0.00    -0.388 OA 
HETATM   24  C   UNL     1      -8.232   6.844  69.424  1.00  0.00    -0.131 A  
HETATM   25  C   UNL     1      -8.410   6.463  68.044  1.00  0.00    -0.115 A  
BRANCH  21  26
HETATM   26  C   UNL     1      -7.716   9.336  69.029  1.00  0.00    -0.075 C  
HETATM   27  C   UNL     1      -8.564  10.585  69.038  1.00  0.00    -0.160 C  
HETATM   28  C   UNL     1      -7.160  10.656  69.532  1.00  0.00    -0.127 C  
ENDBRANCH  21  26
BRANCH  25  29
HETATM   29  O   UNL     1      -8.683   7.483  67.152  1.00  0.00    -0.119 OA 
HETATM   30  C   UNL     1     -10.055   7.755  66.876  1.00  0.00    -0.286 C  
ENDBRANCH  25  29
ENDBRANCH   3  11
TORSDOF 3
ENDMDL
MODEL      108
REMARK 921   NORMALIZED FREE ENERGY PREDICTED BY IDOCK:   -3.04 KCAL/MOL
REMARK 922        TOTAL FREE ENERGY PREDICTED BY IDOCK:   -4.39 KCAL/MOL
REMARK 923 INTER-LIGAND FREE ENERGY PREDICTED BY IDOCK:   -3.66 KCAL/MOL
REMARK 924 INTRA-LIGAND FREE ENERGY PREDICTED BY IDOCK:   -0.72 KCAL/MOL
REMARK 927      BINDING AFFINITY PREDICTED BY RF-SCORE:    0.00 PKD
ROOT
HETATM    1  C   UNL     1      -9.576  12.720  68.179  1.00  0.00    -0.223 C  
HETATM    2  C   UNL     1      -8.789  11.582  68.858  1.00  0.00     0.040 C  
HETATM    3  N   UNL     1      -9.257  10.346  68.192  1.00  0.00    -0.143 NA 
HETATM    4  C   UNL     1     -10.947  12.946  68.835  1.00  0.00    -0.271 C  
HETATM    5  C   UNL     1      -9.923  10.693  66.941  1.00  0.00    -0.202 C  
HETATM    6  C   UNL     1      -9.669  12.202  66.740  1.00  0.00    -0.207 C  
HETATM    7  C   UNL     1     -11.948  13.611  67.892  1.00  0.00    -0.382 C  
HETATM    8  N   UNL     1     -10.648  12.912  65.911  1.00  0.00    -0.266 NA 
HETATM    9  H   UNL     1     -10.688  12.513  64.974  1.00  0.00     0.000 HD 
HETATM   10  C   UNL     1     -11.982  12.964  66.514  1.00  0.00    -0.377 C  
ENDROOT
BRANCH   3  11
HETATM   11  C   UNL     1      -8.857   9.064  68.546  1.00  0.00    -0.134 A  
HETATM   12  C   UNL     1      -7.386   7.146  68.038  1.00  0.00    -0.097 A  
HETATM   13  F   UNL     1      -7.292   9.036  66.723  1.00  0.00    -0.082 F  
HETATM   14  C   UNL     1      -7.835   8.432  67.793  1.00  0.00    -0.107 A  
HETATM   15  C   UNL     1      -7.384   5.051  69.303  1.00  0.00    -0.057 C  
HETATM   16  O   UNL     1      -6.589   4.541  68.518  1.00  0.00    -0.043 OA 
HETATM   17  C   UNL     1      -7.813   4.308  70.486  1.00  0.00    -0.052 C  
HETATM   18  C   UNL     1      -7.906   6.426  69.104  1.00  0.00    -0.109 A  
HETATM   19  C   UNL     1      -7.321   2.960  70.849  1.00  0.00    -0.033 C  
HETATM   20  C   UNL     1      -8.724   4.908  71.269  1.00  0.00    -0.128 C  
HETATM   21  N   UNL     1      -9.335   6.135  71.058  1.00  0.00    -0.163 NA 
HETATM   22  O   UNL     1      -6.450   2.428  69.966  1.00  0.00    -0.027 OA 
HETATM   23  O   UNL     1      -7.667   2.365  71.859  1.00  0.00    -0.043 OA 
HETATM   24  C   UNL     1      -8.902   6.965  69.953  1.00  0.00    -0.142 A  
HETATM   25  C   UNL     1      -9.401   8.281  69.633  1.00  0.00    -0.158 A  
BRANCH  21  26
HETATM   26  C   UNL     1     -10.179   6.641  72.165  1.00  0.00    -0.190 C  
HETATM   27  C   UNL     1     -11.584   6.131  72.373  1.00  0.00    -0.338 C  
HETATM   28  C   UNL     1     -10.539   5.812  73.385  1.00  0.00    -0.283 C  
ENDBRANCH  21  26
BRANCH  25  29
HETATM   29  O   UNL     1     -10.573   8.664  70.257  1.00  0.00    -0.212 OA 
HETATM   30  C   UNL     1     -11.770   8.610  69.484  1.00  0.00     0.769 C  
ENDBRANCH  25  29
ENDBRANCH   3  11
TORSDOF 3
ENDMDL
MODEL      109
REMARK 921   NORMALIZED FREE ENERGY PREDICTED BY IDOCK:   -2.95 KCAL/MOL
REMARK 922        TOTAL FREE ENERGY PREDICTED BY IDOCK:   -4.28 KCAL/MOL
REMARK 923 INTER-LIGAND FREE ENERGY PREDICTED BY IDOCK:   -4.03 KCAL/MOL
REMARK 924 INTRA-LIGAND FREE ENERGY PREDICTED BY IDOCK:   -0.25 KCAL/MOL
REMARK 927      BINDING AFFINITY PREDICTED BY RF-SCORE:    0.00 PKD
ROOT
HETATM    1  C   UNL     1      -9.617   3.490  63.521  1.00  0.00    -0.125 C  
HETATM    2  C   UNL     1     -10.345   3.960  64.796  1.00  0.00    -0.173 C  
HETATM    3  N   UNL     1      -9.301   4.630  65.604  1.00  0.00    -0.152 NA 
HETATM    4  C   UNL     1      -8.952   2.117  63.709  1.00  0.00    -0.092 C  
HETATM    5  C   UNL     1      -8.158   4.944  64.754  1.00  0.00    -0.109 C  
HETATM    6  C   UNL     1      -8.613   4.628  63.313  1.00  0.00    -0.123 C  
HETATM    7  C   UNL     1      -7.793   1.889  62.741  1.00  0.00    -0.055 C  
HETATM    8  N   UNL     1      -7.546   4.316  62.357  1.00  0.00    -0.051 NA 
HETATM    9  H   UNL     1      -6.894   5.095  62.274  1.00  0.00     0.000 HD 
HETATM   10  C   UNL     1      -6.838   3.072  62.670  1.00  0.00    -0.031 C  
ENDROOT
BRANCH   3  11
HETATM   11  C   UNL     1      -9.505   5.146  66.877  1.00  0.00    -0.139 A  
HETATM   12  C   UNL     1     -10.037   7.140  68.236  1.00  0.00    -0.187 A  
HETATM   13  F   UNL     1      -9.925   7.319  65.942  1.00  0.00    -0.018 F  
HETATM   14  C   UNL     1      -9.846   6.516  67.015  1.00  0.00    -0.157 A  
HETATM   15  C   UNL     1     -10.157   7.135  70.680  1.00  0.00    -0.191 C  
HETATM   16  O   UNL     1     -10.321   8.353  70.706  1.00  0.00    -0.190 OA 
HETATM   17  C   UNL     1     -10.196   6.372  71.926  1.00  0.00    -0.219 C  
HETATM   18  C   UNL     1      -9.949   6.401  69.408  1.00  0.00    -0.184 A  
HETATM   19  C   UNL     1     -10.465   6.960  73.258  1.00  0.00    -0.312 C  
HETATM   20  C   UNL     1      -9.955   5.055  71.827  1.00  0.00    -0.191 C  
HETATM   21  N   UNL     1      -9.631   4.345  70.679  1.00  0.00    -0.176 NA 
HETATM   22  O   UNL     1     -10.640   8.298  73.250  1.00  0.00    -0.051 OA 
HETATM   23  O   UNL     1     -10.525   6.302  74.286  1.00  0.00    -0.305 OA 
HETATM   24  C   UNL     1      -9.653   5.017  69.396  1.00  0.00    -0.166 A  
HETATM   25  C   UNL     1      -9.391   4.408  68.115  1.00  0.00    -0.146 A  
BRANCH  21  26
HETATM   26  C   UNL     1      -9.580   2.872  70.819  1.00  0.00    -0.125 C  
HETATM   27  C   UNL     1      -8.771   2.216  71.910  1.00  0.00    -0.099 C  
HETATM   28  C   UNL     1     -10.257   2.117  71.948  1.00  0.00    -0.123 C  
ENDBRANCH  21  26
BRANCH  25  29
HETATM   29  O   UNL     1      -8.801   3.158  68.135  1.00  0.00    -0.098 OA 
HETATM   30  C   UNL     1      -9.660   2.030  67.988  1.00  0.00    -0.043 C  
ENDBRANCH  25  29
ENDBRANCH   3  11
TORSDOF 3
ENDMDL
MODEL      110
REMARK 921   NORMALIZED FREE ENERGY PREDICTED BY IDOCK:   -2.90 KCAL/MOL
REMARK 922        TOTAL FREE ENERGY PREDICTED BY IDOCK:   -4.22 KCAL/MOL
REMARK 923 INTER-LIGAND FREE ENERGY PREDICTED BY IDOCK:   -3.60 KCAL/MOL
REMARK 924 INTRA-LIGAND FREE ENERGY PREDICTED BY IDOCK:   -0.62 KCAL/MOL
REMARK 927      BINDING AFFINITY PREDICTED BY RF-SCORE:    0.00 PKD
ROOT
HETATM    1  C   UNL     1      -8.011   9.807  70.249  1.00  0.00    -0.185 C  
HETATM    2  C   UNL     1      -8.591   9.259  68.929  1.00  0.00    -0.130 C  
HETATM    3  N   UNL     1      -8.471   7.788  69.043  1.00  0.00    -0.131 NA 
HETATM    4  C   UNL     1      -6.486   9.977  70.182  1.00  0.00    -0.107 C  
HETATM    5  C   UNL     1      -8.259   7.427  70.440  1.00  0.00    -0.121 C  
HETATM    6  C   UNL     1      -8.461   8.731  71.242  1.00  0.00    -0.186 C  
HETATM    7  C   UNL     1      -5.832   9.951  71.562  1.00  0.00     0.045 C  
HETATM    8  N   UNL     1      -7.784   8.797  72.541  1.00  0.00    -0.366 NA 
HETATM    9  H   UNL     1      -8.101   8.046  73.153  1.00  0.00     0.000 HD 
HETATM   10  C   UNL     1      -6.324   8.799  72.429  1.00  0.00    -0.035 C  
ENDROOT
BRANCH   3  11
HETATM   11  C   UNL     1      -8.811   6.893  68.037  1.00  0.00    -0.123 A  
HETATM   12  C   UNL     1     -10.618   5.932  66.653  1.00  0.00    -0.330 A  
HETATM   13  F   UNL     1     -11.116   7.550  68.216  1.00  0.00    -0.142 F  
HETATM   14  C   UNL     1     -10.165   6.812  67.620  1.00  0.00    -0.179 A  
HETATM   15  C   UNL     1     -10.272   4.181  64.978  1.00  0.00    -0.203 C  
HETATM   16  O   UNL     1     -11.481   4.092  64.777  1.00  0.00    -0.198 OA 
HETATM   17  C   UNL     1      -9.343   3.385  64.180  1.00  0.00    -0.133 C  
HETATM   18  C   UNL     1      -9.716   5.105  65.998  1.00  0.00    -0.182 A  
HETATM   19  C   UNL     1      -9.750   2.478  63.082  1.00  0.00    -0.097 C  
HETATM   20  C   UNL     1      -8.042   3.495  64.493  1.00  0.00    -0.086 C  
HETATM   21  N   UNL     1      -7.486   4.246  65.518  1.00  0.00    -0.080 NA 
HETATM   22  O   UNL     1     -11.083   2.403  62.887  1.00  0.00    -0.216 OA 
HETATM   23  O   UNL     1      -8.956   1.843  62.403  1.00  0.00    -0.073 OA 
HETATM   24  C   UNL     1      -8.334   5.123  66.299  1.00  0.00    -0.113 A  
HETATM   25  C   UNL     1      -7.899   6.000  67.359  1.00  0.00    -0.102 A  
BRANCH  21  26
HETATM   26  C   UNL     1      -6.007   4.323  65.539  1.00  0.00    -0.023 C  
HETATM   27  C   UNL     1      -5.178   3.765  64.409  1.00  0.00    -0.009 C  
HETATM   28  C   UNL     1      -5.206   5.238  64.631  1.00  0.00    -0.009 C  
ENDBRANCH  21  26
BRANCH  25  29
HETATM   29  O   UNL     1      -6.627   5.784  67.856  1.00  0.00    -0.049 OA 
HETATM   30  C   UNL     1      -6.499   4.864  68.937  1.00  0.00    -0.036 C  
ENDBRANCH  25  29
ENDBRANCH   3  11
TORSDOF 3
ENDMDL
MODEL      111
REMARK 921   NORMALIZED FREE ENERGY PREDICTED BY IDOCK:   -2.87 KCAL/MOL
REMARK 922        TOTAL FREE ENERGY PREDICTED BY IDOCK:   -4.18 KCAL/MOL
REMARK 923 INTER-LIGAND FREE ENERGY PREDICTED BY IDOCK:   -3.82 KCAL/MOL
REMARK 924 INTRA-LIGAND FREE ENERGY PREDICTED BY IDOCK:   -0.36 KCAL/MOL
REMARK 927      BINDING AFFINITY PREDICTED BY RF-SCORE:    0.00 PKD
ROOT
HETATM    1  C   UNL     1      -8.274   9.506  66.710  1.00  0.00    -0.113 C  
HETATM    2  C   UNL     1      -8.009  11.014  66.531  1.00  0.00    -0.158 C  
HETATM    3  N   UNL     1      -8.692  11.659  67.675  1.00  0.00    -0.151 NA 
HETATM    4  C   UNL     1      -9.613   9.077  66.089  1.00  0.00    -0.341 C  
HETATM    5  C   UNL     1      -8.972  10.657  68.698  1.00  0.00    -0.170 C  
HETATM    6  C   UNL     1      -8.243   9.376  68.236  1.00  0.00    -0.118 C  
HETATM    7  C   UNL     1     -10.169   7.800  66.716  1.00  0.00    -0.346 C  
HETATM    8  N   UNL     1      -8.787   8.111  68.740  1.00  0.00    -0.138 NA 
HETATM    9  H   UNL     1      -8.766   8.087  69.759  1.00  0.00     0.000 HD 
HETATM   10  C   UNL     1     -10.133   7.823  68.238  1.00  0.00    -0.192 C  
ENDROOT
BRANCH   3  11
HETATM   11  C   UNL     1      -8.770  13.031  67.870  1.00  0.00    -0.189 A  
HETATM   12  C   UNL     1     -10.115  15.084  67.582  1.00  0.00    -0.231 A  
HETATM   13  F   UNL     1     -10.950  13.062  66.859  1.00  0.00    -0.253 F  
HETATM   14  C   UNL     1      -9.946  13.715  67.466  1.00  0.00    -0.230 A  
HETATM   15  C   UNL     1      -9.365  17.314  68.256  1.00  0.00    -0.272 C  
HETATM   16  O   UNL     1     -10.363  17.833  67.759  1.00  0.00    -0.346 OA 
HETATM   17  C   UNL     1      -8.402  18.141  68.979  1.00  0.00    -0.044 C  
HETATM   18  C   UNL     1      -9.121  15.853  68.171  1.00  0.00    -0.182 A  
HETATM   19  C   UNL     1      -8.553  19.596  69.204  1.00  0.00    -0.017 C  
HETATM   20  C   UNL     1      -7.311  17.513  69.447  1.00  0.00     0.067 C  
HETATM   21  N   UNL     1      -6.976  16.177  69.284  1.00  0.00    -0.201 NA 
HETATM   22  O   UNL     1      -9.656  20.134  68.647  1.00  0.00    -0.190 OA 
HETATM   23  O   UNL     1      -7.751  20.267  69.839  1.00  0.00     0.328 OA 
HETATM   24  C   UNL     1      -7.919  15.279  68.650  1.00  0.00    -0.149 A  
HETATM   25  C   UNL     1      -7.740  13.861  68.454  1.00  0.00    -0.139 A  
BRANCH  21  26
HETATM   26  C   UNL     1      -5.798  15.704  70.046  1.00  0.00    -0.150 C  
HETATM   27  C   UNL     1      -5.148  16.568  71.099  1.00  0.00    -0.125 C  
HETATM   28  C   UNL     1      -5.852  15.322  71.514  1.00  0.00     0.438 C  
ENDBRANCH  21  26
BRANCH  25  29
HETATM   29  O   UNL     1      -6.459  13.371  68.629  1.00  0.00    -0.078 OA 
HETATM   30  C   UNL     1      -6.277  12.369  69.626  1.00  0.00    -0.130 C  
ENDBRANCH  25  29
ENDBRANCH   3  11
TORSDOF 3
ENDMDL
MODEL      112
REMARK 921   NORMALIZED FREE ENERGY PREDICTED BY IDOCK:   -2.66 KCAL/MOL
REMARK 922        TOTAL FREE ENERGY PREDICTED BY IDOCK:   -3.94 KCAL/MOL
REMARK 923 INTER-LIGAND FREE ENERGY PREDICTED BY IDOCK:   -3.80 KCAL/MOL
REMARK 924 INTRA-LIGAND FREE ENERGY PREDICTED BY IDOCK:   -0.14 KCAL/MOL
REMARK 927      BINDING AFFINITY PREDICTED BY RF-SCORE:    0.00 PKD
ROOT
HETATM    1  C   UNL     1      -9.888   4.246  66.905  1.00  0.00    -0.224 C  
HETATM    2  C   UNL     1      -9.917   5.601  67.639  1.00  0.00    -0.150 C  
HETATM    3  N   UNL     1      -8.581   6.192  67.399  1.00  0.00    -0.107 NA 
HETATM    4  C   UNL     1      -9.293   3.129  67.776  1.00  0.00    -0.252 C  
HETATM    5  C   UNL     1      -7.944   5.506  66.280  1.00  0.00    -0.105 C  
HETATM    6  C   UNL     1      -9.030   4.586  65.682  1.00  0.00    -0.134 C  
HETATM    7  C   UNL     1      -8.727   1.977  66.949  1.00  0.00    -0.131 C  
HETATM    8  N   UNL     1      -8.545   3.414  64.948  1.00  0.00    -0.101 NA 
HETATM    9  H   UNL     1      -7.960   3.695  64.162  1.00  0.00     0.000 HD 
HETATM   10  C   UNL     1      -7.845   2.449  65.800  1.00  0.00    -0.081 C  
ENDROOT
BRANCH   3  11
HETATM   11  C   UNL     1      -8.144   7.391  67.944  1.00  0.00    -0.119 A  
HETATM   12  C   UNL     1      -6.700   8.494  69.620  1.00  0.00    -0.040 A  
HETATM   13  F   UNL     1      -6.727   6.194  69.472  1.00  0.00    -0.044 F  
HETATM   14  C   UNL     1      -7.178   7.361  68.984  1.00  0.00    -0.085 A  
HETATM   15  C   UNL     1      -6.582  10.917  69.937  1.00  0.00    -0.148 C  
HETATM   16  O   UNL     1      -5.846  10.784  70.913  1.00  0.00    -0.242 OA 
HETATM   17  C   UNL     1      -6.910  12.256  69.454  1.00  0.00     0.007 C  
HETATM   18  C   UNL     1      -7.129   9.748  69.206  1.00  0.00    -0.066 A  
HETATM   19  C   UNL     1      -6.379  13.509  70.039  1.00  0.00    -0.045 C  
HETATM   20  C   UNL     1      -7.761  12.325  68.419  1.00  0.00    -0.141 C  
HETATM   21  N   UNL     1      -8.397  11.267  67.783  1.00  0.00    -0.121 NA 
HETATM   22  O   UNL     1      -5.576  13.328  71.107  1.00  0.00    -0.194 OA 
HETATM   23  O   UNL     1      -6.640  14.620  69.602  1.00  0.00    -0.133 OA 
HETATM   24  C   UNL     1      -8.060   9.908  68.153  1.00  0.00    -0.104 A  
HETATM   25  C   UNL     1      -8.594   8.709  67.554  1.00  0.00    -0.135 A  
BRANCH  21  26
HETATM   26  C   UNL     1      -9.156  11.607  66.558  1.00  0.00    -0.197 C  
HETATM   27  C   UNL     1     -10.617  11.979  66.620  1.00  0.00    -0.266 C  
HETATM   28  C   UNL     1      -9.619  13.013  66.226  1.00  0.00    -0.243 C  
ENDBRANCH  21  26
BRANCH  25  29
HETATM   29  O   UNL     1      -9.717   8.862  66.763  1.00  0.00    -0.179 OA 
HETATM   30  C   UNL     1      -9.519   8.892  65.352  1.00  0.00    -0.016 C  
ENDBRANCH  25  29
ENDBRANCH   3  11
TORSDOF 3
ENDMDL
MODEL      113
REMARK 921   NORMALIZED FREE ENERGY PREDICTED BY IDOCK:   -2.51 KCAL/MOL
REMARK 922        TOTAL FREE ENERGY PREDICTED BY IDOCK:   -3.76 KCAL/MOL
REMARK 923 INTER-LIGAND FREE ENERGY PREDICTED BY IDOCK:   -3.69 KCAL/MOL
REMARK 924 INTRA-LIGAND FREE ENERGY PREDICTED BY IDOCK:   -0.08 KCAL/MOL
REMARK 927      BINDING AFFINITY PREDICTED BY RF-SCORE:    0.00 PKD
ROOT
HETATM    1  C   UNL     1      -8.301   3.020  71.509  1.00  0.00    -0.081 C  
HETATM    2  C   UNL     1      -8.731   4.106  70.504  1.00  0.00    -0.079 C  
HETATM    3  N   UNL     1      -8.457   5.389  71.190  1.00  0.00    -0.123 NA 
HETATM    4  C   UNL     1      -9.423   2.672  72.500  1.00  0.00    -0.160 C  
HETATM    5  C   UNL     1      -7.548   5.155  72.307  1.00  0.00    -0.096 C  
HETATM    6  C   UNL     1      -7.091   3.687  72.171  1.00  0.00    -0.046 C  
HETATM    7  C   UNL     1      -8.892   2.076  73.802  1.00  0.00    -0.062 C  
HETATM    8  N   UNL     1      -6.650   3.034  73.407  1.00  0.00    -0.024 NA 
HETATM    9  H   UNL     1      -5.861   3.531  73.819  1.00  0.00     0.000 HD 
HETATM   10  C   UNL     1      -7.728   2.866  74.385  1.00  0.00    -0.056 C  
ENDROOT
BRANCH   3  11
HETATM   11  C   UNL     1      -8.764   6.639  70.670  1.00  0.00    -0.143 A  
HETATM   12  C   UNL     1     -10.352   8.532  70.646  1.00  0.00    -0.232 A  
HETATM   13  F   UNL     1     -10.762   6.715  72.003  1.00  0.00    -0.223 F  
HETATM   14  C   UNL     1      -9.935   7.301  71.123  1.00  0.00    -0.186 A  
HETATM   15  C   UNL     1     -10.091  10.517  69.239  1.00  0.00    -0.224 C  
HETATM   16  O   UNL     1     -11.184  10.951  69.594  1.00  0.00    -0.243 OA 
HETATM   17  C   UNL     1      -9.248  11.315  68.352  1.00  0.00    -0.178 C  
HETATM   18  C   UNL     1      -9.579   9.207  69.712  1.00  0.00    -0.191 A  
HETATM   19  C   UNL     1      -9.597  12.667  67.860  1.00  0.00    -0.211 C  
HETATM   20  C   UNL     1      -8.092  10.753  67.963  1.00  0.00    -0.114 C  
HETATM   21  N   UNL     1      -7.629   9.483  68.275  1.00  0.00    -0.078 NA 
HETATM   22  O   UNL     1     -10.803  13.114  68.268  1.00  0.00    -0.236 OA 
HETATM   23  O   UNL     1      -8.865  13.334  67.143  1.00  0.00    -0.208 OA 
HETATM   24  C   UNL     1      -8.370   8.666  69.214  1.00  0.00    -0.118 A  
HETATM   25  C   UNL     1      -7.994   7.352  69.675  1.00  0.00    -0.126 A  
BRANCH  21  26
HETATM   26  C   UNL     1      -6.243   9.174  67.854  1.00  0.00    -0.051 C  
HETATM   27  C   UNL     1      -5.918   8.834  66.420  1.00  0.00    -0.055 C  
HETATM   28  C   UNL     1      -5.403  10.106  66.999  1.00  0.00    -0.041 C  
ENDBRANCH  21  26
BRANCH  25  29
HETATM   29  O   UNL     1      -7.003   6.707  68.960  1.00  0.00    -0.079 OA 
HETATM   30  C   UNL     1      -5.943   6.113  69.706  1.00  0.00    -0.025 C  
ENDBRANCH  25  29
ENDBRANCH   3  11
TORSDOF 3
ENDMDL
MODEL      114
REMARK 921   NORMALIZED FREE ENERGY PREDICTED BY IDOCK:   -2.37 KCAL/MOL
REMARK 922        TOTAL FREE ENERGY PREDICTED BY IDOCK:   -3.60 KCAL/MOL
REMARK 923 INTER-LIGAND FREE ENERGY PREDICTED BY IDOCK:   -2.90 KCAL/MOL
REMARK 924 INTRA-LIGAND FREE ENERGY PREDICTED BY IDOCK:   -0.69 KCAL/MOL
REMARK 927      BINDING AFFINITY PREDICTED BY RF-SCORE:    0.00 PKD
ROOT
HETATM    1  C   UNL     1      -5.635  12.067  67.786  1.00  0.00    -0.070 C  
HETATM    2  C   UNL     1      -5.533  10.678  67.126  1.00  0.00    -0.042 C  
HETATM    3  N   UNL     1      -6.931  10.291  66.833  1.00  0.00    -0.088 NA 
HETATM    4  C   UNL     1      -5.874  11.970  69.301  1.00  0.00    -0.074 C  
HETATM    5  C   UNL     1      -7.781  11.476  66.886  1.00  0.00    -0.157 C  
HETATM    6  C   UNL     1      -6.817  12.674  67.023  1.00  0.00     0.117 C  
HETATM    7  C   UNL     1      -6.535  13.222  69.873  1.00  0.00     0.016 C  
HETATM    8  N   UNL     1      -7.374  13.879  67.644  1.00  0.00    -0.163 NA 
HETATM    9  H   UNL     1      -8.170  14.227  67.111  1.00  0.00     0.000 HD 
HETATM   10  C   UNL     1      -7.730  13.689  69.052  1.00  0.00     0.087 C  
ENDROOT
BRANCH   3  11
HETATM   11  C   UNL     1      -7.312   9.069  66.296  1.00  0.00    -0.091 A  
HETATM   12  C   UNL     1      -7.452   7.655  64.274  1.00  0.00    -0.101 A  
HETATM   13  F   UNL     1      -6.547   9.770  64.128  1.00  0.00    -0.096 F  
HETATM   14  C   UNL     1      -7.081   8.823  64.918  1.00  0.00    -0.077 A  
HETATM   15  C   UNL     1      -8.416   5.406  64.244  1.00  0.00    -0.092 C  
HETATM   16  O   UNL     1      -8.293   5.336  63.023  1.00  0.00    -0.109 OA 
HETATM   17  C   UNL     1      -8.919   4.255  64.988  1.00  0.00    -0.141 C  
HETATM   18  C   UNL     1      -8.037   6.626  64.999  1.00  0.00    -0.124 A  
HETATM   19  C   UNL     1      -9.267   2.952  64.378  1.00  0.00    -0.128 C  
HETATM   20  C   UNL     1      -9.078   4.423  66.311  1.00  0.00    -0.126 C  
HETATM   21  N   UNL     1      -8.859   5.581  67.042  1.00  0.00    -0.111 NA 
HETATM   22  O   UNL     1      -9.121   2.909  63.037  1.00  0.00    -0.091 OA 
HETATM   23  O   UNL     1      -9.658   1.988  65.020  1.00  0.00    -0.047 OA 
HETATM   24  C   UNL     1      -8.283   6.738  66.388  1.00  0.00    -0.117 A  
HETATM   25  C   UNL     1      -7.950   7.992  67.019  1.00  0.00    -0.108 A  
BRANCH  21  26
HETATM   26  C   UNL     1      -8.950   5.448  68.514  1.00  0.00    -0.107 C  
HETATM   27  C   UNL     1     -10.283   5.458  69.221  1.00  0.00    -0.315 C  
HETATM   28  C   UNL     1      -9.476   4.205  69.209  1.00  0.00    -0.258 C  
ENDBRANCH  21  26
BRANCH  25  29
HETATM   29  O   UNL     1      -8.476   8.207  68.279  1.00  0.00    -0.128 OA 
HETATM   30  C   UNL     1      -9.734   8.872  68.355  1.00  0.00    -0.161 C  
ENDBRANCH  25  29
ENDBRANCH   3  11
TORSDOF 3
ENDMDL
MODEL      115
REMARK 921   NORMALIZED FREE ENERGY PREDICTED BY IDOCK:   -2.22 KCAL/MOL
REMARK 922        TOTAL FREE ENERGY PREDICTED BY IDOCK:   -3.41 KCAL/MOL
REMARK 923 INTER-LIGAND FREE ENERGY PREDICTED BY IDOCK:   -3.24 KCAL/MOL
REMARK 924 INTRA-LIGAND FREE ENERGY PREDICTED BY IDOCK:   -0.17 KCAL/MOL
REMARK 927      BINDING AFFINITY PREDICTED BY RF-SCORE:    0.00 PKD
ROOT
HETATM    1  C   UNL     1     -10.060  12.843  69.137  1.00  0.00     0.307 C  
HETATM    2  C   UNL     1      -9.520  11.408  68.984  1.00  0.00     0.037 C  
HETATM    3  N   UNL     1     -10.104  10.914  67.717  1.00  0.00    -0.174 NA 
HETATM    4  C   UNL     1     -11.437  12.872  69.819  1.00  0.00    -0.203 C  
HETATM    5  C   UNL     1     -10.590  12.047  66.936  1.00  0.00    -0.229 C  
HETATM    6  C   UNL     1     -10.095  13.307  67.678  1.00  0.00    -0.229 C  
HETATM    7  C   UNL     1     -12.234  14.130  69.480  1.00  0.00    -0.351 C  
HETATM    8  N   UNL     1     -10.874  14.529  67.457  1.00  0.00    -0.283 NA 
HETATM    9  H   UNL     1     -10.885  14.779  66.469  1.00  0.00     0.000 HD 
HETATM   10  C   UNL     1     -12.236  14.448  67.990  1.00  0.00    -0.126 C  
ENDROOT
BRANCH   3  11
HETATM   11  C   UNL     1      -9.936   9.628  67.223  1.00  0.00    -0.197 A  
HETATM   12  C   UNL     1     -10.627   7.259  67.355  1.00  0.00    -0.370 A  
HETATM   13  F   UNL     1     -11.609   8.814  68.744  1.00  0.00     0.326 F  
HETATM   14  C   UNL     1     -10.736   8.581  67.750  1.00  0.00    -0.101 A  
HETATM   15  C   UNL     1      -9.661   5.476  65.986  1.00  0.00    -0.081 C  
HETATM   16  O   UNL     1     -10.304   4.620  66.591  1.00  0.00    -0.237 OA 
HETATM   17  C   UNL     1      -8.824   5.087  64.854  1.00  0.00    -0.140 C  
HETATM   18  C   UNL     1      -9.732   6.912  66.354  1.00  0.00    -0.127 A  
HETATM   19  C   UNL     1      -8.714   3.706  64.331  1.00  0.00    -0.105 C  
HETATM   20  C   UNL     1      -8.110   6.065  64.276  1.00  0.00    -0.109 C  
HETATM   21  N   UNL     1      -8.044   7.397  64.662  1.00  0.00    -0.122 NA 
HETATM   22  O   UNL     1      -9.432   2.792  65.017  1.00  0.00    -0.149 OA 
HETATM   23  O   UNL     1      -8.033   3.404  63.362  1.00  0.00    -0.077 OA 
HETATM   24  C   UNL     1      -8.907   7.873  65.724  1.00  0.00    -0.119 A  
HETATM   25  C   UNL     1      -8.992   9.232  66.202  1.00  0.00    -0.165 A  
BRANCH  21  26
HETATM   26  C   UNL     1      -7.310   8.303  63.750  1.00  0.00    -0.100 C  
HETATM   27  C   UNL     1      -5.861   8.060  63.404  1.00  0.00    -0.063 C  
HETATM   28  C   UNL     1      -6.896   7.915  62.342  1.00  0.00    -0.085 C  
ENDBRANCH  21  26
BRANCH  25  29
HETATM   29  O   UNL     1      -7.978  10.087  65.814  1.00  0.00    -0.116 OA 
HETATM   30  C   UNL     1      -8.245  10.957  64.717  1.00  0.00     0.146 C  
ENDBRANCH  25  29
ENDBRANCH   3  11
TORSDOF 3
ENDMDL
MODEL      116
REMARK 921   NORMALIZED FREE ENERGY PREDICTED BY IDOCK:   -1.92 KCAL/MOL
REMARK 922        TOTAL FREE ENERGY PREDICTED BY IDOCK:   -3.06 KCAL/MOL
REMARK 923 INTER-LIGAND FREE ENERGY PREDICTED BY IDOCK:   -2.83 KCAL/MOL
REMARK 924 INTRA-LIGAND FREE ENERGY PREDICTED BY IDOCK:   -0.23 KCAL/MOL
REMARK 927      BINDING AFFINITY PREDICTED BY RF-SCORE:    0.00 PKD
ROOT
HETATM    1  C   UNL     1      -9.480  12.348  68.157  1.00  0.00    -0.214 C  
HETATM    2  C   UNL     1     -10.021  11.002  67.634  1.00  0.00    -0.173 C  
HETATM    3  N   UNL     1      -8.853  10.092  67.646  1.00  0.00    -0.122 NA 
HETATM    4  C   UNL     1      -8.868  13.199  67.034  1.00  0.00    -0.212 C  
HETATM    5  C   UNL     1      -7.809  10.657  68.493  1.00  0.00    -0.115 C  
HETATM    6  C   UNL     1      -8.452  11.875  69.190  1.00  0.00     0.419 C  
HETATM    7  C   UNL     1      -7.849  14.212  67.553  1.00  0.00    -0.207 C  
HETATM    8  N   UNL     1      -7.528  12.922  69.635  1.00  0.00     0.021 NA 
HETATM    9  H   UNL     1      -6.851  12.550  70.301  1.00  0.00     0.000 HD 
HETATM   10  C   UNL     1      -6.851  13.601  68.528  1.00  0.00    -0.098 C  
ENDROOT
BRANCH   3  11
HETATM   11  C   UNL     1      -8.873   8.784  67.181  1.00  0.00    -0.127 A  
HETATM   12  C   UNL     1      -9.963   6.569  67.292  1.00  0.00    -0.189 A  
HETATM   13  F   UNL     1     -10.760   8.300  68.588  1.00  0.00    -0.224 F  
HETATM   14  C   UNL     1      -9.873   7.900  67.662  1.00  0.00    -0.165 A  
HETATM   15  C   UNL     1      -9.223   4.617  66.017  1.00  0.00    -0.144 C  
HETATM   16  O   UNL     1     -10.041   3.896  66.585  1.00  0.00    -0.092 OA 
HETATM   17  C   UNL     1      -8.389   4.065  64.952  1.00  0.00    -0.105 C  
HETATM   18  C   UNL     1      -9.073   6.052  66.361  1.00  0.00    -0.159 A  
HETATM   19  C   UNL     1      -8.479   2.673  64.455  1.00  0.00    -0.087 C  
HETATM   20  C   UNL     1      -7.481   4.896  64.415  1.00  0.00    -0.068 C  
HETATM   21  N   UNL     1      -7.217   6.206  64.789  1.00  0.00    -0.060 NA 
HETATM   22  O   UNL     1      -9.386   1.911  65.099  1.00  0.00    -0.119 OA 
HETATM   23  O   UNL     1      -7.794   2.238  63.541  1.00  0.00    -0.065 OA 
HETATM   24  C   UNL     1      -8.056   6.846  65.780  1.00  0.00    -0.123 A  
HETATM   25  C   UNL     1      -7.942   8.210  66.235  1.00  0.00    -0.101 A  
BRANCH  21  26
HETATM   26  C   UNL     1      -6.279   6.953  63.920  1.00  0.00    -0.036 C  
HETATM   27  C   UNL     1      -5.271   6.236  63.056  1.00  0.00    -0.018 C  
HETATM   28  C   UNL     1      -6.385   6.982  62.406  1.00  0.00    -0.052 C  
ENDBRANCH  21  26
BRANCH  25  29
HETATM   29  O   UNL     1      -6.773   8.873  65.910  1.00  0.00    -0.066 OA 
HETATM   30  C   UNL     1      -6.877   9.965  65.000  1.00  0.00    -0.126 C  
ENDBRANCH  25  29
ENDBRANCH   3  11
TORSDOF 3
ENDMDL
MODEL      117
REMARK 921   NORMALIZED FREE ENERGY PREDICTED BY IDOCK:   -1.48 KCAL/MOL
REMARK 922        TOTAL FREE ENERGY PREDICTED BY IDOCK:   -2.55 KCAL/MOL
REMARK 923 INTER-LIGAND FREE ENERGY PREDICTED BY IDOCK:   -3.75 KCAL/MOL
REMARK 924 INTRA-LIGAND FREE ENERGY PREDICTED BY IDOCK:    1.20 KCAL/MOL
REMARK 927      BINDING AFFINITY PREDICTED BY RF-SCORE:    0.00 PKD
ROOT
HETATM    1  C   UNL     1      -9.078   5.791  66.071  1.00  0.00    -0.163 C  
HETATM    2  C   UNL     1      -9.642   7.029  66.797  1.00  0.00    -0.171 C  
HETATM    3  N   UNL     1      -9.032   8.186  66.104  1.00  0.00    -0.170 NA 
HETATM    4  C   UNL     1      -7.721   5.354  66.644  1.00  0.00    -0.100 C  
HETATM    5  C   UNL     1      -8.502   7.754  64.816  1.00  0.00     0.031 C  
HETATM    6  C   UNL     1      -8.994   6.302  64.630  1.00  0.00     0.540 C  
HETATM    7  C   UNL     1      -6.891   4.554  65.643  1.00  0.00    -0.057 C  
HETATM    8  N   UNL     1      -8.185   5.459  63.744  1.00  0.00    -0.124 NA 
HETATM    9  H   UNL     1      -8.141   5.857  62.806  1.00  0.00     0.000 HD 
HETATM   10  C   UNL     1      -6.840   5.200  64.264  1.00  0.00    -0.048 C  
ENDROOT
BRANCH   3  11
HETATM   11  C   UNL     1      -9.211   9.510  66.482  1.00  0.00    -0.160 A  
HETATM   12  C   UNL     1      -8.533  11.863  66.147  1.00  0.00     0.110 A  
HETATM   13  F   UNL     1      -7.550  10.201  64.888  1.00  0.00    -0.125 F  
HETATM   14  C   UNL     1      -8.458  10.518  65.825  1.00  0.00    -0.175 A  
HETATM   15  C   UNL     1      -9.445  13.742  67.421  1.00  0.00    -0.224 C  
HETATM   16  O   UNL     1      -8.660  14.524  66.889  1.00  0.00    -0.216 OA 
HETATM   17  C   UNL     1     -10.452  14.247  68.352  1.00  0.00    -0.249 C  
HETATM   18  C   UNL     1      -9.423  12.288  67.123  1.00  0.00    -0.196 A  
HETATM   19  C   UNL     1     -10.637  15.677  68.687  1.00  0.00    -0.243 C  
HETATM   20  C   UNL     1     -11.238  13.329  68.935  1.00  0.00    -0.277 C  
HETATM   21  N   UNL     1     -11.173  11.950  68.786  1.00  0.00    -0.238 NA 
HETATM   22  O   UNL     1      -9.760  16.508  68.087  1.00  0.00    -0.227 OA 
HETATM   23  O   UNL     1     -11.506  16.085  69.444  1.00  0.00    -0.333 OA 
HETATM   24  C   UNL     1     -10.256  11.382  67.820  1.00  0.00    -0.181 A  
HETATM   25  C   UNL     1     -10.108   9.979  67.515  1.00  0.00    -0.198 A  
BRANCH  21  26
HETATM   26  C   UNL     1     -12.268  11.176  69.413  1.00  0.00    -0.259 C  
HETATM   27  C   UNL     1     -12.185  10.727  70.851  1.00  0.00    -0.487 C  
HETATM   28  C   UNL     1     -13.199  11.749  70.467  1.00  0.00     0.561 C  
ENDBRANCH  21  26
BRANCH  25  29
HETATM   29  O   UNL     1     -10.680   9.090  68.405  1.00  0.00    -0.186 OA 
HETATM   30  C   UNL     1      -9.803   8.408  69.297  1.00  0.00    -0.186 C  
ENDBRANCH  25  29
ENDBRANCH   3  11
TORSDOF 3
ENDMDL
MODEL      118
REMARK 921   NORMALIZED FREE ENERGY PREDICTED BY IDOCK:   -0.87 KCAL/MOL
REMARK 922        TOTAL FREE ENERGY PREDICTED BY IDOCK:   -1.83 KCAL/MOL
REMARK 923 INTER-LIGAND FREE ENERGY PREDICTED BY IDOCK:   -2.57 KCAL/MOL
REMARK 924 INTRA-LIGAND FREE ENERGY PREDICTED BY IDOCK:    0.74 KCAL/MOL
REMARK 927      BINDING AFFINITY PREDICTED BY RF-SCORE:    0.00 PKD
ROOT
HETATM    1  C   UNL     1      -6.277  18.578  68.031  1.00  0.00    -0.193 C  
HETATM    2  C   UNL     1      -5.996  17.121  68.449  1.00  0.00    -0.145 C  
HETATM    3  N   UNL     1      -7.234  16.383  68.111  1.00  0.00    -0.140 NA 
HETATM    4  C   UNL     1      -6.992  19.369  69.138  1.00  0.00    -0.390 C  
HETATM    5  C   UNL     1      -8.031  17.177  67.182  1.00  0.00    -0.191 C  
HETATM    6  C   UNL     1      -7.137  18.370  66.781  1.00  0.00    -0.205 C  
HETATM    7  C   UNL     1      -7.776  20.561  68.595  1.00  0.00     0.335 C  
HETATM    8  N   UNL     1      -7.840  19.575  66.331  1.00  0.00    -0.290 NA 
HETATM    9  H   UNL     1      -8.416  19.376  65.514  1.00  0.00     0.000 HD 
HETATM   10  C   UNL     1      -8.634  20.207  67.388  1.00  0.00    -0.343 C  
ENDROOT
BRANCH   3  11
HETATM   11  C   UNL     1      -7.447  15.039  68.387  1.00  0.00    -0.113 A  
HETATM   12  C   UNL     1      -6.454  12.901  69.128  1.00  0.00    -0.108 A  
HETATM   13  F   UNL     1      -5.133  14.784  68.985  1.00  0.00    -0.088 F  
HETATM   14  C   UNL     1      -6.361  14.255  68.856  1.00  0.00    -0.089 A  
HETATM   15  C   UNL     1      -7.701  10.802  69.298  1.00  0.00    -0.129 C  
HETATM   16  O   UNL     1      -6.678  10.180  69.573  1.00  0.00    -0.050 OA 
HETATM   17  C   UNL     1      -8.989  10.112  69.292  1.00  0.00    -0.193 C  
HETATM   18  C   UNL     1      -7.676  12.255  68.997  1.00  0.00     0.152 A  
HETATM   19  C   UNL     1      -9.174   8.686  69.643  1.00  0.00    -0.157 C  
HETATM   20  C   UNL     1     -10.055  10.843  68.930  1.00  0.00    -0.198 C  
HETATM   21  N   UNL     1     -10.065  12.168  68.518  1.00  0.00    -0.207 NA 
HETATM   22  O   UNL     1      -8.032   8.033  69.939  1.00  0.00    -0.106 OA 
HETATM   23  O   UNL     1     -10.264   8.133  69.663  1.00  0.00    -0.196 OA 
HETATM   24  C   UNL     1      -8.840  12.940  68.575  1.00  0.00    -0.044 A  
HETATM   25  C   UNL     1      -8.699  14.334  68.232  1.00  0.00    -0.179 A  
BRANCH  21  26
HETATM   26  C   UNL     1     -11.399  12.784  68.336  1.00  0.00    -0.295 C  
HETATM   27  C   UNL     1     -12.663  11.983  68.530  1.00  0.00     1.590 C  
HETATM   28  C   UNL     1     -12.345  13.081  69.486  1.00  0.00    -0.067 C  
ENDBRANCH  21  26
BRANCH  25  29
HETATM   29  O   UNL     1      -9.744  14.905  67.531  1.00  0.00    -0.211 OA 
HETATM   30  C   UNL     1      -9.773  14.697  66.121  1.00  0.00    -0.319 C  
ENDBRANCH  25  29
ENDBRANCH   3  11
TORSDOF 3
ENDMDL
MODEL      119
REMARK 921   NORMALIZED FREE ENERGY PREDICTED BY IDOCK:   -0.61 KCAL/MOL
REMARK 922        TOTAL FREE ENERGY PREDICTED BY IDOCK:   -1.53 KCAL/MOL
REMARK 923 INTER-LIGAND FREE ENERGY PREDICTED BY IDOCK:   -0.72 KCAL/MOL
REMARK 924 INTRA-LIGAND FREE ENERGY PREDICTED BY IDOCK:   -0.81 KCAL/MOL
REMARK 927      BINDING AFFINITY PREDICTED BY RF-SCORE:    0.00 PKD
ROOT
HETATM    1  C   UNL     1      -5.489  12.232  68.426  1.00  0.00    -0.055 C  
HETATM    2  C   UNL     1      -5.431  10.692  68.383  1.00  0.00    -0.040 C  
HETATM    3  N   UNL     1      -6.770  10.274  67.910  1.00  0.00    -0.066 NA 
HETATM    4  C   UNL     1      -6.064  12.751  69.753  1.00  0.00    -0.131 C  
HETATM    5  C   UNL     1      -7.445  11.415  67.299  1.00  0.00    -0.134 C  
HETATM    6  C   UNL     1      -6.382  12.532  67.218  1.00  0.00    -0.123 C  
HETATM    7  C   UNL     1      -6.661  14.151  69.627  1.00  0.00    -0.120 C  
HETATM    8  N   UNL     1      -6.895  13.904  67.181  1.00  0.00    -0.403 NA 
HETATM    9  H   UNL     1      -7.502  14.043  66.373  1.00  0.00     0.000 HD 
HETATM   10  C   UNL     1      -7.574  14.299  68.417  1.00  0.00    -0.124 C  
ENDROOT
BRANCH   3  11
HETATM   11  C   UNL     1      -7.185   8.954  67.791  1.00  0.00    -0.084 A  
HETATM   12  C   UNL     1      -7.919   6.907  68.963  1.00  0.00    -0.116 A  
HETATM   13  F   UNL     1      -7.409   8.798  70.178  1.00  0.00    -0.047 F  
HETATM   14  C   UNL     1      -7.528   8.235  68.965  1.00  0.00    -0.091 A  
HETATM   15  C   UNL     1      -8.460   4.805  67.833  1.00  0.00    -0.103 C  
HETATM   16  O   UNL     1      -8.611   4.230  68.909  1.00  0.00    -0.081 OA 
HETATM   17  C   UNL     1      -8.724   4.091  66.586  1.00  0.00    -0.116 C  
HETATM   18  C   UNL     1      -8.044   6.228  67.760  1.00  0.00    -0.114 A  
HETATM   19  C   UNL     1      -9.213   2.696  66.509  1.00  0.00    -0.064 C  
HETATM   20  C   UNL     1      -8.486   4.767  65.451  1.00  0.00    -0.129 C  
HETATM   21  N   UNL     1      -7.977   6.052  65.329  1.00  0.00    -0.110 NA 
HETATM   22  O   UNL     1      -9.367   2.094  67.706  1.00  0.00    -0.181 OA 
HETATM   23  O   UNL     1      -9.458   2.124  65.457  1.00  0.00    -0.023 OA 
HETATM   24  C   UNL     1      -7.768   6.850  66.520  1.00  0.00    -0.101 A  
HETATM   25  C   UNL     1      -7.296   8.213  66.555  1.00  0.00    -0.081 A  
BRANCH  21  26
HETATM   26  C   UNL     1      -7.970   6.622  63.963  1.00  0.00    -0.084 C  
HETATM   27  C   UNL     1      -8.651   5.916  62.816  1.00  0.00     0.102 C  
HETATM   28  C   UNL     1      -9.200   7.214  63.299  1.00  0.00     2.000 C  
ENDBRANCH  21  26
BRANCH  25  29
HETATM   29  O   UNL     1      -6.734   8.702  65.390  1.00  0.00    -0.066 OA 
HETATM   30  C   UNL     1      -5.323   8.568  65.242  1.00  0.00    -0.035 C  
ENDBRANCH  25  29
ENDBRANCH   3  11
TORSDOF 3
ENDMDL
MODEL      120
REMARK 921   NORMALIZED FREE ENERGY PREDICTED BY IDOCK:   -0.14 KCAL/MOL
REMARK 922        TOTAL FREE ENERGY PREDICTED BY IDOCK:   -0.98 KCAL/MOL
REMARK 923 INTER-LIGAND FREE ENERGY PREDICTED BY IDOCK:   -0.68 KCAL/MOL
REMARK 924 INTRA-LIGAND FREE ENERGY PREDICTED BY IDOCK:   -0.29 KCAL/MOL
REMARK 927      BINDING AFFINITY PREDICTED BY RF-SCORE:    0.00 PKD
ROOT
HETATM    1  C   UNL     1     -10.429   9.409  68.773  1.00  0.00    -0.236 C  
HETATM    2  C   UNL     1     -10.165  10.583  67.809  1.00  0.00    -0.190 C  
HETATM    3  N   UNL     1      -9.253  11.485  68.547  1.00  0.00    -0.184 NA 
HETATM    4  C   UNL     1     -11.585   9.705  69.741  1.00  0.00    -0.022 C  
HETATM    5  C   UNL     1      -8.653  10.758  69.661  1.00  0.00     0.267 C  
HETATM    6  C   UNL     1      -9.070   9.284  69.469  1.00  0.00    -0.160 C  
HETATM    7  C   UNL     1     -11.504   8.878  71.022  1.00  0.00    -0.351 C  
HETATM    8  N   UNL     1      -9.094   8.461  70.682  1.00  0.00    -0.150 NA 
HETATM    9  H   UNL     1      -8.173   8.432  71.119  1.00  0.00     0.000 HD 
HETATM   10  C   UNL     1     -10.114   8.883  71.645  1.00  0.00    -0.341 C  
ENDROOT
BRANCH   3  11
HETATM   11  C   UNL     1      -8.812  12.714  68.075  1.00  0.00    -0.195 A  
HETATM   12  C   UNL     1      -6.872  14.103  67.433  1.00  0.00    -0.033 A  
HETATM   13  F   UNL     1      -6.537  11.944  68.166  1.00  0.00    -0.052 F  
HETATM   14  C   UNL     1      -7.422  12.909  67.867  1.00  0.00    -0.131 A  
HETATM   15  C   UNL     1      -7.045  16.422  66.673  1.00  0.00    -0.140 C  
HETATM   16  O   UNL     1      -5.821  16.538  66.647  1.00  0.00    -0.330 OA 
HETATM   17  C   UNL     1      -7.886  17.528  66.221  1.00  0.00    -0.322 C  
HETATM   18  C   UNL     1      -7.702  15.171  67.125  1.00  0.00    -0.223 A  
HETATM   19  C   UNL     1      -7.369  18.804  65.677  1.00  0.00    -0.076 C  
HETATM   20  C   UNL     1      -9.213  17.350  66.328  1.00  0.00    -0.208 C  
HETATM   21  N   UNL     1      -9.872  16.251  66.861  1.00  0.00    -0.240 NA 
HETATM   22  O   UNL     1      -6.024  18.898  65.663  1.00  0.00    -0.166 OA 
HETATM   23  O   UNL     1      -8.088  19.706  65.274  1.00  0.00    -0.161 OA 
HETATM   24  C   UNL     1      -9.109  15.085  67.254  1.00  0.00    -0.201 A  
HETATM   25  C   UNL     1      -9.650  13.853  67.774  1.00  0.00    -0.222 A  
BRANCH  21  26
HETATM   26  C   UNL     1     -11.345  16.238  66.705  1.00  0.00     0.371 C  
HETATM   27  C   UNL     1     -12.030  17.091  65.666  1.00  0.00     2.741 C  
HETATM   28  C   UNL     1     -12.053  15.608  65.519  1.00  0.00     0.761 C  
ENDBRANCH  21  26
BRANCH  25  29
HETATM   29  O   UNL     1     -10.967  13.885  68.192  1.00  0.00    -0.238 OA 
HETATM   30  C   UNL     1     -11.228  14.441  69.478  1.00  0.00    -0.254 C  
ENDBRANCH  25  29
ENDBRANCH   3  11
TORSDOF 3
ENDMDL
MODEL      121
REMARK 921   NORMALIZED FREE ENERGY PREDICTED BY IDOCK:   -0.14 KCAL/MOL
REMARK 922        TOTAL FREE ENERGY PREDICTED BY IDOCK:   -0.97 KCAL/MOL
REMARK 923 INTER-LIGAND FREE ENERGY PREDICTED BY IDOCK:   -2.45 KCAL/MOL
REMARK 924 INTRA-LIGAND FREE ENERGY PREDICTED BY IDOCK:    1.47 KCAL/MOL
REMARK 927      BINDING AFFINITY PREDICTED BY RF-SCORE:    0.00 PKD
ROOT
HETATM    1  C   UNL     1      -9.599   9.040  65.380  1.00  0.00    -0.084 C  
HETATM    2  C   UNL     1      -9.175   7.687  65.985  1.00  0.00    -0.063 C  
HETATM    3  N   UNL     1      -8.998   7.955  67.430  1.00  0.00    -0.126 NA 
HETATM    4  C   UNL     1      -8.389   9.916  65.019  1.00  0.00    -0.151 C  
HETATM    5  C   UNL     1      -9.663   9.208  67.774  1.00  0.00    -0.154 C  
HETATM    6  C   UNL     1     -10.453   9.619  66.513  1.00  0.00    -0.143 C  
HETATM    7  C   UNL     1      -8.734  11.403  64.975  1.00  0.00     0.233 C  
HETATM    8  N   UNL     1     -10.739  11.050  66.373  1.00  0.00    -0.252 NA 
HETATM    9  H   UNL     1     -11.287  11.389  67.163  1.00  0.00     0.000 HD 
HETATM   10  C   UNL     1      -9.535  11.863  66.186  1.00  0.00    -0.231 C  
ENDROOT
BRANCH   3  11
HETATM   11  C   UNL     1      -8.546   7.021  68.353  1.00  0.00    -0.126 A  
HETATM   12  C   UNL     1      -8.085   4.640  68.823  1.00  0.00    -0.082 A  
HETATM   13  F   UNL     1      -8.904   5.258  66.760  1.00  0.00    -0.114 F  
HETATM   14  C   UNL     1      -8.486   5.655  67.972  1.00  0.00    -0.102 A  
HETATM   15  C   UNL     1      -7.252   3.808  70.968  1.00  0.00    -0.033 C  
HETATM   16  O   UNL     1      -7.357   2.642  70.592  1.00  0.00    -0.033 OA 
HETATM   17  C   UNL     1      -6.683   4.096  72.282  1.00  0.00    -0.040 C  
HETATM   18  C   UNL     1      -7.661   4.946  70.109  1.00  0.00    -0.059 A  
HETATM   19  C   UNL     1      -6.167   3.068  73.214  1.00  0.00    -0.012 C  
HETATM   20  C   UNL     1      -6.649   5.388  72.647  1.00  0.00    -0.065 C  
HETATM   21  N   UNL     1      -7.135   6.475  71.933  1.00  0.00    -0.079 NA 
HETATM   22  O   UNL     1      -6.298   1.800  72.771  1.00  0.00    -0.009 OA 
HETATM   23  O   UNL     1      -5.665   3.330  74.297  1.00  0.00    -0.003 OA 
HETATM   24  C   UNL     1      -7.638   6.276  70.590  1.00  0.00    -0.096 A  
HETATM   25  C   UNL     1      -8.127   7.307  69.707  1.00  0.00    -0.128 A  
BRANCH  21  26
HETATM   26  C   UNL     1      -6.820   7.811  72.489  1.00  0.00    -0.069 C  
HETATM   27  C   UNL     1      -5.483   8.098  73.127  1.00  0.00    -0.048 C  
HETATM   28  C   UNL     1      -5.836   8.771  71.846  1.00  0.00    -0.061 C  
ENDBRANCH  21  26
BRANCH  25  29
HETATM   29  O   UNL     1      -8.398   8.535  70.281  1.00  0.00    -0.115 OA 
HETATM   30  C   UNL     1      -9.404   8.573  71.290  1.00  0.00    -0.203 C  
ENDBRANCH  25  29
ENDBRANCH   3  11
TORSDOF 3
ENDMDL
MODEL      122
REMARK 921   NORMALIZED FREE ENERGY PREDICTED BY IDOCK:    0.16 KCAL/MOL
REMARK 922        TOTAL FREE ENERGY PREDICTED BY IDOCK:   -0.62 KCAL/MOL
REMARK 923 INTER-LIGAND FREE ENERGY PREDICTED BY IDOCK:   -1.92 KCAL/MOL
REMARK 924 INTRA-LIGAND FREE ENERGY PREDICTED BY IDOCK:    1.30 KCAL/MOL
REMARK 927      BINDING AFFINITY PREDICTED BY RF-SCORE:    0.00 PKD
ROOT
HETATM    1  C   UNL     1      -9.139   3.346  67.131  1.00  0.00    -0.196 C  
HETATM    2  C   UNL     1      -9.148   4.682  67.900  1.00  0.00    -0.119 C  
HETATM    3  N   UNL     1      -8.300   5.591  67.096  1.00  0.00    -0.105 NA 
HETATM    4  C   UNL     1      -7.932   2.472  67.507  1.00  0.00    -0.068 C  
HETATM    5  C   UNL     1      -8.140   5.040  65.755  1.00  0.00    -0.113 C  
HETATM    6  C   UNL     1      -9.105   3.837  65.680  1.00  0.00    -0.147 C  
HETATM    7  C   UNL     1      -7.571   1.468  66.415  1.00  0.00    -0.061 C  
HETATM    8  N   UNL     1      -8.760   2.798  64.706  1.00  0.00    -0.106 NA 
HETATM    9  H   UNL     1      -8.727   3.182  63.762  1.00  0.00     0.000 HD 
HETATM   10  C   UNL     1      -7.515   2.096  65.028  1.00  0.00    -0.066 C  
ENDROOT
BRANCH   3  11
HETATM   11  C   UNL     1      -7.973   6.889  67.463  1.00  0.00    -0.112 A  
HETATM   12  C   UNL     1      -6.274   8.682  67.418  1.00  0.00    -0.056 A  
HETATM   13  F   UNL     1      -5.825   6.658  66.411  1.00  0.00    -0.019 F  
HETATM   14  C   UNL     1      -6.713   7.414  67.076  1.00  0.00    -0.069 A  
HETATM   15  C   UNL     1      -6.570  10.872  68.468  1.00  0.00    -0.055 C  
HETATM   16  O   UNL     1      -5.413  11.191  68.201  1.00  0.00    -0.043 OA 
HETATM   17  C   UNL     1      -7.459  11.839  69.108  1.00  0.00     0.035 C  
HETATM   18  C   UNL     1      -7.108   9.531  68.131  1.00  0.00    -0.079 A  
HETATM   19  C   UNL     1      -7.081  13.232  69.436  1.00  0.00     0.152 C  
HETATM   20  C   UNL     1      -8.690  11.403  69.418  1.00  0.00     0.533 C  
HETATM   21  N   UNL     1      -9.197  10.124  69.239  1.00  0.00    -0.198 NA 
HETATM   22  O   UNL     1      -5.806  13.550  69.131  1.00  0.00    -0.078 OA 
HETATM   23  O   UNL     1      -7.848  14.037  69.943  1.00  0.00     0.546 OA 
HETATM   24  C   UNL     1      -8.404   9.135  68.538  1.00  0.00    -0.123 A  
HETATM   25  C   UNL     1      -8.810   7.785  68.230  1.00  0.00    -0.129 A  
BRANCH  21  26
HETATM   26  C   UNL     1     -10.643   9.953  69.513  1.00  0.00    -0.242 C  
HETATM   27  C   UNL     1     -11.127   9.301  70.785  1.00  0.00    -0.349 C  
HETATM   28  C   UNL     1     -11.392  10.750  70.564  1.00  0.00    -0.289 C  
ENDBRANCH  21  26
BRANCH  25  29
HETATM   29  O   UNL     1      -9.924   7.309  68.894  1.00  0.00    -0.159 OA 
HETATM   30  C   UNL     1     -10.995   6.811  68.095  1.00  0.00    -0.201 C  
ENDBRANCH  25  29
ENDBRANCH   3  11
TORSDOF 3
ENDMDL
MODEL      123
REMARK 921   NORMALIZED FREE ENERGY PREDICTED BY IDOCK:    0.46 KCAL/MOL
REMARK 922        TOTAL FREE ENERGY PREDICTED BY IDOCK:   -0.27 KCAL/MOL
REMARK 923 INTER-LIGAND FREE ENERGY PREDICTED BY IDOCK:   -1.81 KCAL/MOL
REMARK 924 INTRA-LIGAND FREE ENERGY PREDICTED BY IDOCK:    1.54 KCAL/MOL
REMARK 927      BINDING AFFINITY PREDICTED BY RF-SCORE:    0.00 PKD
ROOT
HETATM    1  C   UNL     1     -13.003  12.296  70.518  1.00  0.00     0.237 C  
HETATM    2  C   UNL     1     -12.351  13.603  70.025  1.00  0.00    -0.278 C  
HETATM    3  N   UNL     1     -11.132  13.173  69.305  1.00  0.00    -0.193 NA 
HETATM    4  C   UNL     1     -12.428  11.837  71.867  1.00  0.00     0.144 C  
HETATM    5  C   UNL     1     -11.233  11.752  68.990  1.00  0.00    -0.265 C  
HETATM    6  C   UNL     1     -12.675  11.345  69.362  1.00  0.00     0.443 C  
HETATM    7  C   UNL     1     -12.597  10.336  72.097  1.00  0.00    -0.169 C  
HETATM    8  N   UNL     1     -12.881   9.928  69.678  1.00  0.00     0.024 NA 
HETATM    9  H   UNL     1     -12.625   9.339  68.886  1.00  0.00     0.000 HD 
HETATM   10  C   UNL     1     -12.183   9.501  70.893  1.00  0.00    -0.254 C  
ENDROOT
BRANCH   3  11
HETATM   11  C   UNL     1     -10.198  14.040  68.754  1.00  0.00    -0.197 A  
HETATM   12  C   UNL     1      -8.216  14.288  67.300  1.00  0.00    -0.212 A  
HETATM   13  F   UNL     1      -9.147  12.203  67.615  1.00  0.00    -0.161 F  
HETATM   14  C   UNL     1      -9.213  13.519  67.876  1.00  0.00    -0.211 A  
HETATM   15  C   UNL     1      -7.081  16.416  66.889  1.00  0.00    -0.221 C  
HETATM   16  O   UNL     1      -6.195  15.855  66.247  1.00  0.00     0.611 OA 
HETATM   17  C   UNL     1      -7.079  17.872  67.005  1.00  0.00    -0.209 C  
HETATM   18  C   UNL     1      -8.181  15.655  67.531  1.00  0.00    -0.185 A  
HETATM   19  C   UNL     1      -6.088  18.762  66.358  1.00  0.00    -0.161 C  
HETATM   20  C   UNL     1      -8.046  18.410  67.766  1.00  0.00    -0.254 C  
HETATM   21  N   UNL     1      -9.019  17.735  68.489  1.00  0.00    -0.290 NA 
HETATM   22  O   UNL     1      -5.131  18.115  65.662  1.00  0.00    -0.148 OA 
HETATM   23  O   UNL     1      -6.121  19.981  66.441  1.00  0.00    -0.166 OA 
HETATM   24  C   UNL     1      -9.133  16.297  68.358  1.00  0.00    -0.203 A  
HETATM   25  C   UNL     1     -10.119  15.463  69.000  1.00  0.00    -0.234 A  
BRANCH  21  26
HETATM   26  C   UNL     1     -10.068  18.575  69.110  1.00  0.00    -0.133 C  
HETATM   27  C   UNL     1      -9.774  19.981  69.572  1.00  0.00     0.075 C  
HETATM   28  C   UNL     1     -10.696  19.773  68.420  1.00  0.00    -0.045 C  
ENDBRANCH  21  26
BRANCH  25  29
HETATM   29  O   UNL     1     -10.833  16.036  70.036  1.00  0.00    -0.308 OA 
HETATM   30  C   UNL     1     -12.103  16.599  69.717  1.00  0.00     1.155 C  
ENDBRANCH  25  29
ENDBRANCH   3  11
TORSDOF 3
ENDMDL
MODEL      124
REMARK 921   NORMALIZED FREE ENERGY PREDICTED BY IDOCK:    0.56 KCAL/MOL
REMARK 922        TOTAL FREE ENERGY PREDICTED BY IDOCK:   -0.15 KCAL/MOL
REMARK 923 INTER-LIGAND FREE ENERGY PREDICTED BY IDOCK:   -2.20 KCAL/MOL
REMARK 924 INTRA-LIGAND FREE ENERGY PREDICTED BY IDOCK:    2.04 KCAL/MOL
REMARK 927      BINDING AFFINITY PREDICTED BY RF-SCORE:    0.00 PKD
ROOT
HETATM    1  C   UNL     1      -8.738   4.745  63.869  1.00  0.00    -0.132 C  
HETATM    2  C   UNL     1      -9.088   5.342  65.246  1.00  0.00    -0.051 C  
HETATM    3  N   UNL     1      -7.784   5.690  65.854  1.00  0.00    -0.093 NA 
HETATM    4  C   UNL     1      -8.432   3.241  63.953  1.00  0.00    -0.090 C  
HETATM    5  C   UNL     1      -6.761   5.727  64.813  1.00  0.00    -0.047 C  
HETATM    6  C   UNL     1      -7.522   5.591  63.477  1.00  0.00    -0.058 C  
HETATM    7  C   UNL     1      -7.557   2.755  62.800  1.00  0.00    -0.054 C  
HETATM    8  N   UNL     1      -6.754   5.047  62.353  1.00  0.00    -0.026 NA 
HETATM    9  H   UNL     1      -5.944   5.633  62.150  1.00  0.00     0.000 HD 
HETATM   10  C   UNL     1      -6.352   3.653  62.551  1.00  0.00    -0.021 C  
ENDROOT
BRANCH   3  11
HETATM   11  C   UNL     1      -7.625   6.195  67.137  1.00  0.00    -0.092 A  
HETATM   12  C   UNL     1      -6.315   7.665  68.629  1.00  0.00    -0.036 A  
HETATM   13  F   UNL     1      -5.730   7.481  66.408  1.00  0.00    -0.031 F  
HETATM   14  C   UNL     1      -6.583   7.127  67.383  1.00  0.00    -0.059 A  
HETATM   15  C   UNL     1      -6.773   7.946  71.017  1.00  0.00    -0.038 C  
HETATM   16  O   UNL     1      -5.771   8.643  71.159  1.00  0.00    -0.033 OA 
HETATM   17  C   UNL     1      -7.670   7.727  72.149  1.00  0.00    -0.107 C  
HETATM   18  C   UNL     1      -7.123   7.338  69.709  1.00  0.00    -0.072 A  
HETATM   19  C   UNL     1      -7.486   8.328  73.489  1.00  0.00    -0.124 C  
HETATM   20  C   UNL     1      -8.714   6.912  71.933  1.00  0.00    -0.126 C  
HETATM   21  N   UNL     1      -9.013   6.220  70.768  1.00  0.00    -0.143 NA 
HETATM   22  O   UNL     1      -6.377   9.086  73.612  1.00  0.00    -0.311 OA 
HETATM   23  O   UNL     1      -8.263   8.158  74.417  1.00  0.00    -0.247 OA 
HETATM   24  C   UNL     1      -8.217   6.451  69.580  1.00  0.00    -0.118 A  
HETATM   25  C   UNL     1      -8.432   5.850  68.286  1.00  0.00    -0.114 A  
BRANCH  21  26
HETATM   26  C   UNL     1     -10.319   5.521  70.743  1.00  0.00    -0.251 C  
HETATM   27  C   UNL     1     -10.408   4.040  70.468  1.00  0.00     0.423 C  
HETATM   28  C   UNL     1     -10.767   4.552  71.821  1.00  0.00     0.073 C  
ENDBRANCH  21  26
BRANCH  25  29
HETATM   29  O   UNL     1      -9.285   4.763  68.243  1.00  0.00    -0.113 OA 
HETATM   30  C   UNL     1      -8.707   3.475  68.434  1.00  0.00    -0.105 C  
ENDBRANCH  25  29
ENDBRANCH   3  11
TORSDOF 3
ENDMDL
MODEL      125
REMARK 921   NORMALIZED FREE ENERGY PREDICTED BY IDOCK:    1.25 KCAL/MOL
REMARK 922        TOTAL FREE ENERGY PREDICTED BY IDOCK:    0.66 KCAL/MOL
REMARK 923 INTER-LIGAND FREE ENERGY PREDICTED BY IDOCK:   -1.37 KCAL/MOL
REMARK 924 INTRA-LIGAND FREE ENERGY PREDICTED BY IDOCK:    2.03 KCAL/MOL
REMARK 927      BINDING AFFINITY PREDICTED BY RF-SCORE:    0.00 PKD
ROOT
HETATM    1  C   UNL     1      -9.128   3.377  67.126  1.00  0.00    -0.196 C  
HETATM    2  C   UNL     1      -9.183   4.798  67.722  1.00  0.00    -0.125 C  
HETATM    3  N   UNL     1      -8.399   5.635  66.786  1.00  0.00    -0.108 NA 
HETATM    4  C   UNL     1      -7.872   2.612  67.572  1.00  0.00    -0.068 C  
HETATM    5  C   UNL     1      -8.246   4.927  65.519  1.00  0.00    -0.116 C  
HETATM    6  C   UNL     1      -9.153   3.683  65.625  1.00  0.00    -0.150 C  
HETATM    7  C   UNL     1      -7.491   1.496  66.602  1.00  0.00    -0.056 C  
HETATM    8  N   UNL     1      -8.784   2.545  64.778  1.00  0.00    -0.105 NA 
HETATM    9  H   UNL     1      -8.792   2.808  63.793  1.00  0.00     0.000 HD 
HETATM   10  C   UNL     1      -7.499   1.945  65.147  1.00  0.00    -0.062 C  
ENDROOT
BRANCH   3  11
HETATM   11  C   UNL     1      -8.126   6.982  66.977  1.00  0.00    -0.117 A  
HETATM   12  C   UNL     1      -7.809   9.194  65.923  1.00  0.00    -0.105 A  
HETATM   13  F   UNL     1      -8.293   7.363  64.610  1.00  0.00    -0.134 F  
HETATM   14  C   UNL     1      -8.103   7.844  65.849  1.00  0.00    -0.119 A  
HETATM   15  C   UNL     1      -7.253  11.231  67.161  1.00  0.00    -0.126 C  
HETATM   16  O   UNL     1      -7.129  11.868  66.117  1.00  0.00     0.326 OA 
HETATM   17  C   UNL     1      -7.118  11.911  68.446  1.00  0.00    -0.086 C  
HETATM   18  C   UNL     1      -7.570   9.781  67.158  1.00  0.00    -0.092 A  
HETATM   19  C   UNL     1      -6.875  13.363  68.602  1.00  0.00    -0.098 C  
HETATM   20  C   UNL     1      -7.213  11.141  69.542  1.00  0.00    -0.057 C  
HETATM   21  N   UNL     1      -7.381   9.764  69.588  1.00  0.00    -0.088 NA 
HETATM   22  O   UNL     1      -6.744  14.033  67.438  1.00  0.00    -0.243 OA 
HETATM   23  O   UNL     1      -6.796  13.922  69.686  1.00  0.00    -0.087 OA 
HETATM   24  C   UNL     1      -7.604   9.033  68.358  1.00  0.00    -0.090 A  
HETATM   25  C   UNL     1      -7.845   7.615  68.246  1.00  0.00    -0.121 A  
BRANCH  21  26
HETATM   26  C   UNL     1      -7.623   9.183  70.929  1.00  0.00    -0.124 C  
HETATM   27  C   UNL     1      -6.535   8.448  71.671  1.00  0.00    -0.061 C  
HETATM   28  C   UNL     1      -7.027   9.750  72.204  1.00  0.00     1.261 C  
ENDBRANCH  21  26
BRANCH  25  29
HETATM   29  O   UNL     1      -7.565   6.851  69.364  1.00  0.00    -0.095 OA 
HETATM   30  C   UNL     1      -8.605   6.008  69.853  1.00  0.00    -0.131 C  
ENDBRANCH  25  29
ENDBRANCH   3  11
TORSDOF 3
ENDMDL
MODEL      126
REMARK 921   NORMALIZED FREE ENERGY PREDICTED BY IDOCK:    1.59 KCAL/MOL
REMARK 922        TOTAL FREE ENERGY PREDICTED BY IDOCK:    1.06 KCAL/MOL
REMARK 923 INTER-LIGAND FREE ENERGY PREDICTED BY IDOCK:    0.69 KCAL/MOL
REMARK 924 INTRA-LIGAND FREE ENERGY PREDICTED BY IDOCK:    0.36 KCAL/MOL
REMARK 927      BINDING AFFINITY PREDICTED BY RF-SCORE:    0.00 PKD
ROOT
HETATM    1  C   UNL     1      -7.705  14.194  70.362  1.00  0.00     1.502 C  
HETATM    2  C   UNL     1      -8.227  12.940  69.634  1.00  0.00     1.672 C  
HETATM    3  N   UNL     1      -7.018  12.290  69.080  1.00  0.00    -0.077 NA 
HETATM    4  C   UNL     1      -7.557  15.393  69.412  1.00  0.00    -0.224 C  
HETATM    5  C   UNL     1      -5.836  12.817  69.752  1.00  0.00    -0.123 C  
HETATM    6  C   UNL     1      -6.368  13.685  70.912  1.00  0.00     0.303 C  
HETATM    7  C   UNL     1      -6.547  16.421  69.917  1.00  0.00    -0.011 C  
HETATM    8  N   UNL     1      -5.474  14.747  71.383  1.00  0.00    -0.110 NA 
HETATM    9  H   UNL     1      -4.591  14.357  71.714  1.00  0.00     0.000 HD 
HETATM   10  C   UNL     1      -5.240  15.790  70.381  1.00  0.00    -0.155 C  
ENDROOT
BRANCH   3  11
HETATM   11  C   UNL     1      -7.034  11.155  68.281  1.00  0.00    -0.070 A  
HETATM   12  C   UNL     1      -6.066   9.991  66.327  1.00  0.00    -0.068 A  
HETATM   13  F   UNL     1      -5.272  12.070  66.927  1.00  0.00    -0.098 F  
HETATM   14  C   UNL     1      -6.114  11.061  67.205  1.00  0.00    -0.074 A  
HETATM   15  C   UNL     1      -6.817   7.803  65.531  1.00  0.00    -0.052 C  
HETATM   16  O   UNL     1      -6.075   7.870  64.553  1.00  0.00    -0.047 OA 
HETATM   17  C   UNL     1      -7.604   6.594  65.762  1.00  0.00    -0.085 C  
HETATM   18  C   UNL     1      -6.916   8.910  66.514  1.00  0.00    -0.080 A  
HETATM   19  C   UNL     1      -7.550   5.386  64.908  1.00  0.00    -0.084 C  
HETATM   20  C   UNL     1      -8.431   6.614  66.819  1.00  0.00    -0.117 C  
HETATM   21  N   UNL     1      -8.653   7.670  67.692  1.00  0.00    -0.116 NA 
HETATM   22  O   UNL     1      -6.728   5.493  63.844  1.00  0.00    -0.036 OA 
HETATM   23  O   UNL     1      -8.193   4.371  65.134  1.00  0.00    -0.101 OA 
HETATM   24  C   UNL     1      -7.851   8.870  67.575  1.00  0.00    -0.101 A  
HETATM   25  C   UNL     1      -7.926  10.027  68.433  1.00  0.00    -0.097 A  
BRANCH  21  26
HETATM   26  C   UNL     1      -9.491   7.370  68.875  1.00  0.00    -0.144 C  
HETATM   27  C   UNL     1      -9.862   5.952  69.234  1.00  0.00    -0.205 C  
HETATM   28  C   UNL     1      -8.954   6.716  70.135  1.00  0.00    -0.152 C  
ENDBRANCH  21  26
BRANCH  25  29
HETATM   29  O   UNL     1      -9.035  10.116  69.254  1.00  0.00    -0.162 OA 
HETATM   30  C   UNL     1     -10.150  10.856  68.763  1.00  0.00    -0.194 C  
ENDBRANCH  25  29
ENDBRANCH   3  11
TORSDOF 3
ENDMDL
MODEL      127
REMARK 921   NORMALIZED FREE ENERGY PREDICTED BY IDOCK:    6.22 KCAL/MOL
REMARK 922        TOTAL FREE ENERGY PREDICTED BY IDOCK:    6.50 KCAL/MOL
REMARK 923 INTER-LIGAND FREE ENERGY PREDICTED BY IDOCK:    6.59 KCAL/MOL
REMARK 924 INTRA-LIGAND FREE ENERGY PREDICTED BY IDOCK:   -0.08 KCAL/MOL
REMARK 927      BINDING AFFINITY PREDICTED BY RF-SCORE:    0.00 PKD
ROOT
HETATM    1  C   UNL     1      -7.622  15.048  71.140  1.00  0.00     2.204 C  
HETATM    2  C   UNL     1      -8.192  13.972  70.193  1.00  0.00     1.815 C  
HETATM    3  N   UNL     1      -7.016  13.449  69.460  1.00  0.00     0.058 NA 
HETATM    4  C   UNL     1      -7.505  16.417  70.453  1.00  0.00     1.865 C  
HETATM    5  C   UNL     1      -5.798  13.824  70.170  1.00  0.00    -0.142 C  
HETATM    6  C   UNL     1      -6.268  14.434  71.509  1.00  0.00     0.255 C  
HETATM    7  C   UNL     1      -6.461  17.316  71.112  1.00  0.00     2.455 C  
HETATM    8  N   UNL     1      -5.341  15.373  72.147  1.00  0.00     0.121 NA 
HETATM    9  H   UNL     1      -4.449  14.922  72.348  1.00  0.00     0.000 HD 
HETATM   10  C   UNL     1      -5.142  16.601  71.373  1.00  0.00     0.031 C  
ENDROOT
BRANCH   3  11
HETATM   11  C   UNL     1      -7.081  12.505  68.445  1.00  0.00    -0.107 A  
HETATM   12  C   UNL     1      -6.068  10.492  67.430  1.00  0.00    -0.053 A  
HETATM   13  F   UNL     1      -5.126  11.414  69.320  1.00  0.00    -0.045 F  
HETATM   14  C   UNL     1      -6.117  11.464  68.415  1.00  0.00    -0.045 A  
HETATM   15  C   UNL     1      -6.915   9.410  65.405  1.00  0.00    -0.090 C  
HETATM   16  O   UNL     1      -5.967   8.628  65.389  1.00  0.00    -0.048 OA 
HETATM   17  C   UNL     1      -7.977   9.281  64.411  1.00  0.00    -0.133 C  
HETATM   18  C   UNL     1      -7.033  10.475  66.432  1.00  0.00    -0.124 A  
HETATM   19  C   UNL     1      -8.029   8.225  63.375  1.00  0.00    -0.155 C  
HETATM   20  C   UNL     1      -8.952  10.203  64.457  1.00  0.00    -0.221 C  
HETATM   21  N   UNL     1      -9.040  11.290  65.315  1.00  0.00    -0.172 NA 
HETATM   22  O   UNL     1      -6.974   7.384  63.385  1.00  0.00    -0.052 OA 
HETATM   23  O   UNL     1      -8.942   8.113  62.570  1.00  0.00     0.149 OA 
HETATM   24  C   UNL     1      -8.068  11.437  66.379  1.00  0.00    -0.106 A  
HETATM   25  C   UNL     1      -8.055  12.479  67.377  1.00  0.00    -0.180 A  
BRANCH  21  26
HETATM   26  C   UNL     1     -10.306  12.057  65.265  1.00  0.00    -0.275 C  
HETATM   27  C   UNL     1     -10.859  12.571  63.959  1.00  0.00    -0.446 C  
HETATM   28  C   UNL     1     -11.596  11.502  64.690  1.00  0.00    -0.117 C  
ENDBRANCH  21  26
BRANCH  25  29
HETATM   29  O   UNL     1      -8.862  13.575  67.136  1.00  0.00    -0.212 OA 
HETATM   30  C   UNL     1      -8.251  14.712  66.532  1.00  0.00     0.359 C  
ENDBRANCH  25  29
ENDBRANCH   3  11
TORSDOF 3
ENDMDL
MODEL      128
REMARK 921   NORMALIZED FREE ENERGY PREDICTED BY IDOCK:    6.28 KCAL/MOL
REMARK 922        TOTAL FREE ENERGY PREDICTED BY IDOCK:    6.57 KCAL/MOL
REMARK 923 INTER-LIGAND FREE ENERGY PREDICTED BY IDOCK:    2.73 KCAL/MOL
REMARK 924 INTRA-LIGAND FREE ENERGY PREDICTED BY IDOCK:    3.85 KCAL/MOL
REMARK 927      BINDING AFFINITY PREDICTED BY RF-SCORE:    0.00 PKD
ROOT
HETATM    1  C   UNL     1     -11.442  10.297  71.127  1.00  0.00    -0.319 C  
HETATM    2  C   UNL     1     -10.661  11.572  70.752  1.00  0.00     2.453 C  
HETATM    3  N   UNL     1     -11.700  12.603  70.531  1.00  0.00    -0.047 NA 
HETATM    4  C   UNL     1     -11.890   9.508  69.887  1.00  0.00     0.133 C  
HETATM    5  C   UNL     1     -12.955  12.160  71.129  1.00  0.00    -0.148 C  
HETATM    6  C   UNL     1     -12.608  10.885  71.927  1.00  0.00    -0.120 C  
HETATM    7  C   UNL     1     -13.098   8.616  70.163  1.00  0.00     1.701 C  
HETATM    8  N   UNL     1     -13.713   9.948  72.150  1.00  0.00    -0.456 NA 
HETATM    9  H   UNL     1     -14.471  10.396  72.664  1.00  0.00     0.000 HD 
HETATM   10  C   UNL     1     -14.209   9.338  70.914  1.00  0.00     0.349 C  
ENDROOT
BRANCH   3  11
HETATM   11  C   UNL     1     -11.442  13.898  70.102  1.00  0.00    -0.099 A  
HETATM   12  C   UNL     1     -11.225  16.277  70.731  1.00  0.00    -0.293 A  
HETATM   13  F   UNL     1     -11.723  14.710  72.346  1.00  0.00    -0.365 F  
HETATM   14  C   UNL     1     -11.436  14.948  71.056  1.00  0.00    -0.261 A  
HETATM   15  C   UNL     1     -10.740  18.073  69.141  1.00  0.00     0.442 C  
HETATM   16  O   UNL     1     -10.883  18.927  70.014  1.00  0.00     1.391 OA 
HETATM   17  C   UNL     1     -10.325  18.472  67.798  1.00  0.00    -0.435 C  
HETATM   18  C   UNL     1     -10.948  16.630  69.418  1.00  0.00    -0.235 A  
HETATM   19  C   UNL     1     -10.013  19.862  67.398  1.00  0.00    -0.423 C  
HETATM   20  C   UNL     1     -10.242  17.492  66.884  1.00  0.00    -0.329 C  
HETATM   21  N   UNL     1     -10.548  16.150  67.061  1.00  0.00    -0.310 NA 
HETATM   22  O   UNL     1     -10.180  20.774  68.379  1.00  0.00     0.013 OA 
HETATM   23  O   UNL     1      -9.637  20.174  66.278  1.00  0.00    -0.398 OA 
HETATM   24  C   UNL     1     -10.888  15.666  68.384  1.00  0.00    -0.290 A  
HETATM   25  C   UNL     1     -11.180  14.298  68.737  1.00  0.00    -0.262 A  
BRANCH  21  26
HETATM   26  C   UNL     1     -10.208  15.251  65.935  1.00  0.00    -0.332 C  
HETATM   27  C   UNL     1      -8.921  15.414  65.164  1.00  0.00     1.765 C  
HETATM   28  C   UNL     1      -9.114  14.200  66.007  1.00  0.00     0.129 C  
ENDBRANCH  21  26
BRANCH  25  29
HETATM   29  O   UNL     1     -11.430  13.430  67.691  1.00  0.00    -0.285 OA 
HETATM   30  C   UNL     1     -10.300  12.898  67.004  1.00  0.00    -0.242 C  
ENDBRANCH  25  29
ENDBRANCH   3  11
TORSDOF 3
ENDMDL
MODEL      129
REMARK 921   NORMALIZED FREE ENERGY PREDICTED BY IDOCK:    7.61 KCAL/MOL
REMARK 922        TOTAL FREE ENERGY PREDICTED BY IDOCK:    8.13 KCAL/MOL
REMARK 923 INTER-LIGAND FREE ENERGY PREDICTED BY IDOCK:    0.56 KCAL/MOL
REMARK 924 INTRA-LIGAND FREE ENERGY PREDICTED BY IDOCK:    7.57 KCAL/MOL
REMARK 927      BINDING AFFINITY PREDICTED BY RF-SCORE:    0.00 PKD
ROOT
HETATM    1  C   UNL     1      -7.127   4.578  71.638  1.00  0.00    -0.051 C  
HETATM    2  C   UNL     1      -7.218   5.884  70.824  1.00  0.00    -0.080 C  
HETATM    3  N   UNL     1      -8.370   5.686  69.915  1.00  0.00    -0.115 NA 
HETATM    4  C   UNL     1      -6.305   3.501  70.912  1.00  0.00    -0.019 C  
HETATM    5  C   UNL     1      -9.185   4.579  70.403  1.00  0.00    -0.128 C  
HETATM    6  C   UNL     1      -8.608   4.215  71.787  1.00  0.00    -0.104 C  
HETATM    7  C   UNL     1      -6.659   2.087  71.367  1.00  0.00    -0.023 C  
HETATM    8  N   UNL     1      -8.843   2.841  72.240  1.00  0.00    -0.077 NA 
HETATM    9  H   UNL     1      -9.842   2.644  72.298  1.00  0.00     0.000 HD 
HETATM   10  C   UNL     1      -8.161   1.839  71.418  1.00  0.00    -0.047 C  
ENDROOT
BRANCH   3  11
HETATM   11  C   UNL     1      -8.770   6.596  68.946  1.00  0.00    -0.128 A  
HETATM   12  C   UNL     1     -10.655   7.568  67.679  1.00  0.00    -0.303 A  
HETATM   13  F   UNL     1     -11.060   5.938  69.257  1.00  0.00    -0.370 F  
HETATM   14  C   UNL     1     -10.152   6.719  68.650  1.00  0.00    -0.159 A  
HETATM   15  C   UNL     1     -10.400   9.275  65.944  1.00  0.00     0.197 C  
HETATM   16  O   UNL     1     -11.597   9.218  65.669  1.00  0.00     3.781 OA 
HETATM   17  C   UNL     1      -9.547  10.250  65.269  1.00  0.00    -0.324 C  
HETATM   18  C   UNL     1      -9.793   8.397  66.975  1.00  0.00    -0.296 A  
HETATM   19  C   UNL     1     -10.029  11.235  64.275  1.00  0.00    -0.297 C  
HETATM   20  C   UNL     1      -8.242  10.217  65.582  1.00  0.00    -0.153 C  
HETATM   21  N   UNL     1      -7.606   9.333  66.443  1.00  0.00    -0.093 NA 
HETATM   22  O   UNL     1     -11.345  11.146  63.995  1.00  0.00    -0.201 OA 
HETATM   23  O   UNL     1      -9.306  12.065  63.743  1.00  0.00     0.001 OA 
HETATM   24  C   UNL     1      -8.398   8.393  67.209  1.00  0.00    -0.123 A  
HETATM   25  C   UNL     1      -7.892   7.450  68.177  1.00  0.00    -0.122 A  
BRANCH  21  26
HETATM   26  C   UNL     1      -6.185   9.624  66.740  1.00  0.00    -0.065 C  
HETATM   27  C   UNL     1      -5.657   9.586  68.153  1.00  0.00    -0.037 C  
HETATM   28  C   UNL     1      -5.190   8.563  67.176  1.00  0.00    -0.033 C  
ENDBRANCH  21  26
BRANCH  25  29
HETATM   29  O   UNL     1      -6.528   7.231  68.170  1.00  0.00    -0.042 OA 
HETATM   30  C   UNL     1      -6.046   6.106  68.902  1.00  0.00    -0.028 C  
ENDBRANCH  25  29
ENDBRANCH   3  11
TORSDOF 3
ENDMDL
MODEL      130
REMARK 921   NORMALIZED FREE ENERGY PREDICTED BY IDOCK:    9.48 KCAL/MOL
REMARK 922        TOTAL FREE ENERGY PREDICTED BY IDOCK:   10.33 KCAL/MOL
REMARK 923 INTER-LIGAND FREE ENERGY PREDICTED BY IDOCK:    5.07 KCAL/MOL
REMARK 924 INTRA-LIGAND FREE ENERGY PREDICTED BY IDOCK:    5.26 KCAL/MOL
REMARK 927      BINDING AFFINITY PREDICTED BY RF-SCORE:    0.00 PKD
ROOT
HETATM    1  C   UNL     1      -8.458  13.401  65.561  1.00  0.00     2.328 C  
HETATM    2  C   UNL     1      -8.217  11.880  65.493  1.00  0.00     0.880 C  
HETATM    3  N   UNL     1      -8.784  11.348  66.752  1.00  0.00    -0.168 NA 
HETATM    4  C   UNL     1      -7.336  14.131  66.316  1.00  0.00     2.922 C  
HETATM    5  C   UNL     1      -9.675  12.343  67.339  1.00  0.00    -0.193 C  
HETATM    6  C   UNL     1      -9.810  13.457  66.279  1.00  0.00    -0.290 C  
HETATM    7  C   UNL     1      -7.791  15.469  66.894  1.00  0.00    -0.229 C  
HETATM    8  N   UNL     1     -10.163  14.786  66.786  1.00  0.00    -0.262 NA 
HETATM    9  H   UNL     1     -11.057  14.763  67.276  1.00  0.00     0.000 HD 
HETATM   10  C   UNL     1      -9.121  15.375  67.631  1.00  0.00    -0.182 C  
ENDROOT
BRANCH   3  11
HETATM   11  C   UNL     1      -8.719  10.017  67.141  1.00  0.00    -0.128 A  
HETATM   12  C   UNL     1      -8.896   8.398  69.000  1.00  0.00    -0.146 A  
HETATM   13  F   UNL     1      -9.215  10.644  69.408  1.00  0.00    -0.198 F  
HETATM   14  C   UNL     1      -8.968   9.687  68.499  1.00  0.00    -0.124 A  
HETATM   15  C   UNL     1      -8.550   5.989  68.751  1.00  0.00    -0.112 C  
HETATM   16  O   UNL     1      -8.653   5.817  69.964  1.00  0.00    -0.124 OA 
HETATM   17  C   UNL     1      -8.385   4.837  67.868  1.00  0.00    -0.103 C  
HETATM   18  C   UNL     1      -8.620   7.341  68.144  1.00  0.00    -0.122 A  
HETATM   19  C   UNL     1      -8.371   3.429  68.324  1.00  0.00    -0.082 C  
HETATM   20  C   UNL     1      -8.225   5.105  66.562  1.00  0.00    -0.108 C  
HETATM   21  N   UNL     1      -8.156   6.355  65.964  1.00  0.00    -0.114 NA 
HETATM   22  O   UNL     1      -8.485   3.275  69.659  1.00  0.00    -0.057 OA 
HETATM   23  O   UNL     1      -8.263   2.475  67.567  1.00  0.00    -0.068 OA 
HETATM   24  C   UNL     1      -8.392   7.540  66.762  1.00  0.00    -0.126 A  
HETATM   25  C   UNL     1      -8.405   8.900  66.279  1.00  0.00    -0.117 A  
BRANCH  21  26
HETATM   26  C   UNL     1      -8.144   6.368  64.483  1.00  0.00    -0.088 C  
HETATM   27  C   UNL     1      -9.367   5.983  63.687  1.00  0.00     1.431 C  
HETATM   28  C   UNL     1      -8.891   7.395  63.651  1.00  0.00     0.968 C  
ENDBRANCH  21  26
BRANCH  25  29
HETATM   29  O   UNL     1      -7.877   9.112  65.019  1.00  0.00    -0.105 OA 
HETATM   30  C   UNL     1      -8.787   9.478  63.986  1.00  0.00    -0.212 C  
ENDBRANCH  25  29
ENDBRANCH   3  11
TORSDOF 3
ENDMDL
MODEL      131
REMARK 921   NORMALIZED FREE ENERGY PREDICTED BY IDOCK:   10.91 KCAL/MOL
REMARK 922        TOTAL FREE ENERGY PREDICTED BY IDOCK:   12.01 KCAL/MOL
REMARK 923 INTER-LIGAND FREE ENERGY PREDICTED BY IDOCK:    3.54 KCAL/MOL
REMARK 924 INTRA-LIGAND FREE ENERGY PREDICTED BY IDOCK:    8.47 KCAL/MOL
REMARK 927      BINDING AFFINITY PREDICTED BY RF-SCORE:    0.00 PKD
ROOT
HETATM    1  C   UNL     1      -6.305   5.507  67.710  1.00  0.00    -0.042 C  
HETATM    2  C   UNL     1      -5.683   6.917  67.759  1.00  0.00    -0.020 C  
HETATM    3  N   UNL     1      -6.487   7.653  68.761  1.00  0.00    -0.046 NA 
HETATM    4  C   UNL     1      -7.493   5.434  66.738  1.00  0.00    -0.088 C  
HETATM    5  C   UNL     1      -7.236   6.700  69.574  1.00  0.00    -0.082 C  
HETATM    6  C   UNL     1      -6.705   5.306  69.175  1.00  0.00    -0.053 C  
HETATM    7  C   UNL     1      -8.456   4.297  67.073  1.00  0.00    -0.104 C  
HETATM    8  N   UNL     1      -7.622   4.183  69.395  1.00  0.00    -0.054 NA 
HETATM    9  H   UNL     1      -7.876   4.109  70.380  1.00  0.00     0.000 HD 
HETATM   10  C   UNL     1      -8.818   4.243  68.551  1.00  0.00    -0.103 C  
ENDROOT
BRANCH   3  11
HETATM   11  C   UNL     1      -6.316   8.995  69.073  1.00  0.00    -0.043 A  
HETATM   12  C   UNL     1      -5.951  10.672  70.850  1.00  0.00    -0.001 A  
HETATM   13  F   UNL     1      -6.105   8.439  71.401  1.00  0.00    -0.034 F  
HETATM   14  C   UNL     1      -6.098   9.362  70.426  1.00  0.00    -0.054 A  
HETATM   15  C   UNL     1      -5.803  13.080  70.446  1.00  0.00    -0.152 C  
HETATM   16  O   UNL     1      -5.749  13.311  71.653  1.00  0.00    -0.385 OA 
HETATM   17  C   UNL     1      -5.681  14.180  69.493  1.00  0.00    -0.097 C  
HETATM   18  C   UNL     1      -5.958  11.702  69.920  1.00  0.00    -0.137 A  
HETATM   19  C   UNL     1      -5.450  15.593  69.871  1.00  0.00    -0.120 C  
HETATM   20  C   UNL     1      -5.803  13.860  68.195  1.00  0.00    -0.124 C  
HETATM   21  N   UNL     1      -6.075  12.608  67.661  1.00  0.00    -0.133 NA 
HETATM   22  O   UNL     1      -5.396  15.811  71.201  1.00  0.00    -0.116 OA 
HETATM   23  O   UNL     1      -5.319  16.496  69.058  1.00  0.00    -0.117 OA 
HETATM   24  C   UNL     1      -6.128  11.457  68.537  1.00  0.00    -0.045 A  
HETATM   25  C   UNL     1      -6.349  10.090  68.130  1.00  0.00    -0.054 A  
BRANCH  21  26
HETATM   26  C   UNL     1      -5.990  12.498  66.186  1.00  0.00     2.401 C  
HETATM   27  C   UNL     1      -6.076  11.159  65.495  1.00  0.00     0.227 C  
HETATM   28  C   UNL     1      -7.176  12.147  65.306  1.00  0.00     3.337 C  
ENDBRANCH  21  26
BRANCH  25  29
HETATM   29  O   UNL     1      -6.823   9.898  66.846  1.00  0.00    -0.084 OA 
HETATM   30  C   UNL     1      -8.039  10.554  66.497  1.00  0.00    -0.134 C  
ENDBRANCH  25  29
ENDBRANCH   3  11
TORSDOF 3
ENDMDL
MODEL      132
REMARK 921   NORMALIZED FREE ENERGY PREDICTED BY IDOCK:   12.14 KCAL/MOL
REMARK 922        TOTAL FREE ENERGY PREDICTED BY IDOCK:   13.45 KCAL/MOL
REMARK 923 INTER-LIGAND FREE ENERGY PREDICTED BY IDOCK:   13.20 KCAL/MOL
REMARK 924 INTRA-LIGAND FREE ENERGY PREDICTED BY IDOCK:    0.26 KCAL/MOL
REMARK 927      BINDING AFFINITY PREDICTED BY RF-SCORE:    0.00 PKD
ROOT
HETATM    1  C   UNL     1      -9.938  11.075  69.116  1.00  0.00    -0.142 C  
HETATM    2  C   UNL     1      -9.506  12.172  68.123  1.00  0.00    -0.205 C  
HETATM    3  N   UNL     1     -10.481  13.268  68.318  1.00  0.00    -0.245 NA 
HETATM    4  C   UNL     1     -11.016  10.153  68.526  1.00  0.00    -0.278 C  
HETATM    5  C   UNL     1     -11.172  13.078  69.589  1.00  0.00    -0.010 C  
HETATM    6  C   UNL     1     -10.437  11.918  70.294  1.00  0.00     2.005 C  
HETATM    7  C   UNL     1     -11.853   9.465  69.602  1.00  0.00     0.397 C  
HETATM    8  N   UNL     1     -11.220  11.165  71.278  1.00  0.00     0.674 NA 
HETATM    9  H   UNL     1     -11.549  11.777  72.025  1.00  0.00     0.000 HD 
HETATM   10  C   UNL     1     -12.335  10.425  70.682  1.00  0.00    -0.346 C  
ENDROOT
BRANCH   3  11
HETATM   11  C   UNL     1     -10.510  14.436  67.569  1.00  0.00    -0.252 A  
HETATM   12  C   UNL     1     -11.599  15.690  65.739  1.00  0.00     0.272 A  
HETATM   13  F   UNL     1     -12.371  13.593  66.304  1.00  0.00    -0.420 F  
HETATM   14  C   UNL     1     -11.502  14.583  66.565  1.00  0.00    -0.362 A  
HETATM   15  C   UNL     1     -10.883  17.905  64.986  1.00  0.00     0.813 C  
HETATM   16  O   UNL     1     -11.691  17.886  64.060  1.00  0.00     2.111 OA 
HETATM   17  C   UNL     1     -10.069  19.097  65.212  1.00  0.00     0.940 C  
HETATM   18  C   UNL     1     -10.727  16.756  65.911  1.00  0.00    -0.166 A  
HETATM   19  C   UNL     1     -10.169  20.341  64.416  1.00  0.00     3.304 C  
HETATM   20  C   UNL     1      -9.170  19.025  66.208  1.00  0.00    -0.292 C  
HETATM   21  N   UNL     1      -8.899  17.931  67.017  1.00  0.00    -0.244 NA 
HETATM   22  O   UNL     1     -11.064  20.287  63.409  1.00  0.00     5.225 OA 
HETATM   23  O   UNL     1      -9.501  21.340  64.640  1.00  0.00     1.969 OA 
HETATM   24  C   UNL     1      -9.720  16.743  66.906  1.00  0.00    -0.257 A  
HETATM   25  C   UNL     1      -9.597  15.549  67.706  1.00  0.00    -0.209 A  
BRANCH  21  26
HETATM   26  C   UNL     1      -7.977  18.172  68.150  1.00  0.00    -0.283 C  
HETATM   27  C   UNL     1      -7.091  19.393  68.192  1.00  0.00    -0.310 C  
HETATM   28  C   UNL     1      -8.194  19.261  69.185  1.00  0.00    -0.183 C  
ENDBRANCH  21  26
BRANCH  25  29
HETATM   29  O   UNL     1      -8.434  15.417  68.442  1.00  0.00    -0.151 OA 
HETATM   30  C   UNL     1      -7.202  15.490  67.730  1.00  0.00    -0.157 C  
ENDBRANCH  25  29
ENDBRANCH   3  11
TORSDOF 3
ENDMDL
MODEL      133
REMARK 921   NORMALIZED FREE ENERGY PREDICTED BY IDOCK:   17.62 KCAL/MOL
REMARK 922        TOTAL FREE ENERGY PREDICTED BY IDOCK:   19.90 KCAL/MOL
REMARK 923 INTER-LIGAND FREE ENERGY PREDICTED BY IDOCK:   18.18 KCAL/MOL
REMARK 924 INTRA-LIGAND FREE ENERGY PREDICTED BY IDOCK:    1.73 KCAL/MOL
REMARK 927      BINDING AFFINITY PREDICTED BY RF-SCORE:    0.00 PKD
ROOT
HETATM    1  C   UNL     1     -10.324  14.573  71.724  1.00  0.00     2.916 C  
HETATM    2  C   UNL     1      -9.783  13.268  71.105  1.00  0.00     8.840 C  
HETATM    3  N   UNL     1      -9.970  13.432  69.646  1.00  0.00     0.907 NA 
HETATM    4  C   UNL     1     -11.841  14.513  71.962  1.00  0.00    -0.118 C  
HETATM    5  C   UNL     1     -10.185  14.843  69.342  1.00  0.00    -0.171 C  
HETATM    6  C   UNL     1      -9.916  15.599  70.662  1.00  0.00     0.655 C  
HETATM    7  C   UNL     1     -12.483  15.898  72.012  1.00  0.00    -0.534 C  
HETATM    8  N   UNL     1     -10.576  16.900  70.803  1.00  0.00     0.571 NA 
HETATM    9  H   UNL     1     -10.289  17.535  70.058  1.00  0.00     0.000 HD 
HETATM   10  C   UNL     1     -12.036  16.800  70.869  1.00  0.00     1.442 C  
ENDROOT
BRANCH   3  11
HETATM   11  C   UNL     1      -9.681  12.456  68.703  1.00  0.00    -0.055 A  
HETATM   12  C   UNL     1     -10.187  11.529  66.469  1.00  0.00    -0.253 A  
HETATM   13  F   UNL     1     -11.326  13.387  67.218  1.00  0.00    -0.288 F  
HETATM   14  C   UNL     1     -10.372  12.474  67.464  1.00  0.00    -0.220 A  
HETATM   15  C   UNL     1      -9.102   9.544  65.536  1.00  0.00    -0.212 C  
HETATM   16  O   UNL     1      -9.839   9.565  64.552  1.00  0.00     0.036 OA 
HETATM   17  C   UNL     1      -8.036   8.548  65.621  1.00  0.00    -0.119 C  
HETATM   18  C   UNL     1      -9.243  10.526  66.639  1.00  0.00    -0.177 A  
HETATM   19  C   UNL     1      -7.734   7.555  64.566  1.00  0.00    -0.123 C  
HETATM   20  C   UNL     1      -7.307   8.551  66.748  1.00  0.00    -0.082 C  
HETATM   21  N   UNL     1      -7.480   9.364  67.859  1.00  0.00    -0.084 NA 
HETATM   22  O   UNL     1      -8.560   7.606  63.501  1.00  0.00     0.189 OA 
HETATM   23  O   UNL     1      -6.817   6.750  64.640  1.00  0.00    -0.047 OA 
HETATM   24  C   UNL     1      -8.463  10.427  67.816  1.00  0.00    -0.114 A  
HETATM   25  C   UNL     1      -8.725  11.383  68.864  1.00  0.00    -0.004 A  
BRANCH  21  26
HETATM   26  C   UNL     1      -6.432   9.276  68.901  1.00  0.00    -0.047 C  
HETATM   27  C   UNL     1      -6.209   8.004  69.681  1.00  0.00    -0.033 C  
HETATM   28  C   UNL     1      -5.157   8.469  68.735  1.00  0.00    -0.029 C  
ENDBRANCH  21  26
BRANCH  25  29
HETATM   29  O   UNL     1      -8.199  11.093  70.109  1.00  0.00     0.833 OA 
HETATM   30  C   UNL     1      -7.520  12.145  70.790  1.00  0.00     4.498 C  
ENDBRANCH  25  29
ENDBRANCH   3  11
TORSDOF 3
ENDMDL
MODEL      134
REMARK 921   NORMALIZED FREE ENERGY PREDICTED BY IDOCK:   20.03 KCAL/MOL
REMARK 922        TOTAL FREE ENERGY PREDICTED BY IDOCK:   22.74 KCAL/MOL
REMARK 923 INTER-LIGAND FREE ENERGY PREDICTED BY IDOCK:   19.15 KCAL/MOL
REMARK 924 INTRA-LIGAND FREE ENERGY PREDICTED BY IDOCK:    3.59 KCAL/MOL
REMARK 927      BINDING AFFINITY PREDICTED BY RF-SCORE:    0.00 PKD
ROOT
HETATM    1  C   UNL     1     -12.155   6.787  70.807  1.00  0.00    -0.402 C  
HETATM    2  C   UNL     1     -11.581   7.113  69.414  1.00  0.00     0.217 C  
HETATM    3  N   UNL     1     -11.130   8.519  69.508  1.00  0.00    -0.037 NA 
HETATM    4  C   UNL     1     -13.630   7.199  70.934  1.00  0.00     0.109 C  
HETATM    5  C   UNL     1     -11.018   8.898  70.913  1.00  0.00    -0.266 C  
HETATM    6  C   UNL     1     -11.219   7.593  71.713  1.00  0.00    -0.247 C  
HETATM    7  C   UNL     1     -14.052   7.432  72.383  1.00  0.00     0.088 C  
HETATM    8  N   UNL     1     -11.706   7.751  73.086  1.00  0.00    -0.646 NA 
HETATM    9  H   UNL     1     -11.060   8.315  73.638  1.00  0.00     0.000 HD 
HETATM   10  C   UNL     1     -13.064   8.295  73.157  1.00  0.00     0.925 C  
ENDROOT
BRANCH   3  11
HETATM   11  C   UNL     1     -10.608   9.249  68.449  1.00  0.00    -0.190 A  
HETATM   12  C   UNL     1      -8.747   9.519  66.846  1.00  0.00    -0.136 A  
HETATM   13  F   UNL     1      -8.689   7.804  68.384  1.00  0.00    -0.126 F  
HETATM   14  C   UNL     1      -9.372   8.844  67.880  1.00  0.00    -0.141 A  
HETATM   15  C   UNL     1      -8.630  11.304  65.176  1.00  0.00     0.164 C  
HETATM   16  O   UNL     1      -7.500  10.955  64.838  1.00  0.00     0.142 OA 
HETATM   17  C   UNL     1      -9.295  12.394  64.467  1.00  0.00     0.456 C  
HETATM   18  C   UNL     1      -9.360  10.625  66.275  1.00  0.00    -0.199 A  
HETATM   19  C   UNL     1      -8.717  13.112  63.308  1.00  0.00     6.476 C  
HETATM   20  C   UNL     1     -10.503  12.755  64.926  1.00  0.00    -0.321 C  
HETATM   21  N   UNL     1     -11.172  12.237  66.027  1.00  0.00    -0.317 NA 
HETATM   22  O   UNL     1      -7.478  12.706  62.962  1.00  0.00     4.421 OA 
HETATM   23  O   UNL     1      -9.301  14.001  62.706  1.00  0.00     8.501 OA 
HETATM   24  C   UNL     1     -10.613  11.101  66.730  1.00  0.00    -0.263 A  
HETATM   25  C   UNL     1     -11.209  10.421  67.854  1.00  0.00    -0.263 A  
BRANCH  21  26
HETATM   26  C   UNL     1     -12.567  12.697  66.216  1.00  0.00     0.575 C  
HETATM   27  C   UNL     1     -12.993  14.088  65.815  1.00  0.00    -0.297 C  
HETATM   28  C   UNL     1     -13.536  12.918  65.068  1.00  0.00     1.088 C  
ENDBRANCH  21  26
BRANCH  25  29
HETATM   29  O   UNL     1     -12.253  11.072  68.485  1.00  0.00    -0.582 OA 
HETATM   30  C   UNL     1     -12.383  12.472  68.252  1.00  0.00     0.424 C  
ENDBRANCH  25  29
ENDBRANCH   3  11
TORSDOF 3
ENDMDL
MODEL      135
REMARK 921   NORMALIZED FREE ENERGY PREDICTED BY IDOCK:   20.58 KCAL/MOL
REMARK 922        TOTAL FREE ENERGY PREDICTED BY IDOCK:   23.38 KCAL/MOL
REMARK 923 INTER-LIGAND FREE ENERGY PREDICTED BY IDOCK:   20.31 KCAL/MOL
REMARK 924 INTRA-LIGAND FREE ENERGY PREDICTED BY IDOCK:    3.06 KCAL/MOL
REMARK 927      BINDING AFFINITY PREDICTED BY RF-SCORE:    0.00 PKD
ROOT
HETATM    1  C   UNL     1      -9.453   9.844  71.478  1.00  0.00     1.672 C  
HETATM    2  C   UNL     1     -10.068   9.036  70.318  1.00  0.00    -0.198 C  
HETATM    3  N   UNL     1      -8.952   8.223  69.786  1.00  0.00    -0.145 NA 
HETATM    4  C   UNL     1      -8.801  11.148  70.992  1.00  0.00     6.206 C  
HETATM    5  C   UNL     1      -7.874   8.181  70.768  1.00  0.00    -0.089 C  
HETATM    6  C   UNL     1      -8.447   8.836  72.043  1.00  0.00    -0.039 C  
HETATM    7  C   UNL     1      -7.727  11.660  71.949  1.00  0.00    10.990 C  
HETATM    8  N   UNL     1      -7.465   9.422  72.961  1.00  0.00     0.601 NA 
HETATM    9  H   UNL     1      -6.806   8.715  73.287  1.00  0.00     0.000 HD 
HETATM   10  C   UNL     1      -6.758  10.571  72.390  1.00  0.00     3.207 C  
ENDROOT
BRANCH   3  11
HETATM   11  C   UNL     1      -9.045   7.392  68.677  1.00  0.00    -0.134 A  
HETATM   12  C   UNL     1      -8.974   7.221  66.214  1.00  0.00    -0.185 A  
HETATM   13  F   UNL     1      -8.663   9.268  67.225  1.00  0.00    -0.124 F  
HETATM   14  C   UNL     1      -8.868   7.951  67.385  1.00  0.00    -0.127 A  
HETATM   15  C   UNL     1      -9.321   5.138  64.978  1.00  0.00     0.044 C  
HETATM   16  O   UNL     1      -9.282   5.733  63.903  1.00  0.00     0.522 OA 
HETATM   17  C   UNL     1      -9.448   3.683  64.997  1.00  0.00    -0.161 C  
HETATM   18  C   UNL     1      -9.212   5.856  66.272  1.00  0.00    -0.171 A  
HETATM   19  C   UNL     1      -9.494   2.832  63.786  1.00  0.00    -0.112 C  
HETATM   20  C   UNL     1      -9.538   3.108  66.207  1.00  0.00     0.048 C  
HETATM   21  N   UNL     1      -9.569   3.745  67.439  1.00  0.00    -0.192 NA 
HETATM   22  O   UNL     1      -9.449   3.515  62.624  1.00  0.00    -0.093 OA 
HETATM   23  O   UNL     1      -9.568   1.612  63.821  1.00  0.00    -0.115 OA 
HETATM   24  C   UNL     1      -9.367   5.178  67.505  1.00  0.00    -0.121 A  
HETATM   25  C   UNL     1      -9.321   5.973  68.707  1.00  0.00    -0.122 A  
BRANCH  21  26
HETATM   26  C   UNL     1      -9.504   2.865  68.628  1.00  0.00    -0.124 C  
HETATM   27  C   UNL     1      -8.189   2.551  69.299  1.00  0.00    -0.071 C  
HETATM   28  C   UNL     1      -9.198   3.372  70.026  1.00  0.00    -0.220 C  
ENDBRANCH  21  26
BRANCH  25  29
HETATM   29  O   UNL     1      -9.782   5.372  69.863  1.00  0.00    -0.158 OA 
HETATM   30  C   UNL     1     -10.752   6.086  70.626  1.00  0.00    -0.276 C  
ENDBRANCH  25  29
ENDBRANCH   3  11
TORSDOF 3
ENDMDL
MODEL      136
REMARK 921   NORMALIZED FREE ENERGY PREDICTED BY IDOCK:   26.17 KCAL/MOL
REMARK 922        TOTAL FREE ENERGY PREDICTED BY IDOCK:   29.96 KCAL/MOL
REMARK 923 INTER-LIGAND FREE ENERGY PREDICTED BY IDOCK:   30.71 KCAL/MOL
REMARK 924 INTRA-LIGAND FREE ENERGY PREDICTED BY IDOCK:   -0.75 KCAL/MOL
REMARK 927      BINDING AFFINITY PREDICTED BY RF-SCORE:    0.00 PKD
ROOT
HETATM    1  C   UNL     1      -7.596  14.859  72.506  1.00  0.00     5.419 C  
HETATM    2  C   UNL     1      -8.386  14.002  71.497  1.00  0.00     7.085 C  
HETATM    3  N   UNL     1      -7.473  13.832  70.344  1.00  0.00     1.324 NA 
HETATM    4  C   UNL     1      -7.746  16.363  72.229  1.00  0.00    11.340 C  
HETATM    5  C   UNL     1      -6.111  14.157  70.756  1.00  0.00    -0.165 C  
HETATM    6  C   UNL     1      -6.172  14.340  72.287  1.00  0.00     0.760 C  
HETATM    7  C   UNL     1      -6.586  17.182  72.790  1.00  0.00     6.244 C  
HETATM    8  N   UNL     1      -5.130  15.189  72.874  1.00  0.00    -0.009 NA 
HETATM    9  H   UNL     1      -4.203  14.813  72.678  1.00  0.00     0.000 HD 
HETATM   10  C   UNL     1      -5.224  16.589  72.454  1.00  0.00     1.347 C  
ENDROOT
BRANCH   3  11
HETATM   11  C   UNL     1      -7.809  13.180  69.166  1.00  0.00     0.365 A  
HETATM   12  C   UNL     1      -7.620  11.114  67.823  1.00  0.00    -0.100 A  
HETATM   13  F   UNL     1      -6.602  11.231  69.888  1.00  0.00    -0.111 F  
HETATM   14  C   UNL     1      -7.371  11.844  68.973  1.00  0.00    -0.038 A  
HETATM   15  C   UNL     1      -8.602  10.836  65.600  1.00  0.00    -0.180 C  
HETATM   16  O   UNL     1      -8.072   9.734  65.469  1.00  0.00    -0.118 OA 
HETATM   17  C   UNL     1      -9.499  11.335  64.561  1.00  0.00    -0.211 C  
HETATM   18  C   UNL     1      -8.381  11.671  66.806  1.00  0.00    -0.171 A  
HETATM   19  C   UNL     1      -9.868  10.581  63.341  1.00  0.00    -0.264 C  
HETATM   20  C   UNL     1      -9.998  12.567  64.746  1.00  0.00    -0.153 C  
HETATM   21  N   UNL     1      -9.723  13.436  65.792  1.00  0.00    -0.187 NA 
HETATM   22  O   UNL     1      -9.269   9.377  63.229  1.00  0.00    -0.145 OA 
HETATM   23  O   UNL     1     -10.645  11.002  62.497  1.00  0.00     0.303 OA 
HETATM   24  C   UNL     1      -8.907  12.981  66.899  1.00  0.00    -0.180 A  
HETATM   25  C   UNL     1      -8.575  13.744  68.078  1.00  0.00    -0.177 A  
BRANCH  21  26
HETATM   26  C   UNL     1     -10.538  14.672  65.844  1.00  0.00    -0.311 C  
HETATM   27  C   UNL     1     -11.720  14.869  64.926  1.00  0.00    -0.371 C  
HETATM   28  C   UNL     1     -11.953  14.715  66.390  1.00  0.00    -0.274 C  
ENDBRANCH  21  26
BRANCH  25  29
HETATM   29  O   UNL     1      -8.817  15.104  68.021  1.00  0.00    -0.166 OA 
HETATM   30  C   UNL     1      -7.740  15.940  67.606  1.00  0.00    -0.150 C  
ENDBRANCH  25  29
ENDBRANCH   3  11
TORSDOF 3
ENDMDL
MODEL      137
REMARK 921   NORMALIZED FREE ENERGY PREDICTED BY IDOCK:   28.83 KCAL/MOL
REMARK 922        TOTAL FREE ENERGY PREDICTED BY IDOCK:   33.07 KCAL/MOL
REMARK 923 INTER-LIGAND FREE ENERGY PREDICTED BY IDOCK:   26.91 KCAL/MOL
REMARK 924 INTRA-LIGAND FREE ENERGY PREDICTED BY IDOCK:    6.17 KCAL/MOL
REMARK 927      BINDING AFFINITY PREDICTED BY RF-SCORE:    0.00 PKD
ROOT
HETATM    1  C   UNL     1      -9.289   9.314  68.024  1.00  0.00    -0.145 C  
HETATM    2  C   UNL     1      -8.801  10.518  67.194  1.00  0.00    -0.136 C  
HETATM    3  N   UNL     1      -8.508  11.573  68.191  1.00  0.00    -0.147 NA 
HETATM    4  C   UNL     1     -10.796   9.386  68.316  1.00  0.00    -0.163 C  
HETATM    5  C   UNL     1      -8.393  10.969  69.514  1.00  0.00     0.282 C  
HETATM    6  C   UNL     1      -8.420   9.443  69.279  1.00  0.00    -0.141 C  
HETATM    7  C   UNL     1     -11.193   8.586  69.555  1.00  0.00     0.139 C  
HETATM    8  N   UNL     1      -8.876   8.628  70.408  1.00  0.00    -0.147 NA 
HETATM    9  H   UNL     1      -8.279   8.770  71.223  1.00  0.00     0.000 HD 
HETATM   10  C   UNL     1     -10.284   8.850  70.748  1.00  0.00    -0.226 C  
ENDROOT
BRANCH   3  11
HETATM   11  C   UNL     1      -8.106  12.863  67.873  1.00  0.00    -0.161 A  
HETATM   12  C   UNL     1      -7.227  14.383  66.134  1.00  0.00     3.810 A  
HETATM   13  F   UNL     1      -7.617  12.169  65.625  1.00  0.00     0.747 F  
HETATM   14  C   UNL     1      -7.680  13.142  66.548  1.00  0.00     0.976 A  
HETATM   15  C   UNL     1      -6.721  16.746  66.514  1.00  0.00    -0.138 C  
HETATM   16  O   UNL     1      -6.251  16.859  65.384  1.00  0.00     0.846 OA 
HETATM   17  C   UNL     1      -6.820  17.920  67.378  1.00  0.00    -0.196 C  
HETATM   18  C   UNL     1      -7.227  15.447  67.023  1.00  0.00    -0.072 A  
HETATM   19  C   UNL     1      -6.423  19.289  66.977  1.00  0.00    -0.190 C  
HETATM   20  C   UNL     1      -7.294  17.710  68.616  1.00  0.00    -0.257 C  
HETATM   21  N   UNL     1      -7.660  16.496  69.181  1.00  0.00    -0.232 NA 
HETATM   22  O   UNL     1      -5.911  19.378  65.733  1.00  0.00    -0.163 OA 
HETATM   23  O   UNL     1      -6.542  20.265  67.703  1.00  0.00    -0.225 OA 
HETATM   24  C   UNL     1      -7.666  15.303  68.360  1.00  0.00    -0.124 A  
HETATM   25  C   UNL     1      -8.068  13.984  68.785  1.00  0.00    -0.065 A  
BRANCH  21  26
HETATM   26  C   UNL     1      -8.311  16.567  70.510  1.00  0.00     3.155 C  
HETATM   27  C   UNL     1      -7.751  17.434  71.610  1.00  0.00     9.394 C  
HETATM   28  C   UNL     1      -9.067  17.786  71.005  1.00  0.00     6.533 C  
ENDBRANCH  21  26
BRANCH  25  29
HETATM   29  O   UNL     1      -8.188  13.784  70.148  1.00  0.00     1.618 OA 
HETATM   30  C   UNL     1      -7.797  14.858  71.000  1.00  0.00     2.334 C  
ENDBRANCH  25  29
ENDBRANCH   3  11
TORSDOF 3
ENDMDL
MODEL      138
REMARK 921   NORMALIZED FREE ENERGY PREDICTED BY IDOCK:   33.19 KCAL/MOL
REMARK 922        TOTAL FREE ENERGY PREDICTED BY IDOCK:   38.20 KCAL/MOL
REMARK 923 INTER-LIGAND FREE ENERGY PREDICTED BY IDOCK:   32.21 KCAL/MOL
REMARK 924 INTRA-LIGAND FREE ENERGY PREDICTED BY IDOCK:    5.99 KCAL/MOL
REMARK 927      BINDING AFFINITY PREDICTED BY RF-SCORE:    0.00 PKD
ROOT
HETATM    1  C   UNL     1      -7.002  18.710  65.078  1.00  0.00     0.475 C  
HETATM    2  C   UNL     1      -6.613  17.421  65.830  1.00  0.00     0.080 C  
HETATM    3  N   UNL     1      -7.409  17.454  67.078  1.00  0.00    -0.176 NA 
HETATM    4  C   UNL     1      -6.160  19.915  65.525  1.00  0.00    -0.228 C  
HETATM    5  C   UNL     1      -8.500  18.411  66.930  1.00  0.00    -0.265 C  
HETATM    6  C   UNL     1      -8.484  18.834  65.445  1.00  0.00     1.290 C  
HETATM    7  C   UNL     1      -6.858  21.248  65.265  1.00  0.00     0.411 C  
HETATM    8  N   UNL     1      -9.066  20.146  65.146  1.00  0.00     0.019 NA 
HETATM    9  H   UNL     1     -10.044  20.183  65.432  1.00  0.00     0.000 HD 
HETATM   10  C   UNL     1      -8.309  21.258  65.728  1.00  0.00     2.158 C  
ENDROOT
BRANCH   3  11
HETATM   11  C   UNL     1      -7.316  16.511  68.093  1.00  0.00    -0.160 A  
HETATM   12  C   UNL     1      -6.886  16.093  70.490  1.00  0.00     1.082 A  
HETATM   13  F   UNL     1      -6.811  18.248  69.675  1.00  0.00    -0.217 F  
HETATM   14  C   UNL     1      -7.034  16.950  69.412  1.00  0.00    -0.164 A  
HETATM   15  C   UNL     1      -6.887  13.869  71.510  1.00  0.00     2.205 C  
HETATM   16  O   UNL     1      -6.515  14.330  72.588  1.00  0.00     0.334 OA 
HETATM   17  C   UNL     1      -7.192  12.445  71.398  1.00  0.00     6.261 C  
HETATM   18  C   UNL     1      -7.069  14.729  70.315  1.00  0.00     0.177 A  
HETATM   19  C   UNL     1      -7.125  11.485  72.522  1.00  0.00     9.002 C  
HETATM   20  C   UNL     1      -7.540  12.005  70.178  1.00  0.00     2.123 C  
HETATM   21  N   UNL     1      -7.601  12.743  69.005  1.00  0.00     0.065 NA 
HETATM   22  O   UNL     1      -6.713  12.022  73.689  1.00  0.00     4.674 OA 
HETATM   23  O   UNL     1      -7.414  10.302  72.417  1.00  0.00     2.703 OA 
HETATM   24  C   UNL     1      -7.392  14.175  69.053  1.00  0.00    -0.102 A  
HETATM   25  C   UNL     1      -7.473  15.082  67.934  1.00  0.00    -0.137 A  
BRANCH  21  26
HETATM   26  C   UNL     1      -8.178  12.050  67.830  1.00  0.00    -0.151 C  
HETATM   27  C   UNL     1      -7.436  10.933  67.138  1.00  0.00    -0.109 C  
HETATM   28  C   UNL     1      -8.695  10.623  67.873  1.00  0.00    -0.127 C  
ENDBRANCH  21  26
BRANCH  25  29
HETATM   29  O   UNL     1      -7.472  14.511  66.675  1.00  0.00     0.339 OA 
HETATM   30  C   UNL     1      -8.109  13.244  66.536  1.00  0.00     0.649 C  
ENDBRANCH  25  29
ENDBRANCH   3  11
TORSDOF 3
ENDMDL
MODEL      139
REMARK 921   NORMALIZED FREE ENERGY PREDICTED BY IDOCK:   42.38 KCAL/MOL
REMARK 922        TOTAL FREE ENERGY PREDICTED BY IDOCK:   49.01 KCAL/MOL
REMARK 923 INTER-LIGAND FREE ENERGY PREDICTED BY IDOCK:   45.78 KCAL/MOL
REMARK 924 INTRA-LIGAND FREE ENERGY PREDICTED BY IDOCK:    3.22 KCAL/MOL
REMARK 927      BINDING AFFINITY PREDICTED BY RF-SCORE:    0.00 PKD
ROOT
HETATM    1  C   UNL     1      -9.263  12.732  70.080  1.00  0.00     4.132 C  
HETATM    2  C   UNL     1      -9.818  11.775  69.006  1.00  0.00     0.100 C  
HETATM    3  N   UNL     1      -9.253  10.450  69.349  1.00  0.00    -0.190 NA 
HETATM    4  C   UNL     1      -7.878  13.281  69.705  1.00  0.00     1.363 C  
HETATM    5  C   UNL     1      -8.767  10.474  70.724  1.00  0.00     2.355 C  
HETATM    6  C   UNL     1      -9.243  11.820  71.311  1.00  0.00    11.216 C  
HETATM    7  C   UNL     1      -7.076  13.732  70.924  1.00  0.00     1.846 C  
HETATM    8  N   UNL     1      -8.457  12.346  72.431  1.00  0.00    18.350 NA 
HETATM    9  H   UNL     1      -8.455  11.691  73.212  1.00  0.00     0.000 HD 
HETATM   10  C   UNL     1      -7.089  12.711  72.053  1.00  0.00     7.662 C  
ENDROOT
BRANCH   3  11
HETATM   11  C   UNL     1      -9.437   9.300  68.594  1.00  0.00    -0.146 A  
HETATM   12  C   UNL     1     -10.958   8.005  67.141  1.00  0.00     0.054 A  
HETATM   13  F   UNL     1     -11.643  10.034  67.990  1.00  0.00    -0.274 F  
HETATM   14  C   UNL     1     -10.658   9.128  67.892  1.00  0.00    -0.214 A  
HETATM   15  C   UNL     1     -10.407   5.819  66.188  1.00  0.00     0.021 C  
HETATM   16  O   UNL     1     -11.539   5.701  65.724  1.00  0.00     0.937 OA 
HETATM   17  C   UNL     1      -9.402   4.795  65.914  1.00  0.00    -0.160 C  
HETATM   18  C   UNL     1     -10.015   6.997  67.002  1.00  0.00    -0.273 A  
HETATM   19  C   UNL     1      -9.630   3.607  65.062  1.00  0.00    -0.171 C  
HETATM   20  C   UNL     1      -8.205   4.964  66.499  1.00  0.00    -0.107 C  
HETATM   21  N   UNL     1      -7.830   5.979  67.367  1.00  0.00    -0.101 NA 
HETATM   22  O   UNL     1     -10.881   3.507  64.569  1.00  0.00    -0.078 OA 
HETATM   23  O   UNL     1      -8.767   2.776  64.818  1.00  0.00    -0.103 OA 
HETATM   24  C   UNL     1      -8.745   7.072  67.622  1.00  0.00    -0.121 A  
HETATM   25  C   UNL     1      -8.484   8.220  68.455  1.00  0.00    -0.126 A  
BRANCH  21  26
HETATM   26  C   UNL     1      -6.396   6.023  67.736  1.00  0.00    -0.037 C  
HETATM   27  C   UNL     1      -5.960   6.323  69.150  1.00  0.00    -0.021 C  
HETATM   28  C   UNL     1      -5.720   4.964  68.588  1.00  0.00    -0.016 C  
ENDBRANCH  21  26
BRANCH  25  29
HETATM   29  O   UNL     1      -7.391   8.137  69.297  1.00  0.00    -0.073 OA 
HETATM   30  C   UNL     1      -6.549   9.283  69.386  1.00  0.00    -0.044 C  
ENDBRANCH  25  29
ENDBRANCH   3  11
TORSDOF 3
ENDMDL
MODEL      140
REMARK 921   NORMALIZED FREE ENERGY PREDICTED BY IDOCK:   52.10 KCAL/MOL
REMARK 922        TOTAL FREE ENERGY PREDICTED BY IDOCK:   60.42 KCAL/MOL
REMARK 923 INTER-LIGAND FREE ENERGY PREDICTED BY IDOCK:   53.78 KCAL/MOL
REMARK 924 INTRA-LIGAND FREE ENERGY PREDICTED BY IDOCK:    6.64 KCAL/MOL
REMARK 927      BINDING AFFINITY PREDICTED BY RF-SCORE:    0.00 PKD
ROOT
HETATM    1  C   UNL     1     -11.671  16.561  65.174  1.00  0.00     0.775 C  
HETATM    2  C   UNL     1     -11.338  15.225  65.867  1.00  0.00    -0.172 C  
HETATM    3  N   UNL     1     -10.529  14.475  64.880  1.00  0.00    -0.431 NA 
HETATM    4  C   UNL     1     -12.928  16.458  64.295  1.00  0.00     3.157 C  
HETATM    5  C   UNL     1     -10.029  15.397  63.866  1.00  0.00     4.621 C  
HETATM    6  C   UNL     1     -10.389  16.810  64.374  1.00  0.00     2.152 C  
HETATM    7  C   UNL     1     -12.960  17.513  63.191  1.00  0.00    14.868 C  
HETATM    8  N   UNL     1     -10.517  17.848  63.347  1.00  0.00     8.469 NA 
HETATM    9  H   UNL     1      -9.646  17.956  62.829  1.00  0.00     0.000 HD 
HETATM   10  C   UNL     1     -11.641  17.620  62.436  1.00  0.00    18.393 C  
ENDROOT
BRANCH   3  11
HETATM   11  C   UNL     1     -10.071  13.178  65.064  1.00  0.00    -0.222 A  
HETATM   12  C   UNL     1      -8.868  11.254  64.085  1.00  0.00     0.202 A  
HETATM   13  F   UNL     1      -9.133  13.183  62.852  1.00  0.00     2.490 F  
HETATM   14  C   UNL     1      -9.340  12.554  64.020  1.00  0.00     0.675 A  
HETATM   15  C   UNL     1      -8.531   9.122  65.237  1.00  0.00    -0.154 C  
HETATM   16  O   UNL     1      -8.024   8.625  64.234  1.00  0.00    -0.132 OA 
HETATM   17  C   UNL     1      -8.599   8.349  66.475  1.00  0.00    -0.128 C  
HETATM   18  C   UNL     1      -9.056  10.510  65.241  1.00  0.00    -0.220 A  
HETATM   19  C   UNL     1      -8.051   6.983  66.638  1.00  0.00    -0.110 C  
HETATM   20  C   UNL     1      -9.215   8.937  67.513  1.00  0.00    -0.136 C  
HETATM   21  N   UNL     1      -9.833  10.180  67.528  1.00  0.00    -0.172 NA 
HETATM   22  O   UNL     1      -7.502   6.467  65.520  1.00  0.00    -0.077 OA 
HETATM   23  O   UNL     1      -8.089   6.363  67.690  1.00  0.00    -0.112 OA 
HETATM   24  C   UNL     1      -9.736  11.037  66.364  1.00  0.00    -0.201 A  
HETATM   25  C   UNL     1     -10.278  12.369  66.245  1.00  0.00    -0.238 A  
BRANCH  21  26
HETATM   26  C   UNL     1     -10.290  10.663  68.851  1.00  0.00    -0.207 C  
HETATM   27  C   UNL     1      -9.565  10.280  70.118  1.00  0.00     0.108 C  
HETATM   28  C   UNL     1      -9.539  11.700  69.666  1.00  0.00     1.101 C  
ENDBRANCH  21  26
BRANCH  25  29
HETATM   29  O   UNL     1     -11.197  12.750  67.204  1.00  0.00    -0.266 OA 
HETATM   30  C   UNL     1     -10.766  12.728  68.563  1.00  0.00    -0.253 C  
ENDBRANCH  25  29
ENDBRANCH   3  11
TORSDOF 3
ENDMDL
