MODEL        1
REMARK 921   NORMALIZED FREE ENERGY PREDICTED BY IDOCK:   -5.89 KCAL/MOL
REMARK 922        TOTAL FREE ENERGY PREDICTED BY IDOCK:   -7.33 KCAL/MOL
REMARK 923 INTER-LIGAND FREE ENERGY PREDICTED BY IDOCK:   -6.92 KCAL/MOL
REMARK 924 INTRA-LIGAND FREE ENERGY PREDICTED BY IDOCK:   -0.41 KCAL/MOL
REMARK 927      BINDING AFFINITY PREDICTED BY RF-SCORE:    0.00 PKD
ROOT
HETATM    1  C   UNL     1     -11.083  10.399  67.680  1.00  0.00    -0.293 C  
HETATM    2  O   UNL     1     -12.043  11.329  68.187  1.00  0.00    -0.635 OA 
ENDROOT
BRANCH   2   3
HETATM    3  C   UNL     1     -12.014  12.514  67.474  1.00  0.00    -0.219 A  
HETATM    4  N   UNL     1     -12.150  12.403  66.134  1.00  0.00    -0.641 NA 
HETATM    5  C   UNL     1     -11.920  13.499  65.404  1.00  0.00    -0.379 A  
HETATM    6  N   UNL     1     -11.559  14.676  65.919  1.00  0.00    -0.349 NA 
HETATM    7  C   UNL     1     -11.920  13.339  63.917  1.00  0.00    -0.541 C  
HETATM    8  C   UNL     1     -11.492  14.728  67.267  1.00  0.00    -0.366 A  
HETATM    9 CL   UNL     1     -10.967  16.274  67.836  1.00  0.00    -0.333 Cl 
HETATM   10  C   UNL     1     -11.727  13.685  68.150  1.00  0.00    -0.357 A  
BRANCH  10  11
HETATM   11  N   UNL     1     -11.664  13.864  69.537  1.00  0.00    -0.293 NA 
HETATM   12  H   UNL     1     -10.726  13.754  69.922  1.00  0.00     0.000 HD 
BRANCH  11  13
HETATM   13  C   UNL     1     -12.601  14.153  70.466  1.00  0.00    -0.342 A  
HETATM   14  N   UNL     1     -13.296  15.259  70.418  1.00  0.00    -0.695 NA 
HETATM   15  C   UNL     1     -14.173  15.209  71.618  1.00  0.00    -0.567 A  
HETATM   16  H   UNL     1     -13.246  15.996  69.714  1.00  0.00     0.000 HD 
HETATM   17  C   UNL     1     -13.942  13.850  72.282  1.00  0.00    -0.565 A  
HETATM   18  N   UNL     1     -12.919  13.269  71.447  1.00  0.00    -0.343 NA 
ENDBRANCH  11  13
ENDBRANCH  10  11
ENDBRANCH   2   3
TORSDOF 3
ENDMDL
MODEL        2
REMARK 921   NORMALIZED FREE ENERGY PREDICTED BY IDOCK:   -5.65 KCAL/MOL
REMARK 922        TOTAL FREE ENERGY PREDICTED BY IDOCK:   -7.05 KCAL/MOL
REMARK 923 INTER-LIGAND FREE ENERGY PREDICTED BY IDOCK:   -6.68 KCAL/MOL
REMARK 924 INTRA-LIGAND FREE ENERGY PREDICTED BY IDOCK:   -0.37 KCAL/MOL
REMARK 927      BINDING AFFINITY PREDICTED BY RF-SCORE:    0.00 PKD
ROOT
HETATM    1  C   UNL     1     -10.572  16.745  67.963  1.00  0.00    -0.347 C  
HETATM    2  O   UNL     1     -11.760  16.079  68.397  1.00  0.00    -0.346 OA 
ENDROOT
BRANCH   2   3
HETATM    3  C   UNL     1     -11.677  14.716  68.172  1.00  0.00    -0.330 A  
HETATM    4  N   UNL     1     -11.781  14.321  66.883  1.00  0.00    -0.391 NA 
HETATM    5  C   UNL     1     -11.913  13.011  66.655  1.00  0.00    -0.387 A  
HETATM    6  N   UNL     1     -11.956  12.086  67.617  1.00  0.00    -0.556 NA 
HETATM    7  C   UNL     1     -12.182  12.588  65.246  1.00  0.00    -0.493 C  
HETATM    8  C   UNL     1     -11.794  12.547  68.876  1.00  0.00    -0.301 A  
HETATM    9 CL   UNL     1     -11.918  11.286  70.054  1.00  0.00    -0.413 Cl 
HETATM   10  C   UNL     1     -11.624  13.868  69.262  1.00  0.00    -0.309 A  
BRANCH  10  11
HETATM   11  N   UNL     1     -11.428  14.227  70.601  1.00  0.00    -0.515 NA 
HETATM   12  H   UNL     1     -10.498  14.001  70.953  1.00  0.00     0.000 HD 
BRANCH  11  13
HETATM   13  C   UNL     1     -12.228  14.814  71.518  1.00  0.00    -0.347 A  
HETATM   14  N   UNL     1     -13.521  14.901  71.345  1.00  0.00    -0.396 NA 
HETATM   15  C   UNL     1     -14.015  15.632  72.541  1.00  0.00    -0.530 A  
HETATM   16  H   UNL     1     -14.069  14.545  70.561  1.00  0.00     0.000 HD 
HETATM   17  C   UNL     1     -12.813  15.843  73.463  1.00  0.00    -0.590 A  
HETATM   18  N   UNL     1     -11.733  15.270  72.697  1.00  0.00    -0.434 NA 
ENDBRANCH  11  13
ENDBRANCH  10  11
ENDBRANCH   2   3
TORSDOF 3
ENDMDL
MODEL        3
REMARK 921   NORMALIZED FREE ENERGY PREDICTED BY IDOCK:   -5.58 KCAL/MOL
REMARK 922        TOTAL FREE ENERGY PREDICTED BY IDOCK:   -6.98 KCAL/MOL
REMARK 923 INTER-LIGAND FREE ENERGY PREDICTED BY IDOCK:   -6.48 KCAL/MOL
REMARK 924 INTRA-LIGAND FREE ENERGY PREDICTED BY IDOCK:   -0.49 KCAL/MOL
REMARK 927      BINDING AFFINITY PREDICTED BY RF-SCORE:    0.00 PKD
ROOT
HETATM    1  C   UNL     1     -10.959  10.632  67.574  1.00  0.00    -0.310 C  
HETATM    2  O   UNL     1     -11.934  11.631  67.881  1.00  0.00    -0.599 OA 
ENDROOT
BRANCH   2   3
HETATM    3  C   UNL     1     -11.894  12.664  66.961  1.00  0.00    -0.345 A  
HETATM    4  N   UNL     1     -12.252  12.346  65.697  1.00  0.00    -0.626 NA 
HETATM    5  C   UNL     1     -12.028  13.262  64.750  1.00  0.00    -0.388 A  
HETATM    6  N   UNL     1     -11.469  14.452  64.981  1.00  0.00    -0.355 NA 
HETATM    7  C   UNL     1     -12.279  12.854  63.333  1.00  0.00    -0.574 C  
HETATM    8  C   UNL     1     -11.185  14.723  66.273  1.00  0.00    -0.343 A  
HETATM    9 CL   UNL     1     -10.418  16.261  66.465  1.00  0.00    -0.303 Cl 
HETATM   10  C   UNL     1     -11.384  13.885  67.360  1.00  0.00    -0.326 A  
BRANCH  10  11
HETATM   11  N   UNL     1     -11.084  14.287  68.667  1.00  0.00    -0.242 NA 
HETATM   12  H   UNL     1     -10.102  14.523  68.808  1.00  0.00     0.000 HD 
BRANCH  11  13
HETATM   13  C   UNL     1     -11.840  14.424  69.779  1.00  0.00    -0.320 A  
HETATM   14  N   UNL     1     -12.000  13.439  70.624  1.00  0.00    -0.526 NA 
HETATM   15  C   UNL     1     -12.911  13.979  71.667  1.00  0.00    -0.352 A  
HETATM   16  H   UNL     1     -11.590  12.506  70.578  1.00  0.00     0.000 HD 
HETATM   17  C   UNL     1     -13.146  15.454  71.334  1.00  0.00    -0.488 A  
HETATM   18  N   UNL     1     -12.402  15.615  70.108  1.00  0.00    -0.384 NA 
ENDBRANCH  11  13
ENDBRANCH  10  11
ENDBRANCH   2   3
TORSDOF 3
ENDMDL
MODEL        4
REMARK 921   NORMALIZED FREE ENERGY PREDICTED BY IDOCK:   -5.53 KCAL/MOL
REMARK 922        TOTAL FREE ENERGY PREDICTED BY IDOCK:   -6.91 KCAL/MOL
REMARK 923 INTER-LIGAND FREE ENERGY PREDICTED BY IDOCK:   -6.42 KCAL/MOL
REMARK 924 INTRA-LIGAND FREE ENERGY PREDICTED BY IDOCK:   -0.49 KCAL/MOL
REMARK 927      BINDING AFFINITY PREDICTED BY RF-SCORE:    0.00 PKD
ROOT
HETATM    1  C   UNL     1     -10.120  16.551  69.164  1.00  0.00    -0.287 C  
HETATM    2  O   UNL     1     -11.451  16.229  68.754  1.00  0.00    -0.353 OA 
ENDROOT
BRANCH   2   3
HETATM    3  C   UNL     1     -12.032  15.318  69.619  1.00  0.00    -0.338 A  
HETATM    4  N   UNL     1     -12.637  15.841  70.710  1.00  0.00    -0.418 NA 
HETATM    5  C   UNL     1     -13.023  14.986  71.662  1.00  0.00    -0.353 A  
HETATM    6  N   UNL     1     -12.838  13.666  71.599  1.00  0.00    -0.349 NA 
HETATM    7  C   UNL     1     -13.551  15.573  72.932  1.00  0.00    -0.633 C  
HETATM    8  C   UNL     1     -12.275  13.209  70.459  1.00  0.00    -0.328 A  
HETATM    9 CL   UNL     1     -12.027  11.497  70.493  1.00  0.00    -0.461 Cl 
HETATM   10  C   UNL     1     -11.848  13.970  69.381  1.00  0.00    -0.333 A  
BRANCH  10  11
HETATM   11  N   UNL     1     -11.310  13.383  68.230  1.00  0.00    -0.276 NA 
HETATM   12  H   UNL     1     -10.463  12.841  68.404  1.00  0.00     0.000 HD 
BRANCH  11  13
HETATM   13  C   UNL     1     -11.690  13.393  66.933  1.00  0.00    -0.389 A  
HETATM   14  N   UNL     1     -11.743  14.503  66.244  1.00  0.00    -0.373 NA 
HETATM   15  C   UNL     1     -12.231  14.091  64.901  1.00  0.00    -0.437 A  
HETATM   16  H   UNL     1     -11.502  15.443  66.557  1.00  0.00     0.000 HD 
HETATM   17  C   UNL     1     -12.336  12.565  64.913  1.00  0.00    -0.470 A  
HETATM   18  N   UNL     1     -11.957  12.241  66.267  1.00  0.00    -0.626 NA 
ENDBRANCH  11  13
ENDBRANCH  10  11
ENDBRANCH   2   3
TORSDOF 3
ENDMDL
MODEL        5
REMARK 921   NORMALIZED FREE ENERGY PREDICTED BY IDOCK:   -5.41 KCAL/MOL
REMARK 922        TOTAL FREE ENERGY PREDICTED BY IDOCK:   -6.78 KCAL/MOL
REMARK 923 INTER-LIGAND FREE ENERGY PREDICTED BY IDOCK:   -6.51 KCAL/MOL
REMARK 924 INTRA-LIGAND FREE ENERGY PREDICTED BY IDOCK:   -0.27 KCAL/MOL
REMARK 927      BINDING AFFINITY PREDICTED BY RF-SCORE:    0.00 PKD
ROOT
HETATM    1  C   UNL     1     -12.595  10.796  70.457  1.00  0.00    -0.336 C  
HETATM    2  O   UNL     1     -11.412  11.224  69.778  1.00  0.00    -0.274 OA 
ENDROOT
BRANCH   2   3
HETATM    3  C   UNL     1     -11.692  12.239  68.880  1.00  0.00    -0.328 A  
HETATM    4  N   UNL     1     -11.950  11.852  67.611  1.00  0.00    -0.583 NA 
HETATM    5  C   UNL     1     -12.019  12.810  66.682  1.00  0.00    -0.341 A  
HETATM    6  N   UNL     1     -11.841  14.108  66.935  1.00  0.00    -0.412 NA 
HETATM    7  C   UNL     1     -12.151  12.372  65.258  1.00  0.00    -0.451 C  
HETATM    8  C   UNL     1     -11.638  14.428  68.232  1.00  0.00    -0.328 A  
HETATM    9 CL   UNL     1     -11.364  16.121  68.453  1.00  0.00    -0.368 Cl 
HETATM   10  C   UNL     1     -11.566  13.548  69.302  1.00  0.00    -0.316 A  
BRANCH  10  11
HETATM   11  N   UNL     1     -11.388  13.997  70.616  1.00  0.00    -0.487 NA 
HETATM   12  H   UNL     1     -10.473  13.770  71.006  1.00  0.00     0.000 HD 
BRANCH  11  13
HETATM   13  C   UNL     1     -12.189  14.671  71.470  1.00  0.00    -0.352 A  
HETATM   14  N   UNL     1     -11.714  15.258  72.537  1.00  0.00    -0.442 NA 
HETATM   15  C   UNL     1     -12.904  15.842  73.210  1.00  0.00    -0.556 A  
HETATM   16  H   UNL     1     -10.742  15.303  72.842  1.00  0.00     0.000 HD 
HETATM   17  C   UNL     1     -14.104  15.588  72.295  1.00  0.00    -0.544 A  
HETATM   18  N   UNL     1     -13.513  14.836  71.214  1.00  0.00    -0.391 NA 
ENDBRANCH  11  13
ENDBRANCH  10  11
ENDBRANCH   2   3
TORSDOF 3
ENDMDL
MODEL        6
REMARK 921   NORMALIZED FREE ENERGY PREDICTED BY IDOCK:   -5.40 KCAL/MOL
REMARK 922        TOTAL FREE ENERGY PREDICTED BY IDOCK:   -6.76 KCAL/MOL
REMARK 923 INTER-LIGAND FREE ENERGY PREDICTED BY IDOCK:   -6.54 KCAL/MOL
REMARK 924 INTRA-LIGAND FREE ENERGY PREDICTED BY IDOCK:   -0.22 KCAL/MOL
REMARK 927      BINDING AFFINITY PREDICTED BY RF-SCORE:    0.00 PKD
ROOT
HETATM    1  C   UNL     1     -10.310  16.132  66.747  1.00  0.00    -0.291 C  
HETATM    2  O   UNL     1     -11.370  15.178  66.657  1.00  0.00    -0.320 OA 
ENDROOT
BRANCH   2   3
HETATM    3  C   UNL     1     -11.701  14.681  67.906  1.00  0.00    -0.351 A  
HETATM    4  N   UNL     1     -11.712  15.579  68.916  1.00  0.00    -0.368 NA 
HETATM    5  C   UNL     1     -11.823  15.098  70.159  1.00  0.00    -0.313 A  
HETATM    6  N   UNL     1     -11.912  13.799  70.451  1.00  0.00    -0.327 NA 
HETATM    7  C   UNL     1     -11.681  16.075  71.283  1.00  0.00    -0.516 C  
HETATM    8  C   UNL     1     -11.947  12.963  69.390  1.00  0.00    -0.269 A  
HETATM    9 CL   UNL     1     -12.009  11.302  69.869  1.00  0.00    -0.405 Cl 
HETATM   10  C   UNL     1     -11.867  13.317  68.052  1.00  0.00    -0.355 A  
BRANCH  10  11
HETATM   11  N   UNL     1     -11.951  12.364  67.030  1.00  0.00    -0.565 NA 
HETATM   12  H   UNL     1     -12.212  11.434  67.358  1.00  0.00     0.000 HD 
BRANCH  11  13
HETATM   13  C   UNL     1     -11.754  12.433  65.695  1.00  0.00    -0.414 A  
HETATM   14  N   UNL     1     -10.553  12.450  65.179  1.00  0.00    -0.283 NA 
HETATM   15  C   UNL     1     -10.771  12.566  63.713  1.00  0.00    -0.445 A  
HETATM   16  H   UNL     1      -9.662  12.397  65.674  1.00  0.00     0.000 HD 
HETATM   17  C   UNL     1     -12.282  12.497  63.481  1.00  0.00    -0.558 A  
HETATM   18  N   UNL     1     -12.797  12.407  64.826  1.00  0.00    -0.761 NA 
ENDBRANCH  11  13
ENDBRANCH  10  11
ENDBRANCH   2   3
TORSDOF 3
ENDMDL
MODEL        7
REMARK 921   NORMALIZED FREE ENERGY PREDICTED BY IDOCK:   -5.30 KCAL/MOL
REMARK 922        TOTAL FREE ENERGY PREDICTED BY IDOCK:   -6.64 KCAL/MOL
REMARK 923 INTER-LIGAND FREE ENERGY PREDICTED BY IDOCK:   -6.16 KCAL/MOL
REMARK 924 INTRA-LIGAND FREE ENERGY PREDICTED BY IDOCK:   -0.48 KCAL/MOL
REMARK 927      BINDING AFFINITY PREDICTED BY RF-SCORE:    0.00 PKD
ROOT
HETATM    1  C   UNL     1     -10.212  10.049  66.285  1.00  0.00    -0.215 C  
HETATM    2  O   UNL     1     -11.004  10.232  67.461  1.00  0.00    -0.297 OA 
ENDROOT
BRANCH   2   3
HETATM    3  C   UNL     1     -11.508  11.519  67.528  1.00  0.00    -0.282 A  
HETATM    4  N   UNL     1     -11.814  12.097  66.345  1.00  0.00    -0.607 NA 
HETATM    5  C   UNL     1     -12.104  13.402  66.361  1.00  0.00    -0.409 A  
HETATM    6  N   UNL     1     -12.098  14.154  67.463  1.00  0.00    -0.380 NA 
HETATM    7  C   UNL     1     -12.291  14.074  65.038  1.00  0.00    -0.458 C  
HETATM    8  C   UNL     1     -11.834  13.500  68.615  1.00  0.00    -0.369 A  
HETATM    9 CL   UNL     1     -11.797  14.565  69.977  1.00  0.00    -0.347 Cl 
HETATM   10  C   UNL     1     -11.542  12.152  68.756  1.00  0.00    -0.327 A  
BRANCH  10  11
HETATM   11  N   UNL     1     -11.320  11.572  70.010  1.00  0.00    -0.492 NA 
HETATM   12  H   UNL     1     -10.522  11.966  70.509  1.00  0.00     0.000 HD 
BRANCH  11  13
HETATM   13  C   UNL     1     -11.954  10.592  70.691  1.00  0.00    -0.367 A  
HETATM   14  N   UNL     1     -11.669   9.330  70.501  1.00  0.00    -0.415 NA 
HETATM   15  C   UNL     1     -12.597   8.593  71.398  1.00  0.00    -0.291 A  
HETATM   16  H   UNL     1     -10.965   8.938  69.875  1.00  0.00     0.000 HD 
HETATM   17  C   UNL     1     -13.368   9.642  72.202  1.00  0.00    -0.454 A  
HETATM   18  N   UNL     1     -12.861  10.879  71.660  1.00  0.00    -0.449 NA 
ENDBRANCH  11  13
ENDBRANCH  10  11
ENDBRANCH   2   3
TORSDOF 3
ENDMDL
MODEL        8
REMARK 921   NORMALIZED FREE ENERGY PREDICTED BY IDOCK:   -5.28 KCAL/MOL
REMARK 922        TOTAL FREE ENERGY PREDICTED BY IDOCK:   -6.62 KCAL/MOL
REMARK 923 INTER-LIGAND FREE ENERGY PREDICTED BY IDOCK:   -6.05 KCAL/MOL
REMARK 924 INTRA-LIGAND FREE ENERGY PREDICTED BY IDOCK:   -0.58 KCAL/MOL
REMARK 927      BINDING AFFINITY PREDICTED BY RF-SCORE:    0.00 PKD
ROOT
HETATM    1  C   UNL     1     -11.030  10.602  67.907  1.00  0.00    -0.295 C  
HETATM    2  O   UNL     1     -12.023  11.557  67.527  1.00  0.00    -0.629 OA 
ENDROOT
BRANCH   2   3
HETATM    3  C   UNL     1     -11.659  12.221  66.369  1.00  0.00    -0.383 A  
HETATM    4  N   UNL     1     -11.132  11.455  65.388  1.00  0.00    -0.186 NA 
HETATM    5  C   UNL     1     -10.583  12.088  64.347  1.00  0.00    -0.318 A  
HETATM    6  N   UNL     1     -10.520  13.416  64.230  1.00  0.00    -0.397 NA 
HETATM    7  C   UNL     1      -9.865  11.249  63.339  1.00  0.00    -0.416 C  
HETATM    8  C   UNL     1     -11.112  14.118  65.221  1.00  0.00    -0.331 A  
HETATM    9 CL   UNL     1     -10.932  15.825  65.010  1.00  0.00    -0.435 Cl 
HETATM   10  C   UNL     1     -11.738  13.600  66.345  1.00  0.00    -0.373 A  
BRANCH  10  11
HETATM   11  N   UNL     1     -12.354  14.426  67.294  1.00  0.00    -0.594 NA 
HETATM   12  H   UNL     1     -13.232  14.835  66.973  1.00  0.00     0.000 HD 
BRANCH  11  13
HETATM   13  C   UNL     1     -12.013  14.789  68.549  1.00  0.00    -0.248 A  
HETATM   14  N   UNL     1     -12.168  13.978  69.563  1.00  0.00    -0.375 NA 
HETATM   15  C   UNL     1     -11.717  14.758  70.746  1.00  0.00    -0.300 A  
HETATM   16  H   UNL     1     -12.522  13.021  69.547  1.00  0.00     0.000 HD 
HETATM   17  C   UNL     1     -11.180  16.091  70.221  1.00  0.00    -0.389 A  
HETATM   18  N   UNL     1     -11.421  15.984  68.803  1.00  0.00    -0.377 NA 
ENDBRANCH  11  13
ENDBRANCH  10  11
ENDBRANCH   2   3
TORSDOF 3
ENDMDL
MODEL        9
REMARK 921   NORMALIZED FREE ENERGY PREDICTED BY IDOCK:   -5.26 KCAL/MOL
REMARK 922        TOTAL FREE ENERGY PREDICTED BY IDOCK:   -6.60 KCAL/MOL
REMARK 923 INTER-LIGAND FREE ENERGY PREDICTED BY IDOCK:   -6.03 KCAL/MOL
REMARK 924 INTRA-LIGAND FREE ENERGY PREDICTED BY IDOCK:   -0.57 KCAL/MOL
REMARK 927      BINDING AFFINITY PREDICTED BY RF-SCORE:    0.00 PKD
ROOT
HETATM    1  C   UNL     1     -11.094  10.210  69.338  1.00  0.00    -0.243 C  
HETATM    2  O   UNL     1     -12.086  11.105  68.828  1.00  0.00    -0.522 OA 
ENDROOT
BRANCH   2   3
HETATM    3  C   UNL     1     -12.013  12.338  69.452  1.00  0.00    -0.259 A  
HETATM    4  N   UNL     1     -12.499  12.393  70.713  1.00  0.00    -0.324 NA 
HETATM    5  C   UNL     1     -12.633  13.604  71.263  1.00  0.00    -0.351 A  
HETATM    6  N   UNL     1     -12.326  14.744  70.641  1.00  0.00    -0.314 NA 
HETATM    7  C   UNL     1     -13.312  13.677  72.594  1.00  0.00    -0.587 C  
HETATM    8  C   UNL     1     -11.798  14.611  69.405  1.00  0.00    -0.329 A  
HETATM    9 CL   UNL     1     -11.484  16.140  68.660  1.00  0.00    -0.375 Cl 
HETATM   10  C   UNL     1     -11.579  13.425  68.719  1.00  0.00    -0.325 A  
BRANCH  10  11
HETATM   11  N   UNL     1     -10.988  13.404  67.450  1.00  0.00    -0.268 NA 
HETATM   12  H   UNL     1      -9.970  13.463  67.471  1.00  0.00     0.000 HD 
BRANCH  11  13
HETATM   13  C   UNL     1     -11.501  13.322  66.203  1.00  0.00    -0.328 A  
HETATM   14  N   UNL     1     -12.108  12.244  65.781  1.00  0.00    -0.603 NA 
HETATM   15  C   UNL     1     -12.482  12.545  64.374  1.00  0.00    -0.446 A  
HETATM   16  H   UNL     1     -12.286  11.385  66.302  1.00  0.00     0.000 HD 
HETATM   17  C   UNL     1     -12.089  14.000  64.110  1.00  0.00    -0.422 A  
HETATM   18  N   UNL     1     -11.477  14.386  65.359  1.00  0.00    -0.335 NA 
ENDBRANCH  11  13
ENDBRANCH  10  11
ENDBRANCH   2   3
TORSDOF 3
ENDMDL
MODEL       10
REMARK 921   NORMALIZED FREE ENERGY PREDICTED BY IDOCK:   -5.19 KCAL/MOL
REMARK 922        TOTAL FREE ENERGY PREDICTED BY IDOCK:   -6.52 KCAL/MOL
REMARK 923 INTER-LIGAND FREE ENERGY PREDICTED BY IDOCK:   -6.15 KCAL/MOL
REMARK 924 INTRA-LIGAND FREE ENERGY PREDICTED BY IDOCK:   -0.37 KCAL/MOL
REMARK 927      BINDING AFFINITY PREDICTED BY RF-SCORE:    0.00 PKD
ROOT
HETATM    1  C   UNL     1     -13.658  13.262  72.189  1.00  0.00    -0.562 C  
HETATM    2  O   UNL     1     -12.890  13.230  70.984  1.00  0.00    -0.304 OA 
ENDROOT
BRANCH   2   3
HETATM    3  C   UNL     1     -12.480  11.941  70.689  1.00  0.00    -0.257 A  
HETATM    4  N   UNL     1     -12.890  10.979  71.544  1.00  0.00    -0.445 NA 
HETATM    5  C   UNL     1     -12.345   9.766  71.406  1.00  0.00    -0.388 A  
HETATM    6  N   UNL     1     -11.425   9.462  70.488  1.00  0.00    -0.269 NA 
HETATM    7  C   UNL     1     -12.681   8.744  72.445  1.00  0.00    -0.433 C  
HETATM    8  C   UNL     1     -11.100  10.458  69.635  1.00  0.00    -0.276 A  
HETATM    9 CL   UNL     1      -9.866   9.986  68.519  1.00  0.00    -0.161 Cl 
HETATM   10  C   UNL     1     -11.599  11.752  69.641  1.00  0.00    -0.323 A  
BRANCH  10  11
HETATM   11  N   UNL     1     -11.217  12.695  68.680  1.00  0.00    -0.263 NA 
HETATM   12  H   UNL     1     -10.402  13.247  68.949  1.00  0.00     0.000 HD 
BRANCH  11  13
HETATM   13  C   UNL     1     -11.715  13.019  67.467  1.00  0.00    -0.370 A  
HETATM   14  N   UNL     1     -12.055  14.247  67.171  1.00  0.00    -0.545 NA 
HETATM   15  C   UNL     1     -12.579  14.170  65.781  1.00  0.00    -0.447 A  
HETATM   16  H   UNL     1     -11.978  15.074  67.763  1.00  0.00     0.000 HD 
HETATM   17  C   UNL     1     -12.375  12.730  65.306  1.00  0.00    -0.488 A  
HETATM   18  N   UNL     1     -11.810  12.098  66.474  1.00  0.00    -0.615 NA 
ENDBRANCH  11  13
ENDBRANCH  10  11
ENDBRANCH   2   3
TORSDOF 3
ENDMDL
MODEL       11
REMARK 921   NORMALIZED FREE ENERGY PREDICTED BY IDOCK:   -5.14 KCAL/MOL
REMARK 922        TOTAL FREE ENERGY PREDICTED BY IDOCK:   -6.46 KCAL/MOL
REMARK 923 INTER-LIGAND FREE ENERGY PREDICTED BY IDOCK:   -6.07 KCAL/MOL
REMARK 924 INTRA-LIGAND FREE ENERGY PREDICTED BY IDOCK:   -0.38 KCAL/MOL
REMARK 927      BINDING AFFINITY PREDICTED BY RF-SCORE:    0.00 PKD
ROOT
HETATM    1  C   UNL     1     -12.085  15.091  70.138  1.00  0.00    -0.331 C  
HETATM    2  O   UNL     1     -12.158  13.668  70.250  1.00  0.00    -0.327 OA 
ENDROOT
BRANCH   2   3
HETATM    3  C   UNL     1     -11.803  13.056  69.061  1.00  0.00    -0.316 A  
HETATM    4  N   UNL     1     -12.090  13.743  67.932  1.00  0.00    -0.344 NA 
HETATM    5  C   UNL     1     -11.951  13.096  66.771  1.00  0.00    -0.373 A  
HETATM    6  N   UNL     1     -11.559  11.824  66.668  1.00  0.00    -0.528 NA 
HETATM    7  C   UNL     1     -12.414  13.802  65.537  1.00  0.00    -0.548 C  
HETATM    8  C   UNL     1     -11.240  11.216  67.831  1.00  0.00    -0.302 A  
HETATM    9 CL   UNL     1     -10.796   9.560  67.602  1.00  0.00    -0.313 Cl 
HETATM   10  C   UNL     1     -11.310  11.766  69.102  1.00  0.00    -0.279 A  
BRANCH  10  11
HETATM   11  N   UNL     1     -10.917  11.050  70.240  1.00  0.00    -0.441 NA 
HETATM   12  H   UNL     1      -9.948  11.216  70.513  1.00  0.00     0.000 HD 
BRANCH  11  13
HETATM   13  C   UNL     1     -11.566  10.182  71.046  1.00  0.00    -0.376 A  
HETATM   14  N   UNL     1     -10.931   9.240  71.692  1.00  0.00    -0.373 NA 
HETATM   15  C   UNL     1     -11.993   8.498  72.421  1.00  0.00    -0.364 A  
HETATM   16  H   UNL     1      -9.928   9.054  71.694  1.00  0.00     0.000 HD 
HETATM   17  C   UNL     1     -13.307   9.241  72.172  1.00  0.00    -0.468 A  
HETATM   18  N   UNL     1     -12.898  10.301  71.283  1.00  0.00    -0.389 NA 
ENDBRANCH  11  13
ENDBRANCH  10  11
ENDBRANCH   2   3
TORSDOF 3
ENDMDL
MODEL       12
REMARK 921   NORMALIZED FREE ENERGY PREDICTED BY IDOCK:   -5.13 KCAL/MOL
REMARK 922        TOTAL FREE ENERGY PREDICTED BY IDOCK:   -6.45 KCAL/MOL
REMARK 923 INTER-LIGAND FREE ENERGY PREDICTED BY IDOCK:   -5.87 KCAL/MOL
REMARK 924 INTRA-LIGAND FREE ENERGY PREDICTED BY IDOCK:   -0.58 KCAL/MOL
REMARK 927      BINDING AFFINITY PREDICTED BY RF-SCORE:    0.00 PKD
ROOT
HETATM    1  C   UNL     1     -13.268  15.222  71.263  1.00  0.00    -0.488 C  
HETATM    2  O   UNL     1     -12.007  14.811  70.730  1.00  0.00    -0.275 OA 
ENDROOT
BRANCH   2   3
HETATM    3  C   UNL     1     -12.127  13.632  70.016  1.00  0.00    -0.348 A  
HETATM    4  N   UNL     1     -12.227  12.502  70.752  1.00  0.00    -0.332 NA 
HETATM    5  C   UNL     1     -12.136  11.339  70.100  1.00  0.00    -0.366 A  
HETATM    6  N   UNL     1     -11.946  11.235  68.783  1.00  0.00    -0.506 NA 
HETATM    7  C   UNL     1     -12.092  10.095  70.928  1.00  0.00    -0.453 C  
HETATM    8  C   UNL     1     -11.907  12.403  68.105  1.00  0.00    -0.315 A  
HETATM    9 CL   UNL     1     -11.604  12.169  66.418  1.00  0.00    -0.438 Cl 
HETATM   10  C   UNL     1     -12.011  13.678  68.641  1.00  0.00    -0.360 A  
BRANCH  10  11
HETATM   11  N   UNL     1     -11.994  14.822  67.833  1.00  0.00    -0.548 NA 
HETATM   12  H   UNL     1     -12.884  15.010  67.371  1.00  0.00     0.000 HD 
BRANCH  11  13
HETATM   13  C   UNL     1     -11.032  15.725  67.545  1.00  0.00    -0.293 A  
HETATM   14  N   UNL     1     -10.607  16.581  68.437  1.00  0.00    -0.305 NA 
HETATM   15  C   UNL     1      -9.595  17.403  67.722  1.00  0.00    -0.264 A  
HETATM   16  H   UNL     1     -10.904  16.667  69.410  1.00  0.00     0.000 HD 
HETATM   17  C   UNL     1      -9.440  16.801  66.324  1.00  0.00    -0.286 A  
HETATM   18  N   UNL     1     -10.409  15.732  66.339  1.00  0.00    -0.289 NA 
ENDBRANCH  11  13
ENDBRANCH  10  11
ENDBRANCH   2   3
TORSDOF 3
ENDMDL
MODEL       13
REMARK 921   NORMALIZED FREE ENERGY PREDICTED BY IDOCK:   -5.04 KCAL/MOL
REMARK 922        TOTAL FREE ENERGY PREDICTED BY IDOCK:   -6.34 KCAL/MOL
REMARK 923 INTER-LIGAND FREE ENERGY PREDICTED BY IDOCK:   -5.95 KCAL/MOL
REMARK 924 INTRA-LIGAND FREE ENERGY PREDICTED BY IDOCK:   -0.39 KCAL/MOL
REMARK 927      BINDING AFFINITY PREDICTED BY RF-SCORE:    0.00 PKD
ROOT
HETATM    1  C   UNL     1     -12.007  13.503  66.528  1.00  0.00    -0.413 C  
HETATM    2  O   UNL     1     -12.022  13.152  67.914  1.00  0.00    -0.349 OA 
ENDROOT
BRANCH   2   3
HETATM    3  C   UNL     1     -11.864  14.270  68.713  1.00  0.00    -0.341 A  
HETATM    4  N   UNL     1     -11.370  15.370  68.101  1.00  0.00    -0.338 NA 
HETATM    5  C   UNL     1     -11.013  16.395  68.882  1.00  0.00    -0.332 A  
HETATM    6  N   UNL     1     -11.109  16.386  70.213  1.00  0.00    -0.335 NA 
HETATM    7  C   UNL     1     -10.326  17.548  68.222  1.00  0.00    -0.379 C  
HETATM    8  C   UNL     1     -11.658  15.277  70.753  1.00  0.00    -0.333 A  
HETATM    9 CL   UNL     1     -11.690  15.337  72.481  1.00  0.00    -0.536 Cl 
HETATM   10  C   UNL     1     -12.095  14.151  70.070  1.00  0.00    -0.346 A  
BRANCH  10  11
HETATM   11  N   UNL     1     -12.686  13.069  70.733  1.00  0.00    -0.220 NA 
HETATM   12  H   UNL     1     -13.569  13.300  71.187  1.00  0.00     0.000 HD 
BRANCH  11  13
HETATM   13  C   UNL     1     -12.316  11.779  70.890  1.00  0.00    -0.320 A  
HETATM   14  N   UNL     1     -11.239  11.301  70.323  1.00  0.00    -0.479 NA 
HETATM   15  C   UNL     1     -11.213   9.865  70.709  1.00  0.00    -0.353 A  
HETATM   16  H   UNL     1     -10.565  11.802  69.744  1.00  0.00     0.000 HD 
HETATM   17  C   UNL     1     -12.382   9.641  71.670  1.00  0.00    -0.404 A  
HETATM   18  N   UNL     1     -13.005  10.942  71.707  1.00  0.00    -0.473 NA 
ENDBRANCH  11  13
ENDBRANCH  10  11
ENDBRANCH   2   3
TORSDOF 3
ENDMDL
MODEL       14
REMARK 921   NORMALIZED FREE ENERGY PREDICTED BY IDOCK:   -5.04 KCAL/MOL
REMARK 922        TOTAL FREE ENERGY PREDICTED BY IDOCK:   -6.34 KCAL/MOL
REMARK 923 INTER-LIGAND FREE ENERGY PREDICTED BY IDOCK:   -5.95 KCAL/MOL
REMARK 924 INTRA-LIGAND FREE ENERGY PREDICTED BY IDOCK:   -0.38 KCAL/MOL
REMARK 927      BINDING AFFINITY PREDICTED BY RF-SCORE:    0.00 PKD
ROOT
HETATM    1  C   UNL     1      -9.548  10.216  67.302  1.00  0.00    -0.159 C  
HETATM    2  O   UNL     1     -10.951  10.216  67.579  1.00  0.00    -0.298 OA 
ENDROOT
BRANCH   2   3
HETATM    3  C   UNL     1     -11.464  11.501  67.553  1.00  0.00    -0.282 A  
HETATM    4  N   UNL     1     -11.797  11.982  66.334  1.00  0.00    -0.593 NA 
HETATM    5  C   UNL     1     -12.097  13.281  66.251  1.00  0.00    -0.414 A  
HETATM    6  N   UNL     1     -12.078  14.119  67.290  1.00  0.00    -0.413 NA 
HETATM    7  C   UNL     1     -12.314  13.846  64.883  1.00  0.00    -0.445 C  
HETATM    8  C   UNL     1     -11.787  13.560  68.485  1.00  0.00    -0.362 A  
HETATM    9 CL   UNL     1     -11.734  14.730  69.758  1.00  0.00    -0.328 Cl 
HETATM   10  C   UNL     1     -11.481  12.230  68.727  1.00  0.00    -0.311 A  
BRANCH  10  11
HETATM   11  N   UNL     1     -11.231  11.752  70.019  1.00  0.00    -0.488 NA 
HETATM   12  H   UNL     1     -10.398  12.153  70.450  1.00  0.00     0.000 HD 
BRANCH  11  13
HETATM   13  C   UNL     1     -11.876  10.865  70.808  1.00  0.00    -0.319 A  
HETATM   14  N   UNL     1     -13.014  11.159  71.382  1.00  0.00    -0.424 NA 
HETATM   15  C   UNL     1     -13.362   9.949  72.174  1.00  0.00    -0.399 A  
HETATM   16  H   UNL     1     -13.545  12.026  71.303  1.00  0.00     0.000 HD 
HETATM   17  C   UNL     1     -12.299   8.893  71.865  1.00  0.00    -0.376 A  
HETATM   18  N   UNL     1     -11.410   9.601  70.976  1.00  0.00    -0.342 NA 
ENDBRANCH  11  13
ENDBRANCH  10  11
ENDBRANCH   2   3
TORSDOF 3
ENDMDL
MODEL       15
REMARK 921   NORMALIZED FREE ENERGY PREDICTED BY IDOCK:   -5.04 KCAL/MOL
REMARK 922        TOTAL FREE ENERGY PREDICTED BY IDOCK:   -6.33 KCAL/MOL
REMARK 923 INTER-LIGAND FREE ENERGY PREDICTED BY IDOCK:   -5.91 KCAL/MOL
REMARK 924 INTRA-LIGAND FREE ENERGY PREDICTED BY IDOCK:   -0.42 KCAL/MOL
REMARK 927      BINDING AFFINITY PREDICTED BY RF-SCORE:    0.00 PKD
ROOT
HETATM    1  C   UNL     1     -10.799  11.349  66.508  1.00  0.00    -0.283 C  
HETATM    2  O   UNL     1     -11.937  12.130  66.880  1.00  0.00    -0.603 OA 
ENDROOT
BRANCH   2   3
HETATM    3  C   UNL     1     -11.931  12.404  68.236  1.00  0.00    -0.214 A  
HETATM    4  N   UNL     1     -11.955  11.330  69.057  1.00  0.00    -0.400 NA 
HETATM    5  C   UNL     1     -12.158  11.560  70.358  1.00  0.00    -0.382 A  
HETATM    6  N   UNL     1     -12.346  12.774  70.880  1.00  0.00    -0.346 NA 
HETATM    7  C   UNL     1     -12.337  10.367  71.242  1.00  0.00    -0.507 C  
HETATM    8  C   UNL     1     -12.259  13.804  70.011  1.00  0.00    -0.342 A  
HETATM    9 CL   UNL     1     -12.568  15.327  70.769  1.00  0.00    -0.432 Cl 
HETATM   10  C   UNL     1     -12.029  13.720  68.646  1.00  0.00    -0.366 A  
BRANCH  10  11
HETATM   11  N   UNL     1     -11.921  14.863  67.844  1.00  0.00    -0.532 NA 
HETATM   12  H   UNL     1     -12.820  15.279  67.600  1.00  0.00     0.000 HD 
BRANCH  11  13
HETATM   13  C   UNL     1     -10.861  15.522  67.329  1.00  0.00    -0.313 A  
HETATM   14  N   UNL     1     -10.635  16.780  67.606  1.00  0.00    -0.331 NA 
HETATM   15  C   UNL     1      -9.418  17.128  66.826  1.00  0.00    -0.267 A  
HETATM   16  H   UNL     1     -11.176  17.389  68.221  1.00  0.00     0.000 HD 
HETATM   17  C   UNL     1      -8.933  15.839  66.158  1.00  0.00    -0.337 A  
HETATM   18  N   UNL     1      -9.938  14.886  66.563  1.00  0.00    -0.255 NA 
ENDBRANCH  11  13
ENDBRANCH  10  11
ENDBRANCH   2   3
TORSDOF 3
ENDMDL
MODEL       16
REMARK 921   NORMALIZED FREE ENERGY PREDICTED BY IDOCK:   -5.03 KCAL/MOL
REMARK 922        TOTAL FREE ENERGY PREDICTED BY IDOCK:   -6.33 KCAL/MOL
REMARK 923 INTER-LIGAND FREE ENERGY PREDICTED BY IDOCK:   -6.07 KCAL/MOL
REMARK 924 INTRA-LIGAND FREE ENERGY PREDICTED BY IDOCK:   -0.26 KCAL/MOL
REMARK 927      BINDING AFFINITY PREDICTED BY RF-SCORE:    0.00 PKD
ROOT
HETATM    1  C   UNL     1     -10.647  10.845  67.275  1.00  0.00    -0.251 C  
HETATM    2  O   UNL     1     -11.925  11.430  67.534  1.00  0.00    -0.626 OA 
ENDROOT
BRANCH   2   3
HETATM    3  C   UNL     1     -12.034  11.824  68.856  1.00  0.00    -0.271 A  
HETATM    4  N   UNL     1     -12.272  10.838  69.750  1.00  0.00    -0.320 NA 
HETATM    5  C   UNL     1     -12.587  11.206  70.995  1.00  0.00    -0.403 A  
HETATM    6  N   UNL     1     -12.686  12.475  71.396  1.00  0.00    -0.312 NA 
HETATM    7  C   UNL     1     -13.000  10.124  71.942  1.00  0.00    -0.549 C  
HETATM    8  C   UNL     1     -12.385  13.406  70.465  1.00  0.00    -0.329 A  
HETATM    9 CL   UNL     1     -12.593  15.017  71.060  1.00  0.00    -0.376 Cl 
HETATM   10  C   UNL     1     -12.020  13.174  69.147  1.00  0.00    -0.281 A  
BRANCH  10  11
HETATM   11  N   UNL     1     -11.692  14.221  68.276  1.00  0.00    -0.325 NA 
HETATM   12  H   UNL     1     -11.426  15.082  68.754  1.00  0.00     0.000 HD 
BRANCH  11  13
HETATM   13  C   UNL     1     -11.660  14.315  66.929  1.00  0.00    -0.387 A  
HETATM   14  N   UNL     1     -12.739  14.171  66.206  1.00  0.00    -0.487 NA 
HETATM   15  C   UNL     1     -12.275  14.309  64.800  1.00  0.00    -0.443 A  
HETATM   16  H   UNL     1     -13.691  14.000  66.534  1.00  0.00     0.000 HD 
HETATM   17  C   UNL     1     -10.788  14.665  64.855  1.00  0.00    -0.419 A  
HETATM   18  N   UNL     1     -10.518  14.644  66.272  1.00  0.00    -0.290 NA 
ENDBRANCH  11  13
ENDBRANCH  10  11
ENDBRANCH   2   3
TORSDOF 3
ENDMDL
MODEL       17
REMARK 921   NORMALIZED FREE ENERGY PREDICTED BY IDOCK:   -5.03 KCAL/MOL
REMARK 922        TOTAL FREE ENERGY PREDICTED BY IDOCK:   -6.32 KCAL/MOL
REMARK 923 INTER-LIGAND FREE ENERGY PREDICTED BY IDOCK:   -5.95 KCAL/MOL
REMARK 924 INTRA-LIGAND FREE ENERGY PREDICTED BY IDOCK:   -0.37 KCAL/MOL
REMARK 927      BINDING AFFINITY PREDICTED BY RF-SCORE:    0.00 PKD
ROOT
HETATM    1  C   UNL     1     -11.296  10.708  68.992  1.00  0.00    -0.277 C  
HETATM    2  O   UNL     1     -11.929  11.054  67.757  1.00  0.00    -0.609 OA 
ENDROOT
BRANCH   2   3
HETATM    3  C   UNL     1     -11.732  12.390  67.454  1.00  0.00    -0.347 A  
HETATM    4  N   UNL     1     -11.678  13.234  68.508  1.00  0.00    -0.332 NA 
HETATM    5  C   UNL     1     -11.697  14.544  68.243  1.00  0.00    -0.335 A  
HETATM    6  N   UNL     1     -11.776  15.055  67.012  1.00  0.00    -0.257 NA 
HETATM    7  C   UNL     1     -11.792  15.475  69.410  1.00  0.00    -0.392 C  
HETATM    8  C   UNL     1     -11.775  14.155  66.006  1.00  0.00    -0.382 A  
HETATM    9 CL   UNL     1     -11.933  14.907  64.456  1.00  0.00    -0.453 Cl 
HETATM   10  C   UNL     1     -11.734  12.774  66.127  1.00  0.00    -0.403 A  
BRANCH  10  11
HETATM   11  N   UNL     1     -11.700  11.934  65.007  1.00  0.00    -0.245 NA 
HETATM   12  H   UNL     1     -12.617  11.768  64.592  1.00  0.00     0.000 HD 
BRANCH  11  13
HETATM   13  C   UNL     1     -10.692  11.302  64.367  1.00  0.00    -0.339 A  
HETATM   14  N   UNL     1     -10.693  11.151  63.068  1.00  0.00    -0.818 NA 
HETATM   15  C   UNL     1      -9.451  10.387  62.775  1.00  0.00    -0.321 A  
HETATM   16  H   UNL     1     -11.391  11.483  62.403  1.00  0.00     0.000 HD 
HETATM   17  C   UNL     1      -8.700  10.233  64.099  1.00  0.00    -0.204 A  
HETATM   18  N   UNL     1      -9.595  10.865  65.037  1.00  0.00    -0.234 NA 
ENDBRANCH  11  13
ENDBRANCH  10  11
ENDBRANCH   2   3
TORSDOF 3
ENDMDL
MODEL       18
REMARK 921   NORMALIZED FREE ENERGY PREDICTED BY IDOCK:   -5.03 KCAL/MOL
REMARK 922        TOTAL FREE ENERGY PREDICTED BY IDOCK:   -6.32 KCAL/MOL
REMARK 923 INTER-LIGAND FREE ENERGY PREDICTED BY IDOCK:   -5.91 KCAL/MOL
REMARK 924 INTRA-LIGAND FREE ENERGY PREDICTED BY IDOCK:   -0.41 KCAL/MOL
REMARK 927      BINDING AFFINITY PREDICTED BY RF-SCORE:    0.00 PKD
ROOT
HETATM    1  C   UNL     1     -12.054  14.394  64.494  1.00  0.00    -0.481 C  
HETATM    2  O   UNL     1     -10.976  14.299  65.428  1.00  0.00    -0.306 OA 
ENDROOT
BRANCH   2   3
HETATM    3  C   UNL     1     -11.025  15.328  66.351  1.00  0.00    -0.299 A  
HETATM    4  N   UNL     1     -10.478  16.501  65.960  1.00  0.00    -0.328 NA 
HETATM    5  C   UNL     1     -10.324  17.445  66.894  1.00  0.00    -0.317 A  
HETATM    6  N   UNL     1     -10.667  17.290  68.174  1.00  0.00    -0.383 NA 
HETATM    7  C   UNL     1      -9.581  18.681  66.498  1.00  0.00    -0.351 C  
HETATM    8  C   UNL     1     -11.254  16.113  68.483  1.00  0.00    -0.365 A  
HETATM    9 CL   UNL     1     -11.612  15.985  70.171  1.00  0.00    -0.339 Cl 
HETATM   10  C   UNL     1     -11.500  15.057  67.620  1.00  0.00    -0.333 A  
BRANCH  10  11
HETATM   11  N   UNL     1     -12.152  13.893  68.044  1.00  0.00    -0.477 NA 
HETATM   12  H   UNL     1     -13.160  14.005  68.153  1.00  0.00     0.000 HD 
BRANCH  11  13
HETATM   13  C   UNL     1     -11.709  12.651  68.339  1.00  0.00    -0.333 A  
HETATM   14  N   UNL     1     -11.252  12.350  69.526  1.00  0.00    -0.461 NA 
HETATM   15  C   UNL     1     -10.842  10.924  69.425  1.00  0.00    -0.240 A  
HETATM   16  H   UNL     1     -11.190  12.959  70.343  1.00  0.00     0.000 HD 
HETATM   17  C   UNL     1     -11.245  10.443  68.029  1.00  0.00    -0.272 A  
HETATM   18  N   UNL     1     -11.794  11.639  67.437  1.00  0.00    -0.630 NA 
ENDBRANCH  11  13
ENDBRANCH  10  11
ENDBRANCH   2   3
TORSDOF 3
ENDMDL
MODEL       19
REMARK 921   NORMALIZED FREE ENERGY PREDICTED BY IDOCK:   -4.96 KCAL/MOL
REMARK 922        TOTAL FREE ENERGY PREDICTED BY IDOCK:   -6.24 KCAL/MOL
REMARK 923 INTER-LIGAND FREE ENERGY PREDICTED BY IDOCK:   -5.78 KCAL/MOL
REMARK 924 INTRA-LIGAND FREE ENERGY PREDICTED BY IDOCK:   -0.46 KCAL/MOL
REMARK 927      BINDING AFFINITY PREDICTED BY RF-SCORE:    0.00 PKD
ROOT
HETATM    1  C   UNL     1     -12.016  16.099  71.875  1.00  0.00    -0.507 C  
HETATM    2  O   UNL     1     -12.272  15.322  70.703  1.00  0.00    -0.309 OA 
ENDROOT
BRANCH   2   3
HETATM    3  C   UNL     1     -11.531  15.782  69.629  1.00  0.00    -0.346 A  
HETATM    4  N   UNL     1     -10.903  16.966  69.807  1.00  0.00    -0.183 NA 
HETATM    5  C   UNL     1     -10.355  17.535  68.729  1.00  0.00    -0.358 A  
HETATM    6  N   UNL     1     -10.401  17.009  67.503  1.00  0.00    -0.321 NA 
HETATM    7  C   UNL     1      -9.796  18.912  68.893  1.00  0.00    -0.447 C  
HETATM    8  C   UNL     1     -10.999  15.801  67.408  1.00  0.00    -0.279 A  
HETATM    9 CL   UNL     1     -11.058  15.227  65.778  1.00  0.00    -0.328 Cl 
HETATM   10  C   UNL     1     -11.587  15.083  68.438  1.00  0.00    -0.331 A  
BRANCH  10  11
HETATM   11  N   UNL     1     -12.147  13.817  68.230  1.00  0.00    -0.431 NA 
HETATM   12  H   UNL     1     -13.046  13.841  67.748  1.00  0.00     0.000 HD 
BRANCH  11  13
HETATM   13  C   UNL     1     -11.733  12.570  68.543  1.00  0.00    -0.324 A  
HETATM   14  N   UNL     1     -11.391  12.247  69.763  1.00  0.00    -0.494 NA 
HETATM   15  C   UNL     1     -10.971  10.823  69.674  1.00  0.00    -0.264 A  
HETATM   16  H   UNL     1     -11.408  12.840  70.592  1.00  0.00     0.000 HD 
HETATM   17  C   UNL     1     -11.237  10.368  68.238  1.00  0.00    -0.267 A  
HETATM   18  N   UNL     1     -11.728  11.575  67.618  1.00  0.00    -0.594 NA 
ENDBRANCH  11  13
ENDBRANCH  10  11
ENDBRANCH   2   3
TORSDOF 3
ENDMDL
MODEL       20
REMARK 921   NORMALIZED FREE ENERGY PREDICTED BY IDOCK:   -4.92 KCAL/MOL
REMARK 922        TOTAL FREE ENERGY PREDICTED BY IDOCK:   -6.20 KCAL/MOL
REMARK 923 INTER-LIGAND FREE ENERGY PREDICTED BY IDOCK:   -5.81 KCAL/MOL
REMARK 924 INTRA-LIGAND FREE ENERGY PREDICTED BY IDOCK:   -0.39 KCAL/MOL
REMARK 927      BINDING AFFINITY PREDICTED BY RF-SCORE:    0.00 PKD
ROOT
HETATM    1  C   UNL     1     -12.265  14.665  64.257  1.00  0.00    -0.408 C  
HETATM    2  O   UNL     1     -12.734  13.382  64.677  1.00  0.00    -0.637 OA 
ENDROOT
BRANCH   2   3
HETATM    3  C   UNL     1     -11.678  12.526  64.937  1.00  0.00    -0.359 A  
HETATM    4  N   UNL     1     -11.017  12.055  63.856  1.00  0.00    -0.362 NA 
HETATM    5  C   UNL     1     -10.134  11.074  64.060  1.00  0.00    -0.350 A  
HETATM    6  N   UNL     1      -9.879  10.536  65.254  1.00  0.00    -0.262 NA 
HETATM    7  C   UNL     1      -9.517  10.448  62.849  1.00  0.00    -0.354 C  
HETATM    8  C   UNL     1     -10.537  11.089  66.296  1.00  0.00    -0.237 A  
HETATM    9 CL   UNL     1     -10.183  10.292  67.790  1.00  0.00    -0.209 Cl 
HETATM   10  C   UNL     1     -11.459  12.123  66.240  1.00  0.00    -0.374 A  
BRANCH  10  11
HETATM   11  N   UNL     1     -12.054  12.645  67.396  1.00  0.00    -0.435 NA 
HETATM   12  H   UNL     1     -12.759  12.032  67.806  1.00  0.00     0.000 HD 
BRANCH  11  13
HETATM   13  C   UNL     1     -11.879  13.800  68.074  1.00  0.00    -0.373 A  
HETATM   14  N   UNL     1     -12.407  13.988  69.255  1.00  0.00    -0.472 NA 
HETATM   15  C   UNL     1     -12.014  15.372  69.630  1.00  0.00    -0.343 A  
HETATM   16  H   UNL     1     -12.965  13.330  69.800  1.00  0.00     0.000 HD 
HETATM   17  C   UNL     1     -11.092  15.889  68.524  1.00  0.00    -0.340 A  
HETATM   18  N   UNL     1     -11.082  14.788  67.592  1.00  0.00    -0.295 NA 
ENDBRANCH  11  13
ENDBRANCH  10  11
ENDBRANCH   2   3
TORSDOF 3
ENDMDL
MODEL       21
REMARK 921   NORMALIZED FREE ENERGY PREDICTED BY IDOCK:   -4.91 KCAL/MOL
REMARK 922        TOTAL FREE ENERGY PREDICTED BY IDOCK:   -6.18 KCAL/MOL
REMARK 923 INTER-LIGAND FREE ENERGY PREDICTED BY IDOCK:   -5.65 KCAL/MOL
REMARK 924 INTRA-LIGAND FREE ENERGY PREDICTED BY IDOCK:   -0.54 KCAL/MOL
REMARK 927      BINDING AFFINITY PREDICTED BY RF-SCORE:    0.00 PKD
ROOT
HETATM    1  C   UNL     1     -10.982  16.687  68.393  1.00  0.00    -0.345 C  
HETATM    2  O   UNL     1     -11.861  15.576  68.583  1.00  0.00    -0.362 OA 
ENDROOT
BRANCH   2   3
HETATM    3  C   UNL     1     -11.609  14.578  67.658  1.00  0.00    -0.378 A  
HETATM    4  N   UNL     1     -11.711  14.935  66.359  1.00  0.00    -0.256 NA 
HETATM    5  C   UNL     1     -11.678  13.955  65.451  1.00  0.00    -0.340 A  
HETATM    6  N   UNL     1     -11.561  12.660  65.755  1.00  0.00    -0.365 NA 
HETATM    7  C   UNL     1     -11.944  14.333  64.029  1.00  0.00    -0.328 C  
HETATM    8  C   UNL     1     -11.413  12.380  67.068  1.00  0.00    -0.358 A  
HETATM    9 CL   UNL     1     -11.323  10.679  67.368  1.00  0.00    -0.290 Cl 
HETATM   10  C   UNL     1     -11.402  13.290  68.115  1.00  0.00    -0.288 A  
BRANCH  10  11
HETATM   11  N   UNL     1     -11.202  12.888  69.441  1.00  0.00    -0.429 NA 
HETATM   12  H   UNL     1     -10.219  12.789  69.695  1.00  0.00     0.000 HD 
BRANCH  11  13
HETATM   13  C   UNL     1     -12.055  12.604  70.450  1.00  0.00    -0.300 A  
HETATM   14  N   UNL     1     -12.749  13.539  71.044  1.00  0.00    -0.340 NA 
HETATM   15  C   UNL     1     -13.519  12.827  72.099  1.00  0.00    -0.492 A  
HETATM   16  H   UNL     1     -12.761  14.537  70.831  1.00  0.00     0.000 HD 
HETATM   17  C   UNL     1     -13.231  11.334  71.930  1.00  0.00    -0.386 A  
HETATM   18  N   UNL     1     -12.286  11.324  70.839  1.00  0.00    -0.387 NA 
ENDBRANCH  11  13
ENDBRANCH  10  11
ENDBRANCH   2   3
TORSDOF 3
ENDMDL
MODEL       22
REMARK 921   NORMALIZED FREE ENERGY PREDICTED BY IDOCK:   -4.88 KCAL/MOL
REMARK 922        TOTAL FREE ENERGY PREDICTED BY IDOCK:   -6.15 KCAL/MOL
REMARK 923 INTER-LIGAND FREE ENERGY PREDICTED BY IDOCK:   -5.78 KCAL/MOL
REMARK 924 INTRA-LIGAND FREE ENERGY PREDICTED BY IDOCK:   -0.36 KCAL/MOL
REMARK 927      BINDING AFFINITY PREDICTED BY RF-SCORE:    0.00 PKD
ROOT
HETATM    1  C   UNL     1     -13.590  13.713  72.564  1.00  0.00    -0.570 C  
HETATM    2  O   UNL     1     -13.297  12.441  71.982  1.00  0.00    -0.507 OA 
ENDROOT
BRANCH   2   3
HETATM    3  C   UNL     1     -12.547  12.582  70.827  1.00  0.00    -0.212 A  
HETATM    4  N   UNL     1     -12.272  13.851  70.452  1.00  0.00    -0.347 NA 
HETATM    5  C   UNL     1     -11.734  14.026  69.241  1.00  0.00    -0.326 A  
HETATM    6  N   UNL     1     -11.466  13.032  68.392  1.00  0.00    -0.286 NA 
HETATM    7  C   UNL     1     -11.571  15.435  68.764  1.00  0.00    -0.382 C  
HETATM    8  C   UNL     1     -11.719  11.787  68.853  1.00  0.00    -0.323 A  
HETATM    9 CL   UNL     1     -11.392  10.572  67.667  1.00  0.00    -0.336 Cl 
HETATM   10  C   UNL     1     -12.251  11.452  70.089  1.00  0.00    -0.321 A  
BRANCH  10  11
HETATM   11  N   UNL     1     -12.436  10.119  70.477  1.00  0.00    -0.456 NA 
HETATM   12  H   UNL     1     -13.239   9.672  70.034  1.00  0.00     0.000 HD 
BRANCH  11  13
HETATM   13  C   UNL     1     -11.761   9.309  71.321  1.00  0.00    -0.346 A  
HETATM   14  N   UNL     1     -12.365   8.365  71.994  1.00  0.00    -0.339 NA 
HETATM   15  C   UNL     1     -11.295   7.741  72.816  1.00  0.00    -0.389 A  
HETATM   16  H   UNL     1     -13.353   8.111  71.962  1.00  0.00     0.000 HD 
HETATM   17  C   UNL     1      -9.978   8.409  72.415  1.00  0.00    -0.310 A  
HETATM   18  N   UNL     1     -10.412   9.389  71.448  1.00  0.00    -0.331 NA 
ENDBRANCH  11  13
ENDBRANCH  10  11
ENDBRANCH   2   3
TORSDOF 3
ENDMDL
MODEL       23
REMARK 921   NORMALIZED FREE ENERGY PREDICTED BY IDOCK:   -4.87 KCAL/MOL
REMARK 922        TOTAL FREE ENERGY PREDICTED BY IDOCK:   -6.13 KCAL/MOL
REMARK 923 INTER-LIGAND FREE ENERGY PREDICTED BY IDOCK:   -5.75 KCAL/MOL
REMARK 924 INTRA-LIGAND FREE ENERGY PREDICTED BY IDOCK:   -0.38 KCAL/MOL
REMARK 927      BINDING AFFINITY PREDICTED BY RF-SCORE:    0.00 PKD
ROOT
HETATM    1  C   UNL     1     -10.465  16.881  69.469  1.00  0.00    -0.228 C  
HETATM    2  O   UNL     1     -11.571  16.068  69.071  1.00  0.00    -0.367 OA 
ENDROOT
BRANCH   2   3
HETATM    3  C   UNL     1     -12.088  15.369  70.148  1.00  0.00    -0.369 A  
HETATM    4  N   UNL     1     -12.214  16.065  71.300  1.00  0.00    -0.411 NA 
HETATM    5  C   UNL     1     -12.512  15.372  72.403  1.00  0.00    -0.379 A  
HETATM    6  N   UNL     1     -12.680  14.048  72.429  1.00  0.00    -0.280 NA 
HETATM    7  C   UNL     1     -12.500  16.116  73.701  1.00  0.00    -0.684 C  
HETATM    8  C   UNL     1     -12.591  13.425  71.235  1.00  0.00    -0.322 A  
HETATM    9 CL   UNL     1     -12.770  11.710  71.378  1.00  0.00    -0.483 Cl 
HETATM   10  C   UNL     1     -12.313  14.013  70.010  1.00  0.00    -0.337 A  
BRANCH  10  11
HETATM   11  N   UNL     1     -12.282  13.270  68.824  1.00  0.00    -0.200 NA 
HETATM   12  H   UNL     1     -13.136  13.345  68.271  1.00  0.00     0.000 HD 
BRANCH  11  13
HETATM   13  C   UNL     1     -11.344  12.473  68.268  1.00  0.00    -0.286 A  
HETATM   14  N   UNL     1     -10.082  12.569  68.594  1.00  0.00    -0.378 NA 
HETATM   15  C   UNL     1      -9.393  11.560  67.746  1.00  0.00    -0.168 A  
HETATM   16  H   UNL     1      -9.662  13.197  69.280  1.00  0.00     0.000 HD 
HETATM   17  C   UNL     1     -10.480  10.808  66.976  1.00  0.00    -0.247 A  
HETATM   18  N   UNL     1     -11.682  11.483  67.402  1.00  0.00    -0.609 NA 
ENDBRANCH  11  13
ENDBRANCH  10  11
ENDBRANCH   2   3
TORSDOF 3
ENDMDL
MODEL       24
REMARK 921   NORMALIZED FREE ENERGY PREDICTED BY IDOCK:   -4.86 KCAL/MOL
REMARK 922        TOTAL FREE ENERGY PREDICTED BY IDOCK:   -6.13 KCAL/MOL
REMARK 923 INTER-LIGAND FREE ENERGY PREDICTED BY IDOCK:   -5.73 KCAL/MOL
REMARK 924 INTRA-LIGAND FREE ENERGY PREDICTED BY IDOCK:   -0.40 KCAL/MOL
REMARK 927      BINDING AFFINITY PREDICTED BY RF-SCORE:    0.00 PKD
ROOT
HETATM    1  C   UNL     1     -12.284  12.057  63.596  1.00  0.00    -0.538 C  
HETATM    2  O   UNL     1     -12.952  12.391  64.815  1.00  0.00    -0.786 OA 
ENDROOT
BRANCH   2   3
HETATM    3  C   UNL     1     -12.200  13.274  65.570  1.00  0.00    -0.457 A  
HETATM    4  N   UNL     1     -12.040  14.511  65.049  1.00  0.00    -0.398 NA 
HETATM    5  C   UNL     1     -11.156  15.316  65.646  1.00  0.00    -0.308 A  
HETATM    6  N   UNL     1     -10.426  14.965  66.707  1.00  0.00    -0.279 NA 
HETATM    7  C   UNL     1     -10.866  16.624  64.981  1.00  0.00    -0.190 C  
HETATM    8  C   UNL     1     -10.675  13.735  67.206  1.00  0.00    -0.283 A  
HETATM    9 CL   UNL     1      -9.647  13.352  68.543  1.00  0.00    -0.186 Cl 
HETATM   10  C   UNL     1     -11.576  12.805  66.710  1.00  0.00    -0.370 A  
BRANCH  10  11
HETATM   11  N   UNL     1     -11.779  11.568  67.333  1.00  0.00    -0.609 NA 
HETATM   12  H   UNL     1     -12.658  11.508  67.848  1.00  0.00     0.000 HD 
BRANCH  11  13
HETATM   13  C   UNL     1     -11.041  10.438  67.388  1.00  0.00    -0.226 A  
HETATM   14  N   UNL     1     -11.037   9.672  68.447  1.00  0.00    -0.481 NA 
HETATM   15  C   UNL     1     -10.088   8.575  68.119  1.00  0.00    -0.200 A  
HETATM   16  H   UNL     1     -11.568   9.798  69.309  1.00  0.00     0.000 HD 
HETATM   17  C   UNL     1      -9.647   8.786  66.670  1.00  0.00    -0.220 A  
HETATM   18  N   UNL     1     -10.330  10.006  66.314  1.00  0.00    -0.200 NA 
ENDBRANCH  11  13
ENDBRANCH  10  11
ENDBRANCH   2   3
TORSDOF 3
ENDMDL
MODEL       25
REMARK 921   NORMALIZED FREE ENERGY PREDICTED BY IDOCK:   -4.84 KCAL/MOL
REMARK 922        TOTAL FREE ENERGY PREDICTED BY IDOCK:   -6.10 KCAL/MOL
REMARK 923 INTER-LIGAND FREE ENERGY PREDICTED BY IDOCK:   -5.63 KCAL/MOL
REMARK 924 INTRA-LIGAND FREE ENERGY PREDICTED BY IDOCK:   -0.47 KCAL/MOL
REMARK 927      BINDING AFFINITY PREDICTED BY RF-SCORE:    0.00 PKD
ROOT
HETATM    1  C   UNL     1      -9.954   8.939  69.145  1.00  0.00    -0.190 C  
HETATM    2  O   UNL     1     -10.980   9.871  68.797  1.00  0.00    -0.223 OA 
ENDROOT
BRANCH   2   3
HETATM    3  C   UNL     1     -11.621  10.352  69.925  1.00  0.00    -0.284 A  
HETATM    4  N   UNL     1     -12.126   9.418  70.762  1.00  0.00    -0.247 NA 
HETATM    5  C   UNL     1     -12.925   9.847  71.744  1.00  0.00    -0.449 A  
HETATM    6  N   UNL     1     -13.251  11.127  71.935  1.00  0.00    -0.454 NA 
HETATM    7  C   UNL     1     -13.605   8.805  72.574  1.00  0.00    -0.416 C  
HETATM    8  C   UNL     1     -12.669  12.009  71.094  1.00  0.00    -0.266 A  
HETATM    9 CL   UNL     1     -13.194  13.632  71.384  1.00  0.00    -0.385 Cl 
HETATM   10  C   UNL     1     -11.806  11.715  70.049  1.00  0.00    -0.355 A  
BRANCH  10  11
HETATM   11  N   UNL     1     -11.231  12.719  69.262  1.00  0.00    -0.397 NA 
HETATM   12  H   UNL     1     -10.492  13.239  69.736  1.00  0.00     0.000 HD 
BRANCH  11  13
HETATM   13  C   UNL     1     -11.461  13.136  67.998  1.00  0.00    -0.311 A  
HETATM   14  N   UNL     1     -11.995  12.347  67.102  1.00  0.00    -0.549 NA 
HETATM   15  C   UNL     1     -12.043  13.162  65.859  1.00  0.00    -0.444 A  
HETATM   16  H   UNL     1     -12.309  11.384  67.228  1.00  0.00     0.000 HD 
HETATM   17  C   UNL     1     -11.556  14.565  66.227  1.00  0.00    -0.360 A  
HETATM   18  N   UNL     1     -11.220  14.419  67.623  1.00  0.00    -0.300 NA 
ENDBRANCH  11  13
ENDBRANCH  10  11
ENDBRANCH   2   3
TORSDOF 3
ENDMDL
MODEL       26
REMARK 921   NORMALIZED FREE ENERGY PREDICTED BY IDOCK:   -4.81 KCAL/MOL
REMARK 922        TOTAL FREE ENERGY PREDICTED BY IDOCK:   -6.07 KCAL/MOL
REMARK 923 INTER-LIGAND FREE ENERGY PREDICTED BY IDOCK:   -5.63 KCAL/MOL
REMARK 924 INTRA-LIGAND FREE ENERGY PREDICTED BY IDOCK:   -0.44 KCAL/MOL
REMARK 927      BINDING AFFINITY PREDICTED BY RF-SCORE:    0.00 PKD
ROOT
HETATM    1  C   UNL     1     -10.557  19.554  65.976  1.00  0.00    -0.491 C  
HETATM    2  O   UNL     1     -11.006  19.045  67.234  1.00  0.00    -0.459 OA 
ENDROOT
BRANCH   2   3
HETATM    3  C   UNL     1      -9.948  18.562  67.983  1.00  0.00    -0.355 A  
HETATM    4  N   UNL     1      -8.956  19.442  68.243  1.00  0.00    -0.326 NA 
HETATM    5  C   UNL     1      -7.833  18.956  68.781  1.00  0.00    -0.324 A  
HETATM    6  N   UNL     1      -7.639  17.666  69.063  1.00  0.00    -0.209 NA 
HETATM    7  C   UNL     1      -6.682  19.900  68.925  1.00  0.00    -0.357 C  
HETATM    8  C   UNL     1      -8.690  16.852  68.826  1.00  0.00    -0.248 A  
HETATM    9 CL   UNL     1      -8.326  15.197  69.171  1.00  0.00    -0.211 Cl 
HETATM   10  C   UNL     1      -9.919  17.216  68.296  1.00  0.00    -0.300 A  
BRANCH  10  11
HETATM   11  N   UNL     1     -10.955  16.289  68.128  1.00  0.00    -0.343 NA 
HETATM   12  H   UNL     1     -11.590  16.235  68.925  1.00  0.00     0.000 HD 
BRANCH  11  13
HETATM   13  C   UNL     1     -11.279  15.452  67.119  1.00  0.00    -0.256 A  
HETATM   14  N   UNL     1     -12.178  14.514  67.268  1.00  0.00    -0.581 NA 
HETATM   15  C   UNL     1     -12.209  13.807  65.960  1.00  0.00    -0.457 A  
HETATM   16  H   UNL     1     -12.735  14.312  68.098  1.00  0.00     0.000 HD 
HETATM   17  C   UNL     1     -11.269  14.565  65.021  1.00  0.00    -0.382 A  
HETATM   18  N   UNL     1     -10.741  15.597  65.880  1.00  0.00    -0.331 NA 
ENDBRANCH  11  13
ENDBRANCH  10  11
ENDBRANCH   2   3
TORSDOF 3
ENDMDL
MODEL       27
REMARK 921   NORMALIZED FREE ENERGY PREDICTED BY IDOCK:   -4.79 KCAL/MOL
REMARK 922        TOTAL FREE ENERGY PREDICTED BY IDOCK:   -6.04 KCAL/MOL
REMARK 923 INTER-LIGAND FREE ENERGY PREDICTED BY IDOCK:   -5.85 KCAL/MOL
REMARK 924 INTRA-LIGAND FREE ENERGY PREDICTED BY IDOCK:   -0.20 KCAL/MOL
REMARK 927      BINDING AFFINITY PREDICTED BY RF-SCORE:    0.00 PKD
ROOT
HETATM    1  C   UNL     1     -12.633  11.317  71.324  1.00  0.00    -0.382 C  
HETATM    2  O   UNL     1     -13.508  12.446  71.256  1.00  0.00     0.022 OA 
ENDROOT
BRANCH   2   3
HETATM    3  C   UNL     1     -12.808  13.628  71.418  1.00  0.00    -0.360 A  
HETATM    4  N   UNL     1     -12.822  14.159  72.661  1.00  0.00    -0.373 NA 
HETATM    5  C   UNL     1     -12.336  15.396  72.803  1.00  0.00    -0.407 A  
HETATM    6  N   UNL     1     -11.852  16.127  71.796  1.00  0.00    -0.503 NA 
HETATM    7  C   UNL     1     -12.492  16.041  74.143  1.00  0.00    -0.748 C  
HETATM    8  C   UNL     1     -11.821  15.515  70.593  1.00  0.00    -0.365 A  
HETATM    9 CL   UNL     1     -11.230  16.557  69.345  1.00  0.00    -0.251 Cl 
HETATM   10  C   UNL     1     -12.266  14.234  70.301  1.00  0.00    -0.342 A  
BRANCH  10  11
HETATM   11  N   UNL     1     -12.149  13.686  69.018  1.00  0.00    -0.340 NA 
HETATM   12  H   UNL     1     -12.784  14.102  68.336  1.00  0.00     0.000 HD 
BRANCH  11  13
HETATM   13  C   UNL     1     -11.362  12.716  68.505  1.00  0.00    -0.296 A  
HETATM   14  N   UNL     1     -10.109  12.592  68.857  1.00  0.00    -0.428 NA 
HETATM   15  C   UNL     1      -9.601  11.449  68.053  1.00  0.00    -0.183 A  
HETATM   16  H   UNL     1      -9.594  13.155  69.533  1.00  0.00     0.000 HD 
HETATM   17  C   UNL     1     -10.793  10.882  67.280  1.00  0.00    -0.287 A  
HETATM   18  N   UNL     1     -11.860  11.776  67.660  1.00  0.00    -0.603 NA 
ENDBRANCH  11  13
ENDBRANCH  10  11
ENDBRANCH   2   3
TORSDOF 3
ENDMDL
MODEL       28
REMARK 921   NORMALIZED FREE ENERGY PREDICTED BY IDOCK:   -4.76 KCAL/MOL
REMARK 922        TOTAL FREE ENERGY PREDICTED BY IDOCK:   -6.01 KCAL/MOL
REMARK 923 INTER-LIGAND FREE ENERGY PREDICTED BY IDOCK:   -5.61 KCAL/MOL
REMARK 924 INTRA-LIGAND FREE ENERGY PREDICTED BY IDOCK:   -0.40 KCAL/MOL
REMARK 927      BINDING AFFINITY PREDICTED BY RF-SCORE:    0.00 PKD
ROOT
HETATM    1  C   UNL     1     -10.630  18.931  66.025  1.00  0.00    -0.403 C  
HETATM    2  O   UNL     1     -10.298  17.706  65.367  1.00  0.00    -0.617 OA 
ENDROOT
BRANCH   2   3
HETATM    3  C   UNL     1      -9.270  17.051  66.022  1.00  0.00    -0.142 A  
HETATM    4  N   UNL     1      -8.089  17.706  66.075  1.00  0.00    -0.527 NA 
HETATM    5  C   UNL     1      -7.029  17.020  66.514  1.00  0.00    -0.256 A  
HETATM    6  N   UNL     1      -7.073  15.740  66.889  1.00  0.00    -0.220 NA 
HETATM    7  C   UNL     1      -5.697  17.694  66.429  1.00  0.00    -0.241 C  
HETATM    8  C   UNL     1      -8.294  15.163  66.858  1.00  0.00    -0.232 A  
HETATM    9 CL   UNL     1      -8.240  13.494  67.308  1.00  0.00    -0.181 Cl 
HETATM   10  C   UNL     1      -9.481  15.755  66.452  1.00  0.00    -0.297 A  
BRANCH  10  11
HETATM   11  N   UNL     1     -10.701  15.069  66.498  1.00  0.00    -0.306 NA 
HETATM   12  H   UNL     1     -11.235  15.241  67.350  1.00  0.00     0.000 HD 
BRANCH  11  13
HETATM   13  C   UNL     1     -11.310  14.226  65.637  1.00  0.00    -0.317 A  
HETATM   14  N   UNL     1     -11.204  14.373  64.342  1.00  0.00    -0.606 NA 
HETATM   15  C   UNL     1     -12.035  13.283  63.767  1.00  0.00    -0.491 A  
HETATM   16  H   UNL     1     -10.669  15.080  63.837  1.00  0.00     0.000 HD 
HETATM   17  C   UNL     1     -12.532  12.435  64.940  1.00  0.00    -0.361 A  
HETATM   18  N   UNL     1     -11.995  13.139  66.079  1.00  0.00    -0.412 NA 
ENDBRANCH  11  13
ENDBRANCH  10  11
ENDBRANCH   2   3
TORSDOF 3
ENDMDL
MODEL       29
REMARK 921   NORMALIZED FREE ENERGY PREDICTED BY IDOCK:   -4.74 KCAL/MOL
REMARK 922        TOTAL FREE ENERGY PREDICTED BY IDOCK:   -5.98 KCAL/MOL
REMARK 923 INTER-LIGAND FREE ENERGY PREDICTED BY IDOCK:   -5.86 KCAL/MOL
REMARK 924 INTRA-LIGAND FREE ENERGY PREDICTED BY IDOCK:   -0.12 KCAL/MOL
REMARK 927      BINDING AFFINITY PREDICTED BY RF-SCORE:    0.00 PKD
ROOT
HETATM    1  C   UNL     1     -10.991  10.394  67.892  1.00  0.00    -0.297 C  
HETATM    2  O   UNL     1     -11.397  10.417  69.262  1.00  0.00    -0.237 OA 
ENDROOT
BRANCH   2   3
HETATM    3  C   UNL     1     -11.909  11.655  69.610  1.00  0.00    -0.352 A  
HETATM    4  N   UNL     1     -11.644  12.667  68.753  1.00  0.00    -0.291 NA 
HETATM    5  C   UNL     1     -11.943  13.904  69.159  1.00  0.00    -0.363 A  
HETATM    6  N   UNL     1     -12.473  14.191  70.350  1.00  0.00    -0.349 NA 
HETATM    7  C   UNL     1     -11.510  15.034  68.279  1.00  0.00    -0.349 C  
HETATM    8  C   UNL     1     -12.759  13.129  71.133  1.00  0.00    -0.300 A  
HETATM    9 CL   UNL     1     -13.390  13.602  72.672  1.00  0.00    -0.631 Cl 
HETATM   10  C   UNL     1     -12.528  11.793  70.837  1.00  0.00    -0.318 A  
BRANCH  10  11
HETATM   11  N   UNL     1     -12.902  10.767  71.714  1.00  0.00    -0.447 NA 
HETATM   12  H   UNL     1     -13.450  11.090  72.511  1.00  0.00     0.000 HD 
BRANCH  11  13
HETATM   13  C   UNL     1     -12.679   9.435  71.711  1.00  0.00    -0.390 A  
HETATM   14  N   UNL     1     -13.487   8.606  71.105  1.00  0.00    -0.539 NA 
HETATM   15  C   UNL     1     -12.915   7.258  71.368  1.00  0.00    -0.373 A  
HETATM   16  H   UNL     1     -14.326   8.833  70.571  1.00  0.00     0.000 HD 
HETATM   17  C   UNL     1     -11.600   7.471  72.120  1.00  0.00    -0.298 A  
HETATM   18  N   UNL     1     -11.561   8.906  72.272  1.00  0.00    -0.325 NA 
ENDBRANCH  11  13
ENDBRANCH  10  11
ENDBRANCH   2   3
TORSDOF 3
ENDMDL
MODEL       30
REMARK 921   NORMALIZED FREE ENERGY PREDICTED BY IDOCK:   -4.73 KCAL/MOL
REMARK 922        TOTAL FREE ENERGY PREDICTED BY IDOCK:   -5.98 KCAL/MOL
REMARK 923 INTER-LIGAND FREE ENERGY PREDICTED BY IDOCK:   -5.59 KCAL/MOL
REMARK 924 INTRA-LIGAND FREE ENERGY PREDICTED BY IDOCK:   -0.39 KCAL/MOL
REMARK 927      BINDING AFFINITY PREDICTED BY RF-SCORE:    0.00 PKD
ROOT
HETATM    1  C   UNL     1     -10.062  18.197  68.503  1.00  0.00    -0.400 C  
HETATM    2  O   UNL     1     -10.996  17.117  68.579  1.00  0.00    -0.317 OA 
ENDROOT
BRANCH   2   3
HETATM    3  C   UNL     1     -10.347  15.895  68.563  1.00  0.00    -0.232 A  
HETATM    4  N   UNL     1      -9.038  15.924  68.224  1.00  0.00    -0.182 NA 
HETATM    5  C   UNL     1      -8.440  14.750  67.999  1.00  0.00    -0.151 A  
HETATM    6  N   UNL     1      -9.058  13.570  68.081  1.00  0.00    -0.195 NA 
HETATM    7  C   UNL     1      -7.040  14.788  67.475  1.00  0.00    -0.209 C  
HETATM    8  C   UNL     1     -10.349  13.613  68.475  1.00  0.00    -0.243 A  
HETATM    9 CL   UNL     1     -11.078  12.045  68.500  1.00  0.00    -0.262 Cl 
HETATM   10  C   UNL     1     -11.091  14.749  68.765  1.00  0.00    -0.265 A  
BRANCH  10  11
HETATM   11  N   UNL     1     -12.419  14.671  69.203  1.00  0.00    -0.577 NA 
HETATM   12  H   UNL     1     -13.095  14.577  68.444  1.00  0.00     0.000 HD 
BRANCH  11  13
HETATM   13  C   UNL     1     -12.981  14.698  70.431  1.00  0.00    -0.200 A  
HETATM   14  N   UNL     1     -13.901  15.573  70.744  1.00  0.00    -0.865 NA 
HETATM   15  C   UNL     1     -14.222  15.291  72.169  1.00  0.00    -0.571 A  
HETATM   16  H   UNL     1     -14.308  16.291  70.145  1.00  0.00     0.000 HD 
HETATM   17  C   UNL     1     -13.420  14.051  72.569  1.00  0.00    -0.558 A  
HETATM   18  N   UNL     1     -12.672  13.766  71.369  1.00  0.00    -0.361 NA 
ENDBRANCH  11  13
ENDBRANCH  10  11
ENDBRANCH   2   3
TORSDOF 3
ENDMDL
MODEL       31
REMARK 921   NORMALIZED FREE ENERGY PREDICTED BY IDOCK:   -4.72 KCAL/MOL
REMARK 922        TOTAL FREE ENERGY PREDICTED BY IDOCK:   -5.96 KCAL/MOL
REMARK 923 INTER-LIGAND FREE ENERGY PREDICTED BY IDOCK:   -5.51 KCAL/MOL
REMARK 924 INTRA-LIGAND FREE ENERGY PREDICTED BY IDOCK:   -0.45 KCAL/MOL
REMARK 927      BINDING AFFINITY PREDICTED BY RF-SCORE:    0.00 PKD
ROOT
HETATM    1  C   UNL     1     -10.166  14.518  65.484  1.00  0.00    -0.370 C  
HETATM    2  O   UNL     1     -11.424  14.802  66.101  1.00  0.00    -0.347 OA 
ENDROOT
BRANCH   2   3
HETATM    3  C   UNL     1     -11.426  14.415  67.429  1.00  0.00    -0.358 A  
HETATM    4  N   UNL     1     -11.538  13.088  67.660  1.00  0.00    -0.333 NA 
HETATM    5  C   UNL     1     -11.751  12.703  68.922  1.00  0.00    -0.325 A  
HETATM    6  N   UNL     1     -11.864  13.547  69.950  1.00  0.00    -0.317 NA 
HETATM    7  C   UNL     1     -12.029  11.252  69.155  1.00  0.00    -0.405 C  
HETATM    8  C   UNL     1     -11.690  14.853  69.655  1.00  0.00    -0.320 A  
HETATM    9 CL   UNL     1     -11.908  15.870  71.037  1.00  0.00    -0.439 Cl 
HETATM   10  C   UNL     1     -11.440  15.395  68.403  1.00  0.00    -0.355 A  
BRANCH  10  11
HETATM   11  N   UNL     1     -11.238  16.769  68.220  1.00  0.00    -0.267 NA 
HETATM   12  H   UNL     1     -12.084  17.276  67.962  1.00  0.00     0.000 HD 
BRANCH  11  13
HETATM   13  C   UNL     1     -10.143  17.554  68.318  1.00  0.00    -0.346 A  
HETATM   14  N   UNL     1     -10.179  18.707  68.932  1.00  0.00    -0.475 NA 
HETATM   15  C   UNL     1      -8.806  19.258  68.785  1.00  0.00    -0.346 A  
HETATM   16  H   UNL     1     -10.975  19.135  69.407  1.00  0.00     0.000 HD 
HETATM   17  C   UNL     1      -7.967  18.184  68.091  1.00  0.00    -0.283 A  
HETATM   18  N   UNL     1      -8.936  17.143  67.850  1.00  0.00    -0.226 NA 
ENDBRANCH  11  13
ENDBRANCH  10  11
ENDBRANCH   2   3
TORSDOF 3
ENDMDL
MODEL       32
REMARK 921   NORMALIZED FREE ENERGY PREDICTED BY IDOCK:   -4.71 KCAL/MOL
REMARK 922        TOTAL FREE ENERGY PREDICTED BY IDOCK:   -5.94 KCAL/MOL
REMARK 923 INTER-LIGAND FREE ENERGY PREDICTED BY IDOCK:   -5.42 KCAL/MOL
REMARK 924 INTRA-LIGAND FREE ENERGY PREDICTED BY IDOCK:   -0.53 KCAL/MOL
REMARK 927      BINDING AFFINITY PREDICTED BY RF-SCORE:    0.00 PKD
ROOT
HETATM    1  C   UNL     1     -11.393  15.064  68.567  1.00  0.00    -0.303 C  
HETATM    2  O   UNL     1     -11.079  13.790  69.135  1.00  0.00    -0.252 OA 
ENDROOT
BRANCH   2   3
HETATM    3  C   UNL     1     -12.023  13.418  70.077  1.00  0.00    -0.337 A  
HETATM    4  N   UNL     1     -12.654  14.430  70.714  1.00  0.00    -0.338 NA 
HETATM    5  C   UNL     1     -13.413  14.110  71.766  1.00  0.00    -0.390 A  
HETATM    6  N   UNL     1     -13.572  12.865  72.220  1.00  0.00    -0.565 NA 
HETATM    7  C   UNL     1     -13.986  15.238  72.563  1.00  0.00    -0.609 C  
HETATM    8  C   UNL     1     -12.954  11.899  71.505  1.00  0.00    -0.323 A  
HETATM    9 CL   UNL     1     -13.174  10.330  72.199  1.00  0.00    -0.522 Cl 
HETATM   10  C   UNL     1     -12.158  12.078  70.383  1.00  0.00    -0.321 A  
BRANCH  10  11
HETATM   11  N   UNL     1     -11.596  10.995  69.696  1.00  0.00    -0.287 NA 
HETATM   12  H   UNL     1     -12.231  10.562  69.026  1.00  0.00     0.000 HD 
BRANCH  11  13
HETATM   13  C   UNL     1     -10.380  10.411  69.747  1.00  0.00    -0.208 A  
HETATM   14  N   UNL     1      -9.325  10.977  69.220  1.00  0.00    -0.409 NA 
HETATM   15  C   UNL     1      -8.219  10.011  69.455  1.00  0.00    -0.167 A  
HETATM   16  H   UNL     1      -9.273  11.881  68.750  1.00  0.00     0.000 HD 
HETATM   17  C   UNL     1      -8.796   8.869  70.295  1.00  0.00    -0.175 A  
HETATM   18  N   UNL     1     -10.183   9.247  70.418  1.00  0.00    -0.214 NA 
ENDBRANCH  11  13
ENDBRANCH  10  11
ENDBRANCH   2   3
TORSDOF 3
ENDMDL
MODEL       33
REMARK 921   NORMALIZED FREE ENERGY PREDICTED BY IDOCK:   -4.69 KCAL/MOL
REMARK 922        TOTAL FREE ENERGY PREDICTED BY IDOCK:   -5.92 KCAL/MOL
REMARK 923 INTER-LIGAND FREE ENERGY PREDICTED BY IDOCK:   -5.50 KCAL/MOL
REMARK 924 INTRA-LIGAND FREE ENERGY PREDICTED BY IDOCK:   -0.42 KCAL/MOL
REMARK 927      BINDING AFFINITY PREDICTED BY RF-SCORE:    0.00 PKD
ROOT
HETATM    1  C   UNL     1     -12.320  12.378  64.575  1.00  0.00    -0.438 C  
HETATM    2  O   UNL     1     -11.880  13.288  65.586  1.00  0.00    -0.344 OA 
ENDROOT
BRANCH   2   3
HETATM    3  C   UNL     1     -11.592  12.623  66.764  1.00  0.00    -0.374 A  
HETATM    4  N   UNL     1     -11.179  11.342  66.635  1.00  0.00    -0.327 NA 
HETATM    5  C   UNL     1     -11.093  10.613  67.752  1.00  0.00    -0.321 A  
HETATM    6  N   UNL     1     -11.399  11.072  68.968  1.00  0.00    -0.251 NA 
HETATM    7  C   UNL     1     -10.786   9.158  67.595  1.00  0.00    -0.257 C  
HETATM    8  C   UNL     1     -11.755  12.373  69.028  1.00  0.00    -0.323 A  
HETATM    9 CL   UNL     1     -12.182  12.860  70.632  1.00  0.00    -0.444 Cl 
HETATM   10  C   UNL     1     -11.863  13.254  67.963  1.00  0.00    -0.355 A  
BRANCH  10  11
HETATM   11  N   UNL     1     -12.207  14.599  68.149  1.00  0.00    -0.596 NA 
HETATM   12  H   UNL     1     -13.213  14.769  68.143  1.00  0.00     0.000 HD 
BRANCH  11  13
HETATM   13  C   UNL     1     -11.469  15.715  68.333  1.00  0.00    -0.369 A  
HETATM   14  N   UNL     1     -11.227  16.187  69.528  1.00  0.00    -0.334 NA 
HETATM   15  C   UNL     1     -10.428  17.420  69.295  1.00  0.00    -0.171 A  
HETATM   16  H   UNL     1     -11.522  15.796  70.424  1.00  0.00     0.000 HD 
HETATM   17  C   UNL     1     -10.166  17.502  67.790  1.00  0.00    -0.349 A  
HETATM   18  N   UNL     1     -10.879  16.352  67.289  1.00  0.00    -0.251 NA 
ENDBRANCH  11  13
ENDBRANCH  10  11
ENDBRANCH   2   3
TORSDOF 3
ENDMDL
MODEL       34
REMARK 921   NORMALIZED FREE ENERGY PREDICTED BY IDOCK:   -4.68 KCAL/MOL
REMARK 922        TOTAL FREE ENERGY PREDICTED BY IDOCK:   -5.92 KCAL/MOL
REMARK 923 INTER-LIGAND FREE ENERGY PREDICTED BY IDOCK:   -5.62 KCAL/MOL
REMARK 924 INTRA-LIGAND FREE ENERGY PREDICTED BY IDOCK:   -0.30 KCAL/MOL
REMARK 927      BINDING AFFINITY PREDICTED BY RF-SCORE:    0.00 PKD
ROOT
HETATM    1  C   UNL     1     -10.642  19.586  65.943  1.00  0.00    -0.476 C  
HETATM    2  O   UNL     1     -10.926  19.238  67.300  1.00  0.00    -0.483 OA 
ENDROOT
BRANCH   2   3
HETATM    3  C   UNL     1      -9.792  18.773  67.943  1.00  0.00    -0.341 A  
HETATM    4  N   UNL     1      -8.755  19.638  68.012  1.00  0.00    -0.316 NA 
HETATM    5  C   UNL     1      -7.584  19.154  68.438  1.00  0.00    -0.312 A  
HETATM    6  N   UNL     1      -7.385  17.880  68.785  1.00  0.00    -0.272 NA 
HETATM    7  C   UNL     1      -6.402  20.068  68.370  1.00  0.00    -0.313 C  
HETATM    8  C   UNL     1      -8.476  17.086  68.740  1.00  0.00    -0.237 A  
HETATM    9 CL   UNL     1      -8.109  15.447  69.153  1.00  0.00    -0.215 Cl 
HETATM   10  C   UNL     1      -9.754  17.452  68.344  1.00  0.00    -0.304 A  
BRANCH  10  11
HETATM   11  N   UNL     1     -10.824  16.549  68.373  1.00  0.00    -0.335 NA 
HETATM   12  H   UNL     1     -11.179  16.305  67.449  1.00  0.00     0.000 HD 
BRANCH  11  13
HETATM   13  C   UNL     1     -11.478  15.938  69.385  1.00  0.00    -0.351 A  
HETATM   14  N   UNL     1     -12.227  14.886  69.179  1.00  0.00    -0.559 NA 
HETATM   15  C   UNL     1     -12.784  14.550  70.517  1.00  0.00    -0.345 A  
HETATM   16  H   UNL     1     -12.394  14.402  68.296  1.00  0.00     0.000 HD 
HETATM   17  C   UNL     1     -12.142  15.510  71.520  1.00  0.00    -0.393 A  
HETATM   18  N   UNL     1     -11.324  16.342  70.672  1.00  0.00    -0.369 NA 
ENDBRANCH  11  13
ENDBRANCH  10  11
ENDBRANCH   2   3
TORSDOF 3
ENDMDL
MODEL       35
REMARK 921   NORMALIZED FREE ENERGY PREDICTED BY IDOCK:   -4.66 KCAL/MOL
REMARK 922        TOTAL FREE ENERGY PREDICTED BY IDOCK:   -5.89 KCAL/MOL
REMARK 923 INTER-LIGAND FREE ENERGY PREDICTED BY IDOCK:   -5.65 KCAL/MOL
REMARK 924 INTRA-LIGAND FREE ENERGY PREDICTED BY IDOCK:   -0.24 KCAL/MOL
REMARK 927      BINDING AFFINITY PREDICTED BY RF-SCORE:    0.00 PKD
ROOT
HETATM    1  C   UNL     1     -14.407   8.807  72.208  1.00  0.00    -0.380 C  
HETATM    2  O   UNL     1     -13.148   8.755  71.533  1.00  0.00    -0.330 OA 
ENDROOT
BRANCH   2   3
HETATM    3  C   UNL     1     -12.691  10.026  71.233  1.00  0.00    -0.399 A  
HETATM    4  N   UNL     1     -13.184  11.028  71.995  1.00  0.00    -0.459 NA 
HETATM    5  C   UNL     1     -12.926  12.279  71.602  1.00  0.00    -0.311 A  
HETATM    6  N   UNL     1     -12.225  12.587  70.508  1.00  0.00    -0.352 NA 
HETATM    7  C   UNL     1     -13.597  13.384  72.354  1.00  0.00    -0.708 C  
HETATM    8  C   UNL     1     -11.720  11.538  69.823  1.00  0.00    -0.353 A  
HETATM    9 CL   UNL     1     -10.876  12.033  68.397  1.00  0.00    -0.247 Cl 
HETATM   10  C   UNL     1     -11.884  10.194  70.125  1.00  0.00    -0.222 A  
BRANCH  10  11
HETATM   11  N   UNL     1     -11.280   9.187  69.361  1.00  0.00    -0.441 NA 
HETATM   12  H   UNL     1     -11.117   9.452  68.390  1.00  0.00     0.000 HD 
BRANCH  11  13
HETATM   13  C   UNL     1     -10.871   7.935  69.658  1.00  0.00    -0.176 A  
HETATM   14  N   UNL     1     -11.557   6.885  69.289  1.00  0.00    -0.581 NA 
HETATM   15  C   UNL     1     -10.800   5.726  69.833  1.00  0.00    -0.347 A  
HETATM   16  H   UNL     1     -12.422   6.864  68.748  1.00  0.00     0.000 HD 
HETATM   17  C   UNL     1      -9.525   6.286  70.467  1.00  0.00    -0.162 A  
HETATM   18  N   UNL     1      -9.688   7.708  70.284  1.00  0.00    -0.179 NA 
ENDBRANCH  11  13
ENDBRANCH  10  11
ENDBRANCH   2   3
TORSDOF 3
ENDMDL
MODEL       36
REMARK 921   NORMALIZED FREE ENERGY PREDICTED BY IDOCK:   -4.66 KCAL/MOL
REMARK 922        TOTAL FREE ENERGY PREDICTED BY IDOCK:   -5.89 KCAL/MOL
REMARK 923 INTER-LIGAND FREE ENERGY PREDICTED BY IDOCK:   -5.48 KCAL/MOL
REMARK 924 INTRA-LIGAND FREE ENERGY PREDICTED BY IDOCK:   -0.41 KCAL/MOL
REMARK 927      BINDING AFFINITY PREDICTED BY RF-SCORE:    0.00 PKD
ROOT
HETATM    1  C   UNL     1      -9.915   8.810  66.682  1.00  0.00    -0.285 C  
HETATM    2  O   UNL     1      -9.962  10.235  66.788  1.00  0.00    -0.192 OA 
ENDROOT
BRANCH   2   3
HETATM    3  C   UNL     1     -10.195  10.819  65.555  1.00  0.00    -0.266 A  
HETATM    4  N   UNL     1      -9.404  10.398  64.542  1.00  0.00    -0.238 NA 
HETATM    5  C   UNL     1      -9.462  11.084  63.397  1.00  0.00    -0.310 A  
HETATM    6  N   UNL     1     -10.239  12.152  63.206  1.00  0.00    -0.394 NA 
HETATM    7  C   UNL     1      -8.479  10.716  62.331  1.00  0.00    -0.277 C  
HETATM    8  C   UNL     1     -11.039  12.485  64.242  1.00  0.00    -0.356 A  
HETATM    9 CL   UNL     1     -11.967  13.909  63.920  1.00  0.00    -0.425 Cl 
HETATM   10  C   UNL     1     -11.106  11.854  65.475  1.00  0.00    -0.304 A  
BRANCH  10  11
HETATM   11  N   UNL     1     -12.004  12.265  66.467  1.00  0.00    -0.626 NA 
HETATM   12  H   UNL     1     -12.937  11.865  66.365  1.00  0.00     0.000 HD 
BRANCH  11  13
HETATM   13  C   UNL     1     -11.880  13.087  67.532  1.00  0.00    -0.355 A  
HETATM   14  N   UNL     1     -12.060  14.377  67.427  1.00  0.00    -0.588 NA 
HETATM   15  C   UNL     1     -11.799  14.909  68.791  1.00  0.00    -0.296 A  
HETATM   16  H   UNL     1     -12.320  14.904  66.593  1.00  0.00     0.000 HD 
HETATM   17  C   UNL     1     -11.556  13.703  69.700  1.00  0.00    -0.278 A  
HETATM   18  N   UNL     1     -11.640  12.598  68.776  1.00  0.00    -0.291 NA 
ENDBRANCH  11  13
ENDBRANCH  10  11
ENDBRANCH   2   3
TORSDOF 3
ENDMDL
MODEL       37
REMARK 921   NORMALIZED FREE ENERGY PREDICTED BY IDOCK:   -4.66 KCAL/MOL
REMARK 922        TOTAL FREE ENERGY PREDICTED BY IDOCK:   -5.89 KCAL/MOL
REMARK 923 INTER-LIGAND FREE ENERGY PREDICTED BY IDOCK:   -5.46 KCAL/MOL
REMARK 924 INTRA-LIGAND FREE ENERGY PREDICTED BY IDOCK:   -0.42 KCAL/MOL
REMARK 927      BINDING AFFINITY PREDICTED BY RF-SCORE:    0.00 PKD
ROOT
HETATM    1  C   UNL     1     -12.018  15.066  69.745  1.00  0.00    -0.328 C  
HETATM    2  O   UNL     1     -12.152  14.054  68.744  1.00  0.00    -0.349 OA 
ENDROOT
BRANCH   2   3
HETATM    3  C   UNL     1     -11.416  14.369  67.615  1.00  0.00    -0.346 A  
HETATM    4  N   UNL     1     -10.959  15.639  67.542  1.00  0.00    -0.320 NA 
HETATM    5  C   UNL     1     -10.427  16.030  66.380  1.00  0.00    -0.309 A  
HETATM    6  N   UNL     1     -10.332  15.248  65.302  1.00  0.00    -0.392 NA 
HETATM    7  C   UNL     1     -10.063  17.474  66.248  1.00  0.00    -0.341 C  
HETATM    8  C   UNL     1     -10.761  13.978  65.463  1.00  0.00    -0.313 A  
HETATM    9 CL   UNL     1     -10.650  13.060  64.001  1.00  0.00    -0.414 Cl 
HETATM   10  C   UNL     1     -11.311  13.426  66.611  1.00  0.00    -0.323 A  
BRANCH  10  11
HETATM   11  N   UNL     1     -11.689  12.079  66.675  1.00  0.00    -0.577 NA 
HETATM   12  H   UNL     1     -12.446  11.836  66.037  1.00  0.00     0.000 HD 
BRANCH  11  13
HETATM   13  C   UNL     1     -11.247  11.039  67.415  1.00  0.00    -0.285 A  
HETATM   14  N   UNL     1     -11.846  10.682  68.521  1.00  0.00    -0.741 NA 
HETATM   15  C   UNL     1     -11.042   9.543  69.038  1.00  0.00    -0.027 A  
HETATM   16  H   UNL     1     -12.681  11.095  68.939  1.00  0.00     0.000 HD 
HETATM   17  C   UNL     1      -9.966   9.247  67.991  1.00  0.00    -0.182 A  
HETATM   18  N   UNL     1     -10.209  10.269  67.001  1.00  0.00    -0.217 NA 
ENDBRANCH  11  13
ENDBRANCH  10  11
ENDBRANCH   2   3
TORSDOF 3
ENDMDL
MODEL       38
REMARK 921   NORMALIZED FREE ENERGY PREDICTED BY IDOCK:   -4.66 KCAL/MOL
REMARK 922        TOTAL FREE ENERGY PREDICTED BY IDOCK:   -5.89 KCAL/MOL
REMARK 923 INTER-LIGAND FREE ENERGY PREDICTED BY IDOCK:   -5.41 KCAL/MOL
REMARK 924 INTRA-LIGAND FREE ENERGY PREDICTED BY IDOCK:   -0.47 KCAL/MOL
REMARK 927      BINDING AFFINITY PREDICTED BY RF-SCORE:    0.00 PKD
ROOT
HETATM    1  C   UNL     1      -8.803  16.140  69.221  1.00  0.00    -0.195 C  
HETATM    2  O   UNL     1      -8.624  15.354  68.041  1.00  0.00    -0.149 OA 
ENDROOT
BRANCH   2   3
HETATM    3  C   UNL     1      -9.826  14.825  67.607  1.00  0.00    -0.218 A  
HETATM    4  N   UNL     1     -10.361  13.856  68.384  1.00  0.00    -0.244 NA 
HETATM    5  C   UNL     1     -11.406  13.185  67.889  1.00  0.00    -0.286 A  
HETATM    6  N   UNL     1     -11.935  13.410  66.685  1.00  0.00    -0.397 NA 
HETATM    7  C   UNL     1     -11.900  12.015  68.679  1.00  0.00    -0.366 C  
HETATM    8  C   UNL     1     -11.384  14.426  65.986  1.00  0.00    -0.335 A  
HETATM    9 CL   UNL     1     -12.099  14.606  64.421  1.00  0.00    -0.498 Cl 
HETATM   10  C   UNL     1     -10.318  15.222  66.378  1.00  0.00    -0.289 A  
BRANCH  10  11
HETATM   11  N   UNL     1      -9.852  16.276  65.584  1.00  0.00    -0.503 NA 
HETATM   12  H   UNL     1      -9.636  16.001  64.625  1.00  0.00     0.000 HD 
BRANCH  11  13
HETATM   13  C   UNL     1      -9.630  17.584  65.836  1.00  0.00    -0.004 A  
HETATM   14  N   UNL     1      -8.432  18.040  66.091  1.00  0.00    -0.488 NA 
HETATM   15  C   UNL     1      -8.624  19.493  66.343  1.00  0.00    -0.360 A  
HETATM   16  H   UNL     1      -7.557  17.515  66.112  1.00  0.00     0.000 HD 
HETATM   17  C   UNL     1     -10.100  19.799  66.080  1.00  0.00    -0.499 A  
HETATM   18  N   UNL     1     -10.633  18.497  65.758  1.00  0.00    -0.584 NA 
ENDBRANCH  11  13
ENDBRANCH  10  11
ENDBRANCH   2   3
TORSDOF 3
ENDMDL
MODEL       39
REMARK 921   NORMALIZED FREE ENERGY PREDICTED BY IDOCK:   -4.64 KCAL/MOL
REMARK 922        TOTAL FREE ENERGY PREDICTED BY IDOCK:   -5.87 KCAL/MOL
REMARK 923 INTER-LIGAND FREE ENERGY PREDICTED BY IDOCK:   -5.68 KCAL/MOL
REMARK 924 INTRA-LIGAND FREE ENERGY PREDICTED BY IDOCK:   -0.19 KCAL/MOL
REMARK 927      BINDING AFFINITY PREDICTED BY RF-SCORE:    0.00 PKD
ROOT
HETATM    1  C   UNL     1     -13.749  13.508  72.378  1.00  0.00    -0.602 C  
HETATM    2  O   UNL     1     -12.910  13.415  71.224  1.00  0.00    -0.347 OA 
ENDROOT
BRANCH   2   3
HETATM    3  C   UNL     1     -12.613  12.096  70.929  1.00  0.00    -0.247 A  
HETATM    4  N   UNL     1     -13.277  11.164  71.648  1.00  0.00    -0.400 NA 
HETATM    5  C   UNL     1     -12.866   9.897  71.535  1.00  0.00    -0.421 A  
HETATM    6  N   UNL     1     -11.845   9.511  70.767  1.00  0.00    -0.283 NA 
HETATM    7  C   UNL     1     -13.497   8.891  72.443  1.00  0.00    -0.499 C  
HETATM    8  C   UNL     1     -11.261  10.486  70.038  1.00  0.00    -0.315 A  
HETATM    9 CL   UNL     1      -9.918   9.900  69.119  1.00  0.00    -0.190 Cl 
HETATM   10  C   UNL     1     -11.594  11.832  70.034  1.00  0.00    -0.236 A  
BRANCH  10  11
HETATM   11  N   UNL     1     -10.940  12.752  69.205  1.00  0.00    -0.443 NA 
HETATM   12  H   UNL     1     -10.366  12.317  68.483  1.00  0.00     0.000 HD 
BRANCH  11  13
HETATM   13  C   UNL     1     -10.921  14.103  69.173  1.00  0.00    -0.251 A  
HETATM   14  N   UNL     1     -10.427  14.804  70.160  1.00  0.00    -0.472 NA 
HETATM   15  C   UNL     1     -10.626  16.221  69.754  1.00  0.00    -0.316 A  
HETATM   16  H   UNL     1     -10.001  14.457  71.019  1.00  0.00     0.000 HD 
HETATM   17  C   UNL     1     -11.205  16.202  68.338  1.00  0.00    -0.358 A  
HETATM   18  N   UNL     1     -11.340  14.789  68.079  1.00  0.00    -0.302 NA 
ENDBRANCH  11  13
ENDBRANCH  10  11
ENDBRANCH   2   3
TORSDOF 3
ENDMDL
MODEL       40
REMARK 921   NORMALIZED FREE ENERGY PREDICTED BY IDOCK:   -4.64 KCAL/MOL
REMARK 922        TOTAL FREE ENERGY PREDICTED BY IDOCK:   -5.86 KCAL/MOL
REMARK 923 INTER-LIGAND FREE ENERGY PREDICTED BY IDOCK:   -5.45 KCAL/MOL
REMARK 924 INTRA-LIGAND FREE ENERGY PREDICTED BY IDOCK:   -0.41 KCAL/MOL
REMARK 927      BINDING AFFINITY PREDICTED BY RF-SCORE:    0.00 PKD
ROOT
HETATM    1  C   UNL     1     -11.930  15.093  69.948  1.00  0.00    -0.337 C  
HETATM    2  O   UNL     1     -12.320  13.924  69.225  1.00  0.00    -0.323 OA 
ENDROOT
BRANCH   2   3
HETATM    3  C   UNL     1     -11.690  13.865  67.994  1.00  0.00    -0.352 A  
HETATM    4  N   UNL     1     -11.253  15.044  67.496  1.00  0.00    -0.322 NA 
HETATM    5  C   UNL     1     -10.830  15.051  66.228  1.00  0.00    -0.333 A  
HETATM    6  N   UNL     1     -10.824  13.976  65.437  1.00  0.00    -0.313 NA 
HETATM    7  C   UNL     1     -10.494  16.380  65.629  1.00  0.00    -0.364 C  
HETATM    8  C   UNL     1     -11.224  12.823  66.016  1.00  0.00    -0.299 A  
HETATM    9 CL   UNL     1     -11.233  11.501  64.902  1.00  0.00    -0.290 Cl 
HETATM   10  C   UNL     1     -11.664  12.659  67.321  1.00  0.00    -0.370 A  
BRANCH  10  11
HETATM   11  N   UNL     1     -12.021  11.403  67.828  1.00  0.00    -0.646 NA 
HETATM   12  H   UNL     1     -12.983  11.135  67.618  1.00  0.00     0.000 HD 
BRANCH  11  13
HETATM   13  C   UNL     1     -11.343  10.477  68.539  1.00  0.00    -0.257 A  
HETATM   14  N   UNL     1     -10.931   9.361  67.996  1.00  0.00    -0.497 NA 
HETATM   15  C   UNL     1     -10.275   8.619  69.104  1.00  0.00    -0.208 A  
HETATM   16  H   UNL     1     -11.038   9.065  67.025  1.00  0.00     0.000 HD 
HETATM   17  C   UNL     1     -10.284   9.541  70.325  1.00  0.00    -0.260 A  
HETATM   18  N   UNL     1     -10.990  10.699  69.832  1.00  0.00    -0.281 NA 
ENDBRANCH  11  13
ENDBRANCH  10  11
ENDBRANCH   2   3
TORSDOF 3
ENDMDL
MODEL       41
REMARK 921   NORMALIZED FREE ENERGY PREDICTED BY IDOCK:   -4.63 KCAL/MOL
REMARK 922        TOTAL FREE ENERGY PREDICTED BY IDOCK:   -5.86 KCAL/MOL
REMARK 923 INTER-LIGAND FREE ENERGY PREDICTED BY IDOCK:   -5.51 KCAL/MOL
REMARK 924 INTRA-LIGAND FREE ENERGY PREDICTED BY IDOCK:   -0.35 KCAL/MOL
REMARK 927      BINDING AFFINITY PREDICTED BY RF-SCORE:    0.00 PKD
ROOT
HETATM    1  C   UNL     1     -12.312  13.824  65.819  1.00  0.00    -0.486 C  
HETATM    2  O   UNL     1     -11.393  13.096  66.637  1.00  0.00    -0.302 OA 
ENDROOT
BRANCH   2   3
HETATM    3  C   UNL     1     -11.822  13.052  67.951  1.00  0.00    -0.343 A  
HETATM    4  N   UNL     1     -12.004  14.248  68.555  1.00  0.00    -0.338 NA 
HETATM    5  C   UNL     1     -12.215  14.239  69.875  1.00  0.00    -0.352 A  
HETATM    6  N   UNL     1     -12.247  13.131  70.618  1.00  0.00    -0.361 NA 
HETATM    7  C   UNL     1     -12.263  15.565  70.566  1.00  0.00    -0.444 C  
HETATM    8  C   UNL     1     -12.109  11.970  69.942  1.00  0.00    -0.263 A  
HETATM    9 CL   UNL     1     -12.109  10.597  70.994  1.00  0.00    -0.465 Cl 
HETATM   10  C   UNL     1     -11.909  11.823  68.577  1.00  0.00    -0.303 A  
BRANCH  10  11
HETATM   11  N   UNL     1     -11.816  10.562  67.976  1.00  0.00    -0.740 NA 
HETATM   12  H   UNL     1     -12.681  10.256  67.531  1.00  0.00     0.000 HD 
BRANCH  11  13
HETATM   13  C   UNL     1     -10.807   9.671  67.870  1.00  0.00    -0.215 A  
HETATM   14  N   UNL     1     -10.788   8.569  68.575  1.00  0.00    -0.437 NA 
HETATM   15  C   UNL     1      -9.517   7.898  68.196  1.00  0.00    -0.147 A  
HETATM   16  H   UNL     1     -11.491   8.243  69.239  1.00  0.00     0.000 HD 
HETATM   17  C   UNL     1      -8.881   8.740  67.088  1.00  0.00    -0.127 A  
HETATM   18  N   UNL     1      -9.806   9.841  66.968  1.00  0.00    -0.182 NA 
ENDBRANCH  11  13
ENDBRANCH  10  11
ENDBRANCH   2   3
TORSDOF 3
ENDMDL
MODEL       42
REMARK 921   NORMALIZED FREE ENERGY PREDICTED BY IDOCK:   -4.63 KCAL/MOL
REMARK 922        TOTAL FREE ENERGY PREDICTED BY IDOCK:   -5.85 KCAL/MOL
REMARK 923 INTER-LIGAND FREE ENERGY PREDICTED BY IDOCK:   -5.47 KCAL/MOL
REMARK 924 INTRA-LIGAND FREE ENERGY PREDICTED BY IDOCK:   -0.39 KCAL/MOL
REMARK 927      BINDING AFFINITY PREDICTED BY RF-SCORE:    0.00 PKD
ROOT
HETATM    1  C   UNL     1     -10.118  11.544  63.470  1.00  0.00    -0.409 C  
HETATM    2  O   UNL     1     -10.849  11.208  64.652  1.00  0.00    -0.305 OA 
ENDROOT
BRANCH   2   3
HETATM    3  C   UNL     1     -11.259  12.345  65.324  1.00  0.00    -0.318 A  
HETATM    4  N   UNL     1     -11.175  13.504  64.633  1.00  0.00    -0.347 NA 
HETATM    5  C   UNL     1     -11.365  14.637  65.316  1.00  0.00    -0.354 A  
HETATM    6  N   UNL     1     -11.620  14.686  66.625  1.00  0.00    -0.365 NA 
HETATM    7  C   UNL     1     -11.121  15.921  64.589  1.00  0.00    -0.368 C  
HETATM    8  C   UNL     1     -11.741  13.489  67.241  1.00  0.00    -0.383 A  
HETATM    9 CL   UNL     1     -12.017  13.654  68.941  1.00  0.00    -0.391 Cl 
HETATM   10  C   UNL     1     -11.595  12.239  66.660  1.00  0.00    -0.375 A  
BRANCH  10  11
HETATM   11  N   UNL     1     -11.781  11.059  67.391  1.00  0.00    -0.500 NA 
HETATM   12  H   UNL     1     -12.753  10.756  67.440  1.00  0.00     0.000 HD 
BRANCH  11  13
HETATM   13  C   UNL     1     -10.925  10.243  68.045  1.00  0.00    -0.289 A  
HETATM   14  N   UNL     1     -10.857   8.965  67.778  1.00  0.00    -0.489 NA 
HETATM   15  C   UNL     1      -9.840   8.434  68.724  1.00  0.00    -0.173 A  
HETATM   16  H   UNL     1     -11.385   8.447  67.076  1.00  0.00     0.000 HD 
HETATM   17  C   UNL     1      -9.269   9.633  69.484  1.00  0.00    -0.203 A  
HETATM   18  N   UNL     1     -10.042  10.730  68.955  1.00  0.00    -0.197 NA 
ENDBRANCH  11  13
ENDBRANCH  10  11
ENDBRANCH   2   3
TORSDOF 3
ENDMDL
MODEL       43
REMARK 921   NORMALIZED FREE ENERGY PREDICTED BY IDOCK:   -4.62 KCAL/MOL
REMARK 922        TOTAL FREE ENERGY PREDICTED BY IDOCK:   -5.84 KCAL/MOL
REMARK 923 INTER-LIGAND FREE ENERGY PREDICTED BY IDOCK:   -5.69 KCAL/MOL
REMARK 924 INTRA-LIGAND FREE ENERGY PREDICTED BY IDOCK:   -0.15 KCAL/MOL
REMARK 927      BINDING AFFINITY PREDICTED BY RF-SCORE:    0.00 PKD
ROOT
HETATM    1  C   UNL     1     -11.705  14.540  70.400  1.00  0.00    -0.290 C  
HETATM    2  O   UNL     1     -11.294  13.853  69.216  1.00  0.00    -0.253 OA 
ENDROOT
BRANCH   2   3
HETATM    3  C   UNL     1     -10.722  14.726  68.307  1.00  0.00    -0.242 A  
HETATM    4  N   UNL     1      -9.816  15.594  68.809  1.00  0.00    -0.204 NA 
HETATM    5  C   UNL     1      -9.403  16.579  68.005  1.00  0.00    -0.218 A  
HETATM    6  N   UNL     1      -9.837  16.753  66.755  1.00  0.00    -0.264 NA 
HETATM    7  C   UNL     1      -8.521  17.626  68.607  1.00  0.00    -0.266 C  
HETATM    8  C   UNL     1     -10.701  15.819  66.302  1.00  0.00    -0.282 A  
HETATM    9 CL   UNL     1     -11.247  16.158  64.696  1.00  0.00    -0.411 Cl 
HETATM   10  C   UNL     1     -11.197  14.734  67.010  1.00  0.00    -0.345 A  
BRANCH  10  11
HETATM   11  N   UNL     1     -12.065  13.804  66.423  1.00  0.00    -0.431 NA 
HETATM   12  H   UNL     1     -12.929  13.664  66.947  1.00  0.00     0.000 HD 
BRANCH  11  13
HETATM   13  C   UNL     1     -11.982  13.056  65.302  1.00  0.00    -0.407 A  
HETATM   14  N   UNL     1     -13.048  12.712  64.627  1.00  0.00    -0.848 NA 
HETATM   15  C   UNL     1     -12.535  11.880  63.506  1.00  0.00    -0.492 A  
HETATM   16  H   UNL     1     -14.018  12.959  64.826  1.00  0.00     0.000 HD 
HETATM   17  C   UNL     1     -11.008  11.905  63.595  1.00  0.00    -0.440 A  
HETATM   18  N   UNL     1     -10.781  12.695  64.781  1.00  0.00    -0.294 NA 
ENDBRANCH  11  13
ENDBRANCH  10  11
ENDBRANCH   2   3
TORSDOF 3
ENDMDL
MODEL       44
REMARK 921   NORMALIZED FREE ENERGY PREDICTED BY IDOCK:   -4.57 KCAL/MOL
REMARK 922        TOTAL FREE ENERGY PREDICTED BY IDOCK:   -5.78 KCAL/MOL
REMARK 923 INTER-LIGAND FREE ENERGY PREDICTED BY IDOCK:   -5.23 KCAL/MOL
REMARK 924 INTRA-LIGAND FREE ENERGY PREDICTED BY IDOCK:   -0.55 KCAL/MOL
REMARK 927      BINDING AFFINITY PREDICTED BY RF-SCORE:    0.00 PKD
ROOT
HETATM    1  C   UNL     1     -12.359  14.731  64.290  1.00  0.00    -0.320 C  
HETATM    2  O   UNL     1     -11.178  15.476  64.594  1.00  0.00    -0.423 OA 
ENDROOT
BRANCH   2   3
HETATM    3  C   UNL     1     -10.315  14.741  65.387  1.00  0.00    -0.386 A  
HETATM    4  N   UNL     1     -10.628  13.436  65.552  1.00  0.00    -0.283 NA 
HETATM    5  C   UNL     1      -9.939  12.753  66.471  1.00  0.00    -0.253 A  
HETATM    6  N   UNL     1      -8.978  13.285  67.230  1.00  0.00    -0.208 NA 
HETATM    7  C   UNL     1     -10.387  11.356  66.762  1.00  0.00    -0.271 C  
HETATM    8  C   UNL     1      -8.682  14.578  66.976  1.00  0.00    -0.234 A  
HETATM    9 CL   UNL     1      -7.466  15.192  68.042  1.00  0.00    -0.115 Cl 
HETATM   10  C   UNL     1      -9.293  15.401  66.041  1.00  0.00    -0.329 A  
BRANCH  10  11
HETATM   11  N   UNL     1      -8.876  16.723  65.837  1.00  0.00    -0.513 NA 
HETATM   12  H   UNL     1      -8.053  16.805  65.240  1.00  0.00     0.000 HD 
BRANCH  11  13
HETATM   13  C   UNL     1      -9.350  17.909  66.275  1.00  0.00    -0.197 A  
HETATM   14  N   UNL     1     -10.517  18.363  65.898  1.00  0.00    -0.591 NA 
HETATM   15  C   UNL     1     -10.642  19.687  66.562  1.00  0.00    -0.482 A  
HETATM   16  H   UNL     1     -11.192  17.909  65.282  1.00  0.00     0.000 HD 
HETATM   17  C   UNL     1      -9.413  19.854  67.458  1.00  0.00    -0.359 A  
HETATM   18  N   UNL     1      -8.669  18.647  67.189  1.00  0.00    -0.269 NA 
ENDBRANCH  11  13
ENDBRANCH  10  11
ENDBRANCH   2   3
TORSDOF 3
ENDMDL
MODEL       45
REMARK 921   NORMALIZED FREE ENERGY PREDICTED BY IDOCK:   -4.56 KCAL/MOL
REMARK 922        TOTAL FREE ENERGY PREDICTED BY IDOCK:   -5.77 KCAL/MOL
REMARK 923 INTER-LIGAND FREE ENERGY PREDICTED BY IDOCK:   -5.39 KCAL/MOL
REMARK 924 INTRA-LIGAND FREE ENERGY PREDICTED BY IDOCK:   -0.38 KCAL/MOL
REMARK 927      BINDING AFFINITY PREDICTED BY RF-SCORE:    0.00 PKD
ROOT
HETATM    1  C   UNL     1     -11.112  11.411  68.556  1.00  0.00    -0.235 C  
HETATM    2  O   UNL     1     -11.577  12.689  68.997  1.00  0.00    -0.276 OA 
ENDROOT
BRANCH   2   3
HETATM    3  C   UNL     1     -10.712  13.695  68.606  1.00  0.00    -0.256 A  
HETATM    4  N   UNL     1      -9.524  13.293  68.101  1.00  0.00    -0.218 NA 
HETATM    5  C   UNL     1      -8.592  14.232  67.909  1.00  0.00    -0.171 A  
HETATM    6  N   UNL     1      -8.766  15.524  68.193  1.00  0.00    -0.163 NA 
HETATM    7  C   UNL     1      -7.231  13.768  67.498  1.00  0.00    -0.173 C  
HETATM    8  C   UNL     1      -9.993  15.863  68.646  1.00  0.00    -0.214 A  
HETATM    9 CL   UNL     1     -10.105  17.544  69.036  1.00  0.00    -0.319 Cl 
HETATM   10  C   UNL     1     -11.061  15.006  68.870  1.00  0.00    -0.266 A  
BRANCH  10  11
HETATM   11  N   UNL     1     -12.305  15.476  69.307  1.00  0.00    -0.606 NA 
HETATM   12  H   UNL     1     -12.877  15.873  68.562  1.00  0.00     0.000 HD 
BRANCH  11  13
HETATM   13  C   UNL     1     -12.897  15.506  70.520  1.00  0.00    -0.353 A  
HETATM   14  N   UNL     1     -14.083  14.992  70.718  1.00  0.00    -0.621 NA 
HETATM   15  C   UNL     1     -14.380  15.261  72.150  1.00  0.00    -0.555 A  
HETATM   16  H   UNL     1     -14.675  14.512  70.039  1.00  0.00     0.000 HD 
HETATM   17  C   UNL     1     -13.129  15.906  72.750  1.00  0.00    -0.491 A  
HETATM   18  N   UNL     1     -12.253  16.002  71.608  1.00  0.00    -0.469 NA 
ENDBRANCH  11  13
ENDBRANCH  10  11
ENDBRANCH   2   3
TORSDOF 3
ENDMDL
MODEL       46
REMARK 921   NORMALIZED FREE ENERGY PREDICTED BY IDOCK:   -4.55 KCAL/MOL
REMARK 922        TOTAL FREE ENERGY PREDICTED BY IDOCK:   -5.76 KCAL/MOL
REMARK 923 INTER-LIGAND FREE ENERGY PREDICTED BY IDOCK:   -5.31 KCAL/MOL
REMARK 924 INTRA-LIGAND FREE ENERGY PREDICTED BY IDOCK:   -0.45 KCAL/MOL
REMARK 927      BINDING AFFINITY PREDICTED BY RF-SCORE:    0.00 PKD
ROOT
HETATM    1  C   UNL     1     -10.277  11.977  67.888  1.00  0.00    -0.196 C  
HETATM    2  O   UNL     1     -11.526  12.670  67.935  1.00  0.00    -0.267 OA 
ENDROOT
BRANCH   2   3
HETATM    3  C   UNL     1     -11.834  13.226  66.706  1.00  0.00    -0.394 A  
HETATM    4  N   UNL     1     -12.213  12.357  65.741  1.00  0.00    -0.638 NA 
HETATM    5  C   UNL     1     -12.315  12.834  64.497  1.00  0.00    -0.445 A  
HETATM    6  N   UNL     1     -12.058  14.099  64.159  1.00  0.00    -0.521 NA 
HETATM    7  C   UNL     1     -12.583  11.844  63.408  1.00  0.00    -0.555 C  
HETATM    8  C   UNL     1     -11.735  14.922  65.180  1.00  0.00    -0.295 A  
HETATM    9 CL   UNL     1     -11.369  16.523  64.638  1.00  0.00    -0.263 Cl 
HETATM   10  C   UNL     1     -11.615  14.577  66.518  1.00  0.00    -0.371 A  
BRANCH  10  11
HETATM   11  N   UNL     1     -11.310  15.526  67.501  1.00  0.00    -0.282 NA 
HETATM   12  H   UNL     1     -12.132  15.952  67.928  1.00  0.00     0.000 HD 
BRANCH  11  13
HETATM   13  C   UNL     1     -10.141  15.990  67.994  1.00  0.00    -0.240 A  
HETATM   14  N   UNL     1      -9.042  15.283  67.932  1.00  0.00    -0.174 NA 
HETATM   15  C   UNL     1      -8.014  16.121  68.605  1.00  0.00    -0.201 A  
HETATM   16  H   UNL     1      -8.918  14.361  67.514  1.00  0.00     0.000 HD 
HETATM   17  C   UNL     1      -8.682  17.452  68.953  1.00  0.00    -0.153 A  
HETATM   18  N   UNL     1     -10.038  17.243  68.506  1.00  0.00    -0.319 NA 
ENDBRANCH  11  13
ENDBRANCH  10  11
ENDBRANCH   2   3
TORSDOF 3
ENDMDL
MODEL       47
REMARK 921   NORMALIZED FREE ENERGY PREDICTED BY IDOCK:   -4.54 KCAL/MOL
REMARK 922        TOTAL FREE ENERGY PREDICTED BY IDOCK:   -5.75 KCAL/MOL
REMARK 923 INTER-LIGAND FREE ENERGY PREDICTED BY IDOCK:   -5.39 KCAL/MOL
REMARK 924 INTRA-LIGAND FREE ENERGY PREDICTED BY IDOCK:   -0.37 KCAL/MOL
REMARK 927      BINDING AFFINITY PREDICTED BY RF-SCORE:    0.00 PKD
ROOT
HETATM    1  C   UNL     1     -10.503  10.720  68.030  1.00  0.00    -0.194 C  
HETATM    2  O   UNL     1     -11.556  11.643  68.316  1.00  0.00    -0.275 OA 
ENDROOT
BRANCH   2   3
HETATM    3  C   UNL     1     -11.947  11.558  69.641  1.00  0.00    -0.339 A  
HETATM    4  N   UNL     1     -11.994  10.313  70.166  1.00  0.00    -0.254 NA 
HETATM    5  C   UNL     1     -12.562  10.179  71.369  1.00  0.00    -0.422 A  
HETATM    6  N   UNL     1     -13.084  11.192  72.064  1.00  0.00    -0.449 NA 
HETATM    7  C   UNL     1     -12.753   8.787  71.881  1.00  0.00    -0.427 C  
HETATM    8  C   UNL     1     -12.955  12.413  71.503  1.00  0.00    -0.285 A  
HETATM    9 CL   UNL     1     -13.707  13.650  72.450  1.00  0.00    -0.665 Cl 
HETATM   10  C   UNL     1     -12.372  12.707  70.280  1.00  0.00    -0.195 A  
BRANCH  10  11
HETATM   11  N   UNL     1     -12.260  14.023  69.812  1.00  0.00    -0.342 NA 
HETATM   12  H   UNL     1     -13.157  14.493  69.693  1.00  0.00     0.000 HD 
BRANCH  11  13
HETATM   13  C   UNL     1     -11.198  14.791  69.487  1.00  0.00    -0.278 A  
HETATM   14  N   UNL     1      -9.976  14.330  69.541  1.00  0.00    -0.395 NA 
HETATM   15  C   UNL     1      -9.119  15.480  69.148  1.00  0.00    -0.248 A  
HETATM   16  H   UNL     1      -9.676  13.389  69.797  1.00  0.00     0.000 HD 
HETATM   17  C   UNL     1     -10.058  16.623  68.757  1.00  0.00    -0.270 A  
HETATM   18  N   UNL     1     -11.359  16.054  69.013  1.00  0.00    -0.351 NA 
ENDBRANCH  11  13
ENDBRANCH  10  11
ENDBRANCH   2   3
TORSDOF 3
ENDMDL
MODEL       48
REMARK 921   NORMALIZED FREE ENERGY PREDICTED BY IDOCK:   -4.54 KCAL/MOL
REMARK 922        TOTAL FREE ENERGY PREDICTED BY IDOCK:   -5.75 KCAL/MOL
REMARK 923 INTER-LIGAND FREE ENERGY PREDICTED BY IDOCK:   -5.36 KCAL/MOL
REMARK 924 INTRA-LIGAND FREE ENERGY PREDICTED BY IDOCK:   -0.39 KCAL/MOL
REMARK 927      BINDING AFFINITY PREDICTED BY RF-SCORE:    0.00 PKD
ROOT
HETATM    1  C   UNL     1     -10.083   8.143  67.300  1.00  0.00    -0.241 C  
HETATM    2  O   UNL     1      -9.715   9.438  67.781  1.00  0.00    -0.144 OA 
ENDROOT
BRANCH   2   3
HETATM    3  C   UNL     1     -10.078   9.599  69.106  1.00  0.00    -0.189 A  
HETATM    4  N   UNL     1      -9.256   9.032  70.018  1.00  0.00    -0.168 NA 
HETATM    5  C   UNL     1      -9.685   8.991  71.284  1.00  0.00    -0.301 A  
HETATM    6  N   UNL     1     -10.866   9.464  71.687  1.00  0.00    -0.351 NA 
HETATM    7  C   UNL     1      -8.848   8.231  72.262  1.00  0.00    -0.274 C  
HETATM    8  C   UNL     1     -11.612  10.062  70.733  1.00  0.00    -0.360 A  
HETATM    9 CL   UNL     1     -13.143  10.593  71.338  1.00  0.00    -0.501 Cl 
HETATM   10  C   UNL     1     -11.289  10.200  69.392  1.00  0.00    -0.178 A  
BRANCH  10  11
HETATM   11  N   UNL     1     -12.127  10.875  68.496  1.00  0.00    -0.812 NA 
HETATM   12  H   UNL     1     -12.992  10.376  68.289  1.00  0.00     0.000 HD 
BRANCH  11  13
HETATM   13  C   UNL     1     -12.015  12.057  67.851  1.00  0.00    -0.134 A  
HETATM   14  N   UNL     1     -12.092  12.136  66.548  1.00  0.00    -0.582 NA 
HETATM   15  C   UNL     1     -11.887  13.577  66.243  1.00  0.00    -0.392 A  
HETATM   16  H   UNL     1     -12.256  11.377  65.886  1.00  0.00     0.000 HD 
HETATM   17  C   UNL     1     -11.796  14.308  67.585  1.00  0.00    -0.385 A  
HETATM   18  N   UNL     1     -11.898  13.225  68.533  1.00  0.00    -0.342 NA 
ENDBRANCH  11  13
ENDBRANCH  10  11
ENDBRANCH   2   3
TORSDOF 3
ENDMDL
MODEL       49
REMARK 921   NORMALIZED FREE ENERGY PREDICTED BY IDOCK:   -4.54 KCAL/MOL
REMARK 922        TOTAL FREE ENERGY PREDICTED BY IDOCK:   -5.75 KCAL/MOL
REMARK 923 INTER-LIGAND FREE ENERGY PREDICTED BY IDOCK:   -5.46 KCAL/MOL
REMARK 924 INTRA-LIGAND FREE ENERGY PREDICTED BY IDOCK:   -0.29 KCAL/MOL
REMARK 927      BINDING AFFINITY PREDICTED BY RF-SCORE:    0.00 PKD
ROOT
HETATM    1  C   UNL     1     -10.985  12.134  63.710  1.00  0.00    -0.431 C  
HETATM    2  O   UNL     1     -10.449  13.341  64.257  1.00  0.00    -0.424 OA 
ENDROOT
BRANCH   2   3
HETATM    3  C   UNL     1     -10.636  13.393  65.627  1.00  0.00    -0.282 A  
HETATM    4  N   UNL     1     -10.712  12.201  66.260  1.00  0.00    -0.252 NA 
HETATM    5  C   UNL     1     -11.096  12.212  67.540  1.00  0.00    -0.275 A  
HETATM    6  N   UNL     1     -11.413  13.320  68.214  1.00  0.00    -0.294 NA 
HETATM    7  C   UNL     1     -11.329  10.887  68.194  1.00  0.00    -0.383 C  
HETATM    8  C   UNL     1     -11.264  14.478  67.536  1.00  0.00    -0.321 A  
HETATM    9 CL   UNL     1     -11.748  15.850  68.472  1.00  0.00    -0.363 Cl 
HETATM   10  C   UNL     1     -10.854  14.622  66.219  1.00  0.00    -0.321 A  
BRANCH  10  11
HETATM   11  N   UNL     1     -10.699  15.882  65.627  1.00  0.00    -0.348 NA 
HETATM   12  H   UNL     1     -11.325  16.043  64.838  1.00  0.00     0.000 HD 
BRANCH  11  13
HETATM   13  C   UNL     1      -9.885  16.925  65.895  1.00  0.00    -0.215 A  
HETATM   14  N   UNL     1     -10.340  18.148  65.974  1.00  0.00    -0.553 NA 
HETATM   15  C   UNL     1      -9.140  18.984  66.242  1.00  0.00    -0.287 A  
HETATM   16  H   UNL     1     -11.306  18.461  65.872  1.00  0.00     0.000 HD 
HETATM   17  C   UNL     1      -7.959  18.026  66.413  1.00  0.00    -0.262 A  
HETATM   18  N   UNL     1      -8.568  16.740  66.173  1.00  0.00    -0.443 NA 
ENDBRANCH  11  13
ENDBRANCH  10  11
ENDBRANCH   2   3
TORSDOF 3
ENDMDL
MODEL       50
REMARK 921   NORMALIZED FREE ENERGY PREDICTED BY IDOCK:   -4.54 KCAL/MOL
REMARK 922        TOTAL FREE ENERGY PREDICTED BY IDOCK:   -5.74 KCAL/MOL
REMARK 923 INTER-LIGAND FREE ENERGY PREDICTED BY IDOCK:   -5.27 KCAL/MOL
REMARK 924 INTRA-LIGAND FREE ENERGY PREDICTED BY IDOCK:   -0.47 KCAL/MOL
REMARK 927      BINDING AFFINITY PREDICTED BY RF-SCORE:    0.00 PKD
ROOT
HETATM    1  C   UNL     1     -10.631  11.151  65.173  1.00  0.00    -0.253 C  
HETATM    2  O   UNL     1     -10.541  11.269  66.595  1.00  0.00    -0.241 OA 
ENDROOT
BRANCH   2   3
HETATM    3  C   UNL     1     -11.057  12.477  67.029  1.00  0.00    -0.281 A  
HETATM    4  N   UNL     1     -10.774  13.552  66.259  1.00  0.00    -0.286 NA 
HETATM    5  C   UNL     1     -11.079  14.755  66.755  1.00  0.00    -0.338 A  
HETATM    6  N   UNL     1     -11.630  14.950  67.954  1.00  0.00    -0.339 NA 
HETATM    7  C   UNL     1     -10.628  15.949  65.974  1.00  0.00    -0.331 C  
HETATM    8  C   UNL     1     -11.932  13.830  68.647  1.00  0.00    -0.366 A  
HETATM    9 CL   UNL     1     -12.591  14.183  70.206  1.00  0.00    -0.397 Cl 
HETATM   10  C   UNL     1     -11.699  12.521  68.251  1.00  0.00    -0.340 A  
BRANCH  10  11
HETATM   11  N   UNL     1     -12.090  11.431  69.038  1.00  0.00    -0.421 NA 
HETATM   12  H   UNL     1     -13.087  11.224  68.984  1.00  0.00     0.000 HD 
BRANCH  11  13
HETATM   13  C   UNL     1     -11.407  10.600  69.855  1.00  0.00    -0.313 A  
HETATM   14  N   UNL     1     -10.125  10.394  69.706  1.00  0.00    -0.394 NA 
HETATM   15  C   UNL     1      -9.774   9.407  70.762  1.00  0.00    -0.264 A  
HETATM   16  H   UNL     1      -9.501  10.816  69.017  1.00  0.00     0.000 HD 
HETATM   17  C   UNL     1     -11.037   9.179  71.595  1.00  0.00    -0.375 A  
HETATM   18  N   UNL     1     -12.008  10.003  70.916  1.00  0.00    -0.334 NA 
ENDBRANCH  11  13
ENDBRANCH  10  11
ENDBRANCH   2   3
TORSDOF 3
ENDMDL
MODEL       51
REMARK 921   NORMALIZED FREE ENERGY PREDICTED BY IDOCK:   -4.53 KCAL/MOL
REMARK 922        TOTAL FREE ENERGY PREDICTED BY IDOCK:   -5.74 KCAL/MOL
REMARK 923 INTER-LIGAND FREE ENERGY PREDICTED BY IDOCK:   -5.38 KCAL/MOL
REMARK 924 INTRA-LIGAND FREE ENERGY PREDICTED BY IDOCK:   -0.36 KCAL/MOL
REMARK 927      BINDING AFFINITY PREDICTED BY RF-SCORE:    0.00 PKD
ROOT
HETATM    1  C   UNL     1      -7.490  13.179  67.455  1.00  0.00    -0.124 C  
HETATM    2  O   UNL     1      -8.571  14.052  67.792  1.00  0.00    -0.160 OA 
ENDROOT
BRANCH   2   3
HETATM    3  C   UNL     1      -9.791  13.421  67.626  1.00  0.00    -0.226 A  
HETATM    4  N   UNL     1      -9.968  12.279  68.327  1.00  0.00    -0.214 NA 
HETATM    5  C   UNL     1     -11.043  11.542  68.033  1.00  0.00    -0.254 A  
HETATM    6  N   UNL     1     -11.933  11.864  67.092  1.00  0.00    -0.603 NA 
HETATM    7  C   UNL     1     -11.157  10.207  68.696  1.00  0.00    -0.254 C  
HETATM    8  C   UNL     1     -11.723  13.043  66.468  1.00  0.00    -0.382 A  
HETATM    9 CL   UNL     1     -12.894  13.347  65.232  1.00  0.00    -0.476 Cl 
HETATM   10  C   UNL     1     -10.670  13.920  66.684  1.00  0.00    -0.281 A  
BRANCH  10  11
HETATM   11  N   UNL     1     -10.572  15.139  66.001  1.00  0.00    -0.308 NA 
HETATM   12  H   UNL     1     -10.539  15.038  64.986  1.00  0.00     0.000 HD 
BRANCH  11  13
HETATM   13  C   UNL     1     -10.512  16.421  66.421  1.00  0.00    -0.286 A  
HETATM   14  N   UNL     1     -10.478  16.725  67.692  1.00  0.00    -0.320 NA 
HETATM   15  C   UNL     1     -10.453  18.212  67.726  1.00  0.00    -0.404 A  
HETATM   16  H   UNL     1     -10.472  16.084  68.486  1.00  0.00     0.000 HD 
HETATM   17  C   UNL     1     -10.364  18.689  66.275  1.00  0.00    -0.444 A  
HETATM   18  N   UNL     1     -10.404  17.448  65.539  1.00  0.00    -0.644 NA 
ENDBRANCH  11  13
ENDBRANCH  10  11
ENDBRANCH   2   3
TORSDOF 3
ENDMDL
MODEL       52
REMARK 921   NORMALIZED FREE ENERGY PREDICTED BY IDOCK:   -4.52 KCAL/MOL
REMARK 922        TOTAL FREE ENERGY PREDICTED BY IDOCK:   -5.72 KCAL/MOL
REMARK 923 INTER-LIGAND FREE ENERGY PREDICTED BY IDOCK:   -5.16 KCAL/MOL
REMARK 924 INTRA-LIGAND FREE ENERGY PREDICTED BY IDOCK:   -0.56 KCAL/MOL
REMARK 927      BINDING AFFINITY PREDICTED BY RF-SCORE:    0.00 PKD
ROOT
HETATM    1  C   UNL     1     -11.799  14.668  67.985  1.00  0.00    -0.311 C  
HETATM    2  O   UNL     1     -12.147  13.300  68.210  1.00  0.00    -0.333 OA 
ENDROOT
BRANCH   2   3
HETATM    3  C   UNL     1     -11.435  12.460  67.372  1.00  0.00    -0.352 A  
HETATM    4  N   UNL     1     -11.561  12.701  66.047  1.00  0.00    -0.371 NA 
HETATM    5  C   UNL     1     -11.057  11.789  65.210  1.00  0.00    -0.276 A  
HETATM    6  N   UNL     1     -10.455  10.666  65.606  1.00  0.00    -0.207 NA 
HETATM    7  C   UNL     1     -11.330  11.978  63.752  1.00  0.00    -0.526 C  
HETATM    8  C   UNL     1     -10.319  10.515  66.941  1.00  0.00    -0.239 A  
HETATM    9 CL   UNL     1      -9.577   9.009  67.357  1.00  0.00    -0.183 Cl 
HETATM   10  C   UNL     1     -10.767  11.385  67.924  1.00  0.00    -0.200 A  
BRANCH  10  11
HETATM   11  N   UNL     1     -10.537  11.144  69.284  1.00  0.00    -0.335 NA 
HETATM   12  H   UNL     1      -9.594  11.387  69.589  1.00  0.00     0.000 HD 
BRANCH  11  13
HETATM   13  C   UNL     1     -11.316  10.652  70.272  1.00  0.00    -0.319 A  
HETATM   14  N   UNL     1     -12.398  11.272  70.664  1.00  0.00    -0.373 NA 
HETATM   15  C   UNL     1     -12.934  10.436  71.771  1.00  0.00    -0.475 A  
HETATM   16  H   UNL     1     -12.788  12.139  70.294  1.00  0.00     0.000 HD 
HETATM   17  C   UNL     1     -12.046   9.193  71.861  1.00  0.00    -0.378 A  
HETATM   18  N   UNL     1     -11.053   9.450  70.846  1.00  0.00    -0.290 NA 
ENDBRANCH  11  13
ENDBRANCH  10  11
ENDBRANCH   2   3
TORSDOF 3
ENDMDL
MODEL       53
REMARK 921   NORMALIZED FREE ENERGY PREDICTED BY IDOCK:   -4.50 KCAL/MOL
REMARK 922        TOTAL FREE ENERGY PREDICTED BY IDOCK:   -5.70 KCAL/MOL
REMARK 923 INTER-LIGAND FREE ENERGY PREDICTED BY IDOCK:   -5.25 KCAL/MOL
REMARK 924 INTRA-LIGAND FREE ENERGY PREDICTED BY IDOCK:   -0.46 KCAL/MOL
REMARK 927      BINDING AFFINITY PREDICTED BY RF-SCORE:    0.00 PKD
ROOT
HETATM    1  C   UNL     1     -13.053  10.868  71.732  1.00  0.00    -0.459 C  
HETATM    2  O   UNL     1     -12.014  10.720  70.761  1.00  0.00    -0.322 OA 
ENDROOT
BRANCH   2   3
HETATM    3  C   UNL     1     -11.925  11.838  69.952  1.00  0.00    -0.332 A  
HETATM    4  N   UNL     1     -12.028  13.032  70.577  1.00  0.00    -0.284 NA 
HETATM    5  C   UNL     1     -12.153  14.116  69.806  1.00  0.00    -0.354 A  
HETATM    6  N   UNL     1     -12.192  14.083  68.473  1.00  0.00    -0.279 NA 
HETATM    7  C   UNL     1     -12.421  15.416  70.496  1.00  0.00    -0.468 C  
HETATM    8  C   UNL     1     -12.032  12.864  67.914  1.00  0.00    -0.282 A  
HETATM    9 CL   UNL     1     -12.149  12.915  66.189  1.00  0.00    -0.485 Cl 
HETATM   10  C   UNL     1     -11.868  11.660  68.583  1.00  0.00    -0.308 A  
BRANCH  10  11
HETATM   11  N   UNL     1     -11.673  10.455  67.897  1.00  0.00    -0.680 NA 
HETATM   12  H   UNL     1     -12.532  10.055  67.518  1.00  0.00     0.000 HD 
BRANCH  11  13
HETATM   13  C   UNL     1     -10.572   9.717  67.637  1.00  0.00    -0.276 A  
HETATM   14  N   UNL     1      -9.885   9.151  68.595  1.00  0.00    -0.160 NA 
HETATM   15  C   UNL     1      -8.753   8.478  67.903  1.00  0.00    -0.138 A  
HETATM   16  H   UNL     1     -10.081   9.168  69.596  1.00  0.00     0.000 HD 
HETATM   17  C   UNL     1      -8.977   8.661  66.401  1.00  0.00    -0.161 A  
HETATM   18  N   UNL     1     -10.175   9.465  66.363  1.00  0.00    -0.258 NA 
ENDBRANCH  11  13
ENDBRANCH  10  11
ENDBRANCH   2   3
TORSDOF 3
ENDMDL
MODEL       54
REMARK 921   NORMALIZED FREE ENERGY PREDICTED BY IDOCK:   -4.49 KCAL/MOL
REMARK 922        TOTAL FREE ENERGY PREDICTED BY IDOCK:   -5.69 KCAL/MOL
REMARK 923 INTER-LIGAND FREE ENERGY PREDICTED BY IDOCK:   -5.44 KCAL/MOL
REMARK 924 INTRA-LIGAND FREE ENERGY PREDICTED BY IDOCK:   -0.25 KCAL/MOL
REMARK 927      BINDING AFFINITY PREDICTED BY RF-SCORE:    0.00 PKD
ROOT
HETATM    1  C   UNL     1     -10.696  19.120  65.935  1.00  0.00    -0.351 C  
HETATM    2  O   UNL     1      -9.743  18.098  65.630  1.00  0.00    -0.442 OA 
ENDROOT
BRANCH   2   3
HETATM    3  C   UNL     1     -10.233  16.846  65.960  1.00  0.00    -0.336 A  
HETATM    4  N   UNL     1     -10.723  16.114  64.935  1.00  0.00    -0.659 NA 
HETATM    5  C   UNL     1     -11.387  14.996  65.245  1.00  0.00    -0.349 A  
HETATM    6  N   UNL     1     -11.596  14.576  66.495  1.00  0.00    -0.370 NA 
HETATM    7  C   UNL     1     -12.060  14.269  64.125  1.00  0.00    -0.423 C  
HETATM    8  C   UNL     1     -11.034  15.328  67.466  1.00  0.00    -0.315 A  
HETATM    9 CL   UNL     1     -11.404  14.736  69.048  1.00  0.00    -0.276 Cl 
HETATM   10  C   UNL     1     -10.302  16.493  67.294  1.00  0.00    -0.296 A  
BRANCH  10  11
HETATM   11  N   UNL     1      -9.732  17.174  68.376  1.00  0.00    -0.272 NA 
HETATM   12  H   UNL     1     -10.417  17.514  69.052  1.00  0.00     0.000 HD 
BRANCH  11  13
HETATM   13  C   UNL     1      -8.455  17.470  68.703  1.00  0.00    -0.258 A  
HETATM   14  N   UNL     1      -7.618  16.547  69.098  1.00  0.00    -0.232 NA 
HETATM   15  C   UNL     1      -6.356  17.279  69.387  1.00  0.00    -0.244 A  
HETATM   16  H   UNL     1      -7.791  15.546  69.189  1.00  0.00     0.000 HD 
HETATM   17  C   UNL     1      -6.584  18.737  68.985  1.00  0.00    -0.283 A  
HETATM   18  N   UNL     1      -7.963  18.727  68.558  1.00  0.00    -0.335 NA 
ENDBRANCH  11  13
ENDBRANCH  10  11
ENDBRANCH   2   3
TORSDOF 3
ENDMDL
MODEL       55
REMARK 921   NORMALIZED FREE ENERGY PREDICTED BY IDOCK:   -4.48 KCAL/MOL
REMARK 922        TOTAL FREE ENERGY PREDICTED BY IDOCK:   -5.68 KCAL/MOL
REMARK 923 INTER-LIGAND FREE ENERGY PREDICTED BY IDOCK:   -5.41 KCAL/MOL
REMARK 924 INTRA-LIGAND FREE ENERGY PREDICTED BY IDOCK:   -0.27 KCAL/MOL
REMARK 927      BINDING AFFINITY PREDICTED BY RF-SCORE:    0.00 PKD
ROOT
HETATM    1  C   UNL     1     -10.418  19.691  67.344  1.00  0.00    -0.467 C  
HETATM    2  O   UNL     1      -9.865  18.583  68.057  1.00  0.00    -0.311 OA 
ENDROOT
BRANCH   2   3
HETATM    3  C   UNL     1      -8.482  18.618  68.039  1.00  0.00    -0.291 A  
HETATM    4  N   UNL     1      -7.892  19.258  69.073  1.00  0.00    -0.321 NA 
HETATM    5  C   UNL     1      -6.579  19.488  68.979  1.00  0.00    -0.320 A  
HETATM    6  N   UNL     1      -5.833  19.134  67.931  1.00  0.00    -0.197 NA 
HETATM    7  C   UNL     1      -5.956  20.329  70.048  1.00  0.00    -0.389 C  
HETATM    8  C   UNL     1      -6.477  18.453  66.959  1.00  0.00    -0.182 A  
HETATM    9 CL   UNL     1      -5.442  18.085  65.623  1.00  0.00    -0.225 Cl 
HETATM   10  C   UNL     1      -7.824  18.122  66.930  1.00  0.00    -0.229 A  
BRANCH  10  11
HETATM   11  N   UNL     1      -8.379  17.377  65.883  1.00  0.00    -0.547 NA 
HETATM   12  H   UNL     1      -8.122  17.719  64.956  1.00  0.00     0.000 HD 
BRANCH  11  13
HETATM   13  C   UNL     1      -9.187  16.295  65.856  1.00  0.00    -0.233 A  
HETATM   14  N   UNL     1      -8.825  15.156  66.387  1.00  0.00    -0.421 NA 
HETATM   15  C   UNL     1      -9.961  14.235  66.117  1.00  0.00    -0.314 A  
HETATM   16  H   UNL     1      -7.956  14.946  66.877  1.00  0.00     0.000 HD 
HETATM   17  C   UNL     1     -11.061  15.065  65.453  1.00  0.00    -0.374 A  
HETATM   18  N   UNL     1     -10.444  16.366  65.347  1.00  0.00    -0.583 NA 
ENDBRANCH  11  13
ENDBRANCH  10  11
ENDBRANCH   2   3
TORSDOF 3
ENDMDL
MODEL       56
REMARK 921   NORMALIZED FREE ENERGY PREDICTED BY IDOCK:   -4.47 KCAL/MOL
REMARK 922        TOTAL FREE ENERGY PREDICTED BY IDOCK:   -5.67 KCAL/MOL
REMARK 923 INTER-LIGAND FREE ENERGY PREDICTED BY IDOCK:   -5.30 KCAL/MOL
REMARK 924 INTRA-LIGAND FREE ENERGY PREDICTED BY IDOCK:   -0.38 KCAL/MOL
REMARK 927      BINDING AFFINITY PREDICTED BY RF-SCORE:    0.00 PKD
ROOT
HETATM    1  C   UNL     1     -12.331  13.195  70.642  1.00  0.00    -0.326 C  
HETATM    2  O   UNL     1     -12.370  12.895  69.245  1.00  0.00    -0.132 OA 
ENDROOT
BRANCH   2   3
HETATM    3  C   UNL     1     -11.745  11.690  68.977  1.00  0.00    -0.324 A  
HETATM    4  N   UNL     1     -11.254  11.026  70.047  1.00  0.00    -0.258 NA 
HETATM    5  C   UNL     1     -10.469   9.972  69.805  1.00  0.00    -0.256 A  
HETATM    6  N   UNL     1     -10.142   9.551  68.581  1.00  0.00    -0.174 NA 
HETATM    7  C   UNL     1      -9.803   9.332  70.981  1.00  0.00    -0.355 C  
HETATM    8  C   UNL     1     -10.709  10.229  67.560  1.00  0.00    -0.294 A  
HETATM    9 CL   UNL     1     -10.185   9.647  66.018  1.00  0.00    -0.306 Cl 
HETATM   10  C   UNL     1     -11.558  11.322  67.658  1.00  0.00    -0.210 A  
BRANCH  10  11
HETATM   11  N   UNL     1     -12.119  11.925  66.527  1.00  0.00    -0.464 NA 
HETATM   12  H   UNL     1     -12.940  11.437  66.167  1.00  0.00     0.000 HD 
BRANCH  11  13
HETATM   13  C   UNL     1     -11.788  13.026  65.817  1.00  0.00    -0.404 A  
HETATM   14  N   UNL     1     -10.542  13.385  65.650  1.00  0.00    -0.277 NA 
HETATM   15  C   UNL     1     -10.612  14.642  64.858  1.00  0.00    -0.422 A  
HETATM   16  H   UNL     1      -9.706  12.908  65.988  1.00  0.00     0.000 HD 
HETATM   17  C   UNL     1     -12.085  14.870  64.514  1.00  0.00    -0.407 A  
HETATM   18  N   UNL     1     -12.732  13.765  65.180  1.00  0.00    -0.686 NA 
ENDBRANCH  11  13
ENDBRANCH  10  11
ENDBRANCH   2   3
TORSDOF 3
ENDMDL
MODEL       57
REMARK 921   NORMALIZED FREE ENERGY PREDICTED BY IDOCK:   -4.43 KCAL/MOL
REMARK 922        TOTAL FREE ENERGY PREDICTED BY IDOCK:   -5.62 KCAL/MOL
REMARK 923 INTER-LIGAND FREE ENERGY PREDICTED BY IDOCK:   -5.09 KCAL/MOL
REMARK 924 INTRA-LIGAND FREE ENERGY PREDICTED BY IDOCK:   -0.53 KCAL/MOL
REMARK 927      BINDING AFFINITY PREDICTED BY RF-SCORE:    0.00 PKD
ROOT
HETATM    1  C   UNL     1     -11.814  12.143  68.633  1.00  0.00    -0.306 C  
HETATM    2  O   UNL     1     -11.808  10.970  67.815  1.00  0.00    -0.605 OA 
ENDROOT
BRANCH   2   3
HETATM    3  C   UNL     1     -11.282  11.238  66.564  1.00  0.00    -0.152 A  
HETATM    4  N   UNL     1     -11.842  12.271  65.895  1.00  0.00    -0.546 NA 
HETATM    5  C   UNL     1     -11.502  12.423  64.611  1.00  0.00    -0.331 A  
HETATM    6  N   UNL     1     -10.659  11.617  63.962  1.00  0.00    -0.336 NA 
HETATM    7  C   UNL     1     -12.234  13.467  63.831  1.00  0.00    -0.458 C  
HETATM    8  C   UNL     1     -10.098  10.639  64.705  1.00  0.00    -0.344 A  
HETATM    9 CL   UNL     1      -9.065   9.616  63.768  1.00  0.00    -0.261 Cl 
HETATM   10  C   UNL     1     -10.335  10.375  66.046  1.00  0.00    -0.192 A  
BRANCH  10  11
HETATM   11  N   UNL     1      -9.665   9.352  66.728  1.00  0.00    -0.183 NA 
HETATM   12  H   UNL     1      -8.757   9.633  67.099  1.00  0.00     0.000 HD 
BRANCH  11  13
HETATM   13  C   UNL     1      -9.983   8.066  66.990  1.00  0.00    -0.254 A  
HETATM   14  N   UNL     1     -10.911   7.752  67.856  1.00  0.00    -0.484 NA 
HETATM   15  C   UNL     1     -10.926   6.265  67.875  1.00  0.00    -0.327 A  
HETATM   16  H   UNL     1     -11.496   8.387  68.400  1.00  0.00     0.000 HD 
HETATM   17  C   UNL     1      -9.940   5.796  66.803  1.00  0.00    -0.175 A  
HETATM   18  N   UNL     1      -9.409   7.043  66.306  1.00  0.00    -0.139 NA 
ENDBRANCH  11  13
ENDBRANCH  10  11
ENDBRANCH   2   3
TORSDOF 3
ENDMDL
MODEL       58
REMARK 921   NORMALIZED FREE ENERGY PREDICTED BY IDOCK:   -4.42 KCAL/MOL
REMARK 922        TOTAL FREE ENERGY PREDICTED BY IDOCK:   -5.61 KCAL/MOL
REMARK 923 INTER-LIGAND FREE ENERGY PREDICTED BY IDOCK:   -5.17 KCAL/MOL
REMARK 924 INTRA-LIGAND FREE ENERGY PREDICTED BY IDOCK:   -0.44 KCAL/MOL
REMARK 927      BINDING AFFINITY PREDICTED BY RF-SCORE:    0.00 PKD
ROOT
HETATM    1  C   UNL     1     -14.263   7.439  71.583  1.00  0.00    -0.440 C  
HETATM    2  O   UNL     1     -13.691   8.392  72.482  1.00  0.00    -0.246 OA 
ENDROOT
BRANCH   2   3
HETATM    3  C   UNL     1     -12.562   8.978  71.936  1.00  0.00    -0.382 A  
HETATM    4  N   UNL     1     -12.781   9.888  70.961  1.00  0.00    -0.336 NA 
HETATM    5  C   UNL     1     -11.717  10.315  70.274  1.00  0.00    -0.306 A  
HETATM    6  N   UNL     1     -10.470   9.891  70.491  1.00  0.00    -0.291 NA 
HETATM    7  C   UNL     1     -11.975  11.203  69.098  1.00  0.00    -0.413 C  
HETATM    8  C   UNL     1     -10.319   9.021  71.513  1.00  0.00    -0.342 A  
HETATM    9 CL   UNL     1      -8.682   8.489  71.682  1.00  0.00    -0.238 Cl 
HETATM   10  C   UNL     1     -11.321   8.511  72.324  1.00  0.00    -0.371 A  
BRANCH  10  11
HETATM   11  N   UNL     1     -11.042   7.639  73.384  1.00  0.00    -0.538 NA 
HETATM   12  H   UNL     1     -10.982   8.103  74.290  1.00  0.00     0.000 HD 
BRANCH  11  13
HETATM   13  C   UNL     1     -10.836   6.306  73.442  1.00  0.00    -0.214 A  
HETATM   14  N   UNL     1     -11.779   5.452  73.138  1.00  0.00    -0.538 NA 
HETATM   15  C   UNL     1     -11.168   4.116  73.363  1.00  0.00    -0.244 A  
HETATM   16  H   UNL     1     -12.726   5.658  72.818  1.00  0.00     0.000 HD 
HETATM   17  C   UNL     1      -9.702   4.352  73.732  1.00  0.00    -0.128 A  
HETATM   18  N   UNL     1      -9.616   5.792  73.743  1.00  0.00    -0.140 NA 
ENDBRANCH  11  13
ENDBRANCH  10  11
ENDBRANCH   2   3
TORSDOF 3
ENDMDL
MODEL       59
REMARK 921   NORMALIZED FREE ENERGY PREDICTED BY IDOCK:   -4.42 KCAL/MOL
REMARK 922        TOTAL FREE ENERGY PREDICTED BY IDOCK:   -5.60 KCAL/MOL
REMARK 923 INTER-LIGAND FREE ENERGY PREDICTED BY IDOCK:   -5.22 KCAL/MOL
REMARK 924 INTRA-LIGAND FREE ENERGY PREDICTED BY IDOCK:   -0.38 KCAL/MOL
REMARK 927      BINDING AFFINITY PREDICTED BY RF-SCORE:    0.00 PKD
ROOT
HETATM    1  C   UNL     1      -9.153   8.710  67.629  1.00  0.00    -0.134 C  
HETATM    2  O   UNL     1     -10.372   9.369  67.280  1.00  0.00    -0.228 OA 
ENDROOT
BRANCH   2   3
HETATM    3  C   UNL     1     -10.790  10.213  68.293  1.00  0.00    -0.252 A  
HETATM    4  N   UNL     1     -11.147   9.616  69.452  1.00  0.00    -0.186 NA 
HETATM    5  C   UNL     1     -11.747  10.378  70.372  1.00  0.00    -0.331 A  
HETATM    6  N   UNL     1     -12.017  11.675  70.206  1.00  0.00    -0.357 NA 
HETATM    7  C   UNL     1     -12.278   9.688  71.588  1.00  0.00    -0.484 C  
HETATM    8  C   UNL     1     -11.587  12.217  69.046  1.00  0.00    -0.319 A  
HETATM    9 CL   UNL     1     -12.029  13.882  68.899  1.00  0.00    -0.387 Cl 
HETATM   10  C   UNL     1     -10.932  11.559  68.015  1.00  0.00    -0.231 A  
BRANCH  10  11
HETATM   11  N   UNL     1     -10.497  12.234  66.867  1.00  0.00    -0.216 NA 
HETATM   12  H   UNL     1      -9.659  12.795  67.016  1.00  0.00     0.000 HD 
BRANCH  11  13
HETATM   13  C   UNL     1     -10.969  12.288  65.603  1.00  0.00    -0.299 A  
HETATM   14  N   UNL     1     -10.174  12.189  64.570  1.00  0.00    -0.289 NA 
HETATM   15  C   UNL     1     -11.067  12.330  63.389  1.00  0.00    -0.418 A  
HETATM   16  H   UNL     1      -9.164  12.046  64.572  1.00  0.00     0.000 HD 
HETATM   17  C   UNL     1     -12.500  12.412  63.921  1.00  0.00    -0.476 A  
HETATM   18  N   UNL     1     -12.301  12.368  65.350  1.00  0.00    -0.614 NA 
ENDBRANCH  11  13
ENDBRANCH  10  11
ENDBRANCH   2   3
TORSDOF 3
ENDMDL
MODEL       60
REMARK 921   NORMALIZED FREE ENERGY PREDICTED BY IDOCK:   -4.41 KCAL/MOL
REMARK 922        TOTAL FREE ENERGY PREDICTED BY IDOCK:   -5.60 KCAL/MOL
REMARK 923 INTER-LIGAND FREE ENERGY PREDICTED BY IDOCK:   -5.20 KCAL/MOL
REMARK 924 INTRA-LIGAND FREE ENERGY PREDICTED BY IDOCK:   -0.40 KCAL/MOL
REMARK 927      BINDING AFFINITY PREDICTED BY RF-SCORE:    0.00 PKD
ROOT
HETATM    1  C   UNL     1     -10.557  16.046  65.450  1.00  0.00    -0.408 C  
HETATM    2  O   UNL     1     -11.343  15.392  66.450  1.00  0.00    -0.236 OA 
ENDROOT
BRANCH   2   3
HETATM    3  C   UNL     1     -11.177  14.020  66.396  1.00  0.00    -0.319 A  
HETATM    4  N   UNL     1     -11.243  13.463  65.166  1.00  0.00    -0.299 NA 
HETATM    5  C   UNL     1     -11.294  12.129  65.101  1.00  0.00    -0.327 A  
HETATM    6  N   UNL     1     -11.292  11.330  66.170  1.00  0.00    -0.196 NA 
HETATM    7  C   UNL     1     -11.521  11.520  63.754  1.00  0.00    -0.380 C  
HETATM    8  C   UNL     1     -11.173  11.951  67.363  1.00  0.00    -0.305 A  
HETATM    9 CL   UNL     1     -11.234  10.840  68.687  1.00  0.00    -0.305 Cl 
HETATM   10  C   UNL     1     -11.086  13.318  67.582  1.00  0.00    -0.269 A  
BRANCH  10  11
HETATM   11  N   UNL     1     -10.926  13.851  68.867  1.00  0.00    -0.258 NA 
HETATM   12  H   UNL     1      -9.952  13.945  69.153  1.00  0.00     0.000 HD 
BRANCH  11  13
HETATM   13  C   UNL     1     -11.809  14.265  69.803  1.00  0.00    -0.324 A  
HETATM   14  N   UNL     1     -12.254  13.458  70.730  1.00  0.00    -0.441 NA 
HETATM   15  C   UNL     1     -13.211  14.278  71.519  1.00  0.00    -0.348 A  
HETATM   16  H   UNL     1     -12.000  12.481  70.879  1.00  0.00     0.000 HD 
HETATM   17  C   UNL     1     -13.148  15.700  70.957  1.00  0.00    -0.427 A  
HETATM   18  N   UNL     1     -12.211  15.560  69.869  1.00  0.00    -0.357 NA 
ENDBRANCH  11  13
ENDBRANCH  10  11
ENDBRANCH   2   3
TORSDOF 3
ENDMDL
MODEL       61
REMARK 921   NORMALIZED FREE ENERGY PREDICTED BY IDOCK:   -4.38 KCAL/MOL
REMARK 922        TOTAL FREE ENERGY PREDICTED BY IDOCK:   -5.57 KCAL/MOL
REMARK 923 INTER-LIGAND FREE ENERGY PREDICTED BY IDOCK:   -5.04 KCAL/MOL
REMARK 924 INTRA-LIGAND FREE ENERGY PREDICTED BY IDOCK:   -0.53 KCAL/MOL
REMARK 927      BINDING AFFINITY PREDICTED BY RF-SCORE:    0.00 PKD
ROOT
HETATM    1  C   UNL     1      -7.492  16.742  68.713  1.00  0.00    -0.231 C  
HETATM    2  O   UNL     1      -7.958  15.714  67.836  1.00  0.00    -0.135 OA 
ENDROOT
BRANCH   2   3
HETATM    3  C   UNL     1      -8.803  16.228  66.869  1.00  0.00    -0.215 A  
HETATM    4  N   UNL     1      -8.964  17.571  66.876  1.00  0.00    -0.244 NA 
HETATM    5  C   UNL     1      -9.925  18.075  66.096  1.00  0.00    -0.285 A  
HETATM    6  N   UNL     1     -10.728  17.335  65.330  1.00  0.00    -0.617 NA 
HETATM    7  C   UNL     1     -10.205  19.539  66.219  1.00  0.00    -0.582 C  
HETATM    8  C   UNL     1     -10.478  16.007  65.333  1.00  0.00    -0.392 A  
HETATM    9 CL   UNL     1     -11.602  15.128  64.354  1.00  0.00    -0.323 Cl 
HETATM   10  C   UNL     1      -9.504  15.348  66.068  1.00  0.00    -0.346 A  
BRANCH  10  11
HETATM   11  N   UNL     1      -9.310  13.965  65.963  1.00  0.00    -0.507 NA 
HETATM   12  H   UNL     1      -8.782  13.688  65.135  1.00  0.00     0.000 HD 
BRANCH  11  13
HETATM   13  C   UNL     1      -9.684  12.927  66.742  1.00  0.00    -0.246 A  
HETATM   14  N   UNL     1      -9.027  12.613  67.828  1.00  0.00    -0.179 NA 
HETATM   15  C   UNL     1      -9.726  11.415  68.361  1.00  0.00    -0.203 A  
HETATM   16  H   UNL     1      -8.213  13.086  68.222  1.00  0.00     0.000 HD 
HETATM   17  C   UNL     1     -10.943  11.174  67.466  1.00  0.00    -0.275 A  
HETATM   18  N   UNL     1     -10.806  12.211  66.473  1.00  0.00    -0.258 NA 
ENDBRANCH  11  13
ENDBRANCH  10  11
ENDBRANCH   2   3
TORSDOF 3
ENDMDL
MODEL       62
REMARK 921   NORMALIZED FREE ENERGY PREDICTED BY IDOCK:   -4.38 KCAL/MOL
REMARK 922        TOTAL FREE ENERGY PREDICTED BY IDOCK:   -5.56 KCAL/MOL
REMARK 923 INTER-LIGAND FREE ENERGY PREDICTED BY IDOCK:   -5.19 KCAL/MOL
REMARK 924 INTRA-LIGAND FREE ENERGY PREDICTED BY IDOCK:   -0.37 KCAL/MOL
REMARK 927      BINDING AFFINITY PREDICTED BY RF-SCORE:    0.00 PKD
ROOT
HETATM    1  C   UNL     1      -8.550   7.798  69.157  1.00  0.00    -0.138 C  
HETATM    2  O   UNL     1      -9.694   8.655  69.147  1.00  0.00    -0.168 OA 
ENDROOT
BRANCH   2   3
HETATM    3  C   UNL     1     -10.322   8.662  70.380  1.00  0.00    -0.200 A  
HETATM    4  N   UNL     1      -9.722   7.944  71.355  1.00  0.00    -0.162 NA 
HETATM    5  C   UNL     1     -10.405   7.761  72.489  1.00  0.00    -0.268 A  
HETATM    6  N   UNL     1     -11.634   8.236  72.703  1.00  0.00    -0.392 NA 
HETATM    7  C   UNL     1      -9.808   6.841  73.505  1.00  0.00    -0.249 C  
HETATM    8  C   UNL     1     -12.152   8.987  71.707  1.00  0.00    -0.368 A  
HETATM    9 CL   UNL     1     -13.764   9.510  72.053  1.00  0.00    -0.446 Cl 
HETATM   10  C   UNL     1     -11.553   9.280  70.491  1.00  0.00    -0.217 A  
BRANCH  10  11
HETATM   11  N   UNL     1     -12.171  10.105  69.543  1.00  0.00    -0.486 NA 
HETATM   12  H   UNL     1     -12.966   9.668  69.077  1.00  0.00     0.000 HD 
BRANCH  11  13
HETATM   13  C   UNL     1     -11.922  11.365  69.125  1.00  0.00    -0.328 A  
HETATM   14  N   UNL     1     -11.715  12.340  69.971  1.00  0.00    -0.503 NA 
HETATM   15  C   UNL     1     -11.519  13.544  69.121  1.00  0.00    -0.295 A  
HETATM   16  H   UNL     1     -11.694  12.287  70.990  1.00  0.00     0.000 HD 
HETATM   17  C   UNL     1     -11.537  13.071  67.667  1.00  0.00    -0.355 A  
HETATM   18  N   UNL     1     -11.796  11.658  67.805  1.00  0.00    -0.611 NA 
ENDBRANCH  11  13
ENDBRANCH  10  11
ENDBRANCH   2   3
TORSDOF 3
ENDMDL
MODEL       63
REMARK 921   NORMALIZED FREE ENERGY PREDICTED BY IDOCK:   -4.38 KCAL/MOL
REMARK 922        TOTAL FREE ENERGY PREDICTED BY IDOCK:   -5.56 KCAL/MOL
REMARK 923 INTER-LIGAND FREE ENERGY PREDICTED BY IDOCK:   -5.15 KCAL/MOL
REMARK 924 INTRA-LIGAND FREE ENERGY PREDICTED BY IDOCK:   -0.40 KCAL/MOL
REMARK 927      BINDING AFFINITY PREDICTED BY RF-SCORE:    0.00 PKD
ROOT
HETATM    1  C   UNL     1     -11.999  15.028  64.368  1.00  0.00    -0.353 C  
HETATM    2  O   UNL     1     -10.614  14.994  64.721  1.00  0.00    -0.402 OA 
ENDROOT
BRANCH   2   3
HETATM    3  C   UNL     1     -10.334  15.900  65.729  1.00  0.00    -0.376 A  
HETATM    4  N   UNL     1     -10.669  17.186  65.478  1.00  0.00    -0.498 NA 
HETATM    5  C   UNL     1     -10.227  18.110  66.337  1.00  0.00    -0.399 A  
HETATM    6  N   UNL     1      -9.477  17.837  67.407  1.00  0.00    -0.251 NA 
HETATM    7  C   UNL     1     -10.465  19.543  65.979  1.00  0.00    -0.611 C  
HETATM    8  C   UNL     1      -9.225  16.528  67.623  1.00  0.00    -0.200 A  
HETATM    9 CL   UNL     1      -8.204  16.278  68.997  1.00  0.00    -0.239 Cl 
HETATM   10  C   UNL     1      -9.635  15.462  66.837  1.00  0.00    -0.226 A  
BRANCH  10  11
HETATM   11  N   UNL     1      -9.345  14.136  67.180  1.00  0.00    -0.227 NA 
HETATM   12  H   UNL     1      -8.372  13.875  67.020  1.00  0.00     0.000 HD 
BRANCH  11  13
HETATM   13  C   UNL     1     -10.100  13.134  67.682  1.00  0.00    -0.221 A  
HETATM   14  N   UNL     1      -9.951  12.712  68.910  1.00  0.00    -0.424 NA 
HETATM   15  C   UNL     1     -10.927  11.599  69.050  1.00  0.00    -0.233 A  
HETATM   16  H   UNL     1      -9.306  13.067  69.617  1.00  0.00     0.000 HD 
HETATM   17  C   UNL     1     -11.723  11.538  67.745  1.00  0.00    -0.227 A  
HETATM   18  N   UNL     1     -11.102  12.574  66.956  1.00  0.00    -0.267 NA 
ENDBRANCH  11  13
ENDBRANCH  10  11
ENDBRANCH   2   3
TORSDOF 3
ENDMDL
MODEL       64
REMARK 921   NORMALIZED FREE ENERGY PREDICTED BY IDOCK:   -4.36 KCAL/MOL
REMARK 922        TOTAL FREE ENERGY PREDICTED BY IDOCK:   -5.54 KCAL/MOL
REMARK 923 INTER-LIGAND FREE ENERGY PREDICTED BY IDOCK:   -5.17 KCAL/MOL
REMARK 924 INTRA-LIGAND FREE ENERGY PREDICTED BY IDOCK:   -0.37 KCAL/MOL
REMARK 927      BINDING AFFINITY PREDICTED BY RF-SCORE:    0.00 PKD
ROOT
HETATM    1  C   UNL     1     -14.206   8.543  71.719  1.00  0.00    -0.446 C  
HETATM    2  O   UNL     1     -13.184   9.351  71.129  1.00  0.00    -0.310 OA 
ENDROOT
BRANCH   2   3
HETATM    3  C   UNL     1     -11.946   8.743  71.233  1.00  0.00    -0.301 A  
HETATM    4  N   UNL     1     -11.720   8.051  72.372  1.00  0.00    -0.367 NA 
HETATM    5  C   UNL     1     -10.471   7.630  72.594  1.00  0.00    -0.287 A  
HETATM    6  N   UNL     1      -9.449   7.861  71.767  1.00  0.00    -0.151 NA 
HETATM    7  C   UNL     1     -10.188   7.000  73.920  1.00  0.00    -0.388 C  
HETATM    8  C   UNL     1      -9.757   8.513  70.625  1.00  0.00    -0.176 A  
HETATM    9 CL   UNL     1      -8.362   8.812  69.647  1.00  0.00    -0.123 Cl 
HETATM   10  C   UNL     1     -11.005   8.986  70.251  1.00  0.00    -0.244 A  
BRANCH  10  11
HETATM   11  N   UNL     1     -11.217   9.618  69.019  1.00  0.00    -0.446 NA 
HETATM   12  H   UNL     1     -11.447   8.974  68.262  1.00  0.00     0.000 HD 
BRANCH  11  13
HETATM   13  C   UNL     1     -11.175  10.912  68.636  1.00  0.00    -0.267 A  
HETATM   14  N   UNL     1     -10.268  11.734  69.095  1.00  0.00    -0.418 NA 
HETATM   15  C   UNL     1     -10.589  13.043  68.466  1.00  0.00    -0.258 A  
HETATM   16  H   UNL     1      -9.507  11.525  69.742  1.00  0.00     0.000 HD 
HETATM   17  C   UNL     1     -11.748  12.800  67.498  1.00  0.00    -0.364 A  
HETATM   18  N   UNL     1     -12.026  11.398  67.696  1.00  0.00    -0.626 NA 
ENDBRANCH  11  13
ENDBRANCH  10  11
ENDBRANCH   2   3
TORSDOF 3
ENDMDL
MODEL       65
REMARK 921   NORMALIZED FREE ENERGY PREDICTED BY IDOCK:   -4.33 KCAL/MOL
REMARK 922        TOTAL FREE ENERGY PREDICTED BY IDOCK:   -5.50 KCAL/MOL
REMARK 923 INTER-LIGAND FREE ENERGY PREDICTED BY IDOCK:   -5.09 KCAL/MOL
REMARK 924 INTRA-LIGAND FREE ENERGY PREDICTED BY IDOCK:   -0.41 KCAL/MOL
REMARK 927      BINDING AFFINITY PREDICTED BY RF-SCORE:    0.00 PKD
ROOT
HETATM    1  C   UNL     1     -11.577  14.874  68.219  1.00  0.00    -0.334 C  
HETATM    2  O   UNL     1     -10.646  14.013  68.879  1.00  0.00    -0.244 OA 
ENDROOT
BRANCH   2   3
HETATM    3  C   UNL     1     -11.153  12.731  69.003  1.00  0.00    -0.233 A  
HETATM    4  N   UNL     1     -11.920  12.501  70.092  1.00  0.00    -0.343 NA 
HETATM    5  C   UNL     1     -12.251  11.232  70.348  1.00  0.00    -0.365 A  
HETATM    6  N   UNL     1     -11.863  10.195  69.602  1.00  0.00    -0.111 NA 
HETATM    7  C   UNL     1     -12.967  10.959  71.633  1.00  0.00    -0.569 C  
HETATM    8  C   UNL     1     -11.143  10.503  68.502  1.00  0.00    -0.275 A  
HETATM    9 CL   UNL     1     -10.643   9.095  67.632  1.00  0.00    -0.322 Cl 
HETATM   10  C   UNL     1     -10.747  11.770  68.098  1.00  0.00    -0.214 A  
BRANCH  10  11
HETATM   11  N   UNL     1     -10.030  11.976  66.913  1.00  0.00    -0.201 NA 
HETATM   12  H   UNL     1      -9.020  12.008  67.046  1.00  0.00     0.000 HD 
BRANCH  11  13
HETATM   13  C   UNL     1     -10.414  12.141  65.628  1.00  0.00    -0.255 A  
HETATM   14  N   UNL     1      -9.581  11.963  64.636  1.00  0.00    -0.432 NA 
HETATM   15  C   UNL     1     -10.373  12.274  63.416  1.00  0.00    -0.357 A  
HETATM   16  H   UNL     1      -8.604  11.675  64.687  1.00  0.00     0.000 HD 
HETATM   17  C   UNL     1     -11.808  12.544  63.873  1.00  0.00    -0.463 A  
HETATM   18  N   UNL     1     -11.703  12.423  65.307  1.00  0.00    -0.378 NA 
ENDBRANCH  11  13
ENDBRANCH  10  11
ENDBRANCH   2   3
TORSDOF 3
ENDMDL
MODEL       66
REMARK 921   NORMALIZED FREE ENERGY PREDICTED BY IDOCK:   -4.32 KCAL/MOL
REMARK 922        TOTAL FREE ENERGY PREDICTED BY IDOCK:   -5.49 KCAL/MOL
REMARK 923 INTER-LIGAND FREE ENERGY PREDICTED BY IDOCK:   -5.10 KCAL/MOL
REMARK 924 INTRA-LIGAND FREE ENERGY PREDICTED BY IDOCK:   -0.38 KCAL/MOL
REMARK 927      BINDING AFFINITY PREDICTED BY RF-SCORE:    0.00 PKD
ROOT
HETATM    1  C   UNL     1      -6.240  16.359  68.810  1.00  0.00    -0.132 C  
HETATM    2  O   UNL     1      -7.566  16.849  69.021  1.00  0.00    -0.240 OA 
ENDROOT
BRANCH   2   3
HETATM    3  C   UNL     1      -7.829  17.939  68.211  1.00  0.00    -0.285 A  
HETATM    4  N   UNL     1      -6.860  18.880  68.150  1.00  0.00    -0.236 NA 
HETATM    5  C   UNL     1      -7.165  20.033  67.547  1.00  0.00    -0.277 A  
HETATM    6  N   UNL     1      -8.360  20.305  67.018  1.00  0.00    -0.325 NA 
HETATM    7  C   UNL     1      -6.148  21.127  67.614  1.00  0.00    -0.425 C  
HETATM    8  C   UNL     1      -9.263  19.302  67.069  1.00  0.00    -0.307 A  
HETATM    9 CL   UNL     1     -10.793  19.766  66.410  1.00  0.00    -0.493 Cl 
HETATM   10  C   UNL     1      -9.082  18.050  67.638  1.00  0.00    -0.255 A  
BRANCH  10  11
HETATM   11  N   UNL     1     -10.081  17.070  67.599  1.00  0.00    -0.288 NA 
HETATM   12  H   UNL     1     -10.740  17.126  68.376  1.00  0.00     0.000 HD 
BRANCH  11  13
HETATM   13  C   UNL     1     -10.345  16.064  66.737  1.00  0.00    -0.300 A  
HETATM   14  N   UNL     1     -10.327  16.249  65.443  1.00  0.00    -0.567 NA 
HETATM   15  C   UNL     1     -10.699  14.930  64.866  1.00  0.00    -0.405 A  
HETATM   16  H   UNL     1     -10.108  17.109  64.939  1.00  0.00     0.000 HD 
HETATM   17  C   UNL     1     -10.816  13.950  66.035  1.00  0.00    -0.290 A  
HETATM   18  N   UNL     1     -10.561  14.797  67.175  1.00  0.00    -0.280 NA 
ENDBRANCH  11  13
ENDBRANCH  10  11
ENDBRANCH   2   3
TORSDOF 3
ENDMDL
MODEL       67
REMARK 921   NORMALIZED FREE ENERGY PREDICTED BY IDOCK:   -4.30 KCAL/MOL
REMARK 922        TOTAL FREE ENERGY PREDICTED BY IDOCK:   -5.47 KCAL/MOL
REMARK 923 INTER-LIGAND FREE ENERGY PREDICTED BY IDOCK:   -5.05 KCAL/MOL
REMARK 924 INTRA-LIGAND FREE ENERGY PREDICTED BY IDOCK:   -0.41 KCAL/MOL
REMARK 927      BINDING AFFINITY PREDICTED BY RF-SCORE:    0.00 PKD
ROOT
HETATM    1  C   UNL     1     -12.570  13.353  65.274  1.00  0.00    -0.464 C  
HETATM    2  O   UNL     1     -12.264  12.693  66.505  1.00  0.00    -0.538 OA 
ENDROOT
BRANCH   2   3
HETATM    3  C   UNL     1     -11.022  13.074  66.981  1.00  0.00    -0.265 A  
HETATM    4  N   UNL     1     -10.591  14.296  66.595  1.00  0.00    -0.276 NA 
HETATM    5  C   UNL     1      -9.319  14.608  66.864  1.00  0.00    -0.243 A  
HETATM    6  N   UNL     1      -8.463  13.786  67.475  1.00  0.00    -0.183 NA 
HETATM    7  C   UNL     1      -8.799  15.893  66.304  1.00  0.00    -0.386 C  
HETATM    8  C   UNL     1      -8.976  12.603  67.877  1.00  0.00    -0.189 A  
HETATM    9 CL   UNL     1      -7.782  11.588  68.608  1.00  0.00    -0.136 Cl 
HETATM   10  C   UNL     1     -10.275  12.155  67.691  1.00  0.00    -0.197 A  
BRANCH  10  11
HETATM   11  N   UNL     1     -10.709  10.919  68.186  1.00  0.00    -0.198 NA 
HETATM   12  H   UNL     1     -10.509  10.136  67.564  1.00  0.00     0.000 HD 
BRANCH  11  13
HETATM   13  C   UNL     1     -11.339  10.559  69.326  1.00  0.00    -0.262 A  
HETATM   14  N   UNL     1     -12.633  10.687  69.463  1.00  0.00    -0.643 NA 
HETATM   15  C   UNL     1     -12.915  10.222  70.846  1.00  0.00    -0.371 A  
HETATM   16  H   UNL     1     -13.301  11.030  68.772  1.00  0.00     0.000 HD 
HETATM   17  C   UNL     1     -11.594   9.709  71.423  1.00  0.00    -0.400 A  
HETATM   18  N   UNL     1     -10.666   9.975  70.350  1.00  0.00    -0.303 NA 
ENDBRANCH  11  13
ENDBRANCH  10  11
ENDBRANCH   2   3
TORSDOF 3
ENDMDL
MODEL       68
REMARK 921   NORMALIZED FREE ENERGY PREDICTED BY IDOCK:   -4.30 KCAL/MOL
REMARK 922        TOTAL FREE ENERGY PREDICTED BY IDOCK:   -5.47 KCAL/MOL
REMARK 923 INTER-LIGAND FREE ENERGY PREDICTED BY IDOCK:   -5.08 KCAL/MOL
REMARK 924 INTRA-LIGAND FREE ENERGY PREDICTED BY IDOCK:   -0.39 KCAL/MOL
REMARK 927      BINDING AFFINITY PREDICTED BY RF-SCORE:    0.00 PKD
ROOT
HETATM    1  C   UNL     1      -7.625  14.353  68.738  1.00  0.00    -0.131 C  
HETATM    2  O   UNL     1      -8.746  14.465  67.858  1.00  0.00    -0.154 OA 
ENDROOT
BRANCH   2   3
HETATM    3  C   UNL     1      -8.830  15.736  67.317  1.00  0.00    -0.195 A  
HETATM    4  N   UNL     1      -7.717  16.190  66.696  1.00  0.00    -0.246 NA 
HETATM    5  C   UNL     1      -7.696  17.480  66.348  1.00  0.00    -0.297 A  
HETATM    6  N   UNL     1      -8.695  18.333  66.583  1.00  0.00    -0.270 NA 
HETATM    7  C   UNL     1      -6.411  18.018  65.803  1.00  0.00    -0.293 C  
HETATM    8  C   UNL     1      -9.794  17.800  67.159  1.00  0.00    -0.311 A  
HETATM    9 CL   UNL     1     -11.010  18.990  67.473  1.00  0.00    -0.465 Cl 
HETATM   10  C   UNL     1      -9.969  16.481  67.552  1.00  0.00    -0.255 A  
BRANCH  10  11
HETATM   11  N   UNL     1     -11.172  16.029  68.108  1.00  0.00    -0.344 NA 
HETATM   12  H   UNL     1     -11.890  15.819  67.415  1.00  0.00     0.000 HD 
BRANCH  11  13
HETATM   13  C   UNL     1     -11.569  15.818  69.382  1.00  0.00    -0.365 A  
HETATM   14  N   UNL     1     -12.835  15.784  69.708  1.00  0.00    -0.552 NA 
HETATM   15  C   UNL     1     -12.841  15.569  71.179  1.00  0.00    -0.489 A  
HETATM   16  H   UNL     1     -13.641  15.885  69.090  1.00  0.00     0.000 HD 
HETATM   17  C   UNL     1     -11.385  15.374  71.608  1.00  0.00    -0.385 A  
HETATM   18  N   UNL     1     -10.672  15.551  70.366  1.00  0.00    -0.328 NA 
ENDBRANCH  11  13
ENDBRANCH  10  11
ENDBRANCH   2   3
TORSDOF 3
ENDMDL
MODEL       69
REMARK 921   NORMALIZED FREE ENERGY PREDICTED BY IDOCK:   -4.29 KCAL/MOL
REMARK 922        TOTAL FREE ENERGY PREDICTED BY IDOCK:   -5.46 KCAL/MOL
REMARK 923 INTER-LIGAND FREE ENERGY PREDICTED BY IDOCK:   -4.94 KCAL/MOL
REMARK 924 INTRA-LIGAND FREE ENERGY PREDICTED BY IDOCK:   -0.52 KCAL/MOL
REMARK 927      BINDING AFFINITY PREDICTED BY RF-SCORE:    0.00 PKD
ROOT
HETATM    1  C   UNL     1     -12.116  13.571  67.060  1.00  0.00    -0.354 C  
HETATM    2  O   UNL     1     -12.072  12.320  67.750  1.00  0.00    -0.478 OA 
ENDROOT
BRANCH   2   3
HETATM    3  C   UNL     1     -11.021  11.540  67.301  1.00  0.00    -0.271 A  
HETATM    4  N   UNL     1     -10.838  11.507  65.962  1.00  0.00    -0.286 NA 
HETATM    5  C   UNL     1      -9.972  10.608  65.485  1.00  0.00    -0.272 A  
HETATM    6  N   UNL     1      -9.294   9.748  66.248  1.00  0.00    -0.169 NA 
HETATM    7  C   UNL     1      -9.884  10.467  63.999  1.00  0.00    -0.387 C  
HETATM    8  C   UNL     1      -9.487   9.871  67.579  1.00  0.00    -0.151 A  
HETATM    9 CL   UNL     1      -8.611   8.682  68.479  1.00  0.00    -0.134 Cl 
HETATM   10  C   UNL     1     -10.331  10.769  68.216  1.00  0.00    -0.173 A  
BRANCH  10  11
HETATM   11  N   UNL     1     -10.423  10.832  69.612  1.00  0.00    -0.406 NA 
HETATM   12  H   UNL     1      -9.623  11.283  70.055  1.00  0.00     0.000 HD 
BRANCH  11  13
HETATM   13  C   UNL     1     -11.363  10.414  70.487  1.00  0.00    -0.341 A  
HETATM   14  N   UNL     1     -12.399  11.153  70.786  1.00  0.00    -0.382 NA 
HETATM   15  C   UNL     1     -13.155  10.359  71.791  1.00  0.00    -0.462 A  
HETATM   16  H   UNL     1     -12.637  12.072  70.412  1.00  0.00     0.000 HD 
HETATM   17  C   UNL     1     -12.439   9.014  71.925  1.00  0.00    -0.384 A  
HETATM   18  N   UNL     1     -11.314   9.172  71.036  1.00  0.00    -0.286 NA 
ENDBRANCH  11  13
ENDBRANCH  10  11
ENDBRANCH   2   3
TORSDOF 3
ENDMDL
MODEL       70
REMARK 921   NORMALIZED FREE ENERGY PREDICTED BY IDOCK:   -4.27 KCAL/MOL
REMARK 922        TOTAL FREE ENERGY PREDICTED BY IDOCK:   -5.43 KCAL/MOL
REMARK 923 INTER-LIGAND FREE ENERGY PREDICTED BY IDOCK:   -5.09 KCAL/MOL
REMARK 924 INTRA-LIGAND FREE ENERGY PREDICTED BY IDOCK:   -0.34 KCAL/MOL
REMARK 927      BINDING AFFINITY PREDICTED BY RF-SCORE:    0.00 PKD
ROOT
HETATM    1  C   UNL     1      -8.358   8.637  70.716  1.00  0.00    -0.152 C  
HETATM    2  O   UNL     1      -9.222   8.998  71.796  1.00  0.00    -0.329 OA 
ENDROOT
BRANCH   2   3
HETATM    3  C   UNL     1     -10.503   9.261  71.344  1.00  0.00    -0.338 A  
HETATM    4  N   UNL     1     -10.597  10.096  70.285  1.00  0.00    -0.290 NA 
HETATM    5  C   UNL     1     -11.817  10.531  69.957  1.00  0.00    -0.308 A  
HETATM    6  N   UNL     1     -12.929  10.199  70.615  1.00  0.00    -0.287 NA 
HETATM    7  C   UNL     1     -11.905  11.572  68.886  1.00  0.00    -0.406 C  
HETATM    8  C   UNL     1     -12.768   9.322  71.629  1.00  0.00    -0.364 A  
HETATM    9 CL   UNL     1     -14.253   8.995  72.453  1.00  0.00    -0.489 Cl 
HETATM   10  C   UNL     1     -11.573   8.769  72.066  1.00  0.00    -0.366 A  
BRANCH  10  11
HETATM   11  N   UNL     1     -11.529   7.837  73.110  1.00  0.00    -0.605 NA 
HETATM   12  H   UNL     1     -11.893   8.194  73.993  1.00  0.00     0.000 HD 
BRANCH  11  13
HETATM   13  C   UNL     1     -11.099   6.558  73.177  1.00  0.00    -0.166 A  
HETATM   14  N   UNL     1     -11.845   5.562  72.776  1.00  0.00    -0.481 NA 
HETATM   15  C   UNL     1     -11.033   4.346  73.049  1.00  0.00    -0.204 A  
HETATM   16  H   UNL     1     -12.779   5.608  72.367  1.00  0.00     0.000 HD 
HETATM   17  C   UNL     1      -9.673   4.825  73.561  1.00  0.00    -0.135 A  
HETATM   18  N   UNL     1      -9.841   6.257  73.591  1.00  0.00    -0.174 NA 
ENDBRANCH  11  13
ENDBRANCH  10  11
ENDBRANCH   2   3
TORSDOF 3
ENDMDL
MODEL       71
REMARK 921   NORMALIZED FREE ENERGY PREDICTED BY IDOCK:   -4.25 KCAL/MOL
REMARK 922        TOTAL FREE ENERGY PREDICTED BY IDOCK:   -5.40 KCAL/MOL
REMARK 923 INTER-LIGAND FREE ENERGY PREDICTED BY IDOCK:   -5.02 KCAL/MOL
REMARK 924 INTRA-LIGAND FREE ENERGY PREDICTED BY IDOCK:   -0.39 KCAL/MOL
REMARK 927      BINDING AFFINITY PREDICTED BY RF-SCORE:    0.00 PKD
ROOT
HETATM    1  C   UNL     1     -13.001  11.256  71.616  1.00  0.00    -0.432 C  
HETATM    2  O   UNL     1     -12.215  11.611  70.477  1.00  0.00    -0.356 OA 
ENDROOT
BRANCH   2   3
HETATM    3  C   UNL     1     -11.618  10.496  69.915  1.00  0.00    -0.307 A  
HETATM    4  N   UNL     1     -11.173   9.562  70.785  1.00  0.00    -0.289 NA 
HETATM    5  C   UNL     1     -10.413   8.580  70.290  1.00  0.00    -0.220 A  
HETATM    6  N   UNL     1     -10.069   8.479  69.004  1.00  0.00    -0.195 NA 
HETATM    7  C   UNL     1      -9.795   7.635  71.271  1.00  0.00    -0.187 C  
HETATM    8  C   UNL     1     -10.592   9.417  68.184  1.00  0.00    -0.212 A  
HETATM    9 CL   UNL     1     -10.047   9.236  66.553  1.00  0.00    -0.345 Cl 
HETATM   10  C   UNL     1     -11.410  10.475  68.550  1.00  0.00    -0.257 A  
BRANCH  10  11
HETATM   11  N   UNL     1     -11.926  11.370  67.604  1.00  0.00    -0.626 NA 
HETATM   12  H   UNL     1     -12.799  11.057  67.177  1.00  0.00     0.000 HD 
BRANCH  11  13
HETATM   13  C   UNL     1     -11.497  12.566  67.146  1.00  0.00    -0.351 A  
HETATM   14  N   UNL     1     -12.043  13.137  66.104  1.00  0.00    -0.421 NA 
HETATM   15  C   UNL     1     -11.272  14.393  65.912  1.00  0.00    -0.324 A  
HETATM   16  H   UNL     1     -12.826  12.795  65.546  1.00  0.00     0.000 HD 
HETATM   17  C   UNL     1     -10.282  14.491  67.075  1.00  0.00    -0.262 A  
HETATM   18  N   UNL     1     -10.530  13.265  67.795  1.00  0.00    -0.235 NA 
ENDBRANCH  11  13
ENDBRANCH  10  11
ENDBRANCH   2   3
TORSDOF 3
ENDMDL
MODEL       72
REMARK 921   NORMALIZED FREE ENERGY PREDICTED BY IDOCK:   -4.22 KCAL/MOL
REMARK 922        TOTAL FREE ENERGY PREDICTED BY IDOCK:   -5.38 KCAL/MOL
REMARK 923 INTER-LIGAND FREE ENERGY PREDICTED BY IDOCK:   -4.90 KCAL/MOL
REMARK 924 INTRA-LIGAND FREE ENERGY PREDICTED BY IDOCK:   -0.48 KCAL/MOL
REMARK 927      BINDING AFFINITY PREDICTED BY RF-SCORE:    0.00 PKD
ROOT
HETATM    1  C   UNL     1      -9.201  10.353  68.955  1.00  0.00    -0.177 C  
HETATM    2  O   UNL     1     -10.451  10.058  68.328  1.00  0.00    -0.190 OA 
ENDROOT
BRANCH   2   3
HETATM    3  C   UNL     1     -10.392  10.290  66.965  1.00  0.00    -0.243 A  
HETATM    4  N   UNL     1      -9.599   9.456  66.256  1.00  0.00    -0.213 NA 
HETATM    5  C   UNL     1      -9.359   9.779  64.981  1.00  0.00    -0.263 A  
HETATM    6  N   UNL     1      -9.847  10.868  64.383  1.00  0.00    -0.280 NA 
HETATM    7  C   UNL     1      -8.361   8.945  64.243  1.00  0.00    -0.176 C  
HETATM    8  C   UNL     1     -10.673  11.627  65.135  1.00  0.00    -0.296 A  
HETATM    9 CL   UNL     1     -11.209  13.039  64.293  1.00  0.00    -0.385 Cl 
HETATM   10  C   UNL     1     -11.030  11.405  66.456  1.00  0.00    -0.272 A  
BRANCH  10  11
HETATM   11  N   UNL     1     -11.929  12.242  67.129  1.00  0.00    -0.576 NA 
HETATM   12  H   UNL     1     -12.903  11.952  67.041  1.00  0.00     0.000 HD 
BRANCH  11  13
HETATM   13  C   UNL     1     -11.760  13.359  67.870  1.00  0.00    -0.361 A  
HETATM   14  N   UNL     1     -12.101  14.538  67.420  1.00  0.00    -0.579 NA 
HETATM   15  C   UNL     1     -11.725  15.482  68.506  1.00  0.00    -0.337 A  
HETATM   16  H   UNL     1     -12.530  14.762  66.522  1.00  0.00     0.000 HD 
HETATM   17  C   UNL     1     -11.224  14.635  69.678  1.00  0.00    -0.272 A  
HETATM   18  N   UNL     1     -11.302  13.296  69.147  1.00  0.00    -0.278 NA 
ENDBRANCH  11  13
ENDBRANCH  10  11
ENDBRANCH   2   3
TORSDOF 3
ENDMDL
MODEL       73
REMARK 921   NORMALIZED FREE ENERGY PREDICTED BY IDOCK:   -4.20 KCAL/MOL
REMARK 922        TOTAL FREE ENERGY PREDICTED BY IDOCK:   -5.35 KCAL/MOL
REMARK 923 INTER-LIGAND FREE ENERGY PREDICTED BY IDOCK:   -5.01 KCAL/MOL
REMARK 924 INTRA-LIGAND FREE ENERGY PREDICTED BY IDOCK:   -0.35 KCAL/MOL
REMARK 927      BINDING AFFINITY PREDICTED BY RF-SCORE:    0.00 PKD
ROOT
HETATM    1  C   UNL     1      -9.512  15.769  66.536  1.00  0.00    -0.272 C  
HETATM    2  O   UNL     1     -10.641  15.286  67.269  1.00  0.00    -0.278 OA 
ENDROOT
BRANCH   2   3
HETATM    3  C   UNL     1     -10.456  13.972  67.660  1.00  0.00    -0.245 A  
HETATM    4  N   UNL     1      -9.463  13.302  67.034  1.00  0.00    -0.235 NA 
HETATM    5  C   UNL     1      -9.394  11.982  67.237  1.00  0.00    -0.180 A  
HETATM    6  N   UNL     1     -10.246  11.301  68.006  1.00  0.00    -0.178 NA 
HETATM    7  C   UNL     1      -8.395  11.219  66.427  1.00  0.00    -0.159 C  
HETATM    8  C   UNL     1     -11.181  12.041  68.641  1.00  0.00    -0.258 A  
HETATM    9 CL   UNL     1     -12.268  11.067  69.568  1.00  0.00    -0.390 Cl 
HETATM   10  C   UNL     1     -11.357  13.414  68.546  1.00  0.00    -0.289 A  
BRANCH  10  11
HETATM   11  N   UNL     1     -12.341  14.084  69.283  1.00  0.00    -0.472 NA 
HETATM   12  H   UNL     1     -13.149  14.365  68.727  1.00  0.00     0.000 HD 
BRANCH  11  13
HETATM   13  C   UNL     1     -12.431  14.433  70.585  1.00  0.00    -0.350 A  
HETATM   14  N   UNL     1     -11.414  14.938  71.231  1.00  0.00    -0.503 NA 
HETATM   15  C   UNL     1     -11.910  15.145  72.618  1.00  0.00    -0.381 A  
HETATM   16  H   UNL     1     -10.484  15.145  70.865  1.00  0.00     0.000 HD 
HETATM   17  C   UNL     1     -13.396  14.782  72.618  1.00  0.00    -0.464 A  
HETATM   18  N   UNL     1     -13.607  14.348  71.258  1.00  0.00    -0.350 NA 
ENDBRANCH  11  13
ENDBRANCH  10  11
ENDBRANCH   2   3
TORSDOF 3
ENDMDL
MODEL       74
REMARK 921   NORMALIZED FREE ENERGY PREDICTED BY IDOCK:   -4.20 KCAL/MOL
REMARK 922        TOTAL FREE ENERGY PREDICTED BY IDOCK:   -5.35 KCAL/MOL
REMARK 923 INTER-LIGAND FREE ENERGY PREDICTED BY IDOCK:   -4.88 KCAL/MOL
REMARK 924 INTRA-LIGAND FREE ENERGY PREDICTED BY IDOCK:   -0.47 KCAL/MOL
REMARK 927      BINDING AFFINITY PREDICTED BY RF-SCORE:    0.00 PKD
ROOT
HETATM    1  C   UNL     1      -8.191   9.193  69.343  1.00  0.00    -0.118 C  
HETATM    2  O   UNL     1      -9.511   8.768  68.994  1.00  0.00    -0.157 OA 
ENDROOT
BRANCH   2   3
HETATM    3  C   UNL     1     -10.144   9.708  68.201  1.00  0.00    -0.175 A  
HETATM    4  N   UNL     1      -9.943   9.591  66.869  1.00  0.00    -0.201 NA 
HETATM    5  C   UNL     1     -10.367  10.597  66.097  1.00  0.00    -0.227 A  
HETATM    6  N   UNL     1     -10.961  11.696  66.565  1.00  0.00    -0.289 NA 
HETATM    7  C   UNL     1     -10.008  10.541  64.647  1.00  0.00    -0.415 C  
HETATM    8  C   UNL     1     -11.177  11.722  67.898  1.00  0.00    -0.267 A  
HETATM    9 CL   UNL     1     -11.901  13.205  68.415  1.00  0.00    -0.385 Cl 
HETATM   10  C   UNL     1     -10.816  10.747  68.816  1.00  0.00    -0.221 A  
BRANCH  10  11
HETATM   11  N   UNL     1     -11.125  10.863  70.177  1.00  0.00    -0.455 NA 
HETATM   12  H   UNL     1     -10.828  11.747  70.590  1.00  0.00     0.000 HD 
BRANCH  11  13
HETATM   13  C   UNL     1     -11.738  10.035  71.050  1.00  0.00    -0.392 A  
HETATM   14  N   UNL     1     -11.069   9.145  71.736  1.00  0.00    -0.370 NA 
HETATM   15  C   UNL     1     -12.099   8.430  72.536  1.00  0.00    -0.337 A  
HETATM   16  H   UNL     1     -10.063   8.977  71.725  1.00  0.00     0.000 HD 
HETATM   17  C   UNL     1     -13.433   9.133  72.275  1.00  0.00    -0.486 A  
HETATM   18  N   UNL     1     -13.066  10.144  71.313  1.00  0.00    -0.385 NA 
ENDBRANCH  11  13
ENDBRANCH  10  11
ENDBRANCH   2   3
TORSDOF 3
ENDMDL
MODEL       75
REMARK 921   NORMALIZED FREE ENERGY PREDICTED BY IDOCK:   -4.19 KCAL/MOL
REMARK 922        TOTAL FREE ENERGY PREDICTED BY IDOCK:   -5.34 KCAL/MOL
REMARK 923 INTER-LIGAND FREE ENERGY PREDICTED BY IDOCK:   -4.95 KCAL/MOL
REMARK 924 INTRA-LIGAND FREE ENERGY PREDICTED BY IDOCK:   -0.39 KCAL/MOL
REMARK 927      BINDING AFFINITY PREDICTED BY RF-SCORE:    0.00 PKD
ROOT
HETATM    1  C   UNL     1      -5.885  16.263  67.752  1.00  0.00    -0.139 C  
HETATM    2  O   UNL     1      -6.630  16.465  66.549  1.00  0.00    -0.245 OA 
ENDROOT
BRANCH   2   3
HETATM    3  C   UNL     1      -7.906  16.925  66.825  1.00  0.00    -0.244 A  
HETATM    4  N   UNL     1      -8.806  15.987  67.199  1.00  0.00    -0.195 NA 
HETATM    5  C   UNL     1     -10.086  16.364  67.270  1.00  0.00    -0.270 A  
HETATM    6  N   UNL     1     -10.518  17.595  66.989  1.00  0.00    -0.329 NA 
HETATM    7  C   UNL     1     -11.098  15.294  67.532  1.00  0.00    -0.324 C  
HETATM    8  C   UNL     1      -9.559  18.493  66.673  1.00  0.00    -0.321 A  
HETATM    9 CL   UNL     1     -10.219  20.040  66.273  1.00  0.00    -0.589 Cl 
HETATM   10  C   UNL     1      -8.196  18.254  66.583  1.00  0.00    -0.262 A  
BRANCH  10  11
HETATM   11  N   UNL     1      -7.286  19.274  66.283  1.00  0.00    -0.238 NA 
HETATM   12  H   UNL     1      -6.967  19.793  67.102  1.00  0.00     0.000 HD 
BRANCH  11  13
HETATM   13  C   UNL     1      -6.747  19.708  65.122  1.00  0.00    -0.225 A  
HETATM   14  N   UNL     1      -6.827  20.961  64.756  1.00  0.00    -0.532 NA 
HETATM   15  C   UNL     1      -6.155  21.012  63.431  1.00  0.00    -0.296 A  
HETATM   16  H   UNL     1      -7.256  21.733  65.266  1.00  0.00     0.000 HD 
HETATM   17  C   UNL     1      -5.588  19.616  63.164  1.00  0.00    -0.317 A  
HETATM   18  N   UNL     1      -6.030  18.877  64.323  1.00  0.00    -0.422 NA 
ENDBRANCH  11  13
ENDBRANCH  10  11
ENDBRANCH   2   3
TORSDOF 3
ENDMDL
MODEL       76
REMARK 921   NORMALIZED FREE ENERGY PREDICTED BY IDOCK:   -4.18 KCAL/MOL
REMARK 922        TOTAL FREE ENERGY PREDICTED BY IDOCK:   -5.33 KCAL/MOL
REMARK 923 INTER-LIGAND FREE ENERGY PREDICTED BY IDOCK:   -4.89 KCAL/MOL
REMARK 924 INTRA-LIGAND FREE ENERGY PREDICTED BY IDOCK:   -0.44 KCAL/MOL
REMARK 927      BINDING AFFINITY PREDICTED BY RF-SCORE:    0.00 PKD
ROOT
HETATM    1  C   UNL     1     -12.445  15.215  70.216  1.00  0.00    -0.342 C  
HETATM    2  O   UNL     1     -12.175  15.944  69.017  1.00  0.00    -0.253 OA 
ENDROOT
BRANCH   2   3
HETATM    3  C   UNL     1     -11.333  15.233  68.180  1.00  0.00    -0.338 A  
HETATM    4  N   UNL     1     -11.837  14.087  67.668  1.00  0.00    -0.378 NA 
HETATM    5  C   UNL     1     -10.986  13.279  67.029  1.00  0.00    -0.276 A  
HETATM    6  N   UNL     1      -9.685  13.534  66.879  1.00  0.00    -0.253 NA 
HETATM    7  C   UNL     1     -11.507  11.944  66.599  1.00  0.00    -0.382 C  
HETATM    8  C   UNL     1      -9.261  14.719  67.369  1.00  0.00    -0.196 A  
HETATM    9 CL   UNL     1      -7.556  14.935  67.176  1.00  0.00    -0.206 Cl 
HETATM   10  C   UNL     1     -10.030  15.665  68.031  1.00  0.00    -0.222 A  
BRANCH  10  11
HETATM   11  N   UNL     1      -9.490  16.882  68.465  1.00  0.00    -0.257 NA 
HETATM   12  H   UNL     1      -8.918  16.799  69.306  1.00  0.00     0.000 HD 
BRANCH  11  13
HETATM   13  C   UNL     1      -9.577  18.143  67.991  1.00  0.00    -0.300 A  
HETATM   14  N   UNL     1     -10.711  18.641  67.571  1.00  0.00    -0.431 NA 
HETATM   15  C   UNL     1     -10.375  20.013  67.107  1.00  0.00    -0.416 A  
HETATM   16  H   UNL     1     -11.625  18.187  67.562  1.00  0.00     0.000 HD 
HETATM   17  C   UNL     1      -8.899  20.246  67.437  1.00  0.00    -0.344 A  
HETATM   18  N   UNL     1      -8.506  18.978  68.004  1.00  0.00    -0.292 NA 
ENDBRANCH  11  13
ENDBRANCH  10  11
ENDBRANCH   2   3
TORSDOF 3
ENDMDL
MODEL       77
REMARK 921   NORMALIZED FREE ENERGY PREDICTED BY IDOCK:   -4.17 KCAL/MOL
REMARK 922        TOTAL FREE ENERGY PREDICTED BY IDOCK:   -5.31 KCAL/MOL
REMARK 923 INTER-LIGAND FREE ENERGY PREDICTED BY IDOCK:   -4.73 KCAL/MOL
REMARK 924 INTRA-LIGAND FREE ENERGY PREDICTED BY IDOCK:   -0.58 KCAL/MOL
REMARK 927      BINDING AFFINITY PREDICTED BY RF-SCORE:    0.00 PKD
ROOT
HETATM    1  C   UNL     1     -11.736   9.126  71.705  1.00  0.00    -0.386 C  
HETATM    2  O   UNL     1     -12.333   8.164  70.833  1.00  0.00    -0.200 OA 
ENDROOT
BRANCH   2   3
HETATM    3  C   UNL     1     -11.760   6.916  71.000  1.00  0.00    -0.345 A  
HETATM    4  N   UNL     1     -11.666   6.474  72.274  1.00  0.00    -0.295 NA 
HETATM    5  C   UNL     1     -10.936   5.375  72.487  1.00  0.00    -0.256 A  
HETATM    6  N   UNL     1     -10.299   4.705  71.524  1.00  0.00    -0.151 NA 
HETATM    7  C   UNL     1     -10.704   4.974  73.909  1.00  0.00    -0.356 C  
HETATM    8  C   UNL     1     -10.479   5.172  70.270  1.00  0.00    -0.226 A  
HETATM    9 CL   UNL     1      -9.574   4.275  69.102  1.00  0.00    -0.249 Cl 
HETATM   10  C   UNL     1     -11.224   6.281  69.897  1.00  0.00    -0.429 A  
BRANCH  10  11
HETATM   11  N   UNL     1     -11.372   6.653  68.555  1.00  0.00    -0.576 NA 
HETATM   12  H   UNL     1     -12.025   6.065  68.037  1.00  0.00     0.000 HD 
BRANCH  11  13
HETATM   13  C   UNL     1     -10.821   7.637  67.811  1.00  0.00    -0.063 A  
HETATM   14  N   UNL     1     -10.948   8.897  68.139  1.00  0.00    -0.473 NA 
HETATM   15  C   UNL     1     -10.241   9.641  67.064  1.00  0.00    -0.244 A  
HETATM   16  H   UNL     1     -11.427   9.284  68.953  1.00  0.00     0.000 HD 
HETATM   17  C   UNL     1      -9.603   8.598  66.144  1.00  0.00    -0.235 A  
HETATM   18  N   UNL     1     -10.044   7.357  66.734  1.00  0.00    -0.243 NA 
ENDBRANCH  11  13
ENDBRANCH  10  11
ENDBRANCH   2   3
TORSDOF 3
ENDMDL
MODEL       78
REMARK 921   NORMALIZED FREE ENERGY PREDICTED BY IDOCK:   -4.17 KCAL/MOL
REMARK 922        TOTAL FREE ENERGY PREDICTED BY IDOCK:   -5.31 KCAL/MOL
REMARK 923 INTER-LIGAND FREE ENERGY PREDICTED BY IDOCK:   -4.95 KCAL/MOL
REMARK 924 INTRA-LIGAND FREE ENERGY PREDICTED BY IDOCK:   -0.36 KCAL/MOL
REMARK 927      BINDING AFFINITY PREDICTED BY RF-SCORE:    0.00 PKD
ROOT
HETATM    1  C   UNL     1     -13.021  12.803  71.421  1.00  0.00    -0.266 C  
HETATM    2  O   UNL     1     -12.161  13.233  70.363  1.00  0.00    -0.348 OA 
ENDROOT
BRANCH   2   3
HETATM    3  C   UNL     1     -11.898  12.199  69.482  1.00  0.00    -0.321 A  
HETATM    4  N   UNL     1     -11.593  11.007  70.042  1.00  0.00    -0.318 NA 
HETATM    5  C   UNL     1     -11.136  10.050  69.229  1.00  0.00    -0.206 A  
HETATM    6  N   UNL     1     -10.959  10.209  67.916  1.00  0.00    -0.285 NA 
HETATM    7  C   UNL     1     -10.654   8.786  69.867  1.00  0.00    -0.230 C  
HETATM    8  C   UNL     1     -11.332  11.407  67.417  1.00  0.00    -0.288 A  
HETATM    9 CL   UNL     1     -11.016  11.536  65.721  1.00  0.00    -0.332 Cl 
HETATM   10  C   UNL     1     -11.843  12.480  68.131  1.00  0.00    -0.317 A  
BRANCH  10  11
HETATM   11  N   UNL     1     -12.234  13.668  67.500  1.00  0.00    -0.381 NA 
HETATM   12  H   UNL     1     -13.240  13.739  67.347  1.00  0.00     0.000 HD 
BRANCH  11  13
HETATM   13  C   UNL     1     -11.541  14.738  67.053  1.00  0.00    -0.339 A  
HETATM   14  N   UNL     1     -10.962  15.572  67.876  1.00  0.00    -0.307 NA 
HETATM   15  C   UNL     1     -10.350  16.607  67.001  1.00  0.00    -0.301 A  
HETATM   16  H   UNL     1     -10.935  15.524  68.895  1.00  0.00     0.000 HD 
HETATM   17  C   UNL     1     -10.582  16.161  65.556  1.00  0.00    -0.377 A  
HETATM   18  N   UNL     1     -11.349  14.950  65.726  1.00  0.00    -0.337 NA 
ENDBRANCH  11  13
ENDBRANCH  10  11
ENDBRANCH   2   3
TORSDOF 3
ENDMDL
MODEL       79
REMARK 921   NORMALIZED FREE ENERGY PREDICTED BY IDOCK:   -4.14 KCAL/MOL
REMARK 922        TOTAL FREE ENERGY PREDICTED BY IDOCK:   -5.28 KCAL/MOL
REMARK 923 INTER-LIGAND FREE ENERGY PREDICTED BY IDOCK:   -5.24 KCAL/MOL
REMARK 924 INTRA-LIGAND FREE ENERGY PREDICTED BY IDOCK:   -0.04 KCAL/MOL
REMARK 927      BINDING AFFINITY PREDICTED BY RF-SCORE:    0.00 PKD
ROOT
HETATM    1  C   UNL     1     -11.510  14.881  67.963  1.00  0.00    -0.337 C  
HETATM    2  O   UNL     1     -10.873  14.060  68.945  1.00  0.00    -0.250 OA 
ENDROOT
BRANCH   2   3
HETATM    3  C   UNL     1     -11.805  13.449  69.764  1.00  0.00    -0.326 A  
HETATM    4  N   UNL     1     -12.525  14.272  70.559  1.00  0.00    -0.342 NA 
HETATM    5  C   UNL     1     -13.281  13.703  71.503  1.00  0.00    -0.331 A  
HETATM    6  N   UNL     1     -13.354  12.386  71.706  1.00  0.00    -0.366 NA 
HETATM    7  C   UNL     1     -13.955  14.614  72.479  1.00  0.00    -0.518 C  
HETATM    8  C   UNL     1     -12.650  11.622  70.844  1.00  0.00    -0.313 A  
HETATM    9 CL   UNL     1     -12.764   9.937  71.219  1.00  0.00    -0.447 Cl 
HETATM   10  C   UNL     1     -11.846  12.068  69.806  1.00  0.00    -0.331 A  
BRANCH  10  11
HETATM   11  N   UNL     1     -11.188  11.180  68.946  1.00  0.00    -0.231 NA 
HETATM   12  H   UNL     1     -10.769  10.382  69.425  1.00  0.00     0.000 HD 
BRANCH  11  13
HETATM   13  C   UNL     1     -10.999  11.171  67.609  1.00  0.00    -0.269 A  
HETATM   14  N   UNL     1     -10.022  10.497  67.060  1.00  0.00    -0.193 NA 
HETATM   15  C   UNL     1     -10.141  10.775  65.604  1.00  0.00    -0.267 A  
HETATM   16  H   UNL     1      -9.329   9.911  67.526  1.00  0.00     0.000 HD 
HETATM   17  C   UNL     1     -11.404  11.618  65.413  1.00  0.00    -0.153 A  
HETATM   18  N   UNL     1     -11.863  11.797  66.770  1.00  0.00    -0.568 NA 
ENDBRANCH  11  13
ENDBRANCH  10  11
ENDBRANCH   2   3
TORSDOF 3
ENDMDL
MODEL       80
REMARK 921   NORMALIZED FREE ENERGY PREDICTED BY IDOCK:   -4.13 KCAL/MOL
REMARK 922        TOTAL FREE ENERGY PREDICTED BY IDOCK:   -5.26 KCAL/MOL
REMARK 923 INTER-LIGAND FREE ENERGY PREDICTED BY IDOCK:   -4.77 KCAL/MOL
REMARK 924 INTRA-LIGAND FREE ENERGY PREDICTED BY IDOCK:   -0.49 KCAL/MOL
REMARK 927      BINDING AFFINITY PREDICTED BY RF-SCORE:    0.00 PKD
ROOT
HETATM    1  C   UNL     1     -12.992  14.735  71.619  1.00  0.00    -0.334 C  
HETATM    2  O   UNL     1     -13.144  13.915  70.458  1.00  0.00    -0.187 OA 
ENDROOT
BRANCH   2   3
HETATM    3  C   UNL     1     -12.135  14.155  69.543  1.00  0.00    -0.340 A  
HETATM    4  N   UNL     1     -11.714  15.436  69.448  1.00  0.00    -0.330 NA 
HETATM    5  C   UNL     1     -10.893  15.736  68.436  1.00  0.00    -0.297 A  
HETATM    6  N   UNL     1     -10.480  14.853  67.524  1.00  0.00    -0.251 NA 
HETATM    7  C   UNL     1     -10.551  17.178  68.240  1.00  0.00    -0.375 C  
HETATM    8  C   UNL     1     -10.898  13.582  67.710  1.00  0.00    -0.253 A  
HETATM    9 CL   UNL     1     -10.358  12.526  66.452  1.00  0.00    -0.254 Cl 
HETATM   10  C   UNL     1     -11.727  13.121  68.722  1.00  0.00    -0.324 A  
BRANCH  10  11
HETATM   11  N   UNL     1     -12.066  11.768  68.839  1.00  0.00    -0.341 NA 
HETATM   12  H   UNL     1     -12.754  11.457  68.153  1.00  0.00     0.000 HD 
BRANCH  11  13
HETATM   13  C   UNL     1     -11.663  10.792  69.682  1.00  0.00    -0.323 A  
HETATM   14  N   UNL     1     -12.034  10.773  70.936  1.00  0.00    -0.339 NA 
HETATM   15  C   UNL     1     -11.357   9.581  71.513  1.00  0.00    -0.385 A  
HETATM   16  H   UNL     1     -12.651  11.430  71.413  1.00  0.00     0.000 HD 
HETATM   17  C   UNL     1     -10.640   8.874  70.361  1.00  0.00    -0.217 A  
HETATM   18  N   UNL     1     -10.918   9.745  69.244  1.00  0.00    -0.219 NA 
ENDBRANCH  11  13
ENDBRANCH  10  11
ENDBRANCH   2   3
TORSDOF 3
ENDMDL
MODEL       81
REMARK 921   NORMALIZED FREE ENERGY PREDICTED BY IDOCK:   -4.13 KCAL/MOL
REMARK 922        TOTAL FREE ENERGY PREDICTED BY IDOCK:   -5.26 KCAL/MOL
REMARK 923 INTER-LIGAND FREE ENERGY PREDICTED BY IDOCK:   -4.88 KCAL/MOL
REMARK 924 INTRA-LIGAND FREE ENERGY PREDICTED BY IDOCK:   -0.38 KCAL/MOL
REMARK 927      BINDING AFFINITY PREDICTED BY RF-SCORE:    0.00 PKD
ROOT
HETATM    1  C   UNL     1     -12.131  14.676  64.376  1.00  0.00    -0.462 C  
HETATM    2  O   UNL     1     -10.766  15.076  64.515  1.00  0.00    -0.289 OA 
ENDROOT
BRANCH   2   3
HETATM    3  C   UNL     1     -10.611  15.963  65.566  1.00  0.00    -0.401 A  
HETATM    4  N   UNL     1     -10.734  17.273  65.258  1.00  0.00    -0.617 NA 
HETATM    5  C   UNL     1     -10.388  18.157  66.199  1.00  0.00    -0.385 A  
HETATM    6  N   UNL     1      -9.926  17.820  67.404  1.00  0.00    -0.311 NA 
HETATM    7  C   UNL     1     -10.377  19.601  65.808  1.00  0.00    -0.506 C  
HETATM    8  C   UNL     1      -9.878  16.495  67.662  1.00  0.00    -0.247 A  
HETATM    9 CL   UNL     1      -9.217  16.156  69.224  1.00  0.00    -0.249 Cl 
HETATM   10  C   UNL     1     -10.226  15.468  66.797  1.00  0.00    -0.280 A  
BRANCH  10  11
HETATM   11  N   UNL     1     -10.171  14.124  67.186  1.00  0.00    -0.256 NA 
HETATM   12  H   UNL     1     -10.994  13.814  67.703  1.00  0.00     0.000 HD 
BRANCH  11  13
HETATM   13  C   UNL     1      -9.243  13.158  67.012  1.00  0.00    -0.233 A  
HETATM   14  N   UNL     1      -8.137  13.136  67.710  1.00  0.00    -0.150 NA 
HETATM   15  C   UNL     1      -7.389  11.957  67.197  1.00  0.00    -0.142 A  
HETATM   16  H   UNL     1      -7.850  13.785  68.443  1.00  0.00     0.000 HD 
HETATM   17  C   UNL     1      -8.298  11.259  66.184  1.00  0.00    -0.111 A  
HETATM   18  N   UNL     1      -9.454  12.122  66.160  1.00  0.00    -0.236 NA 
ENDBRANCH  11  13
ENDBRANCH  10  11
ENDBRANCH   2   3
TORSDOF 3
ENDMDL
MODEL       82
REMARK 921   NORMALIZED FREE ENERGY PREDICTED BY IDOCK:   -4.12 KCAL/MOL
REMARK 922        TOTAL FREE ENERGY PREDICTED BY IDOCK:   -5.26 KCAL/MOL
REMARK 923 INTER-LIGAND FREE ENERGY PREDICTED BY IDOCK:   -4.80 KCAL/MOL
REMARK 924 INTRA-LIGAND FREE ENERGY PREDICTED BY IDOCK:   -0.45 KCAL/MOL
REMARK 927      BINDING AFFINITY PREDICTED BY RF-SCORE:    0.00 PKD
ROOT
HETATM    1  C   UNL     1     -10.780  19.709  65.685  1.00  0.00    -0.329 C  
HETATM    2  O   UNL     1     -10.521  19.870  67.081  1.00  0.00    -0.438 OA 
ENDROOT
BRANCH   2   3
HETATM    3  C   UNL     1      -9.960  18.725  67.619  1.00  0.00    -0.345 A  
HETATM    4  N   UNL     1     -10.829  17.751  67.972  1.00  0.00    -0.299 NA 
HETATM    5  C   UNL     1     -10.342  16.726  68.679  1.00  0.00    -0.318 A  
HETATM    6  N   UNL     1      -9.067  16.620  69.058  1.00  0.00    -0.243 NA 
HETATM    7  C   UNL     1     -11.327  15.728  69.200  1.00  0.00    -0.349 C  
HETATM    8  C   UNL     1      -8.246  17.602  68.627  1.00  0.00    -0.264 A  
HETATM    9 CL   UNL     1      -6.630  17.406  69.211  1.00  0.00    -0.246 Cl 
HETATM   10  C   UNL     1      -8.602  18.708  67.870  1.00  0.00    -0.284 A  
BRANCH  10  11
HETATM   11  N   UNL     1      -7.655  19.649  67.446  1.00  0.00    -0.250 NA 
HETATM   12  H   UNL     1      -7.440  20.358  68.148  1.00  0.00     0.000 HD 
BRANCH  11  13
HETATM   13  C   UNL     1      -6.970  19.803  66.292  1.00  0.00    -0.235 A  
HETATM   14  N   UNL     1      -7.176  20.826  65.505  1.00  0.00    -0.515 NA 
HETATM   15  C   UNL     1      -6.267  20.604  64.349  1.00  0.00    -0.314 A  
HETATM   16  H   UNL     1      -7.820  21.605  65.650  1.00  0.00     0.000 HD 
HETATM   17  C   UNL     1      -5.440  19.357  64.666  1.00  0.00    -0.209 A  
HETATM   18  N   UNL     1      -5.981  18.943  65.938  1.00  0.00    -0.166 NA 
ENDBRANCH  11  13
ENDBRANCH  10  11
ENDBRANCH   2   3
TORSDOF 3
ENDMDL
MODEL       83
REMARK 921   NORMALIZED FREE ENERGY PREDICTED BY IDOCK:   -4.07 KCAL/MOL
REMARK 922        TOTAL FREE ENERGY PREDICTED BY IDOCK:   -5.20 KCAL/MOL
REMARK 923 INTER-LIGAND FREE ENERGY PREDICTED BY IDOCK:   -4.89 KCAL/MOL
REMARK 924 INTRA-LIGAND FREE ENERGY PREDICTED BY IDOCK:   -0.31 KCAL/MOL
REMARK 927      BINDING AFFINITY PREDICTED BY RF-SCORE:    0.00 PKD
ROOT
HETATM    1  C   UNL     1     -10.752  18.615  66.219  1.00  0.00    -0.225 C  
HETATM    2  O   UNL     1     -10.525  17.536  65.310  1.00  0.00    -0.643 OA 
ENDROOT
BRANCH   2   3
HETATM    3  C   UNL     1     -10.085  16.406  65.976  1.00  0.00    -0.353 A  
HETATM    4  N   UNL     1     -11.042  15.524  66.342  1.00  0.00    -0.237 NA 
HETATM    5  C   UNL     1     -10.678  14.533  67.162  1.00  0.00    -0.286 A  
HETATM    6  N   UNL     1      -9.441  14.376  67.639  1.00  0.00    -0.210 NA 
HETATM    7  C   UNL     1     -11.764  13.650  67.689  1.00  0.00    -0.398 C  
HETATM    8  C   UNL     1      -8.526  15.262  67.191  1.00  0.00    -0.209 A  
HETATM    9 CL   UNL     1      -6.970  15.011  67.904  1.00  0.00    -0.150 Cl 
HETATM   10  C   UNL     1      -8.751  16.322  66.325  1.00  0.00    -0.335 A  
BRANCH  10  11
HETATM   11  N   UNL     1      -7.713  17.159  65.897  1.00  0.00    -0.427 NA 
HETATM   12  H   UNL     1      -7.165  16.772  65.128  1.00  0.00     0.000 HD 
BRANCH  11  13
HETATM   13  C   UNL     1      -7.294  18.378  66.302  1.00  0.00    -0.258 A  
HETATM   14  N   UNL     1      -7.048  19.336  65.447  1.00  0.00    -0.456 NA 
HETATM   15  C   UNL     1      -6.586  20.478  66.281  1.00  0.00    -0.241 A  
HETATM   16  H   UNL     1      -7.151  19.308  64.432  1.00  0.00     0.000 HD 
HETATM   17  C   UNL     1      -6.718  20.045  67.742  1.00  0.00    -0.250 A  
HETATM   18  N   UNL     1      -7.186  18.685  67.620  1.00  0.00    -0.215 NA 
ENDBRANCH  11  13
ENDBRANCH  10  11
ENDBRANCH   2   3
TORSDOF 3
ENDMDL
MODEL       84
REMARK 921   NORMALIZED FREE ENERGY PREDICTED BY IDOCK:   -4.07 KCAL/MOL
REMARK 922        TOTAL FREE ENERGY PREDICTED BY IDOCK:   -5.20 KCAL/MOL
REMARK 923 INTER-LIGAND FREE ENERGY PREDICTED BY IDOCK:   -4.97 KCAL/MOL
REMARK 924 INTRA-LIGAND FREE ENERGY PREDICTED BY IDOCK:   -0.23 KCAL/MOL
REMARK 927      BINDING AFFINITY PREDICTED BY RF-SCORE:    0.00 PKD
ROOT
HETATM    1  C   UNL     1     -10.470   9.180  67.028  1.00  0.00    -0.240 C  
HETATM    2  O   UNL     1     -10.112   9.480  68.379  1.00  0.00    -0.163 OA 
ENDROOT
BRANCH   2   3
HETATM    3  C   UNL     1     -10.934  10.461  68.907  1.00  0.00    -0.245 A  
HETATM    4  N   UNL     1     -10.834  11.685  68.341  1.00  0.00    -0.206 NA 
HETATM    5  C   UNL     1     -11.456  12.695  68.957  1.00  0.00    -0.303 A  
HETATM    6  N   UNL     1     -12.153  12.563  70.088  1.00  0.00    -0.332 NA 
HETATM    7  C   UNL     1     -11.220  14.070  68.420  1.00  0.00    -0.292 C  
HETATM    8  C   UNL     1     -12.254  11.305  70.569  1.00  0.00    -0.383 A  
HETATM    9 CL   UNL     1     -13.126  11.243  72.061  1.00  0.00    -0.554 Cl 
HETATM   10  C   UNL     1     -11.686  10.161  70.027  1.00  0.00    -0.223 A  
BRANCH  10  11
HETATM   11  N   UNL     1     -11.889   8.897  70.593  1.00  0.00    -0.450 NA 
HETATM   12  H   UNL     1     -12.665   8.864  71.254  1.00  0.00     0.000 HD 
BRANCH  11  13
HETATM   13  C   UNL     1     -11.260   7.712  70.435  1.00  0.00    -0.244 A  
HETATM   14  N   UNL     1     -11.670   6.829  69.563  1.00  0.00    -0.637 NA 
HETATM   15  C   UNL     1     -10.747   5.675  69.729  1.00  0.00    -0.331 A  
HETATM   16  H   UNL     1     -12.452   6.912  68.912  1.00  0.00     0.000 HD 
HETATM   17  C   UNL     1      -9.689   6.094  70.751  1.00  0.00    -0.177 A  
HETATM   18  N   UNL     1     -10.125   7.418  71.121  1.00  0.00    -0.186 NA 
ENDBRANCH  11  13
ENDBRANCH  10  11
ENDBRANCH   2   3
TORSDOF 3
ENDMDL
MODEL       85
REMARK 921   NORMALIZED FREE ENERGY PREDICTED BY IDOCK:   -4.07 KCAL/MOL
REMARK 922        TOTAL FREE ENERGY PREDICTED BY IDOCK:   -5.19 KCAL/MOL
REMARK 923 INTER-LIGAND FREE ENERGY PREDICTED BY IDOCK:   -4.81 KCAL/MOL
REMARK 924 INTRA-LIGAND FREE ENERGY PREDICTED BY IDOCK:   -0.39 KCAL/MOL
REMARK 927      BINDING AFFINITY PREDICTED BY RF-SCORE:    0.00 PKD
ROOT
HETATM    1  C   UNL     1     -12.548  11.017  71.290  1.00  0.00    -0.412 C  
HETATM    2  O   UNL     1     -12.304  11.677  70.046  1.00  0.00    -0.255 OA 
ENDROOT
BRANCH   2   3
HETATM    3  C   UNL     1     -12.230  13.049  70.216  1.00  0.00    -0.296 A  
HETATM    4  N   UNL     1     -12.847  13.544  71.311  1.00  0.00    -0.351 NA 
HETATM    5  C   UNL     1     -12.971  14.872  71.394  1.00  0.00    -0.354 A  
HETATM    6  N   UNL     1     -12.532  15.722  70.463  1.00  0.00    -0.393 NA 
HETATM    7  C   UNL     1     -13.787  15.412  72.525  1.00  0.00    -0.651 C  
HETATM    8  C   UNL     1     -11.880  15.161  69.422  1.00  0.00    -0.330 A  
HETATM    9 CL   UNL     1     -11.397  16.333  68.245  1.00  0.00    -0.331 Cl 
HETATM   10  C   UNL     1     -11.655  13.808  69.215  1.00  0.00    -0.312 A  
BRANCH  10  11
HETATM   11  N   UNL     1     -10.930  13.340  68.112  1.00  0.00    -0.246 NA 
HETATM   12  H   UNL     1     -11.507  13.152  67.293  1.00  0.00     0.000 HD 
BRANCH  11  13
HETATM   13  C   UNL     1      -9.616  13.089  67.920  1.00  0.00    -0.215 A  
HETATM   14  N   UNL     1      -9.155  11.868  67.849  1.00  0.00    -0.176 NA 
HETATM   15  C   UNL     1      -7.687  12.026  67.673  1.00  0.00    -0.144 A  
HETATM   16  H   UNL     1      -9.686  10.998  67.904  1.00  0.00     0.000 HD 
HETATM   17  C   UNL     1      -7.413  13.526  67.543  1.00  0.00    -0.167 A  
HETATM   18  N   UNL     1      -8.728  14.095  67.713  1.00  0.00    -0.172 NA 
ENDBRANCH  11  13
ENDBRANCH  10  11
ENDBRANCH   2   3
TORSDOF 3
ENDMDL
MODEL       86
REMARK 921   NORMALIZED FREE ENERGY PREDICTED BY IDOCK:   -4.06 KCAL/MOL
REMARK 922        TOTAL FREE ENERGY PREDICTED BY IDOCK:   -5.19 KCAL/MOL
REMARK 923 INTER-LIGAND FREE ENERGY PREDICTED BY IDOCK:   -4.79 KCAL/MOL
REMARK 924 INTRA-LIGAND FREE ENERGY PREDICTED BY IDOCK:   -0.40 KCAL/MOL
REMARK 927      BINDING AFFINITY PREDICTED BY RF-SCORE:    0.00 PKD
ROOT
HETATM    1  C   UNL     1     -10.267  20.091  66.108  1.00  0.00    -0.475 C  
HETATM    2  O   UNL     1     -10.580  19.038  67.023  1.00  0.00    -0.421 OA 
ENDROOT
BRANCH   2   3
HETATM    3  C   UNL     1     -10.127  17.818  66.553  1.00  0.00    -0.358 A  
HETATM    4  N   UNL     1     -10.865  17.250  65.573  1.00  0.00    -0.393 NA 
HETATM    5  C   UNL     1     -10.576  15.987  65.245  1.00  0.00    -0.402 A  
HETATM    6  N   UNL     1      -9.618  15.265  65.830  1.00  0.00    -0.335 NA 
HETATM    7  C   UNL     1     -11.488  15.309  64.273  1.00  0.00    -0.162 C  
HETATM    8  C   UNL     1      -8.887  15.912  66.764  1.00  0.00    -0.262 A  
HETATM    9 CL   UNL     1      -7.710  14.882  67.502  1.00  0.00    -0.195 Cl 
HETATM   10  C   UNL     1      -9.055  17.222  67.188  1.00  0.00    -0.227 A  
BRANCH  10  11
HETATM   11  N   UNL     1      -8.210  17.803  68.142  1.00  0.00    -0.251 NA 
HETATM   12  H   UNL     1      -8.248  17.348  69.054  1.00  0.00     0.000 HD 
BRANCH  11  13
HETATM   13  C   UNL     1      -7.356  18.848  68.091  1.00  0.00    -0.260 A  
HETATM   14  N   UNL     1      -7.038  19.526  69.163  1.00  0.00    -0.356 NA 
HETATM   15  C   UNL     1      -6.120  20.591  68.680  1.00  0.00    -0.328 A  
HETATM   16  H   UNL     1      -7.351  19.360  70.121  1.00  0.00     0.000 HD 
HETATM   17  C   UNL     1      -5.886  20.336  67.190  1.00  0.00    -0.170 A  
HETATM   18  N   UNL     1      -6.727  19.191  66.938  1.00  0.00    -0.196 NA 
ENDBRANCH  11  13
ENDBRANCH  10  11
ENDBRANCH   2   3
TORSDOF 3
ENDMDL
MODEL       87
REMARK 921   NORMALIZED FREE ENERGY PREDICTED BY IDOCK:   -4.05 KCAL/MOL
REMARK 922        TOTAL FREE ENERGY PREDICTED BY IDOCK:   -5.17 KCAL/MOL
REMARK 923 INTER-LIGAND FREE ENERGY PREDICTED BY IDOCK:   -4.87 KCAL/MOL
REMARK 924 INTRA-LIGAND FREE ENERGY PREDICTED BY IDOCK:   -0.30 KCAL/MOL
REMARK 927      BINDING AFFINITY PREDICTED BY RF-SCORE:    0.00 PKD
ROOT
HETATM    1  C   UNL     1      -7.648  13.746  67.716  1.00  0.00    -0.169 C  
HETATM    2  O   UNL     1      -8.938  13.576  68.308  1.00  0.00    -0.183 OA 
ENDROOT
BRANCH   2   3
HETATM    3  C   UNL     1      -9.848  13.084  67.389  1.00  0.00    -0.215 A  
HETATM    4  N   UNL     1      -9.444  12.011  66.672  1.00  0.00    -0.211 NA 
HETATM    5  C   UNL     1     -10.209  11.642  65.641  1.00  0.00    -0.243 A  
HETATM    6  N   UNL     1     -11.330  12.272  65.281  1.00  0.00    -0.328 NA 
HETATM    7  C   UNL     1      -9.686  10.556  64.757  1.00  0.00    -0.365 C  
HETATM    8  C   UNL     1     -11.700  13.303  66.072  1.00  0.00    -0.368 A  
HETATM    9 CL   UNL     1     -13.130  14.087  65.496  1.00  0.00    -0.389 Cl 
HETATM   10  C   UNL     1     -11.023  13.781  67.184  1.00  0.00    -0.290 A  
BRANCH  10  11
HETATM   11  N   UNL     1     -11.522  14.837  67.955  1.00  0.00    -0.330 NA 
HETATM   12  H   UNL     1     -11.731  15.676  67.413  1.00  0.00     0.000 HD 
BRANCH  11  13
HETATM   13  C   UNL     1     -11.782  14.964  69.274  1.00  0.00    -0.316 A  
HETATM   14  N   UNL     1     -11.637  16.106  69.894  1.00  0.00    -0.334 NA 
HETATM   15  C   UNL     1     -11.984  15.815  71.311  1.00  0.00    -0.434 A  
HETATM   16  H   UNL     1     -11.349  17.000  69.495  1.00  0.00     0.000 HD 
HETATM   17  C   UNL     1     -12.453  14.360  71.365  1.00  0.00    -0.359 A  
HETATM   18  N   UNL     1     -12.282  13.930  69.998  1.00  0.00    -0.339 NA 
ENDBRANCH  11  13
ENDBRANCH  10  11
ENDBRANCH   2   3
TORSDOF 3
ENDMDL
MODEL       88
REMARK 921   NORMALIZED FREE ENERGY PREDICTED BY IDOCK:   -4.01 KCAL/MOL
REMARK 922        TOTAL FREE ENERGY PREDICTED BY IDOCK:   -5.13 KCAL/MOL
REMARK 923 INTER-LIGAND FREE ENERGY PREDICTED BY IDOCK:   -5.06 KCAL/MOL
REMARK 924 INTRA-LIGAND FREE ENERGY PREDICTED BY IDOCK:   -0.07 KCAL/MOL
REMARK 927      BINDING AFFINITY PREDICTED BY RF-SCORE:    0.00 PKD
ROOT
HETATM    1  C   UNL     1     -13.653   9.331  72.279  1.00  0.00    -0.480 C  
HETATM    2  O   UNL     1     -12.962   9.561  71.049  1.00  0.00    -0.294 OA 
ENDROOT
BRANCH   2   3
HETATM    3  C   UNL     1     -12.637  10.898  70.903  1.00  0.00    -0.397 A  
HETATM    4  N   UNL     1     -13.076  11.724  71.878  1.00  0.00    -0.445 NA 
HETATM    5  C   UNL     1     -12.959  13.038  71.663  1.00  0.00    -0.321 A  
HETATM    6  N   UNL     1     -12.447  13.570  70.551  1.00  0.00    -0.325 NA 
HETATM    7  C   UNL     1     -13.583  13.952  72.669  1.00  0.00    -0.626 C  
HETATM    8  C   UNL     1     -11.980  12.685  69.643  1.00  0.00    -0.286 A  
HETATM    9 CL   UNL     1     -11.387  13.465  68.217  1.00  0.00    -0.308 Cl 
HETATM   10  C   UNL     1     -12.012  11.302  69.739  1.00  0.00    -0.360 A  
BRANCH  10  11
HETATM   11  N   UNL     1     -11.462  10.480  68.748  1.00  0.00    -0.421 NA 
HETATM   12  H   UNL     1     -12.092   9.742  68.432  1.00  0.00     0.000 HD 
BRANCH  11  13
HETATM   13  C   UNL     1     -10.263  10.472  68.126  1.00  0.00    -0.162 A  
HETATM   14  N   UNL     1     -10.138  10.088  66.883  1.00  0.00    -0.218 NA 
HETATM   15  C   UNL     1      -8.682  10.193  66.599  1.00  0.00    -0.126 A  
HETATM   16  H   UNL     1     -10.876   9.783  66.248  1.00  0.00     0.000 HD 
HETATM   17  C   UNL     1      -8.028  10.801  67.841  1.00  0.00    -0.110 A  
HETATM   18  N   UNL     1      -9.146  10.939  68.742  1.00  0.00    -0.175 NA 
ENDBRANCH  11  13
ENDBRANCH  10  11
ENDBRANCH   2   3
TORSDOF 3
ENDMDL
MODEL       89
REMARK 921   NORMALIZED FREE ENERGY PREDICTED BY IDOCK:   -4.00 KCAL/MOL
REMARK 922        TOTAL FREE ENERGY PREDICTED BY IDOCK:   -5.12 KCAL/MOL
REMARK 923 INTER-LIGAND FREE ENERGY PREDICTED BY IDOCK:   -4.81 KCAL/MOL
REMARK 924 INTRA-LIGAND FREE ENERGY PREDICTED BY IDOCK:   -0.30 KCAL/MOL
REMARK 927      BINDING AFFINITY PREDICTED BY RF-SCORE:    0.00 PKD
ROOT
HETATM    1  C   UNL     1      -6.463  15.496  68.399  1.00  0.00    -0.114 C  
HETATM    2  O   UNL     1      -7.620  16.245  68.776  1.00  0.00    -0.173 OA 
ENDROOT
BRANCH   2   3
HETATM    3  C   UNL     1      -7.985  17.135  67.781  1.00  0.00    -0.184 A  
HETATM    4  N   UNL     1      -7.017  17.463  66.896  1.00  0.00    -0.174 NA 
HETATM    5  C   UNL     1      -7.274  18.469  66.055  1.00  0.00    -0.255 A  
HETATM    6  N   UNL     1      -8.415  19.161  66.047  1.00  0.00    -0.459 NA 
HETATM    7  C   UNL     1      -6.151  18.933  65.182  1.00  0.00    -0.317 C  
HETATM    8  C   UNL     1      -9.357  18.746  66.922  1.00  0.00    -0.300 A  
HETATM    9 CL   UNL     1     -10.774  19.735  66.875  1.00  0.00    -0.588 Cl 
HETATM   10  C   UNL     1      -9.241  17.707  67.834  1.00  0.00    -0.267 A  
BRANCH  10  11
HETATM   11  N   UNL     1     -10.301  17.339  68.671  1.00  0.00    -0.339 NA 
HETATM   12  H   UNL     1     -10.636  18.097  69.266  1.00  0.00     0.000 HD 
BRANCH  11  13
HETATM   13  C   UNL     1     -10.968  16.177  68.847  1.00  0.00    -0.324 A  
HETATM   14  N   UNL     1     -11.471  15.844  70.007  1.00  0.00    -0.337 NA 
HETATM   15  C   UNL     1     -12.079  14.505  69.786  1.00  0.00    -0.331 A  
HETATM   16  H   UNL     1     -11.452  16.384  70.872  1.00  0.00     0.000 HD 
HETATM   17  C   UNL     1     -11.935  14.190  68.296  1.00  0.00    -0.332 A  
HETATM   18  N   UNL     1     -11.213  15.340  67.806  1.00  0.00    -0.320 NA 
ENDBRANCH  11  13
ENDBRANCH  10  11
ENDBRANCH   2   3
TORSDOF 3
ENDMDL
MODEL       90
REMARK 921   NORMALIZED FREE ENERGY PREDICTED BY IDOCK:   -3.99 KCAL/MOL
REMARK 922        TOTAL FREE ENERGY PREDICTED BY IDOCK:   -5.11 KCAL/MOL
REMARK 923 INTER-LIGAND FREE ENERGY PREDICTED BY IDOCK:   -5.14 KCAL/MOL
REMARK 924 INTRA-LIGAND FREE ENERGY PREDICTED BY IDOCK:    0.03 KCAL/MOL
REMARK 927      BINDING AFFINITY PREDICTED BY RF-SCORE:    0.00 PKD
ROOT
HETATM    1  C   UNL     1      -7.049  15.621  68.798  1.00  0.00    -0.127 C  
HETATM    2  O   UNL     1      -8.253  15.207  68.147  1.00  0.00    -0.138 OA 
ENDROOT
BRANCH   2   3
HETATM    3  C   UNL     1      -8.848  16.263  67.480  1.00  0.00    -0.186 A  
HETATM    4  N   UNL     1      -8.847  17.449  68.129  1.00  0.00    -0.246 NA 
HETATM    5  C   UNL     1      -9.590  18.430  67.609  1.00  0.00    -0.279 A  
HETATM    6  N   UNL     1     -10.328  18.301  66.504  1.00  0.00    -0.385 NA 
HETATM    7  C   UNL     1      -9.713  19.689  68.406  1.00  0.00    -0.497 C  
HETATM    8  C   UNL     1     -10.241  17.107  65.879  1.00  0.00    -0.276 A  
HETATM    9 CL   UNL     1     -11.270  17.017  64.493  1.00  0.00     0.192 Cl 
HETATM   10  C   UNL     1      -9.496  16.010  66.287  1.00  0.00    -0.315 A  
BRANCH  10  11
HETATM   11  N   UNL     1      -9.451  14.828  65.537  1.00  0.00    -0.481 NA 
HETATM   12  H   UNL     1      -8.505  14.487  65.368  1.00  0.00     0.000 HD 
BRANCH  11  13
HETATM   13  C   UNL     1     -10.413  14.052  64.992  1.00  0.00    -0.420 A  
HETATM   14  N   UNL     1     -10.188  13.328  63.927  1.00  0.00    -0.735 NA 
HETATM   15  C   UNL     1     -11.488  12.666  63.638  1.00  0.00    -0.495 A  
HETATM   16  H   UNL     1      -9.314  13.237  63.408  1.00  0.00     0.000 HD 
HETATM   17  C   UNL     1     -12.443  13.045  64.771  1.00  0.00    -0.427 A  
HETATM   18  N   UNL     1     -11.634  13.929  65.574  1.00  0.00    -0.318 NA 
ENDBRANCH  11  13
ENDBRANCH  10  11
ENDBRANCH   2   3
TORSDOF 3
ENDMDL
MODEL       91
REMARK 921   NORMALIZED FREE ENERGY PREDICTED BY IDOCK:   -3.99 KCAL/MOL
REMARK 922        TOTAL FREE ENERGY PREDICTED BY IDOCK:   -5.11 KCAL/MOL
REMARK 923 INTER-LIGAND FREE ENERGY PREDICTED BY IDOCK:   -4.64 KCAL/MOL
REMARK 924 INTRA-LIGAND FREE ENERGY PREDICTED BY IDOCK:   -0.46 KCAL/MOL
REMARK 927      BINDING AFFINITY PREDICTED BY RF-SCORE:    0.00 PKD
ROOT
HETATM    1  C   UNL     1     -11.984  11.356  69.598  1.00  0.00    -0.348 C  
HETATM    2  O   UNL     1     -10.661  11.244  69.066  1.00  0.00    -0.206 OA 
ENDROOT
BRANCH   2   3
HETATM    3  C   UNL     1     -10.582  10.221  68.138  1.00  0.00    -0.221 A  
HETATM    4  N   UNL     1     -10.777   8.972  68.616  1.00  0.00    -0.150 NA 
HETATM    5  C   UNL     1     -10.504   7.954  67.795  1.00  0.00    -0.212 A  
HETATM    6  N   UNL     1     -10.048   8.102  66.549  1.00  0.00    -0.255 NA 
HETATM    7  C   UNL     1     -10.572   6.575  68.370  1.00  0.00    -0.296 C  
HETATM    8  C   UNL     1      -9.925   9.377  66.120  1.00  0.00    -0.281 A  
HETATM    9 CL   UNL     1      -9.278   9.469  64.519  1.00  0.00    -0.270 Cl 
HETATM   10  C   UNL     1     -10.193  10.527  66.848  1.00  0.00    -0.229 A  
BRANCH  10  11
HETATM   11  N   UNL     1     -10.066  11.803  66.286  1.00  0.00    -0.211 NA 
HETATM   12  H   UNL     1      -9.105  12.144  66.259  1.00  0.00     0.000 HD 
BRANCH  11  13
HETATM   13  C   UNL     1     -10.964  12.672  65.774  1.00  0.00    -0.280 A  
HETATM   14  N   UNL     1     -11.980  13.101  66.477  1.00  0.00    -0.402 NA 
HETATM   15  C   UNL     1     -12.730  13.993  65.554  1.00  0.00    -0.486 A  
HETATM   16  H   UNL     1     -12.208  12.875  67.446  1.00  0.00     0.000 HD 
HETATM   17  C   UNL     1     -11.916  14.083  64.262  1.00  0.00    -0.435 A  
HETATM   18  N   UNL     1     -10.808  13.199  64.533  1.00  0.00    -0.362 NA 
ENDBRANCH  11  13
ENDBRANCH  10  11
ENDBRANCH   2   3
TORSDOF 3
ENDMDL
MODEL       92
REMARK 921   NORMALIZED FREE ENERGY PREDICTED BY IDOCK:   -3.99 KCAL/MOL
REMARK 922        TOTAL FREE ENERGY PREDICTED BY IDOCK:   -5.10 KCAL/MOL
REMARK 923 INTER-LIGAND FREE ENERGY PREDICTED BY IDOCK:   -4.64 KCAL/MOL
REMARK 924 INTRA-LIGAND FREE ENERGY PREDICTED BY IDOCK:   -0.46 KCAL/MOL
REMARK 927      BINDING AFFINITY PREDICTED BY RF-SCORE:    0.00 PKD
ROOT
HETATM    1  C   UNL     1     -12.458  14.389  70.028  1.00  0.00    -0.301 C  
HETATM    2  O   UNL     1     -11.136  14.114  69.559  1.00  0.00    -0.238 OA 
ENDROOT
BRANCH   2   3
HETATM    3  C   UNL     1     -11.165  13.375  68.390  1.00  0.00    -0.279 A  
HETATM    4  N   UNL     1     -11.130  12.032  68.538  1.00  0.00    -0.226 NA 
HETATM    5  C   UNL     1     -10.949  11.300  67.434  1.00  0.00    -0.282 A  
HETATM    6  N   UNL     1     -10.794  11.818  66.213  1.00  0.00    -0.271 NA 
HETATM    7  C   UNL     1     -10.756   9.828  67.614  1.00  0.00    -0.334 C  
HETATM    8  C   UNL     1     -10.892  13.163  66.133  1.00  0.00    -0.279 A  
HETATM    9 CL   UNL     1     -10.625  13.743  64.525  1.00  0.00    -0.438 Cl 
HETATM   10  C   UNL     1     -11.101  14.044  67.183  1.00  0.00    -0.303 A  
BRANCH  10  11
HETATM   11  N   UNL     1     -11.223  15.424  66.977  1.00  0.00    -0.279 NA 
HETATM   12  H   UNL     1     -12.150  15.710  66.663  1.00  0.00     0.000 HD 
BRANCH  11  13
HETATM   13  C   UNL     1     -10.354  16.450  67.111  1.00  0.00    -0.290 A  
HETATM   14  N   UNL     1      -9.396  16.425  67.999  1.00  0.00    -0.214 NA 
HETATM   15  C   UNL     1      -8.703  17.732  67.847  1.00  0.00    -0.251 A  
HETATM   16  H   UNL     1      -9.172  15.674  68.654  1.00  0.00     0.000 HD 
HETATM   17  C   UNL     1      -9.353  18.445  66.660  1.00  0.00    -0.305 A  
HETATM   18  N   UNL     1     -10.390  17.519  66.274  1.00  0.00    -0.353 NA 
ENDBRANCH  11  13
ENDBRANCH  10  11
ENDBRANCH   2   3
TORSDOF 3
ENDMDL
MODEL       93
REMARK 921   NORMALIZED FREE ENERGY PREDICTED BY IDOCK:   -3.99 KCAL/MOL
REMARK 922        TOTAL FREE ENERGY PREDICTED BY IDOCK:   -5.10 KCAL/MOL
REMARK 923 INTER-LIGAND FREE ENERGY PREDICTED BY IDOCK:   -4.67 KCAL/MOL
REMARK 924 INTRA-LIGAND FREE ENERGY PREDICTED BY IDOCK:   -0.43 KCAL/MOL
REMARK 927      BINDING AFFINITY PREDICTED BY RF-SCORE:    0.00 PKD
ROOT
HETATM    1  C   UNL     1     -12.973  10.841  71.109  1.00  0.00    -0.371 C  
HETATM    2  O   UNL     1     -11.556  10.873  70.920  1.00  0.00    -0.271 OA 
ENDROOT
BRANCH   2   3
HETATM    3  C   UNL     1     -11.232  10.845  69.576  1.00  0.00    -0.277 A  
HETATM    4  N   UNL     1     -11.556  11.949  68.866  1.00  0.00    -0.285 NA 
HETATM    5  C   UNL     1     -11.446  11.874  67.536  1.00  0.00    -0.326 A  
HETATM    6  N   UNL     1     -11.049  10.781  66.881  1.00  0.00    -0.227 NA 
HETATM    7  C   UNL     1     -11.949  13.038  66.743  1.00  0.00    -0.434 C  
HETATM    8  C   UNL     1     -10.692   9.733  67.655  1.00  0.00    -0.274 A  
HETATM    9 CL   UNL     1     -10.245   8.350  66.718  1.00  0.00    -0.374 Cl 
HETATM   10  C   UNL     1     -10.730   9.674  69.040  1.00  0.00    -0.211 A  
BRANCH  10  11
HETATM   11  N   UNL     1     -10.299   8.543  69.743  1.00  0.00    -0.208 NA 
HETATM   12  H   UNL     1      -9.411   8.167  69.410  1.00  0.00     0.000 HD 
BRANCH  11  13
HETATM   13  C   UNL     1     -10.827   7.850  70.776  1.00  0.00    -0.232 A  
HETATM   14  N   UNL     1     -10.485   8.098  72.013  1.00  0.00    -0.241 NA 
HETATM   15  C   UNL     1     -11.250   7.112  72.823  1.00  0.00    -0.275 A  
HETATM   16  H   UNL     1      -9.836   8.809  72.350  1.00  0.00     0.000 HD 
HETATM   17  C   UNL     1     -12.158   6.350  71.855  1.00  0.00    -0.310 A  
HETATM   18  N   UNL     1     -11.796   6.920  70.580  1.00  0.00    -0.352 NA 
ENDBRANCH  11  13
ENDBRANCH  10  11
ENDBRANCH   2   3
TORSDOF 3
ENDMDL
MODEL       94
REMARK 921   NORMALIZED FREE ENERGY PREDICTED BY IDOCK:   -3.99 KCAL/MOL
REMARK 922        TOTAL FREE ENERGY PREDICTED BY IDOCK:   -5.10 KCAL/MOL
REMARK 923 INTER-LIGAND FREE ENERGY PREDICTED BY IDOCK:   -4.72 KCAL/MOL
REMARK 924 INTRA-LIGAND FREE ENERGY PREDICTED BY IDOCK:   -0.38 KCAL/MOL
REMARK 927      BINDING AFFINITY PREDICTED BY RF-SCORE:    0.00 PKD
ROOT
HETATM    1  C   UNL     1     -10.349   9.309  68.202  1.00  0.00    -0.215 C  
HETATM    2  O   UNL     1     -10.202   9.700  69.569  1.00  0.00    -0.193 OA 
ENDROOT
BRANCH   2   3
HETATM    3  C   UNL     1     -10.780   8.773  70.418  1.00  0.00    -0.225 A  
HETATM    4  N   UNL     1      -9.998   7.731  70.778  1.00  0.00    -0.181 NA 
HETATM    5  C   UNL     1     -10.587   6.719  71.423  1.00  0.00    -0.221 A  
HETATM    6  N   UNL     1     -11.888   6.680  71.718  1.00  0.00    -0.320 NA 
HETATM    7  C   UNL     1      -9.759   5.502  71.685  1.00  0.00    -0.203 C  
HETATM    8  C   UNL     1     -12.599   7.776  71.375  1.00  0.00    -0.317 A  
HETATM    9 CL   UNL     1     -14.279   7.610  71.748  1.00  0.00    -0.527 Cl 
HETATM   10  C   UNL     1     -12.120   8.905  70.727  1.00  0.00    -0.107 A  
BRANCH  10  11
HETATM   11  N   UNL     1     -12.944  10.004  70.453  1.00  0.00    -0.585 NA 
HETATM   12  H   UNL     1     -13.664   9.812  69.757  1.00  0.00     0.000 HD 
BRANCH  11  13
HETATM   13  C   UNL     1     -12.973  11.268  70.929  1.00  0.00    -0.147 A  
HETATM   14  N   UNL     1     -13.576  11.564  72.050  1.00  0.00    -0.346 NA 
HETATM   15  C   UNL     1     -13.409  13.035  72.193  1.00  0.00    -0.524 A  
HETATM   16  H   UNL     1     -14.055  10.928  72.687  1.00  0.00     0.000 HD 
HETATM   17  C   UNL     1     -12.524  13.498  71.035  1.00  0.00    -0.369 A  
HETATM   18  N   UNL     1     -12.308  12.273  70.303  1.00  0.00    -0.239 NA 
ENDBRANCH  11  13
ENDBRANCH  10  11
ENDBRANCH   2   3
TORSDOF 3
ENDMDL
MODEL       95
REMARK 921   NORMALIZED FREE ENERGY PREDICTED BY IDOCK:   -3.98 KCAL/MOL
REMARK 922        TOTAL FREE ENERGY PREDICTED BY IDOCK:   -5.10 KCAL/MOL
REMARK 923 INTER-LIGAND FREE ENERGY PREDICTED BY IDOCK:   -4.56 KCAL/MOL
REMARK 924 INTRA-LIGAND FREE ENERGY PREDICTED BY IDOCK:   -0.53 KCAL/MOL
REMARK 927      BINDING AFFINITY PREDICTED BY RF-SCORE:    0.00 PKD
ROOT
HETATM    1  C   UNL     1     -11.629   6.517  71.176  1.00  0.00    -0.335 C  
HETATM    2  O   UNL     1     -10.545   7.306  70.679  1.00  0.00    -0.220 OA 
ENDROOT
BRANCH   2   3
HETATM    3  C   UNL     1     -10.657   7.503  69.314  1.00  0.00    -0.210 A  
HETATM    4  N   UNL     1     -10.777   6.385  68.563  1.00  0.00    -0.257 NA 
HETATM    5  C   UNL     1     -10.678   6.527  67.238  1.00  0.00    -0.356 A  
HETATM    6  N   UNL     1     -10.463   7.694  66.626  1.00  0.00    -0.236 NA 
HETATM    7  C   UNL     1     -10.657   5.277  66.417  1.00  0.00    -0.338 C  
HETATM    8  C   UNL     1     -10.405   8.775  67.435  1.00  0.00    -0.280 A  
HETATM    9 CL   UNL     1     -10.069  10.228  66.559  1.00  0.00    -0.278 Cl 
HETATM   10  C   UNL     1     -10.513   8.784  68.817  1.00  0.00    -0.191 A  
BRANCH  10  11
HETATM   11  N   UNL     1     -10.475   9.974  69.553  1.00  0.00    -0.222 NA 
HETATM   12  H   UNL     1      -9.555  10.413  69.574  1.00  0.00     0.000 HD 
BRANCH  11  13
HETATM   13  C   UNL     1     -11.417  10.656  70.241  1.00  0.00    -0.337 A  
HETATM   14  N   UNL     1     -12.035  10.127  71.264  1.00  0.00    -0.377 NA 
HETATM   15  C   UNL     1     -12.999  11.170  71.706  1.00  0.00    -0.421 A  
HETATM   16  H   UNL     1     -11.890   9.202  71.670  1.00  0.00     0.000 HD 
HETATM   17  C   UNL     1     -12.745  12.406  70.841  1.00  0.00    -0.185 A  
HETATM   18  N   UNL     1     -11.707  11.950  69.949  1.00  0.00    -0.319 NA 
ENDBRANCH  11  13
ENDBRANCH  10  11
ENDBRANCH   2   3
TORSDOF 3
ENDMDL
MODEL       96
REMARK 921   NORMALIZED FREE ENERGY PREDICTED BY IDOCK:   -3.98 KCAL/MOL
REMARK 922        TOTAL FREE ENERGY PREDICTED BY IDOCK:   -5.09 KCAL/MOL
REMARK 923 INTER-LIGAND FREE ENERGY PREDICTED BY IDOCK:   -4.56 KCAL/MOL
REMARK 924 INTRA-LIGAND FREE ENERGY PREDICTED BY IDOCK:   -0.53 KCAL/MOL
REMARK 927      BINDING AFFINITY PREDICTED BY RF-SCORE:    0.00 PKD
ROOT
HETATM    1  C   UNL     1     -10.184   7.000  66.847  1.00  0.00    -0.248 C  
HETATM    2  O   UNL     1     -10.807   8.157  67.409  1.00  0.00    -0.226 OA 
ENDROOT
BRANCH   2   3
HETATM    3  C   UNL     1     -10.262   9.318  66.890  1.00  0.00    -0.256 A  
HETATM    4  N   UNL     1      -9.212   9.157  66.054  1.00  0.00    -0.197 NA 
HETATM    5  C   UNL     1      -8.537  10.256  65.702  1.00  0.00    -0.161 A  
HETATM    6  N   UNL     1      -8.834  11.483  66.133  1.00  0.00    -0.192 NA 
HETATM    7  C   UNL     1      -7.287  10.062  64.904  1.00  0.00    -0.140 C  
HETATM    8  C   UNL     1      -9.925  11.576  66.924  1.00  0.00    -0.205 A  
HETATM    9 CL   UNL     1     -10.197  13.193  67.474  1.00  0.00    -0.223 Cl 
HETATM   10  C   UNL     1     -10.733  10.533  67.350  1.00  0.00    -0.281 A  
BRANCH  10  11
HETATM   11  N   UNL     1     -11.866  10.752  68.142  1.00  0.00    -0.782 NA 
HETATM   12  H   UNL     1     -12.672  11.096  67.619  1.00  0.00     0.000 HD 
BRANCH  11  13
HETATM   13  C   UNL     1     -12.104  10.598  69.463  1.00  0.00    -0.214 A  
HETATM   14  N   UNL     1     -11.879   9.464  70.072  1.00  0.00    -0.459 NA 
HETATM   15  C   UNL     1     -12.296   9.700  71.480  1.00  0.00    -0.390 A  
HETATM   16  H   UNL     1     -11.502   8.605  69.671  1.00  0.00     0.000 HD 
HETATM   17  C   UNL     1     -12.683  11.176  71.588  1.00  0.00    -0.360 A  
HETATM   18  N   UNL     1     -12.511  11.640  70.233  1.00  0.00    -0.223 NA 
ENDBRANCH  11  13
ENDBRANCH  10  11
ENDBRANCH   2   3
TORSDOF 3
ENDMDL
MODEL       97
REMARK 921   NORMALIZED FREE ENERGY PREDICTED BY IDOCK:   -3.96 KCAL/MOL
REMARK 922        TOTAL FREE ENERGY PREDICTED BY IDOCK:   -5.07 KCAL/MOL
REMARK 923 INTER-LIGAND FREE ENERGY PREDICTED BY IDOCK:   -4.54 KCAL/MOL
REMARK 924 INTRA-LIGAND FREE ENERGY PREDICTED BY IDOCK:   -0.53 KCAL/MOL
REMARK 927      BINDING AFFINITY PREDICTED BY RF-SCORE:    0.00 PKD
ROOT
HETATM    1  C   UNL     1      -8.274   9.641  67.351  1.00  0.00    -0.114 C  
HETATM    2  O   UNL     1      -9.618   9.664  67.836  1.00  0.00    -0.137 OA 
ENDROOT
BRANCH   2   3
HETATM    3  C   UNL     1     -10.021   8.405  68.247  1.00  0.00    -0.187 A  
HETATM    4  N   UNL     1      -9.941   7.426  67.318  1.00  0.00    -0.178 NA 
HETATM    5  C   UNL     1     -10.512   6.255  67.615  1.00  0.00    -0.230 A  
HETATM    6  N   UNL     1     -11.154   6.007  68.758  1.00  0.00    -0.322 NA 
HETATM    7  C   UNL     1     -10.558   5.224  66.531  1.00  0.00    -0.348 C  
HETATM    8  C   UNL     1     -11.150   7.012  69.660  1.00  0.00    -0.219 A  
HETATM    9 CL   UNL     1     -12.051   6.617  71.083  1.00  0.00    -0.415 Cl 
HETATM   10  C   UNL     1     -10.581   8.267  69.502  1.00  0.00    -0.213 A  
BRANCH  10  11
HETATM   11  N   UNL     1     -10.606   9.223  70.524  1.00  0.00    -0.231 NA 
HETATM   12  H   UNL     1      -9.855   9.113  71.206  1.00  0.00     0.000 HD 
BRANCH  11  13
HETATM   13  C   UNL     1     -11.428  10.262  70.786  1.00  0.00    -0.351 A  
HETATM   14  N   UNL     1     -11.359  11.378  70.109  1.00  0.00    -0.499 NA 
HETATM   15  C   UNL     1     -12.390  12.258  70.722  1.00  0.00    -0.290 A  
HETATM   16  H   UNL     1     -10.735  11.598  69.332  1.00  0.00     0.000 HD 
HETATM   17  C   UNL     1     -13.122  11.421  71.773  1.00  0.00    -0.418 A  
HETATM   18  N   UNL     1     -12.417  10.164  71.712  1.00  0.00    -0.393 NA 
ENDBRANCH  11  13
ENDBRANCH  10  11
ENDBRANCH   2   3
TORSDOF 3
ENDMDL
MODEL       98
REMARK 921   NORMALIZED FREE ENERGY PREDICTED BY IDOCK:   -3.96 KCAL/MOL
REMARK 922        TOTAL FREE ENERGY PREDICTED BY IDOCK:   -5.07 KCAL/MOL
REMARK 923 INTER-LIGAND FREE ENERGY PREDICTED BY IDOCK:   -4.67 KCAL/MOL
REMARK 924 INTRA-LIGAND FREE ENERGY PREDICTED BY IDOCK:   -0.40 KCAL/MOL
REMARK 927      BINDING AFFINITY PREDICTED BY RF-SCORE:    0.00 PKD
ROOT
HETATM    1  C   UNL     1      -6.253  16.268  67.653  1.00  0.00    -0.148 C  
HETATM    2  O   UNL     1      -7.163  16.089  66.566  1.00  0.00    -0.153 OA 
ENDROOT
BRANCH   2   3
HETATM    3  C   UNL     1      -8.368  16.723  66.814  1.00  0.00    -0.237 A  
HETATM    4  N   UNL     1      -8.392  18.056  66.587  1.00  0.00    -0.253 NA 
HETATM    5  C   UNL     1      -9.468  18.727  67.010  1.00  0.00    -0.301 A  
HETATM    6  N   UNL     1     -10.498  18.163  67.643  1.00  0.00    -0.402 NA 
HETATM    7  C   UNL     1      -9.428  20.218  66.899  1.00  0.00    -0.531 C  
HETATM    8  C   UNL     1     -10.430  16.822  67.790  1.00  0.00    -0.335 A  
HETATM    9 CL   UNL     1     -11.781  16.190  68.666  1.00  0.00    -0.305 Cl 
HETATM   10  C   UNL     1      -9.395  15.994  67.382  1.00  0.00    -0.217 A  
BRANCH  10  11
HETATM   11  N   UNL     1      -9.448  14.605  67.553  1.00  0.00    -0.196 NA 
HETATM   12  H   UNL     1      -8.935  14.274  68.370  1.00  0.00     0.000 HD 
BRANCH  11  13
HETATM   13  C   UNL     1     -10.045  13.619  66.850  1.00  0.00    -0.260 A  
HETATM   14  N   UNL     1      -9.886  13.505  65.557  1.00  0.00    -0.492 NA 
HETATM   15  C   UNL     1     -10.722  12.337  65.173  1.00  0.00    -0.293 A  
HETATM   16  H   UNL     1      -9.314  14.089  64.947  1.00  0.00     0.000 HD 
HETATM   17  C   UNL     1     -11.284  11.747  66.468  1.00  0.00    -0.321 A  
HETATM   18  N   UNL     1     -10.773  12.653  67.468  1.00  0.00    -0.223 NA 
ENDBRANCH  11  13
ENDBRANCH  10  11
ENDBRANCH   2   3
TORSDOF 3
ENDMDL
MODEL       99
REMARK 921   NORMALIZED FREE ENERGY PREDICTED BY IDOCK:   -3.93 KCAL/MOL
REMARK 922        TOTAL FREE ENERGY PREDICTED BY IDOCK:   -5.03 KCAL/MOL
REMARK 923 INTER-LIGAND FREE ENERGY PREDICTED BY IDOCK:   -4.59 KCAL/MOL
REMARK 924 INTRA-LIGAND FREE ENERGY PREDICTED BY IDOCK:   -0.44 KCAL/MOL
REMARK 927      BINDING AFFINITY PREDICTED BY RF-SCORE:    0.00 PKD
ROOT
HETATM    1  C   UNL     1     -10.510   7.419  67.263  1.00  0.00    -0.315 C  
HETATM    2  O   UNL     1     -11.390   6.588  68.023  1.00  0.00    -0.234 OA 
ENDROOT
BRANCH   2   3
HETATM    3  C   UNL     1     -10.757   6.088  69.147  1.00  0.00    -0.331 A  
HETATM    4  N   UNL     1      -9.693   5.285  68.919  1.00  0.00    -0.137 NA 
HETATM    5  C   UNL     1      -9.192   4.624  69.968  1.00  0.00    -0.123 A  
HETATM    6  N   UNL     1      -9.682   4.708  71.206  1.00  0.00    -0.171 NA 
HETATM    7  C   UNL     1      -8.117   3.621  69.691  1.00  0.00    -0.063 C  
HETATM    8  C   UNL     1     -10.711   5.567  71.370  1.00  0.00    -0.221 A  
HETATM    9 CL   UNL     1     -11.312   5.566  72.992  1.00  0.00    -0.340 Cl 
HETATM   10  C   UNL     1     -11.317   6.334  70.386  1.00  0.00    -0.372 A  
BRANCH  10  11
HETATM   11  N   UNL     1     -12.358   7.224  70.679  1.00  0.00    -0.579 NA 
HETATM   12  H   UNL     1     -13.263   6.769  70.798  1.00  0.00     0.000 HD 
BRANCH  11  13
HETATM   13  C   UNL     1     -12.399   8.565  70.835  1.00  0.00    -0.042 A  
HETATM   14  N   UNL     1     -11.765   9.369  70.022  1.00  0.00    -0.456 NA 
HETATM   15  C   UNL     1     -12.032  10.732  70.553  1.00  0.00    -0.361 A  
HETATM   16  H   UNL     1     -11.208   9.117  69.205  1.00  0.00     0.000 HD 
HETATM   17  C   UNL     1     -13.006  10.572  71.722  1.00  0.00    -0.476 A  
HETATM   18  N   UNL     1     -13.166   9.140  71.796  1.00  0.00    -0.370 NA 
ENDBRANCH  11  13
ENDBRANCH  10  11
ENDBRANCH   2   3
TORSDOF 3
ENDMDL
MODEL      100
REMARK 921   NORMALIZED FREE ENERGY PREDICTED BY IDOCK:   -3.92 KCAL/MOL
REMARK 922        TOTAL FREE ENERGY PREDICTED BY IDOCK:   -5.02 KCAL/MOL
REMARK 923 INTER-LIGAND FREE ENERGY PREDICTED BY IDOCK:   -4.69 KCAL/MOL
REMARK 924 INTRA-LIGAND FREE ENERGY PREDICTED BY IDOCK:   -0.33 KCAL/MOL
REMARK 927      BINDING AFFINITY PREDICTED BY RF-SCORE:    0.00 PKD
ROOT
HETATM    1  C   UNL     1     -10.719   7.297  68.302  1.00  0.00    -0.123 C  
HETATM    2  O   UNL     1     -10.111   8.348  69.058  1.00  0.00    -0.192 OA 
ENDROOT
BRANCH   2   3
HETATM    3  C   UNL     1     -10.810   9.533  68.915  1.00  0.00    -0.150 A  
HETATM    4  N   UNL     1     -10.703  10.143  67.713  1.00  0.00    -0.258 NA 
HETATM    5  C   UNL     1     -11.192  11.382  67.611  1.00  0.00    -0.283 A  
HETATM    6  N   UNL     1     -11.764  12.044  68.619  1.00  0.00    -0.309 NA 
HETATM    7  C   UNL     1     -10.937  12.113  66.331  1.00  0.00    -0.327 C  
HETATM    8  C   UNL     1     -11.884  11.356  69.775  1.00  0.00    -0.364 A  
HETATM    9 CL   UNL     1     -12.587  12.311  71.034  1.00  0.00    -0.419 Cl 
HETATM   10  C   UNL     1     -11.448  10.062  70.020  1.00  0.00    -0.248 A  
BRANCH  10  11
HETATM   11  N   UNL     1     -11.661   9.432  71.253  1.00  0.00    -0.333 NA 
HETATM   12  H   UNL     1     -12.608   9.546  71.612  1.00  0.00     0.000 HD 
BRANCH  11  13
HETATM   13  C   UNL     1     -10.858   8.705  72.059  1.00  0.00    -0.360 A  
HETATM   14  N   UNL     1      -9.575   8.944  72.146  1.00  0.00    -0.322 NA 
HETATM   15  C   UNL     1      -9.062   7.918  73.093  1.00  0.00    -0.260 A  
HETATM   16  H   UNL     1      -9.044   9.672  71.669  1.00  0.00     0.000 HD 
HETATM   17  C   UNL     1     -10.275   7.141  73.608  1.00  0.00    -0.359 A  
HETATM   18  N   UNL     1     -11.362   7.743  72.875  1.00  0.00    -0.390 NA 
ENDBRANCH  11  13
ENDBRANCH  10  11
ENDBRANCH   2   3
TORSDOF 3
ENDMDL
MODEL      101
REMARK 921   NORMALIZED FREE ENERGY PREDICTED BY IDOCK:   -3.90 KCAL/MOL
REMARK 922        TOTAL FREE ENERGY PREDICTED BY IDOCK:   -5.00 KCAL/MOL
REMARK 923 INTER-LIGAND FREE ENERGY PREDICTED BY IDOCK:   -4.63 KCAL/MOL
REMARK 924 INTRA-LIGAND FREE ENERGY PREDICTED BY IDOCK:   -0.37 KCAL/MOL
REMARK 927      BINDING AFFINITY PREDICTED BY RF-SCORE:    0.00 PKD
ROOT
HETATM    1  C   UNL     1     -11.270   6.207  69.794  1.00  0.00    -0.423 C  
HETATM    2  O   UNL     1     -10.432   7.362  69.881  1.00  0.00    -0.219 OA 
ENDROOT
BRANCH   2   3
HETATM    3  C   UNL     1     -11.133   8.451  70.370  1.00  0.00    -0.231 A  
HETATM    4  N   UNL     1     -12.128   8.172  71.241  1.00  0.00    -0.295 NA 
HETATM    5  C   UNL     1     -12.951   9.173  71.568  1.00  0.00    -0.346 A  
HETATM    6  N   UNL     1     -12.850  10.411  71.082  1.00  0.00    -0.385 NA 
HETATM    7  C   UNL     1     -14.140   8.831  72.409  1.00  0.00    -0.485 C  
HETATM    8  C   UNL     1     -11.802  10.631  70.257  1.00  0.00    -0.342 A  
HETATM    9 CL   UNL     1     -11.786  12.245  69.637  1.00  0.00    -0.393 Cl 
HETATM   10  C   UNL     1     -10.858   9.701  69.850  1.00  0.00    -0.256 A  
BRANCH  10  11
HETATM   11  N   UNL     1      -9.788  10.051  69.018  1.00  0.00    -0.188 NA 
HETATM   12  H   UNL     1      -8.902  10.156  69.512  1.00  0.00     0.000 HD 
BRANCH  11  13
HETATM   13  C   UNL     1      -9.697  10.279  67.689  1.00  0.00    -0.164 A  
HETATM   14  N   UNL     1     -10.327   9.530  66.821  1.00  0.00    -0.243 NA 
HETATM   15  C   UNL     1      -9.941  10.081  65.495  1.00  0.00    -0.296 A  
HETATM   16  H   UNL     1     -10.946   8.742  67.012  1.00  0.00     0.000 HD 
HETATM   17  C   UNL     1      -9.088  11.324  65.760  1.00  0.00    -0.203 A  
HETATM   18  N   UNL     1      -9.011  11.344  67.200  1.00  0.00    -0.159 NA 
ENDBRANCH  11  13
ENDBRANCH  10  11
ENDBRANCH   2   3
TORSDOF 3
ENDMDL
MODEL      102
REMARK 921   NORMALIZED FREE ENERGY PREDICTED BY IDOCK:   -3.90 KCAL/MOL
REMARK 922        TOTAL FREE ENERGY PREDICTED BY IDOCK:   -5.00 KCAL/MOL
REMARK 923 INTER-LIGAND FREE ENERGY PREDICTED BY IDOCK:   -4.64 KCAL/MOL
REMARK 924 INTRA-LIGAND FREE ENERGY PREDICTED BY IDOCK:   -0.36 KCAL/MOL
REMARK 927      BINDING AFFINITY PREDICTED BY RF-SCORE:    0.00 PKD
ROOT
HETATM    1  C   UNL     1     -12.775  13.654  65.101  1.00  0.00    -0.395 C  
HETATM    2  O   UNL     1     -12.386  12.621  66.009  1.00  0.00    -0.587 OA 
ENDROOT
BRANCH   2   3
HETATM    3  C   UNL     1     -11.502  13.099  66.960  1.00  0.00    -0.336 A  
HETATM    4  N   UNL     1     -12.059  13.659  68.058  1.00  0.00    -0.334 NA 
HETATM    5  C   UNL     1     -11.242  14.311  68.891  1.00  0.00    -0.264 A  
HETATM    6  N   UNL     1      -9.929  14.446  68.695  1.00  0.00    -0.239 NA 
HETATM    7  C   UNL     1     -11.876  15.059  70.020  1.00  0.00    -0.360 C  
HETATM    8  C   UNL     1      -9.433  13.818  67.606  1.00  0.00    -0.217 A  
HETATM    9 CL   UNL     1      -7.737  14.094  67.409  1.00  0.00    -0.201 Cl 
HETATM   10  C   UNL     1     -10.151  13.088  66.671  1.00  0.00    -0.251 A  
BRANCH  10  11
HETATM   11  N   UNL     1      -9.524  12.446  65.596  1.00  0.00    -0.435 NA 
HETATM   12  H   UNL     1      -9.279  13.074  64.831  1.00  0.00     0.000 HD 
BRANCH  11  13
HETATM   13  C   UNL     1      -9.181  11.159  65.373  1.00  0.00    -0.205 A  
HETATM   14  N   UNL     1      -8.864  10.732  64.179  1.00  0.00    -0.300 NA 
HETATM   15  C   UNL     1      -8.592   9.280  64.355  1.00  0.00    -0.195 A  
HETATM   16  H   UNL     1      -8.815  11.274  63.316  1.00  0.00     0.000 HD 
HETATM   17  C   UNL     1      -8.697   8.986  65.853  1.00  0.00    -0.166 A  
HETATM   18  N   UNL     1      -9.072  10.270  66.394  1.00  0.00    -0.151 NA 
ENDBRANCH  11  13
ENDBRANCH  10  11
ENDBRANCH   2   3
TORSDOF 3
ENDMDL
MODEL      103
REMARK 921   NORMALIZED FREE ENERGY PREDICTED BY IDOCK:   -3.85 KCAL/MOL
REMARK 922        TOTAL FREE ENERGY PREDICTED BY IDOCK:   -4.94 KCAL/MOL
REMARK 923 INTER-LIGAND FREE ENERGY PREDICTED BY IDOCK:   -4.55 KCAL/MOL
REMARK 924 INTRA-LIGAND FREE ENERGY PREDICTED BY IDOCK:   -0.39 KCAL/MOL
REMARK 927      BINDING AFFINITY PREDICTED BY RF-SCORE:    0.00 PKD
ROOT
HETATM    1  C   UNL     1     -10.744  18.997  66.272  1.00  0.00    -0.321 C  
HETATM    2  O   UNL     1     -10.678  18.443  67.588  1.00  0.00    -0.423 OA 
ENDROOT
BRANCH   2   3
HETATM    3  C   UNL     1      -9.736  17.432  67.657  1.00  0.00    -0.270 A  
HETATM    4  N   UNL     1      -8.506  17.735  67.184  1.00  0.00    -0.224 NA 
HETATM    5  C   UNL     1      -7.640  16.727  67.045  1.00  0.00    -0.200 A  
HETATM    6  N   UNL     1      -7.922  15.456  67.336  1.00  0.00    -0.170 NA 
HETATM    7  C   UNL     1      -6.336  17.035  66.380  1.00  0.00    -0.149 C  
HETATM    8  C   UNL     1      -9.150  15.233  67.852  1.00  0.00    -0.175 A  
HETATM    9 CL   UNL     1      -9.442  13.554  68.145  1.00  0.00    -0.210 Cl 
HETATM   10  C   UNL     1     -10.141  16.178  68.074  1.00  0.00    -0.242 A  
BRANCH  10  11
HETATM   11  N   UNL     1     -11.370  15.838  68.652  1.00  0.00    -0.350 NA 
HETATM   12  H   UNL     1     -12.088  15.590  67.970  1.00  0.00     0.000 HD 
BRANCH  11  13
HETATM   13  C   UNL     1     -11.793  15.774  69.933  1.00  0.00    -0.344 A  
HETATM   14  N   UNL     1     -10.974  15.961  70.935  1.00  0.00    -0.265 NA 
HETATM   15  C   UNL     1     -11.812  15.773  72.149  1.00  0.00    -0.496 A  
HETATM   16  H   UNL     1      -9.980  16.187  70.894  1.00  0.00     0.000 HD 
HETATM   17  C   UNL     1     -13.250  15.562  71.670  1.00  0.00    -0.492 A  
HETATM   18  N   UNL     1     -13.104  15.590  70.235  1.00  0.00    -0.223 NA 
ENDBRANCH  11  13
ENDBRANCH  10  11
ENDBRANCH   2   3
TORSDOF 3
ENDMDL
MODEL      104
REMARK 921   NORMALIZED FREE ENERGY PREDICTED BY IDOCK:   -3.85 KCAL/MOL
REMARK 922        TOTAL FREE ENERGY PREDICTED BY IDOCK:   -4.94 KCAL/MOL
REMARK 923 INTER-LIGAND FREE ENERGY PREDICTED BY IDOCK:   -4.77 KCAL/MOL
REMARK 924 INTRA-LIGAND FREE ENERGY PREDICTED BY IDOCK:   -0.17 KCAL/MOL
REMARK 927      BINDING AFFINITY PREDICTED BY RF-SCORE:    0.00 PKD
ROOT
HETATM    1  C   UNL     1      -6.652  15.818  69.916  1.00  0.00    -0.099 C  
HETATM    2  O   UNL     1      -7.731  15.867  68.980  1.00  0.00    -0.180 OA 
ENDROOT
BRANCH   2   3
HETATM    3  C   UNL     1      -7.947  17.159  68.535  1.00  0.00    -0.259 A  
HETATM    4  N   UNL     1      -6.976  18.054  68.824  1.00  0.00    -0.255 NA 
HETATM    5  C   UNL     1      -7.245  19.343  68.593  1.00  0.00    -0.339 A  
HETATM    6  N   UNL     1      -8.407  19.787  68.108  1.00  0.00    -0.310 NA 
HETATM    7  C   UNL     1      -6.234  20.344  69.054  1.00  0.00    -0.351 C  
HETATM    8  C   UNL     1      -9.311  18.834  67.795  1.00  0.00    -0.293 A  
HETATM    9 CL   UNL     1     -10.800  19.507  67.227  1.00  0.00    -0.604 Cl 
HETATM   10  C   UNL     1      -9.163  17.465  67.955  1.00  0.00    -0.266 A  
BRANCH  10  11
HETATM   11  N   UNL     1     -10.158  16.563  67.558  1.00  0.00    -0.261 NA 
HETATM   12  H   UNL     1     -10.467  16.692  66.594  1.00  0.00     0.000 HD 
BRANCH  11  13
HETATM   13  C   UNL     1     -10.790  15.556  68.200  1.00  0.00    -0.296 A  
HETATM   14  N   UNL     1     -11.820  15.777  68.974  1.00  0.00    -0.471 NA 
HETATM   15  C   UNL     1     -12.189  14.438  69.505  1.00  0.00    -0.282 A  
HETATM   16  H   UNL     1     -12.271  16.670  69.171  1.00  0.00     0.000 HD 
HETATM   17  C   UNL     1     -11.276  13.419  68.819  1.00  0.00    -0.275 A  
HETATM   18  N   UNL     1     -10.432  14.261  68.006  1.00  0.00    -0.232 NA 
ENDBRANCH  11  13
ENDBRANCH  10  11
ENDBRANCH   2   3
TORSDOF 3
ENDMDL
MODEL      105
REMARK 921   NORMALIZED FREE ENERGY PREDICTED BY IDOCK:   -3.85 KCAL/MOL
REMARK 922        TOTAL FREE ENERGY PREDICTED BY IDOCK:   -4.94 KCAL/MOL
REMARK 923 INTER-LIGAND FREE ENERGY PREDICTED BY IDOCK:   -4.55 KCAL/MOL
REMARK 924 INTRA-LIGAND FREE ENERGY PREDICTED BY IDOCK:   -0.39 KCAL/MOL
REMARK 927      BINDING AFFINITY PREDICTED BY RF-SCORE:    0.00 PKD
ROOT
HETATM    1  C   UNL     1     -12.145  14.490  64.016  1.00  0.00    -0.240 C  
HETATM    2  O   UNL     1     -10.976  13.841  64.520  1.00  0.00    -0.387 OA 
ENDROOT
BRANCH   2   3
HETATM    3  C   UNL     1     -11.239  13.198  65.717  1.00  0.00    -0.286 A  
HETATM    4  N   UNL     1     -11.633  13.990  66.739  1.00  0.00    -0.366 NA 
HETATM    5  C   UNL     1     -11.694  13.434  67.953  1.00  0.00    -0.361 A  
HETATM    6  N   UNL     1     -11.383  12.162  68.208  1.00  0.00    -0.265 NA 
HETATM    7  C   UNL     1     -11.980  14.343  69.106  1.00  0.00    -0.357 C  
HETATM    8  C   UNL     1     -11.047  11.417  67.132  1.00  0.00    -0.305 A  
HETATM    9 CL   UNL     1     -10.609   9.801  67.567  1.00  0.00    -0.320 Cl 
HETATM   10  C   UNL     1     -10.965  11.848  65.817  1.00  0.00    -0.311 A  
BRANCH  10  11
HETATM   11  N   UNL     1     -10.641  10.974  64.772  1.00  0.00    -0.308 NA 
HETATM   12  H   UNL     1     -11.444  10.467  64.399  1.00  0.00     0.000 HD 
BRANCH  11  13
HETATM   13  C   UNL     1      -9.476  10.669  64.161  1.00  0.00    -0.281 A  
HETATM   14  N   UNL     1      -8.449  10.215  64.831  1.00  0.00    -0.164 NA 
HETATM   15  C   UNL     1      -7.378  10.044  63.813  1.00  0.00    -0.134 A  
HETATM   16  H   UNL     1      -8.394  10.022  65.831  1.00  0.00     0.000 HD 
HETATM   17  C   UNL     1      -8.000  10.366  62.453  1.00  0.00    -0.162 A  
HETATM   18  N   UNL     1      -9.345  10.746  62.811  1.00  0.00    -0.305 NA 
ENDBRANCH  11  13
ENDBRANCH  10  11
ENDBRANCH   2   3
TORSDOF 3
ENDMDL
MODEL      106
REMARK 921   NORMALIZED FREE ENERGY PREDICTED BY IDOCK:   -3.84 KCAL/MOL
REMARK 922        TOTAL FREE ENERGY PREDICTED BY IDOCK:   -4.92 KCAL/MOL
REMARK 923 INTER-LIGAND FREE ENERGY PREDICTED BY IDOCK:   -4.68 KCAL/MOL
REMARK 924 INTRA-LIGAND FREE ENERGY PREDICTED BY IDOCK:   -0.24 KCAL/MOL
REMARK 927      BINDING AFFINITY PREDICTED BY RF-SCORE:    0.00 PKD
ROOT
HETATM    1  C   UNL     1     -12.051  10.468  71.331  1.00  0.00    -0.282 C  
HETATM    2  O   UNL     1     -10.913   9.866  70.710  1.00  0.00    -0.307 OA 
ENDROOT
BRANCH   2   3
HETATM    3  C   UNL     1     -11.115   8.513  70.505  1.00  0.00    -0.244 A  
HETATM    4  N   UNL     1     -11.388   7.781  71.609  1.00  0.00    -0.247 NA 
HETATM    5  C   UNL     1     -11.383   6.451  71.476  1.00  0.00    -0.294 A  
HETATM    6  N   UNL     1     -11.118   5.816  70.332  1.00  0.00    -0.273 NA 
HETATM    7  C   UNL     1     -11.533   5.641  72.724  1.00  0.00    -0.328 C  
HETATM    8  C   UNL     1     -10.905   6.610  69.260  1.00  0.00    -0.289 A  
HETATM    9 CL   UNL     1     -10.517   5.701  67.841  1.00  0.00    -0.271 Cl 
HETATM   10  C   UNL     1     -10.903   7.997  69.241  1.00  0.00    -0.059 A  
BRANCH  10  11
HETATM   11  N   UNL     1     -10.706   8.719  68.058  1.00  0.00    -0.450 NA 
HETATM   12  H   UNL     1     -10.523   8.130  67.245  1.00  0.00     0.000 HD 
BRANCH  11  13
HETATM   13  C   UNL     1     -10.710  10.041  67.781  1.00  0.00    -0.280 A  
HETATM   14  N   UNL     1     -11.821  10.728  67.735  1.00  0.00    -0.683 NA 
HETATM   15  C   UNL     1     -11.399  12.107  67.371  1.00  0.00    -0.326 A  
HETATM   16  H   UNL     1     -12.768  10.393  67.909  1.00  0.00     0.000 HD 
HETATM   17  C   UNL     1      -9.869  12.109  67.331  1.00  0.00    -0.189 A  
HETATM   18  N   UNL     1      -9.552  10.731  67.616  1.00  0.00    -0.157 NA 
ENDBRANCH  11  13
ENDBRANCH  10  11
ENDBRANCH   2   3
TORSDOF 3
ENDMDL
MODEL      107
REMARK 921   NORMALIZED FREE ENERGY PREDICTED BY IDOCK:   -3.82 KCAL/MOL
REMARK 922        TOTAL FREE ENERGY PREDICTED BY IDOCK:   -4.90 KCAL/MOL
REMARK 923 INTER-LIGAND FREE ENERGY PREDICTED BY IDOCK:   -4.58 KCAL/MOL
REMARK 924 INTRA-LIGAND FREE ENERGY PREDICTED BY IDOCK:   -0.32 KCAL/MOL
REMARK 927      BINDING AFFINITY PREDICTED BY RF-SCORE:    0.00 PKD
ROOT
HETATM    1  C   UNL     1     -14.265   7.663  71.592  1.00  0.00    -0.454 C  
HETATM    2  O   UNL     1     -12.884   7.687  71.963  1.00  0.00    -0.287 OA 
ENDROOT
BRANCH   2   3
HETATM    3  C   UNL     1     -12.270   8.847  71.526  1.00  0.00    -0.327 A  
HETATM    4  N   UNL     1     -12.859  10.005  71.899  1.00  0.00    -0.423 NA 
HETATM    5  C   UNL     1     -12.416  11.129  71.327  1.00  0.00    -0.360 A  
HETATM    6  N   UNL     1     -11.443  11.166  70.413  1.00  0.00    -0.254 NA 
HETATM    7  C   UNL     1     -13.167  12.388  71.623  1.00  0.00    -0.367 C  
HETATM    8  C   UNL     1     -10.866   9.980  70.126  1.00  0.00    -0.311 A  
HETATM    9 CL   UNL     1      -9.657  10.122  68.897  1.00  0.00    -0.175 Cl 
HETATM   10  C   UNL     1     -11.202   8.743  70.656  1.00  0.00    -0.257 A  
BRANCH  10  11
HETATM   11  N   UNL     1     -10.506   7.578  70.311  1.00  0.00    -0.218 NA 
HETATM   12  H   UNL     1      -9.882   7.241  71.045  1.00  0.00     0.000 HD 
BRANCH  11  13
HETATM   13  C   UNL     1     -10.497   6.812  69.198  1.00  0.00    -0.216 A  
HETATM   14  N   UNL     1     -11.351   7.004  68.227  1.00  0.00    -0.468 NA 
HETATM   15  C   UNL     1     -11.033   5.950  67.228  1.00  0.00    -0.178 A  
HETATM   16  H   UNL     1     -12.077   7.720  68.168  1.00  0.00     0.000 HD 
HETATM   17  C   UNL     1      -9.796   5.209  67.740  1.00  0.00    -0.156 A  
HETATM   18  N   UNL     1      -9.549   5.859  69.005  1.00  0.00    -0.126 NA 
ENDBRANCH  11  13
ENDBRANCH  10  11
ENDBRANCH   2   3
TORSDOF 3
ENDMDL
MODEL      108
REMARK 921   NORMALIZED FREE ENERGY PREDICTED BY IDOCK:   -3.82 KCAL/MOL
REMARK 922        TOTAL FREE ENERGY PREDICTED BY IDOCK:   -4.90 KCAL/MOL
REMARK 923 INTER-LIGAND FREE ENERGY PREDICTED BY IDOCK:   -4.50 KCAL/MOL
REMARK 924 INTRA-LIGAND FREE ENERGY PREDICTED BY IDOCK:   -0.40 KCAL/MOL
REMARK 927      BINDING AFFINITY PREDICTED BY RF-SCORE:    0.00 PKD
ROOT
HETATM    1  C   UNL     1      -9.428  11.630  66.947  1.00  0.00    -0.185 C  
HETATM    2  O   UNL     1     -10.200  12.280  67.960  1.00  0.00    -0.195 OA 
ENDROOT
BRANCH   2   3
HETATM    3  C   UNL     1     -10.465  11.422  69.012  1.00  0.00    -0.168 A  
HETATM    4  N   UNL     1      -9.721  10.294  69.059  1.00  0.00    -0.194 NA 
HETATM    5  C   UNL     1     -10.090   9.354  69.935  1.00  0.00    -0.218 A  
HETATM    6  N   UNL     1     -11.143   9.465  70.747  1.00  0.00    -0.274 NA 
HETATM    7  C   UNL     1      -9.364   8.048  69.880  1.00  0.00    -0.156 C  
HETATM    8  C   UNL     1     -11.810  10.638  70.683  1.00  0.00    -0.363 A  
HETATM    9 CL   UNL     1     -13.186  10.665  71.730  1.00  0.00    -0.543 Cl 
HETATM   10  C   UNL     1     -11.529  11.707  69.846  1.00  0.00    -0.228 A  
BRANCH  10  11
HETATM   11  N   UNL     1     -12.269  12.895  69.892  1.00  0.00    -0.237 NA 
HETATM   12  H   UNL     1     -13.205  12.811  69.495  1.00  0.00     0.000 HD 
BRANCH  11  13
HETATM   13  C   UNL     1     -11.987  14.131  70.359  1.00  0.00    -0.330 A  
HETATM   14  N   UNL     1     -12.043  14.411  71.635  1.00  0.00    -0.335 NA 
HETATM   15  C   UNL     1     -11.705  15.856  71.721  1.00  0.00    -0.491 A  
HETATM   16  H   UNL     1     -12.270  13.778  72.402  1.00  0.00     0.000 HD 
HETATM   17  C   UNL     1     -11.342  16.314  70.307  1.00  0.00    -0.287 A  
HETATM   18  N   UNL     1     -11.557  15.117  69.531  1.00  0.00    -0.298 NA 
ENDBRANCH  11  13
ENDBRANCH  10  11
ENDBRANCH   2   3
TORSDOF 3
ENDMDL
MODEL      109
REMARK 921   NORMALIZED FREE ENERGY PREDICTED BY IDOCK:   -3.79 KCAL/MOL
REMARK 922        TOTAL FREE ENERGY PREDICTED BY IDOCK:   -4.87 KCAL/MOL
REMARK 923 INTER-LIGAND FREE ENERGY PREDICTED BY IDOCK:   -4.48 KCAL/MOL
REMARK 924 INTRA-LIGAND FREE ENERGY PREDICTED BY IDOCK:   -0.39 KCAL/MOL
REMARK 927      BINDING AFFINITY PREDICTED BY RF-SCORE:    0.00 PKD
ROOT
HETATM    1  C   UNL     1     -11.112  12.682  69.016  1.00  0.00    -0.238 C  
HETATM    2  O   UNL     1      -9.898  12.526  68.278  1.00  0.00    -0.222 OA 
ENDROOT
BRANCH   2   3
HETATM    3  C   UNL     1     -10.022  11.538  67.318  1.00  0.00    -0.191 A  
HETATM    4  N   UNL     1     -10.334  10.305  67.774  1.00  0.00    -0.190 NA 
HETATM    5  C   UNL     1     -10.257   9.294  66.903  1.00  0.00    -0.256 A  
HETATM    6  N   UNL     1      -9.886   9.434  65.628  1.00  0.00    -0.286 NA 
HETATM    7  C   UNL     1     -10.452   7.912  67.442  1.00  0.00    -0.360 C  
HETATM    8  C   UNL     1      -9.639  10.700  65.228  1.00  0.00    -0.241 A  
HETATM    9 CL   UNL     1      -9.114  10.775  63.582  1.00  0.00    -0.217 Cl 
HETATM   10  C   UNL     1      -9.701  11.845  66.009  1.00  0.00    -0.237 A  
BRANCH  10  11
HETATM   11  N   UNL     1      -9.459  13.117  65.476  1.00  0.00    -0.470 NA 
HETATM   12  H   UNL     1      -8.476  13.293  65.267  1.00  0.00     0.000 HD 
BRANCH  11  13
HETATM   13  C   UNL     1     -10.270  14.156  65.185  1.00  0.00    -0.384 A  
HETATM   14  N   UNL     1     -11.502  13.974  64.786  1.00  0.00    -0.353 NA 
HETATM   15  C   UNL     1     -12.028  15.343  64.542  1.00  0.00    -0.223 A  
HETATM   16  H   UNL     1     -11.994  13.088  64.668  1.00  0.00     0.000 HD 
HETATM   17  C   UNL     1     -10.936  16.324  64.972  1.00  0.00    -0.298 A  
HETATM   18  N   UNL     1      -9.867  15.440  65.369  1.00  0.00    -0.314 NA 
ENDBRANCH  11  13
ENDBRANCH  10  11
ENDBRANCH   2   3
TORSDOF 3
ENDMDL
MODEL      110
REMARK 921   NORMALIZED FREE ENERGY PREDICTED BY IDOCK:   -3.79 KCAL/MOL
REMARK 922        TOTAL FREE ENERGY PREDICTED BY IDOCK:   -4.87 KCAL/MOL
REMARK 923 INTER-LIGAND FREE ENERGY PREDICTED BY IDOCK:   -4.49 KCAL/MOL
REMARK 924 INTRA-LIGAND FREE ENERGY PREDICTED BY IDOCK:   -0.38 KCAL/MOL
REMARK 927      BINDING AFFINITY PREDICTED BY RF-SCORE:    0.00 PKD
ROOT
HETATM    1  C   UNL     1      -9.629  16.200  65.871  1.00  0.00    -0.324 C  
HETATM    2  O   UNL     1     -10.528  15.687  66.857  1.00  0.00    -0.295 OA 
ENDROOT
BRANCH   2   3
HETATM    3  C   UNL     1     -10.767  14.338  66.660  1.00  0.00    -0.290 A  
HETATM    4  N   UNL     1     -11.521  14.021  65.584  1.00  0.00    -0.313 NA 
HETATM    5  C   UNL     1     -11.940  12.756  65.483  1.00  0.00    -0.449 A  
HETATM    6  N   UNL     1     -11.665  11.806  66.380  1.00  0.00    -0.503 NA 
HETATM    7  C   UNL     1     -12.898  12.440  64.379  1.00  0.00    -0.344 C  
HETATM    8  C   UNL     1     -10.865  12.180  67.402  1.00  0.00    -0.245 A  
HETATM    9 CL   UNL     1     -10.610  10.900  68.536  1.00  0.00    -0.200 Cl 
HETATM   10  C   UNL     1     -10.338  13.444  67.622  1.00  0.00    -0.238 A  
BRANCH  10  11
HETATM   11  N   UNL     1      -9.485  13.711  68.700  1.00  0.00    -0.376 NA 
HETATM   12  H   UNL     1      -9.899  13.507  69.610  1.00  0.00     0.000 HD 
BRANCH  11  13
HETATM   13  C   UNL     1      -8.222  14.185  68.774  1.00  0.00    -0.074 A  
HETATM   14  N   UNL     1      -7.825  14.924  69.776  1.00  0.00    -0.406 NA 
HETATM   15  C   UNL     1      -6.411  15.261  69.462  1.00  0.00    -0.152 A  
HETATM   16  H   UNL     1      -8.366  15.208  70.594  1.00  0.00     0.000 HD 
HETATM   17  C   UNL     1      -6.046  14.502  68.184  1.00  0.00    -0.143 A  
HETATM   18  N   UNL     1      -7.287  13.848  67.848  1.00  0.00    -0.135 NA 
ENDBRANCH  11  13
ENDBRANCH  10  11
ENDBRANCH   2   3
TORSDOF 3
ENDMDL
MODEL      111
REMARK 921   NORMALIZED FREE ENERGY PREDICTED BY IDOCK:   -3.78 KCAL/MOL
REMARK 922        TOTAL FREE ENERGY PREDICTED BY IDOCK:   -4.86 KCAL/MOL
REMARK 923 INTER-LIGAND FREE ENERGY PREDICTED BY IDOCK:   -4.49 KCAL/MOL
REMARK 924 INTRA-LIGAND FREE ENERGY PREDICTED BY IDOCK:   -0.37 KCAL/MOL
REMARK 927      BINDING AFFINITY PREDICTED BY RF-SCORE:    0.00 PKD
ROOT
HETATM    1  C   UNL     1     -10.485   9.219  70.516  1.00  0.00    -0.255 C  
HETATM    2  O   UNL     1     -10.316  10.576  70.100  1.00  0.00    -0.160 OA 
ENDROOT
BRANCH   2   3
HETATM    3  C   UNL     1     -10.609  10.726  68.756  1.00  0.00    -0.200 A  
HETATM    4  N   UNL     1     -10.012   9.848  67.918  1.00  0.00    -0.154 NA 
HETATM    5  C   UNL     1     -10.109  10.092  66.608  1.00  0.00    -0.223 A  
HETATM    6  N   UNL     1     -10.746  11.145  66.090  1.00  0.00    -0.252 NA 
HETATM    7  C   UNL     1      -9.322   9.212  65.690  1.00  0.00    -0.300 C  
HETATM    8  C   UNL     1     -11.362  11.951  66.982  1.00  0.00    -0.329 A  
HETATM    9 CL   UNL     1     -12.112  13.312  66.223  1.00  0.00    -0.470 Cl 
HETATM   10  C   UNL     1     -11.369  11.810  68.362  1.00  0.00    -0.270 A  
BRANCH  10  11
HETATM   11  N   UNL     1     -12.076  12.690  69.190  1.00  0.00    -0.209 NA 
HETATM   12  H   UNL     1     -13.047  12.417  69.343  1.00  0.00     0.000 HD 
BRANCH  11  13
HETATM   13  C   UNL     1     -11.727  13.829  69.827  1.00  0.00    -0.302 A  
HETATM   14  N   UNL     1     -10.990  14.740  69.247  1.00  0.00    -0.253 NA 
HETATM   15  C   UNL     1     -10.808  15.794  70.279  1.00  0.00    -0.351 A  
HETATM   16  H   UNL     1     -10.622  14.730  68.295  1.00  0.00     0.000 HD 
HETATM   17  C   UNL     1     -11.650  15.383  71.489  1.00  0.00    -0.411 A  
HETATM   18  N   UNL     1     -12.191  14.113  71.071  1.00  0.00    -0.346 NA 
ENDBRANCH  11  13
ENDBRANCH  10  11
ENDBRANCH   2   3
TORSDOF 3
ENDMDL
MODEL      112
REMARK 921   NORMALIZED FREE ENERGY PREDICTED BY IDOCK:   -3.78 KCAL/MOL
REMARK 922        TOTAL FREE ENERGY PREDICTED BY IDOCK:   -4.85 KCAL/MOL
REMARK 923 INTER-LIGAND FREE ENERGY PREDICTED BY IDOCK:   -4.47 KCAL/MOL
REMARK 924 INTRA-LIGAND FREE ENERGY PREDICTED BY IDOCK:   -0.38 KCAL/MOL
REMARK 927      BINDING AFFINITY PREDICTED BY RF-SCORE:    0.00 PKD
ROOT
HETATM    1  C   UNL     1     -12.167  15.226  70.106  1.00  0.00    -0.364 C  
HETATM    2  O   UNL     1     -11.832  15.301  68.719  1.00  0.00    -0.338 OA 
ENDROOT
BRANCH   2   3
HETATM    3  C   UNL     1     -10.750  16.138  68.512  1.00  0.00    -0.300 A  
HETATM    4  N   UNL     1     -11.014  17.464  68.538  1.00  0.00    -0.181 NA 
HETATM    5  C   UNL     1     -10.040  18.288  68.140  1.00  0.00    -0.379 A  
HETATM    6  N   UNL     1      -8.843  17.878  67.716  1.00  0.00    -0.247 NA 
HETATM    7  C   UNL     1     -10.380  19.740  68.022  1.00  0.00    -0.567 C  
HETATM    8  C   UNL     1      -8.631  16.545  67.765  1.00  0.00    -0.177 A  
HETATM    9 CL   UNL     1      -7.076  16.107  67.146  1.00  0.00    -0.237 Cl 
HETATM   10  C   UNL     1      -9.534  15.576  68.176  1.00  0.00    -0.198 A  
BRANCH  10  11
HETATM   11  N   UNL     1      -9.191  14.219  68.221  1.00  0.00    -0.192 NA 
HETATM   12  H   UNL     1      -8.610  13.970  69.021  1.00  0.00     0.000 HD 
BRANCH  11  13
HETATM   13  C   UNL     1      -9.478  13.175  67.413  1.00  0.00    -0.214 A  
HETATM   14  N   UNL     1      -9.453  13.289  66.110  1.00  0.00    -0.449 NA 
HETATM   15  C   UNL     1      -9.855  11.950  65.604  1.00  0.00    -0.241 A  
HETATM   16  H   UNL     1      -9.211  14.115  65.562  1.00  0.00     0.000 HD 
HETATM   17  C   UNL     1     -10.000  11.038  66.824  1.00  0.00    -0.203 A  
HETATM   18  N   UNL     1      -9.727  11.939  67.917  1.00  0.00    -0.186 NA 
ENDBRANCH  11  13
ENDBRANCH  10  11
ENDBRANCH   2   3
TORSDOF 3
ENDMDL
MODEL      113
REMARK 921   NORMALIZED FREE ENERGY PREDICTED BY IDOCK:   -3.75 KCAL/MOL
REMARK 922        TOTAL FREE ENERGY PREDICTED BY IDOCK:   -4.81 KCAL/MOL
REMARK 923 INTER-LIGAND FREE ENERGY PREDICTED BY IDOCK:   -4.38 KCAL/MOL
REMARK 924 INTRA-LIGAND FREE ENERGY PREDICTED BY IDOCK:   -0.43 KCAL/MOL
REMARK 927      BINDING AFFINITY PREDICTED BY RF-SCORE:    0.00 PKD
ROOT
HETATM    1  C   UNL     1      -8.550   8.350  65.853  1.00  0.00    -0.158 C  
HETATM    2  O   UNL     1      -9.761   8.568  66.579  1.00  0.00    -0.219 OA 
ENDROOT
BRANCH   2   3
HETATM    3  C   UNL     1     -10.337   9.779  66.236  1.00  0.00    -0.165 A  
HETATM    4  N   UNL     1     -10.175  10.168  64.952  1.00  0.00    -0.224 NA 
HETATM    5  C   UNL     1     -10.536  11.417  64.643  1.00  0.00    -0.318 A  
HETATM    6  N   UNL     1     -11.032  12.290  65.522  1.00  0.00    -0.289 NA 
HETATM    7  C   UNL     1     -10.215  11.898  63.263  1.00  0.00    -0.428 C  
HETATM    8  C   UNL     1     -11.215  11.817  66.774  1.00  0.00    -0.328 A  
HETATM    9 CL   UNL     1     -11.809  13.032  67.852  1.00  0.00    -0.396 Cl 
HETATM   10  C   UNL     1     -10.911  10.544  67.233  1.00  0.00    -0.260 A  
BRANCH  10  11
HETATM   11  N   UNL     1     -11.180  10.150  68.550  1.00  0.00    -0.448 NA 
HETATM   12  H   UNL     1     -12.174  10.131  68.777  1.00  0.00     0.000 HD 
BRANCH  11  13
HETATM   13  C   UNL     1     -10.381   9.790  69.578  1.00  0.00    -0.230 A  
HETATM   14  N   UNL     1      -9.080   9.762  69.458  1.00  0.00    -0.200 NA 
HETATM   15  C   UNL     1      -8.587   9.289  70.779  1.00  0.00    -0.203 A  
HETATM   16  H   UNL     1      -8.524  10.010  68.639  1.00  0.00     0.000 HD 
HETATM   17  C   UNL     1      -9.809   9.163  71.691  1.00  0.00    -0.225 A  
HETATM   18  N   UNL     1     -10.893   9.517  70.806  1.00  0.00    -0.291 NA 
ENDBRANCH  11  13
ENDBRANCH  10  11
ENDBRANCH   2   3
TORSDOF 3
ENDMDL
MODEL      114
REMARK 921   NORMALIZED FREE ENERGY PREDICTED BY IDOCK:   -3.71 KCAL/MOL
REMARK 922        TOTAL FREE ENERGY PREDICTED BY IDOCK:   -4.78 KCAL/MOL
REMARK 923 INTER-LIGAND FREE ENERGY PREDICTED BY IDOCK:   -4.47 KCAL/MOL
REMARK 924 INTRA-LIGAND FREE ENERGY PREDICTED BY IDOCK:   -0.30 KCAL/MOL
REMARK 927      BINDING AFFINITY PREDICTED BY RF-SCORE:    0.00 PKD
ROOT
HETATM    1  C   UNL     1     -10.724  20.006  67.648  1.00  0.00    -0.187 C  
HETATM    2  O   UNL     1      -9.753  19.263  68.387  1.00  0.00    -0.350 OA 
ENDROOT
BRANCH   2   3
HETATM    3  C   UNL     1      -9.039  18.413  67.560  1.00  0.00    -0.271 A  
HETATM    4  N   UNL     1      -9.772  17.542  66.832  1.00  0.00    -0.279 NA 
HETATM    5  C   UNL     1      -9.110  16.578  66.185  1.00  0.00    -0.306 A  
HETATM    6  N   UNL     1      -7.785  16.426  66.228  1.00  0.00    -0.215 NA 
HETATM    7  C   UNL     1      -9.928  15.525  65.507  1.00  0.00    -0.377 C  
HETATM    8  C   UNL     1      -7.112  17.362  66.932  1.00  0.00    -0.194 A  
HETATM    9 CL   UNL     1      -5.411  17.051  66.973  1.00  0.00    -0.174 Cl 
HETATM   10  C   UNL     1      -7.659  18.428  67.630  1.00  0.00    -0.229 A  
BRANCH  10  11
HETATM   11  N   UNL     1      -6.859  19.363  68.297  1.00  0.00    -0.264 NA 
HETATM   12  H   UNL     1      -6.638  20.187  67.737  1.00  0.00     0.000 HD 
BRANCH  11  13
HETATM   13  C   UNL     1      -6.321  19.389  69.536  1.00  0.00    -0.312 A  
HETATM   14  N   UNL     1      -6.372  20.460  70.283  1.00  0.00    -0.419 NA 
HETATM   15  C   UNL     1      -5.649  20.090  71.528  1.00  0.00    -0.388 A  
HETATM   16  H   UNL     1      -6.812  21.354  70.062  1.00  0.00     0.000 HD 
HETATM   17  C   UNL     1      -5.282  18.609  71.407  1.00  0.00    -0.265 A  
HETATM   18  N   UNL     1      -5.772  18.277  70.091  1.00  0.00    -0.241 NA 
ENDBRANCH  11  13
ENDBRANCH  10  11
ENDBRANCH   2   3
TORSDOF 3
ENDMDL
MODEL      115
REMARK 921   NORMALIZED FREE ENERGY PREDICTED BY IDOCK:   -3.67 KCAL/MOL
REMARK 922        TOTAL FREE ENERGY PREDICTED BY IDOCK:   -4.73 KCAL/MOL
REMARK 923 INTER-LIGAND FREE ENERGY PREDICTED BY IDOCK:   -4.45 KCAL/MOL
REMARK 924 INTRA-LIGAND FREE ENERGY PREDICTED BY IDOCK:   -0.28 KCAL/MOL
REMARK 927      BINDING AFFINITY PREDICTED BY RF-SCORE:    0.00 PKD
ROOT
HETATM    1  C   UNL     1     -12.143  12.752  70.396  1.00  0.00    -0.302 C  
HETATM    2  O   UNL     1     -12.430  11.708  69.463  1.00  0.00    -0.132 OA 
ENDROOT
BRANCH   2   3
HETATM    3  C   UNL     1     -11.704  11.868  68.296  1.00  0.00    -0.321 A  
HETATM    4  N   UNL     1     -11.722  13.106  67.753  1.00  0.00    -0.343 NA 
HETATM    5  C   UNL     1     -11.207  13.243  66.527  1.00  0.00    -0.304 A  
HETATM    6  N   UNL     1     -10.692  12.236  65.818  1.00  0.00    -0.255 NA 
HETATM    7  C   UNL     1     -11.365  14.575  65.865  1.00  0.00    -0.341 C  
HETATM    8  C   UNL     1     -10.660  11.039  66.442  1.00  0.00    -0.251 A  
HETATM    9 CL   UNL     1     -10.028   9.789  65.427  1.00  0.00    -0.374 Cl 
HETATM   10  C   UNL     1     -11.132  10.753  67.714  1.00  0.00    -0.318 A  
BRANCH  10  11
HETATM   11  N   UNL     1     -11.012   9.477  68.277  1.00  0.00    -0.469 NA 
HETATM   12  H   UNL     1     -11.565   8.765  67.799  1.00  0.00     0.000 HD 
BRANCH  11  13
HETATM   13  C   UNL     1     -10.309   9.002  69.328  1.00  0.00    -0.219 A  
HETATM   14  N   UNL     1      -9.251   8.252  69.163  1.00  0.00    -0.151 NA 
HETATM   15  C   UNL     1      -8.802   7.920  70.541  1.00  0.00    -0.141 A  
HETATM   16  H   UNL     1      -8.827   7.959  68.282  1.00  0.00     0.000 HD 
HETATM   17  C   UNL     1      -9.707   8.692  71.503  1.00  0.00    -0.263 A  
HETATM   18  N   UNL     1     -10.624   9.349  70.603  1.00  0.00    -0.265 NA 
ENDBRANCH  11  13
ENDBRANCH  10  11
ENDBRANCH   2   3
TORSDOF 3
ENDMDL
MODEL      116
REMARK 921   NORMALIZED FREE ENERGY PREDICTED BY IDOCK:   -3.67 KCAL/MOL
REMARK 922        TOTAL FREE ENERGY PREDICTED BY IDOCK:   -4.73 KCAL/MOL
REMARK 923 INTER-LIGAND FREE ENERGY PREDICTED BY IDOCK:   -4.32 KCAL/MOL
REMARK 924 INTRA-LIGAND FREE ENERGY PREDICTED BY IDOCK:   -0.41 KCAL/MOL
REMARK 927      BINDING AFFINITY PREDICTED BY RF-SCORE:    0.00 PKD
ROOT
HETATM    1  C   UNL     1     -11.029   6.749  68.113  1.00  0.00    -0.201 C  
HETATM    2  O   UNL     1     -11.594   6.169  69.291  1.00  0.00    -0.329 OA 
ENDROOT
BRANCH   2   3
HETATM    3  C   UNL     1     -10.675   6.142  70.324  1.00  0.00    -0.291 A  
HETATM    4  N   UNL     1      -9.526   5.472  70.078  1.00  0.00    -0.153 NA 
HETATM    5  C   UNL     1      -8.713   5.252  71.115  1.00  0.00    -0.128 A  
HETATM    6  N   UNL     1      -8.974   5.645  72.364  1.00  0.00    -0.135 NA 
HETATM    7  C   UNL     1      -7.521   4.381  70.875  1.00  0.00    -0.052 C  
HETATM    8  C   UNL     1     -10.113   6.352  72.528  1.00  0.00    -0.176 A  
HETATM    9 CL   UNL     1     -10.391   6.769  74.183  1.00  0.00    -0.388 Cl 
HETATM   10  C   UNL     1     -11.037   6.677  71.545  1.00  0.00    -0.256 A  
BRANCH  10  11
HETATM   11  N   UNL     1     -12.169   7.452  71.824  1.00  0.00    -0.313 NA 
HETATM   12  H   UNL     1     -12.940   6.920  72.229  1.00  0.00     0.000 HD 
BRANCH  11  13
HETATM   13  C   UNL     1     -12.443   8.765  71.662  1.00  0.00    -0.339 A  
HETATM   14  N   UNL     1     -13.256   9.399  72.465  1.00  0.00    -0.548 NA 
HETATM   15  C   UNL     1     -13.311  10.786  71.931  1.00  0.00    -0.340 A  
HETATM   16  H   UNL     1     -13.746   9.026  73.279  1.00  0.00     0.000 HD 
HETATM   17  C   UNL     1     -12.316  10.856  70.771  1.00  0.00    -0.390 A  
HETATM   18  N   UNL     1     -11.823   9.502  70.705  1.00  0.00    -0.283 NA 
ENDBRANCH  11  13
ENDBRANCH  10  11
ENDBRANCH   2   3
TORSDOF 3
ENDMDL
MODEL      117
REMARK 921   NORMALIZED FREE ENERGY PREDICTED BY IDOCK:   -3.67 KCAL/MOL
REMARK 922        TOTAL FREE ENERGY PREDICTED BY IDOCK:   -4.73 KCAL/MOL
REMARK 923 INTER-LIGAND FREE ENERGY PREDICTED BY IDOCK:   -4.56 KCAL/MOL
REMARK 924 INTRA-LIGAND FREE ENERGY PREDICTED BY IDOCK:   -0.17 KCAL/MOL
REMARK 927      BINDING AFFINITY PREDICTED BY RF-SCORE:    0.00 PKD
ROOT
HETATM    1  C   UNL     1      -7.353  12.826  67.681  1.00  0.00    -0.144 C  
HETATM    2  O   UNL     1      -8.765  12.936  67.876  1.00  0.00    -0.166 OA 
ENDROOT
BRANCH   2   3
HETATM    3  C   UNL     1      -9.453  12.093  67.021  1.00  0.00    -0.201 A  
HETATM    4  N   UNL     1      -9.042  10.806  67.001  1.00  0.00    -0.144 NA 
HETATM    5  C   UNL     1      -9.543  10.019  66.044  1.00  0.00    -0.222 A  
HETATM    6  N   UNL     1     -10.408  10.434  65.115  1.00  0.00    -0.261 NA 
HETATM    7  C   UNL     1      -8.975   8.641  65.926  1.00  0.00    -0.245 C  
HETATM    8  C   UNL     1     -10.814  11.717  65.226  1.00  0.00    -0.283 A  
HETATM    9 CL   UNL     1     -11.888  12.175  63.950  1.00  0.00    -0.518 Cl 
HETATM   10  C   UNL     1     -10.401  12.639  66.177  1.00  0.00    -0.256 A  
BRANCH  10  11
HETATM   11  N   UNL     1     -10.920  13.938  66.219  1.00  0.00    -0.297 NA 
HETATM   12  H   UNL     1     -11.193  14.300  65.305  1.00  0.00     0.000 HD 
BRANCH  11  13
HETATM   13  C   UNL     1     -11.130  14.808  67.231  1.00  0.00    -0.332 A  
HETATM   14  N   UNL     1     -12.041  14.590  68.144  1.00  0.00    -0.573 NA 
HETATM   15  C   UNL     1     -11.976  15.778  69.036  1.00  0.00    -0.278 A  
HETATM   16  H   UNL     1     -12.660  13.783  68.226  1.00  0.00     0.000 HD 
HETATM   17  C   UNL     1     -10.812  16.641  68.544  1.00  0.00    -0.356 A  
HETATM   18  N   UNL     1     -10.351  15.908  67.390  1.00  0.00    -0.282 NA 
ENDBRANCH  11  13
ENDBRANCH  10  11
ENDBRANCH   2   3
TORSDOF 3
ENDMDL
MODEL      118
REMARK 921   NORMALIZED FREE ENERGY PREDICTED BY IDOCK:   -3.66 KCAL/MOL
REMARK 922        TOTAL FREE ENERGY PREDICTED BY IDOCK:   -4.71 KCAL/MOL
REMARK 923 INTER-LIGAND FREE ENERGY PREDICTED BY IDOCK:   -4.32 KCAL/MOL
REMARK 924 INTRA-LIGAND FREE ENERGY PREDICTED BY IDOCK:   -0.40 KCAL/MOL
REMARK 927      BINDING AFFINITY PREDICTED BY RF-SCORE:    0.00 PKD
ROOT
HETATM    1  C   UNL     1      -8.276   9.178  68.867  1.00  0.00    -0.112 C  
HETATM    2  O   UNL     1      -8.310  10.244  67.915  1.00  0.00    -0.113 OA 
ENDROOT
BRANCH   2   3
HETATM    3  C   UNL     1      -9.483  10.969  68.020  1.00  0.00    -0.166 A  
HETATM    4  N   UNL     1     -10.179  10.806  69.167  1.00  0.00    -0.215 NA 
HETATM    5  C   UNL     1     -11.410  11.326  69.214  1.00  0.00    -0.287 A  
HETATM    6  N   UNL     1     -11.982  11.980  68.200  1.00  0.00    -0.496 NA 
HETATM    7  C   UNL     1     -12.236  11.016  70.421  1.00  0.00    -0.461 C  
HETATM    8  C   UNL     1     -11.211  12.150  67.105  1.00  0.00    -0.314 A  
HETATM    9 CL   UNL     1     -12.055  12.957  65.830  1.00  0.00    -0.496 Cl 
HETATM   10  C   UNL     1      -9.915  11.690  66.923  1.00  0.00    -0.202 A  
BRANCH  10  11
HETATM   11  N   UNL     1      -9.194  11.958  65.753  1.00  0.00    -0.398 NA 
HETATM   12  H   UNL     1      -8.595  12.781  65.821  1.00  0.00     0.000 HD 
BRANCH  11  13
HETATM   13  C   UNL     1      -9.135  11.342  64.552  1.00  0.00     0.091 A  
HETATM   14  N   UNL     1      -9.646  11.884  63.478  1.00  0.00    -0.575 NA 
HETATM   15  C   UNL     1      -9.406  10.888  62.400  1.00  0.00    -0.211 A  
HETATM   16  H   UNL     1     -10.108  12.790  63.397  1.00  0.00     0.000 HD 
HETATM   17  C   UNL     1      -8.582   9.755  63.015  1.00  0.00    -0.196 A  
HETATM   18  N   UNL     1      -8.471  10.168  64.394  1.00  0.00    -0.166 NA 
ENDBRANCH  11  13
ENDBRANCH  10  11
ENDBRANCH   2   3
TORSDOF 3
ENDMDL
MODEL      119
REMARK 921   NORMALIZED FREE ENERGY PREDICTED BY IDOCK:   -3.66 KCAL/MOL
REMARK 922        TOTAL FREE ENERGY PREDICTED BY IDOCK:   -4.71 KCAL/MOL
REMARK 923 INTER-LIGAND FREE ENERGY PREDICTED BY IDOCK:   -4.36 KCAL/MOL
REMARK 924 INTRA-LIGAND FREE ENERGY PREDICTED BY IDOCK:   -0.35 KCAL/MOL
REMARK 927      BINDING AFFINITY PREDICTED BY RF-SCORE:    0.00 PKD
ROOT
HETATM    1  C   UNL     1      -7.614  13.157  68.047  1.00  0.00    -0.144 C  
HETATM    2  O   UNL     1      -8.441  14.265  67.682  1.00  0.00    -0.157 OA 
ENDROOT
BRANCH   2   3
HETATM    3  C   UNL     1      -9.365  13.901  66.719  1.00  0.00    -0.275 A  
HETATM    4  N   UNL     1      -9.304  12.620  66.293  1.00  0.00    -0.203 NA 
HETATM    5  C   UNL     1     -10.038  12.295  65.225  1.00  0.00    -0.271 A  
HETATM    6  N   UNL     1     -10.810  13.158  64.560  1.00  0.00    -0.362 NA 
HETATM    7  C   UNL     1      -9.853  10.922  64.661  1.00  0.00    -0.350 C  
HETATM    8  C   UNL     1     -10.863  14.407  65.072  1.00  0.00    -0.407 A  
HETATM    9 CL   UNL     1     -11.843  15.464  64.115  1.00  0.00    -0.249 Cl 
HETATM   10  C   UNL     1     -10.180  14.880  66.182  1.00  0.00    -0.300 A  
BRANCH  10  11
HETATM   11  N   UNL     1     -10.341  16.191  66.646  1.00  0.00    -0.291 NA 
HETATM   12  H   UNL     1     -11.299  16.415  66.915  1.00  0.00     0.000 HD 
BRANCH  11  13
HETATM   13  C   UNL     1      -9.478  17.217  66.807  1.00  0.00    -0.265 A  
HETATM   14  N   UNL     1      -8.200  17.082  66.570  1.00  0.00    -0.252 NA 
HETATM   15  C   UNL     1      -7.610  18.407  66.898  1.00  0.00    -0.218 A  
HETATM   16  H   UNL     1      -7.713  16.251  66.233  1.00  0.00     0.000 HD 
HETATM   17  C   UNL     1      -8.773  19.338  67.248  1.00  0.00    -0.292 A  
HETATM   18  N   UNL     1      -9.913  18.458  67.148  1.00  0.00    -0.321 NA 
ENDBRANCH  11  13
ENDBRANCH  10  11
ENDBRANCH   2   3
TORSDOF 3
ENDMDL
MODEL      120
REMARK 921   NORMALIZED FREE ENERGY PREDICTED BY IDOCK:   -3.62 KCAL/MOL
REMARK 922        TOTAL FREE ENERGY PREDICTED BY IDOCK:   -4.67 KCAL/MOL
REMARK 923 INTER-LIGAND FREE ENERGY PREDICTED BY IDOCK:   -4.24 KCAL/MOL
REMARK 924 INTRA-LIGAND FREE ENERGY PREDICTED BY IDOCK:   -0.43 KCAL/MOL
REMARK 927      BINDING AFFINITY PREDICTED BY RF-SCORE:    0.00 PKD
ROOT
HETATM    1  C   UNL     1     -10.826   5.807  68.900  1.00  0.00    -0.235 C  
HETATM    2  O   UNL     1     -10.219   7.040  68.506  1.00  0.00    -0.160 OA 
ENDROOT
BRANCH   2   3
HETATM    3  C   UNL     1     -10.230   7.955  69.544  1.00  0.00    -0.208 A  
HETATM    4  N   UNL     1      -9.712   7.526  70.717  1.00  0.00    -0.174 NA 
HETATM    5  C   UNL     1      -9.895   8.306  71.787  1.00  0.00    -0.218 A  
HETATM    6  N   UNL     1     -10.559   9.463  71.762  1.00  0.00    -0.215 NA 
HETATM    7  C   UNL     1      -9.457   7.762  73.110  1.00  0.00    -0.325 C  
HETATM    8  C   UNL     1     -11.005   9.854  70.548  1.00  0.00    -0.326 A  
HETATM    9 CL   UNL     1     -11.898  11.333  70.625  1.00  0.00    -0.422 Cl 
HETATM   10  C   UNL     1     -10.869   9.165  69.352  1.00  0.00    -0.151 A  
BRANCH  10  11
HETATM   11  N   UNL     1     -11.341   9.686  68.142  1.00  0.00    -0.500 NA 
HETATM   12  H   UNL     1     -12.340   9.890  68.145  1.00  0.00     0.000 HD 
BRANCH  11  13
HETATM   13  C   UNL     1     -10.733   9.972  66.969  1.00  0.00    -0.178 A  
HETATM   14  N   UNL     1     -10.040   9.074  66.320  1.00  0.00    -0.315 NA 
HETATM   15  C   UNL     1      -9.519   9.788  65.124  1.00  0.00    -0.273 A  
HETATM   16  H   UNL     1      -9.888   8.098  66.577  1.00  0.00     0.000 HD 
HETATM   17  C   UNL     1     -10.122  11.195  65.148  1.00  0.00    -0.281 A  
HETATM   18  N   UNL     1     -10.883  11.183  66.374  1.00  0.00    -0.256 NA 
ENDBRANCH  11  13
ENDBRANCH  10  11
ENDBRANCH   2   3
TORSDOF 3
ENDMDL
MODEL      121
REMARK 921   NORMALIZED FREE ENERGY PREDICTED BY IDOCK:   -3.62 KCAL/MOL
REMARK 922        TOTAL FREE ENERGY PREDICTED BY IDOCK:   -4.66 KCAL/MOL
REMARK 923 INTER-LIGAND FREE ENERGY PREDICTED BY IDOCK:   -4.15 KCAL/MOL
REMARK 924 INTRA-LIGAND FREE ENERGY PREDICTED BY IDOCK:   -0.51 KCAL/MOL
REMARK 927      BINDING AFFINITY PREDICTED BY RF-SCORE:    0.00 PKD
ROOT
HETATM    1  C   UNL     1      -9.611   3.847  66.250  1.00  0.00    -0.185 C  
HETATM    2  O   UNL     1      -9.343   5.152  66.768  1.00  0.00    -0.125 OA 
ENDROOT
BRANCH   2   3
HETATM    3  C   UNL     1      -9.636   5.222  68.118  1.00  0.00    -0.129 A  
HETATM    4  N   UNL     1      -9.046   4.292  68.901  1.00  0.00    -0.117 NA 
HETATM    5  C   UNL     1      -9.466   4.203  70.167  1.00  0.00    -0.184 A  
HETATM    6  N   UNL     1     -10.428   4.968  70.688  1.00  0.00    -0.205 NA 
HETATM    7  C   UNL     1      -8.926   3.076  70.988  1.00  0.00    -0.165 C  
HETATM    8  C   UNL     1     -10.936   5.910  69.865  1.00  0.00    -0.374 A  
HETATM    9 CL   UNL     1     -12.210   6.812  70.610  1.00  0.00    -0.396 Cl 
HETATM   10  C   UNL     1     -10.583   6.134  68.543  1.00  0.00    -0.271 A  
BRANCH  10  11
HETATM   11  N   UNL     1     -11.153   7.169  67.791  1.00  0.00    -0.533 NA 
HETATM   12  H   UNL     1     -12.161   7.076  67.665  1.00  0.00     0.000 HD 
BRANCH  11  13
HETATM   13  C   UNL     1     -10.631   8.266  67.201  1.00  0.00    -0.270 A  
HETATM   14  N   UNL     1      -9.911   8.183  66.113  1.00  0.00    -0.467 NA 
HETATM   15  C   UNL     1      -9.507   9.583  65.817  1.00  0.00    -0.250 A  
HETATM   16  H   UNL     1      -9.678   7.342  65.584  1.00  0.00     0.000 HD 
HETATM   17  C   UNL     1     -10.205  10.475  66.845  1.00  0.00    -0.229 A  
HETATM   18  N   UNL     1     -10.897   9.513  67.669  1.00  0.00    -0.251 NA 
ENDBRANCH  11  13
ENDBRANCH  10  11
ENDBRANCH   2   3
TORSDOF 3
ENDMDL
MODEL      122
REMARK 921   NORMALIZED FREE ENERGY PREDICTED BY IDOCK:   -3.61 KCAL/MOL
REMARK 922        TOTAL FREE ENERGY PREDICTED BY IDOCK:   -4.66 KCAL/MOL
REMARK 923 INTER-LIGAND FREE ENERGY PREDICTED BY IDOCK:   -4.31 KCAL/MOL
REMARK 924 INTRA-LIGAND FREE ENERGY PREDICTED BY IDOCK:   -0.35 KCAL/MOL
REMARK 927      BINDING AFFINITY PREDICTED BY RF-SCORE:    0.00 PKD
ROOT
HETATM    1  C   UNL     1      -9.718  13.253  67.922  1.00  0.00    -0.224 C  
HETATM    2  O   UNL     1     -10.570  12.153  68.251  1.00  0.00    -0.203 OA 
ENDROOT
BRANCH   2   3
HETATM    3  C   UNL     1     -10.147  10.991  67.630  1.00  0.00    -0.182 A  
HETATM    4  N   UNL     1      -9.304  11.152  66.585  1.00  0.00    -0.173 NA 
HETATM    5  C   UNL     1      -9.043  10.074  65.839  1.00  0.00    -0.159 A  
HETATM    6  N   UNL     1      -9.569   8.868  66.063  1.00  0.00    -0.257 NA 
HETATM    7  C   UNL     1      -8.237  10.282  64.597  1.00  0.00    -0.161 C  
HETATM    8  C   UNL     1     -10.361   8.768  67.153  1.00  0.00    -0.293 A  
HETATM    9 CL   UNL     1     -11.036   7.186  67.328  1.00  0.00    -0.323 Cl 
HETATM   10  C   UNL     1     -10.700   9.790  68.028  1.00  0.00    -0.247 A  
BRANCH  10  11
HETATM   11  N   UNL     1     -11.503   9.562  69.152  1.00  0.00    -0.439 NA 
HETATM   12  H   UNL     1     -12.451   9.926  69.059  1.00  0.00     0.000 HD 
BRANCH  11  13
HETATM   13  C   UNL     1     -11.269   8.956  70.337  1.00  0.00    -0.230 A  
HETATM   14  N   UNL     1     -12.046   8.005  70.785  1.00  0.00    -0.495 NA 
HETATM   15  C   UNL     1     -11.474   7.641  72.109  1.00  0.00    -0.298 A  
HETATM   16  H   UNL     1     -12.864   7.602  70.328  1.00  0.00     0.000 HD 
HETATM   17  C   UNL     1     -10.192   8.458  72.280  1.00  0.00    -0.326 A  
HETATM   18  N   UNL     1     -10.170   9.255  71.078  1.00  0.00    -0.297 NA 
ENDBRANCH  11  13
ENDBRANCH  10  11
ENDBRANCH   2   3
TORSDOF 3
ENDMDL
MODEL      123
REMARK 921   NORMALIZED FREE ENERGY PREDICTED BY IDOCK:   -3.60 KCAL/MOL
REMARK 922        TOTAL FREE ENERGY PREDICTED BY IDOCK:   -4.65 KCAL/MOL
REMARK 923 INTER-LIGAND FREE ENERGY PREDICTED BY IDOCK:   -4.30 KCAL/MOL
REMARK 924 INTRA-LIGAND FREE ENERGY PREDICTED BY IDOCK:   -0.35 KCAL/MOL
REMARK 927      BINDING AFFINITY PREDICTED BY RF-SCORE:    0.00 PKD
ROOT
HETATM    1  C   UNL     1      -8.524   3.640  69.844  1.00  0.00    -0.056 C  
HETATM    2  O   UNL     1      -9.541   4.530  69.379  1.00  0.00    -0.161 OA 
ENDROOT
BRANCH   2   3
HETATM    3  C   UNL     1     -10.176   5.158  70.437  1.00  0.00    -0.264 A  
HETATM    4  N   UNL     1      -9.913   4.659  71.665  1.00  0.00    -0.186 NA 
HETATM    5  C   UNL     1     -10.663   5.103  72.678  1.00  0.00    -0.237 A  
HETATM    6  N   UNL     1     -11.649   5.993  72.542  1.00  0.00    -0.291 NA 
HETATM    7  C   UNL     1     -10.477   4.441  74.007  1.00  0.00    -0.307 C  
HETATM    8  C   UNL     1     -11.822   6.487  71.297  1.00  0.00    -0.329 A  
HETATM    9 CL   UNL     1     -13.153   7.588  71.210  1.00  0.00    -0.348 Cl 
HETATM   10  C   UNL     1     -11.108   6.140  70.160  1.00  0.00    -0.378 A  
BRANCH  10  11
HETATM   11  N   UNL     1     -11.350   6.747  68.922  1.00  0.00    -0.561 NA 
HETATM   12  H   UNL     1     -12.238   6.475  68.499  1.00  0.00     0.000 HD 
BRANCH  11  13
HETATM   13  C   UNL     1     -10.640   7.621  68.176  1.00  0.00    -0.130 A  
HETATM   14  N   UNL     1     -10.701   7.616  66.870  1.00  0.00    -0.491 NA 
HETATM   15  C   UNL     1      -9.762   8.688  66.443  1.00  0.00    -0.263 A  
HETATM   16  H   UNL     1     -11.267   7.011  66.276  1.00  0.00     0.000 HD 
HETATM   17  C   UNL     1      -9.252   9.367  67.715  1.00  0.00    -0.128 A  
HETATM   18  N   UNL     1      -9.892   8.597  68.754  1.00  0.00    -0.168 NA 
ENDBRANCH  11  13
ENDBRANCH  10  11
ENDBRANCH   2   3
TORSDOF 3
ENDMDL
MODEL      124
REMARK 921   NORMALIZED FREE ENERGY PREDICTED BY IDOCK:   -3.60 KCAL/MOL
REMARK 922        TOTAL FREE ENERGY PREDICTED BY IDOCK:   -4.65 KCAL/MOL
REMARK 923 INTER-LIGAND FREE ENERGY PREDICTED BY IDOCK:   -4.10 KCAL/MOL
REMARK 924 INTRA-LIGAND FREE ENERGY PREDICTED BY IDOCK:   -0.55 KCAL/MOL
REMARK 927      BINDING AFFINITY PREDICTED BY RF-SCORE:    0.00 PKD
ROOT
HETATM    1  C   UNL     1      -8.051   7.128  68.987  1.00  0.00    -0.121 C  
HETATM    2  O   UNL     1      -9.207   7.879  68.611  1.00  0.00    -0.143 OA 
ENDROOT
BRANCH   2   3
HETATM    3  C   UNL     1     -10.016   8.130  69.705  1.00  0.00    -0.191 A  
HETATM    4  N   UNL     1     -10.291   7.068  70.495  1.00  0.00    -0.200 NA 
HETATM    5  C   UNL     1     -11.228   7.231  71.433  1.00  0.00    -0.248 A  
HETATM    6  N   UNL     1     -11.904   8.367  71.623  1.00  0.00    -0.287 NA 
HETATM    7  C   UNL     1     -11.641   6.017  72.203  1.00  0.00    -0.348 C  
HETATM    8  C   UNL     1     -11.542   9.401  70.833  1.00  0.00    -0.312 A  
HETATM    9 CL   UNL     1     -12.507  10.808  71.116  1.00  0.00    -0.491 Cl 
HETATM   10  C   UNL     1     -10.575   9.387  69.839  1.00  0.00    -0.234 A  
BRANCH  10  11
HETATM   11  N   UNL     1     -10.256  10.535  69.104  1.00  0.00    -0.214 NA 
HETATM   12  H   UNL     1      -9.707  11.217  69.628  1.00  0.00     0.000 HD 
BRANCH  11  13
HETATM   13  C   UNL     1     -10.531  10.917  67.838  1.00  0.00    -0.195 A  
HETATM   14  N   UNL     1      -9.963  10.343  66.810  1.00  0.00    -0.198 NA 
HETATM   15  C   UNL     1     -10.500  11.067  65.627  1.00  0.00    -0.230 A  
HETATM   16  H   UNL     1      -9.298   9.569  66.817  1.00  0.00     0.000 HD 
HETATM   17  C   UNL     1     -11.541  12.060  66.147  1.00  0.00    -0.304 A  
HETATM   18  N   UNL     1     -11.470  11.862  67.574  1.00  0.00    -0.382 NA 
ENDBRANCH  11  13
ENDBRANCH  10  11
ENDBRANCH   2   3
TORSDOF 3
ENDMDL
MODEL      125
REMARK 921   NORMALIZED FREE ENERGY PREDICTED BY IDOCK:   -3.60 KCAL/MOL
REMARK 922        TOTAL FREE ENERGY PREDICTED BY IDOCK:   -4.64 KCAL/MOL
REMARK 923 INTER-LIGAND FREE ENERGY PREDICTED BY IDOCK:   -4.67 KCAL/MOL
REMARK 924 INTRA-LIGAND FREE ENERGY PREDICTED BY IDOCK:    0.03 KCAL/MOL
REMARK 927      BINDING AFFINITY PREDICTED BY RF-SCORE:    0.00 PKD
ROOT
HETATM    1  C   UNL     1      -7.070  17.562  65.779  1.00  0.00    -0.031 C  
HETATM    2  O   UNL     1      -8.310  16.857  65.874  1.00  0.00    -0.498 OA 
ENDROOT
BRANCH   2   3
HETATM    3  C   UNL     1      -8.191  15.751  66.697  1.00  0.00    -0.270 A  
HETATM    4  N   UNL     1      -7.107  15.726  67.504  1.00  0.00    -0.168 NA 
HETATM    5  C   UNL     1      -6.855  14.586  68.154  1.00  0.00    -0.126 A  
HETATM    6  N   UNL     1      -7.601  13.484  68.044  1.00  0.00    -0.126 NA 
HETATM    7  C   UNL     1      -5.575  14.507  68.923  1.00  0.00    -0.086 C  
HETATM    8  C   UNL     1      -8.697  13.597  67.263  1.00  0.00    -0.218 A  
HETATM    9 CL   UNL     1      -9.567  12.107  67.140  1.00  0.00    -0.191 Cl 
HETATM   10  C   UNL     1      -9.096  14.717  66.550  1.00  0.00    -0.260 A  
BRANCH  10  11
HETATM   11  N   UNL     1     -10.277  14.731  65.798  1.00  0.00    -0.317 NA 
HETATM   12  H   UNL     1     -10.803  15.602  65.877  1.00  0.00     0.000 HD 
BRANCH  11  13
HETATM   13  C   UNL     1     -10.858  13.819  64.988  1.00  0.00    -0.371 A  
HETATM   14  N   UNL     1     -10.211  13.278  63.990  1.00  0.00    -0.758 NA 
HETATM   15  C   UNL     1     -11.198  12.374  63.343  1.00  0.00    -0.422 A  
HETATM   16  H   UNL     1      -9.241  13.440  63.715  1.00  0.00     0.000 HD 
HETATM   17  C   UNL     1     -12.464  12.410  64.201  1.00  0.00    -0.442 A  
HETATM   18  N   UNL     1     -12.116  13.366  65.224  1.00  0.00    -0.387 NA 
ENDBRANCH  11  13
ENDBRANCH  10  11
ENDBRANCH   2   3
TORSDOF 3
ENDMDL
MODEL      126
REMARK 921   NORMALIZED FREE ENERGY PREDICTED BY IDOCK:   -3.59 KCAL/MOL
REMARK 922        TOTAL FREE ENERGY PREDICTED BY IDOCK:   -4.63 KCAL/MOL
REMARK 923 INTER-LIGAND FREE ENERGY PREDICTED BY IDOCK:   -4.26 KCAL/MOL
REMARK 924 INTRA-LIGAND FREE ENERGY PREDICTED BY IDOCK:   -0.38 KCAL/MOL
REMARK 927      BINDING AFFINITY PREDICTED BY RF-SCORE:    0.00 PKD
ROOT
HETATM    1  C   UNL     1     -10.740  19.782  66.645  1.00  0.00    -0.404 C  
HETATM    2  O   UNL     1     -10.356  19.581  68.008  1.00  0.00    -0.415 OA 
ENDROOT
BRANCH   2   3
HETATM    3  C   UNL     1     -10.068  18.250  68.254  1.00  0.00    -0.386 A  
HETATM    4  N   UNL     1     -11.131  17.447  68.481  1.00  0.00    -0.079 NA 
HETATM    5  C   UNL     1     -10.879  16.211  68.923  1.00  0.00    -0.305 A  
HETATM    6  N   UNL     1      -9.653  15.738  69.157  1.00  0.00    -0.237 NA 
HETATM    7  C   UNL     1     -12.054  15.375  69.320  1.00  0.00    -0.283 C  
HETATM    8  C   UNL     1      -8.637  16.577  68.859  1.00  0.00    -0.241 A  
HETATM    9 CL   UNL     1      -7.094  15.897  69.245  1.00  0.00    -0.195 Cl 
HETATM   10  C   UNL     1      -8.745  17.871  68.373  1.00  0.00    -0.293 A  
BRANCH  10  11
HETATM   11  N   UNL     1      -7.616  18.640  68.063  1.00  0.00    -0.254 NA 
HETATM   12  H   UNL     1      -7.338  18.582  67.084  1.00  0.00     0.000 HD 
BRANCH  11  13
HETATM   13  C   UNL     1      -6.823  19.442  68.806  1.00  0.00    -0.319 A  
HETATM   14  N   UNL     1      -5.969  20.264  68.253  1.00  0.00    -0.253 NA 
HETATM   15  C   UNL     1      -5.283  20.923  69.396  1.00  0.00    -0.365 A  
HETATM   16  H   UNL     1      -5.809  20.418  67.258  1.00  0.00     0.000 HD 
HETATM   17  C   UNL     1      -5.963  20.424  70.672  1.00  0.00    -0.249 A  
HETATM   18  N   UNL     1      -6.934  19.488  70.159  1.00  0.00     0.019 NA 
ENDBRANCH  11  13
ENDBRANCH  10  11
ENDBRANCH   2   3
TORSDOF 3
ENDMDL
MODEL      127
REMARK 921   NORMALIZED FREE ENERGY PREDICTED BY IDOCK:   -3.59 KCAL/MOL
REMARK 922        TOTAL FREE ENERGY PREDICTED BY IDOCK:   -4.63 KCAL/MOL
REMARK 923 INTER-LIGAND FREE ENERGY PREDICTED BY IDOCK:   -4.28 KCAL/MOL
REMARK 924 INTRA-LIGAND FREE ENERGY PREDICTED BY IDOCK:   -0.34 KCAL/MOL
REMARK 927      BINDING AFFINITY PREDICTED BY RF-SCORE:    0.00 PKD
ROOT
HETATM    1  C   UNL     1      -9.847   6.260  73.414  1.00  0.00    -0.174 C  
HETATM    2  O   UNL     1     -11.000   5.925  72.638  1.00  0.00    -0.233 OA 
ENDROOT
BRANCH   2   3
HETATM    3  C   UNL     1     -10.652   5.621  71.334  1.00  0.00    -0.253 A  
HETATM    4  N   UNL     1      -9.570   4.826  71.180  1.00  0.00    -0.160 NA 
HETATM    5  C   UNL     1      -9.087   4.684  69.942  1.00  0.00    -0.106 A  
HETATM    6  N   UNL     1      -9.603   5.285  68.867  1.00  0.00    -0.128 NA 
HETATM    7  C   UNL     1      -7.803   3.931  69.792  1.00  0.00    -0.051 C  
HETATM    8  C   UNL     1     -10.712   6.023  69.087  1.00  0.00    -0.331 A  
HETATM    9 CL   UNL     1     -11.274   6.802  67.649  1.00  0.00    -0.297 Cl 
HETATM   10  C   UNL     1     -11.337   6.239  70.306  1.00  0.00    -0.388 A  
BRANCH  10  11
HETATM   11  N   UNL     1     -12.511   6.996  70.410  1.00  0.00    -0.601 NA 
HETATM   12  H   UNL     1     -13.266   6.665  69.810  1.00  0.00     0.000 HD 
BRANCH  11  13
HETATM   13  C   UNL     1     -12.839   8.078  71.149  1.00  0.00    -0.103 A  
HETATM   14  N   UNL     1     -13.663   7.994  72.160  1.00  0.00    -0.519 NA 
HETATM   15  C   UNL     1     -13.783   9.386  72.669  1.00  0.00    -0.266 A  
HETATM   16  H   UNL     1     -14.123   7.157  72.520  1.00  0.00     0.000 HD 
HETATM   17  C   UNL     1     -12.811  10.243  71.856  1.00  0.00    -0.426 A  
HETATM   18  N   UNL     1     -12.266   9.288  70.921  1.00  0.00    -0.247 NA 
ENDBRANCH  11  13
ENDBRANCH  10  11
ENDBRANCH   2   3
TORSDOF 3
ENDMDL
MODEL      128
REMARK 921   NORMALIZED FREE ENERGY PREDICTED BY IDOCK:   -3.58 KCAL/MOL
REMARK 922        TOTAL FREE ENERGY PREDICTED BY IDOCK:   -4.63 KCAL/MOL
REMARK 923 INTER-LIGAND FREE ENERGY PREDICTED BY IDOCK:   -4.19 KCAL/MOL
REMARK 924 INTRA-LIGAND FREE ENERGY PREDICTED BY IDOCK:   -0.43 KCAL/MOL
REMARK 927      BINDING AFFINITY PREDICTED BY RF-SCORE:    0.00 PKD
ROOT
HETATM    1  C   UNL     1     -10.367   5.820  66.597  1.00  0.00    -0.243 C  
HETATM    2  O   UNL     1     -11.199   6.856  67.124  1.00  0.00    -0.352 OA 
ENDROOT
BRANCH   2   3
HETATM    3  C   UNL     1     -10.485   8.029  67.295  1.00  0.00    -0.314 A  
HETATM    4  N   UNL     1     -10.200   8.718  66.168  1.00  0.00    -0.124 NA 
HETATM    5  C   UNL     1      -9.342   9.737  66.276  1.00  0.00    -0.180 A  
HETATM    6  N   UNL     1      -8.754  10.100  67.418  1.00  0.00    -0.125 NA 
HETATM    7  C   UNL     1      -8.907  10.401  65.008  1.00  0.00    -0.209 C  
HETATM    8  C   UNL     1      -9.125   9.401  68.513  1.00  0.00    -0.131 A  
HETATM    9 CL   UNL     1      -8.273   9.906  69.931  1.00  0.00    -0.193 Cl 
HETATM   10  C   UNL     1     -10.017   8.340  68.558  1.00  0.00    -0.190 A  
BRANCH  10  11
HETATM   11  N   UNL     1     -10.357   7.711  69.762  1.00  0.00    -0.218 NA 
HETATM   12  H   UNL     1      -9.694   6.990  70.048  1.00  0.00     0.000 HD 
BRANCH  11  13
HETATM   13  C   UNL     1     -11.389   7.870  70.618  1.00  0.00    -0.259 A  
HETATM   14  N   UNL     1     -12.399   7.040  70.636  1.00  0.00    -0.601 NA 
HETATM   15  C   UNL     1     -13.316   7.580  71.675  1.00  0.00    -0.358 A  
HETATM   16  H   UNL     1     -12.530   6.206  70.063  1.00  0.00     0.000 HD 
HETATM   17  C   UNL     1     -12.609   8.777  72.314  1.00  0.00    -0.394 A  
HETATM   18  N   UNL     1     -11.385   8.854  71.553  1.00  0.00    -0.298 NA 
ENDBRANCH  11  13
ENDBRANCH  10  11
ENDBRANCH   2   3
TORSDOF 3
ENDMDL
MODEL      129
REMARK 921   NORMALIZED FREE ENERGY PREDICTED BY IDOCK:   -3.56 KCAL/MOL
REMARK 922        TOTAL FREE ENERGY PREDICTED BY IDOCK:   -4.60 KCAL/MOL
REMARK 923 INTER-LIGAND FREE ENERGY PREDICTED BY IDOCK:   -4.13 KCAL/MOL
REMARK 924 INTRA-LIGAND FREE ENERGY PREDICTED BY IDOCK:   -0.47 KCAL/MOL
REMARK 927      BINDING AFFINITY PREDICTED BY RF-SCORE:    0.00 PKD
ROOT
HETATM    1  C   UNL     1     -12.026   6.931  71.923  1.00  0.00    -0.327 C  
HETATM    2  O   UNL     1     -12.029   7.081  70.501  1.00  0.00    -0.325 OA 
ENDROOT
BRANCH   2   3
HETATM    3  C   UNL     1     -10.783   7.466  70.039  1.00  0.00    -0.246 A  
HETATM    4  N   UNL     1      -9.806   6.535  70.123  1.00  0.00    -0.166 NA 
HETATM    5  C   UNL     1      -8.555   6.938  69.881  1.00  0.00    -0.141 A  
HETATM    6  N   UNL     1      -8.223   8.193  69.573  1.00  0.00    -0.119 NA 
HETATM    7  C   UNL     1      -7.461   5.948  70.123  1.00  0.00    -0.082 C  
HETATM    8  C   UNL     1      -9.253   9.058  69.455  1.00  0.00    -0.152 A  
HETATM    9 CL   UNL     1      -8.721  10.667  69.108  1.00  0.00    -0.160 Cl 
HETATM   10  C   UNL     1     -10.598   8.779  69.652  1.00  0.00    -0.219 A  
BRANCH  10  11
HETATM   11  N   UNL     1     -11.589   9.751  69.465  1.00  0.00    -0.453 NA 
HETATM   12  H   UNL     1     -12.005   9.737  68.534  1.00  0.00     0.000 HD 
BRANCH  11  13
HETATM   13  C   UNL     1     -12.102  10.703  70.275  1.00  0.00    -0.338 A  
HETATM   14  N   UNL     1     -11.815  11.968  70.113  1.00  0.00    -0.470 NA 
HETATM   15  C   UNL     1     -12.539  12.664  71.209  1.00  0.00    -0.240 A  
HETATM   16  H   UNL     1     -11.225  12.386  69.393  1.00  0.00     0.000 HD 
HETATM   17  C   UNL     1     -13.364  11.605  71.942  1.00  0.00    -0.298 A  
HETATM   18  N   UNL     1     -13.001  10.395  71.245  1.00  0.00    -0.394 NA 
ENDBRANCH  11  13
ENDBRANCH  10  11
ENDBRANCH   2   3
TORSDOF 3
ENDMDL
MODEL      130
REMARK 921   NORMALIZED FREE ENERGY PREDICTED BY IDOCK:   -3.55 KCAL/MOL
REMARK 922        TOTAL FREE ENERGY PREDICTED BY IDOCK:   -4.59 KCAL/MOL
REMARK 923 INTER-LIGAND FREE ENERGY PREDICTED BY IDOCK:   -4.24 KCAL/MOL
REMARK 924 INTRA-LIGAND FREE ENERGY PREDICTED BY IDOCK:   -0.34 KCAL/MOL
REMARK 927      BINDING AFFINITY PREDICTED BY RF-SCORE:    0.00 PKD
ROOT
HETATM    1  C   UNL     1     -11.262   6.205  69.797  1.00  0.00    -0.423 C  
HETATM    2  O   UNL     1     -10.366   7.316  69.862  1.00  0.00    -0.208 OA 
ENDROOT
BRANCH   2   3
HETATM    3  C   UNL     1     -11.004   8.443  70.349  1.00  0.00    -0.239 A  
HETATM    4  N   UNL     1     -11.999   8.223  71.237  1.00  0.00    -0.287 NA 
HETATM    5  C   UNL     1     -12.766   9.267  71.566  1.00  0.00    -0.350 A  
HETATM    6  N   UNL     1     -12.610  10.494  71.065  1.00  0.00    -0.366 NA 
HETATM    7  C   UNL     1     -13.959   8.993  72.426  1.00  0.00    -0.517 C  
HETATM    8  C   UNL     1     -11.565  10.653  70.225  1.00  0.00    -0.336 A  
HETATM    9 CL   UNL     1     -11.477  12.259  69.588  1.00  0.00    -0.319 Cl 
HETATM   10  C   UNL     1     -10.674   9.673  69.813  1.00  0.00    -0.245 A  
BRANCH  10  11
HETATM   11  N   UNL     1      -9.600   9.962  68.963  1.00  0.00    -0.177 NA 
HETATM   12  H   UNL     1      -9.712   9.588  68.020  1.00  0.00     0.000 HD 
BRANCH  11  13
HETATM   13  C   UNL     1      -8.444  10.637  69.145  1.00  0.00    -0.128 A  
HETATM   14  N   UNL     1      -7.538  10.228  69.994  1.00  0.00    -0.276 NA 
HETATM   15  C   UNL     1      -6.460  11.250  69.920  1.00  0.00    -0.132 A  
HETATM   16  H   UNL     1      -7.564   9.393  70.580  1.00  0.00     0.000 HD 
HETATM   17  C   UNL     1      -6.853  12.233  68.816  1.00  0.00    -0.092 A  
HETATM   18  N   UNL     1      -8.138  11.728  68.396  1.00  0.00    -0.146 NA 
ENDBRANCH  11  13
ENDBRANCH  10  11
ENDBRANCH   2   3
TORSDOF 3
ENDMDL
MODEL      131
REMARK 921   NORMALIZED FREE ENERGY PREDICTED BY IDOCK:   -3.54 KCAL/MOL
REMARK 922        TOTAL FREE ENERGY PREDICTED BY IDOCK:   -4.57 KCAL/MOL
REMARK 923 INTER-LIGAND FREE ENERGY PREDICTED BY IDOCK:   -4.19 KCAL/MOL
REMARK 924 INTRA-LIGAND FREE ENERGY PREDICTED BY IDOCK:   -0.38 KCAL/MOL
REMARK 927      BINDING AFFINITY PREDICTED BY RF-SCORE:    0.00 PKD
ROOT
HETATM    1  C   UNL     1     -10.523   5.317  66.808  1.00  0.00    -0.273 C  
HETATM    2  O   UNL     1     -11.073   6.403  67.557  1.00  0.00    -0.352 OA 
ENDROOT
BRANCH   2   3
HETATM    3  C   UNL     1     -10.691   6.337  68.885  1.00  0.00    -0.299 A  
HETATM    4  N   UNL     1     -10.261   5.130  69.318  1.00  0.00    -0.222 NA 
HETATM    5  C   UNL     1     -10.084   4.981  70.634  1.00  0.00    -0.243 A  
HETATM    6  N   UNL     1     -10.314   5.943  71.531  1.00  0.00    -0.215 NA 
HETATM    7  C   UNL     1      -9.758   3.608  71.127  1.00  0.00    -0.245 C  
HETATM    8  C   UNL     1     -10.691   7.136  71.024  1.00  0.00    -0.232 A  
HETATM    9 CL   UNL     1     -11.017   8.299  72.262  1.00  0.00    -0.391 Cl 
HETATM   10  C   UNL     1     -10.892   7.444  69.686  1.00  0.00    -0.210 A  
BRANCH  10  11
HETATM   11  N   UNL     1     -11.249   8.732  69.271  1.00  0.00    -0.419 NA 
HETATM   12  H   UNL     1     -12.244   8.934  69.373  1.00  0.00     0.000 HD 
BRANCH  11  13
HETATM   13  C   UNL     1     -10.536   9.760  68.760  1.00  0.00    -0.219 A  
HETATM   14  N   UNL     1      -9.407  10.143  69.296  1.00  0.00    -0.205 NA 
HETATM   15  C   UNL     1      -8.971  11.303  68.473  1.00  0.00    -0.166 A  
HETATM   16  H   UNL     1      -8.929   9.737  70.101  1.00  0.00     0.000 HD 
HETATM   17  C   UNL     1      -9.975  11.438  67.326  1.00  0.00    -0.194 A  
HETATM   18  N   UNL     1     -10.923  10.390  67.621  1.00  0.00    -0.307 NA 
ENDBRANCH  11  13
ENDBRANCH  10  11
ENDBRANCH   2   3
TORSDOF 3
ENDMDL
MODEL      132
REMARK 921   NORMALIZED FREE ENERGY PREDICTED BY IDOCK:   -3.50 KCAL/MOL
REMARK 922        TOTAL FREE ENERGY PREDICTED BY IDOCK:   -4.53 KCAL/MOL
REMARK 923 INTER-LIGAND FREE ENERGY PREDICTED BY IDOCK:   -4.22 KCAL/MOL
REMARK 924 INTRA-LIGAND FREE ENERGY PREDICTED BY IDOCK:   -0.31 KCAL/MOL
REMARK 927      BINDING AFFINITY PREDICTED BY RF-SCORE:    0.00 PKD
ROOT
HETATM    1  C   UNL     1      -9.136  11.570  66.366  1.00  0.00    -0.200 C  
HETATM    2  O   UNL     1      -9.011  11.539  67.789  1.00  0.00    -0.151 OA 
ENDROOT
BRANCH   2   3
HETATM    3  C   UNL     1     -10.137  12.063  68.400  1.00  0.00    -0.210 A  
HETATM    4  N   UNL     1     -10.350  13.385  68.212  1.00  0.00    -0.244 NA 
HETATM    5  C   UNL     1     -11.303  13.961  68.951  1.00  0.00    -0.282 A  
HETATM    6  N   UNL     1     -12.038  13.312  69.857  1.00  0.00    -0.324 NA 
HETATM    7  C   UNL     1     -11.436  15.447  68.857  1.00  0.00    -0.354 C  
HETATM    8  C   UNL     1     -11.807  11.985  69.955  1.00  0.00    -0.314 A  
HETATM    9 CL   UNL     1     -12.766  11.243  71.189  1.00  0.00    -0.499 Cl 
HETATM   10  C   UNL     1     -10.872  11.250  69.240  1.00  0.00    -0.212 A  
BRANCH  10  11
HETATM   11  N   UNL     1     -10.745   9.865  69.398  1.00  0.00    -0.221 NA 
HETATM   12  H   UNL     1     -11.039   9.331  68.580  1.00  0.00     0.000 HD 
BRANCH  11  13
HETATM   13  C   UNL     1     -10.309   9.096  70.420  1.00  0.00    -0.223 A  
HETATM   14  N   UNL     1      -9.356   9.496  71.220  1.00  0.00    -0.328 NA 
HETATM   15  C   UNL     1      -9.156   8.366  72.166  1.00  0.00    -0.239 A  
HETATM   16  H   UNL     1      -8.859  10.387  71.201  1.00  0.00     0.000 HD 
HETATM   17  C   UNL     1     -10.221   7.318  71.839  1.00  0.00    -0.187 A  
HETATM   18  N   UNL     1     -10.897   7.907  70.708  1.00  0.00    -0.228 NA 
ENDBRANCH  11  13
ENDBRANCH  10  11
ENDBRANCH   2   3
TORSDOF 3
ENDMDL
MODEL      133
REMARK 921   NORMALIZED FREE ENERGY PREDICTED BY IDOCK:   -3.48 KCAL/MOL
REMARK 922        TOTAL FREE ENERGY PREDICTED BY IDOCK:   -4.50 KCAL/MOL
REMARK 923 INTER-LIGAND FREE ENERGY PREDICTED BY IDOCK:   -4.06 KCAL/MOL
REMARK 924 INTRA-LIGAND FREE ENERGY PREDICTED BY IDOCK:   -0.44 KCAL/MOL
REMARK 927      BINDING AFFINITY PREDICTED BY RF-SCORE:    0.00 PKD
ROOT
HETATM    1  C   UNL     1     -10.768  10.559  67.221  1.00  0.00    -0.277 C  
HETATM    2  O   UNL     1     -10.026  10.650  68.439  1.00  0.00    -0.154 OA 
ENDROOT
BRANCH   2   3
HETATM    3  C   UNL     1     -10.824  10.358  69.532  1.00  0.00    -0.255 A  
HETATM    4  N   UNL     1     -11.626  11.358  69.963  1.00  0.00    -0.308 NA 
HETATM    5  C   UNL     1     -12.249  11.180  71.131  1.00  0.00    -0.282 A  
HETATM    6  N   UNL     1     -12.119  10.088  71.888  1.00  0.00    -0.240 NA 
HETATM    7  C   UNL     1     -13.012  12.342  71.682  1.00  0.00    -0.409 C  
HETATM    8  C   UNL     1     -11.344   9.109  71.371  1.00  0.00    -0.344 A  
HETATM    9 CL   UNL     1     -11.192   7.761  72.444  1.00  0.00    -0.359 Cl 
HETATM   10  C   UNL     1     -10.657   9.143  70.167  1.00  0.00    -0.228 A  
BRANCH  10  11
HETATM   11  N   UNL     1      -9.911   8.049  69.711  1.00  0.00    -0.181 NA 
HETATM   12  H   UNL     1      -9.077   7.862  70.269  1.00  0.00     0.000 HD 
BRANCH  11  13
HETATM   13  C   UNL     1     -10.076   7.194  68.679  1.00  0.00    -0.173 A  
HETATM   14  N   UNL     1     -11.091   6.371  68.626  1.00  0.00    -0.466 NA 
HETATM   15  C   UNL     1     -10.885   5.595  67.375  1.00  0.00    -0.109 A  
HETATM   16  H   UNL     1     -11.855   6.282  69.296  1.00  0.00     0.000 HD 
HETATM   17  C   UNL     1      -9.658   6.188  66.679  1.00  0.00    -0.152 A  
HETATM   18  N   UNL     1      -9.237   7.205  67.612  1.00  0.00    -0.126 NA 
ENDBRANCH  11  13
ENDBRANCH  10  11
ENDBRANCH   2   3
TORSDOF 3
ENDMDL
MODEL      134
REMARK 921   NORMALIZED FREE ENERGY PREDICTED BY IDOCK:   -3.45 KCAL/MOL
REMARK 922        TOTAL FREE ENERGY PREDICTED BY IDOCK:   -4.46 KCAL/MOL
REMARK 923 INTER-LIGAND FREE ENERGY PREDICTED BY IDOCK:   -4.60 KCAL/MOL
REMARK 924 INTRA-LIGAND FREE ENERGY PREDICTED BY IDOCK:    0.14 KCAL/MOL
REMARK 927      BINDING AFFINITY PREDICTED BY RF-SCORE:    0.00 PKD
ROOT
HETATM    1  C   UNL     1     -13.660   8.022  71.671  1.00  0.00    -0.344 C  
HETATM    2  O   UNL     1     -12.871   9.214  71.653  1.00  0.00    -0.325 OA 
ENDROOT
BRANCH   2   3
HETATM    3  C   UNL     1     -11.783   9.079  70.809  1.00  0.00    -0.242 A  
HETATM    4  N   UNL     1     -11.297   7.826  70.665  1.00  0.00    -0.274 NA 
HETATM    5  C   UNL     1     -10.130   7.693  70.026  1.00  0.00    -0.204 A  
HETATM    6  N   UNL     1      -9.426   8.717  69.539  1.00  0.00    -0.161 NA 
HETATM    7  C   UNL     1      -9.518   6.329  70.002  1.00  0.00    -0.167 C  
HETATM    8  C   UNL     1      -9.996   9.934  69.673  1.00  0.00    -0.231 A  
HETATM    9 CL   UNL     1      -8.987  11.199  69.062  1.00  0.00    -0.088 Cl 
HETATM   10  C   UNL     1     -11.206  10.221  70.287  1.00  0.00    -0.323 A  
BRANCH  10  11
HETATM   11  N   UNL     1     -11.719  11.523  70.335  1.00  0.00    -0.486 NA 
HETATM   12  H   UNL     1     -12.246  11.724  71.185  1.00  0.00     0.000 HD 
BRANCH  11  13
HETATM   13  C   UNL     1     -11.654  12.565  69.477  1.00  0.00    -0.281 A  
HETATM   14  N   UNL     1     -11.280  13.754  69.871  1.00  0.00    -0.474 NA 
HETATM   15  C   UNL     1     -11.378  14.604  68.655  1.00  0.00    -0.283 A  
HETATM   16  H   UNL     1     -10.986  14.037  70.806  1.00  0.00     0.000 HD 
HETATM   17  C   UNL     1     -11.758  13.681  67.495  1.00  0.00    -0.371 A  
HETATM   18  N   UNL     1     -11.899  12.404  68.151  1.00  0.00    -0.346 NA 
ENDBRANCH  11  13
ENDBRANCH  10  11
ENDBRANCH   2   3
TORSDOF 3
ENDMDL
MODEL      135
REMARK 921   NORMALIZED FREE ENERGY PREDICTED BY IDOCK:   -3.44 KCAL/MOL
REMARK 922        TOTAL FREE ENERGY PREDICTED BY IDOCK:   -4.46 KCAL/MOL
REMARK 923 INTER-LIGAND FREE ENERGY PREDICTED BY IDOCK:   -4.06 KCAL/MOL
REMARK 924 INTRA-LIGAND FREE ENERGY PREDICTED BY IDOCK:   -0.40 KCAL/MOL
REMARK 927      BINDING AFFINITY PREDICTED BY RF-SCORE:    0.00 PKD
ROOT
HETATM    1  C   UNL     1     -10.242   9.284  68.802  1.00  0.00    -0.205 C  
HETATM    2  O   UNL     1     -10.867   9.260  67.516  1.00  0.00    -0.259 OA 
ENDROOT
BRANCH   2   3
HETATM    3  C   UNL     1     -10.014   8.745  66.557  1.00  0.00    -0.290 A  
HETATM    4  N   UNL     1      -9.786   7.414  66.619  1.00  0.00    -0.209 NA 
HETATM    5  C   UNL     1      -8.814   6.923  65.844  1.00  0.00    -0.105 A  
HETATM    6  N   UNL     1      -8.062   7.667  65.031  1.00  0.00    -0.134 NA 
HETATM    7  C   UNL     1      -8.460   5.481  66.026  1.00  0.00    -0.126 C  
HETATM    8  C   UNL     1      -8.378   8.979  64.980  1.00  0.00    -0.166 A  
HETATM    9 CL   UNL     1      -7.316   9.867  63.943  1.00  0.00    -0.128 Cl 
HETATM   10  C   UNL     1      -9.371   9.622  65.704  1.00  0.00    -0.237 A  
BRANCH  10  11
HETATM   11  N   UNL     1      -9.636  10.987  65.543  1.00  0.00    -0.211 NA 
HETATM   12  H   UNL     1      -8.932  11.594  65.965  1.00  0.00     0.000 HD 
BRANCH  11  13
HETATM   13  C   UNL     1     -10.639  11.660  64.938  1.00  0.00    -0.296 A  
HETATM   14  N   UNL     1     -11.242  11.186  63.879  1.00  0.00    -0.442 NA 
HETATM   15  C   UNL     1     -12.239  12.227  63.513  1.00  0.00    -0.568 A  
HETATM   16  H   UNL     1     -11.066  10.298  63.408  1.00  0.00     0.000 HD 
HETATM   17  C   UNL     1     -12.177  13.305  64.597  1.00  0.00    -0.407 A  
HETATM   18  N   UNL     1     -11.120  12.822  65.452  1.00  0.00    -0.279 NA 
ENDBRANCH  11  13
ENDBRANCH  10  11
ENDBRANCH   2   3
TORSDOF 3
ENDMDL
MODEL      136
REMARK 921   NORMALIZED FREE ENERGY PREDICTED BY IDOCK:   -3.44 KCAL/MOL
REMARK 922        TOTAL FREE ENERGY PREDICTED BY IDOCK:   -4.46 KCAL/MOL
REMARK 923 INTER-LIGAND FREE ENERGY PREDICTED BY IDOCK:   -4.07 KCAL/MOL
REMARK 924 INTRA-LIGAND FREE ENERGY PREDICTED BY IDOCK:   -0.38 KCAL/MOL
REMARK 927      BINDING AFFINITY PREDICTED BY RF-SCORE:    0.00 PKD
ROOT
HETATM    1  C   UNL     1     -11.624  14.907  67.947  1.00  0.00    -0.344 C  
HETATM    2  O   UNL     1     -10.343  14.328  67.683  1.00  0.00    -0.245 OA 
ENDROOT
BRANCH   2   3
HETATM    3  C   UNL     1     -10.418  13.396  66.663  1.00  0.00    -0.280 A  
HETATM    4  N   UNL     1     -11.056  13.796  65.540  1.00  0.00    -0.294 NA 
HETATM    5  C   UNL     1     -11.326  12.861  64.625  1.00  0.00    -0.323 A  
HETATM    6  N   UNL     1     -11.012  11.571  64.762  1.00  0.00    -0.298 NA 
HETATM    7  C   UNL     1     -12.164  13.271  63.456  1.00  0.00    -0.513 C  
HETATM    8  C   UNL     1     -10.331  11.251  65.884  1.00  0.00    -0.253 A  
HETATM    9 CL   UNL     1     -10.018   9.554  65.998  1.00  0.00    -0.359 Cl 
HETATM   10  C   UNL     1      -9.962  12.114  66.905  1.00  0.00    -0.204 A  
BRANCH  10  11
HETATM   11  N   UNL     1      -9.222  11.677  68.010  1.00  0.00    -0.171 NA 
HETATM   12  H   UNL     1      -9.780  11.187  68.709  1.00  0.00     0.000 HD 
BRANCH  11  13
HETATM   13  C   UNL     1      -7.914  11.777  68.333  1.00  0.00    -0.147 A  
HETATM   14  N   UNL     1      -7.473  11.444  69.518  1.00  0.00    -0.355 NA 
HETATM   15  C   UNL     1      -6.015  11.732  69.475  1.00  0.00    -0.092 A  
HETATM   16  H   UNL     1      -8.011  11.070  70.300  1.00  0.00     0.000 HD 
HETATM   17  C   UNL     1      -5.690  12.172  68.046  1.00  0.00    -0.059 A  
HETATM   18  N   UNL     1      -6.987  12.154  67.415  1.00  0.00    -0.134 NA 
ENDBRANCH  11  13
ENDBRANCH  10  11
ENDBRANCH   2   3
TORSDOF 3
ENDMDL
MODEL      137
REMARK 921   NORMALIZED FREE ENERGY PREDICTED BY IDOCK:   -3.44 KCAL/MOL
REMARK 922        TOTAL FREE ENERGY PREDICTED BY IDOCK:   -4.46 KCAL/MOL
REMARK 923 INTER-LIGAND FREE ENERGY PREDICTED BY IDOCK:   -3.94 KCAL/MOL
REMARK 924 INTRA-LIGAND FREE ENERGY PREDICTED BY IDOCK:   -0.52 KCAL/MOL
REMARK 927      BINDING AFFINITY PREDICTED BY RF-SCORE:    0.00 PKD
ROOT
HETATM    1  C   UNL     1     -10.546   9.169  71.613  1.00  0.00    -0.357 C  
HETATM    2  O   UNL     1     -10.224   9.022  70.228  1.00  0.00    -0.182 OA 
ENDROOT
BRANCH   2   3
HETATM    3  C   UNL     1     -10.373   7.709  69.818  1.00  0.00    -0.223 A  
HETATM    4  N   UNL     1     -10.172   6.766  70.766  1.00  0.00    -0.195 NA 
HETATM    5  C   UNL     1     -10.105   5.495  70.358  1.00  0.00    -0.230 A  
HETATM    6  N   UNL     1     -10.216   5.114  69.084  1.00  0.00    -0.209 NA 
HETATM    7  C   UNL     1      -9.730   4.470  71.380  1.00  0.00    -0.248 C  
HETATM    8  C   UNL     1     -10.467   6.102  68.198  1.00  0.00    -0.230 A  
HETATM    9 CL   UNL     1     -10.541   5.519  66.572  1.00  0.00    -0.352 Cl 
HETATM   10  C   UNL     1     -10.587   7.455  68.477  1.00  0.00    -0.153 A  
BRANCH  10  11
HETATM   11  N   UNL     1     -10.887   8.391  67.479  1.00  0.00    -0.496 NA 
HETATM   12  H   UNL     1     -11.842   8.323  67.128  1.00  0.00     0.000 HD 
BRANCH  11  13
HETATM   13  C   UNL     1     -10.160   9.365  66.889  1.00  0.00    -0.248 A  
HETATM   14  N   UNL     1      -9.817  10.450  67.533  1.00  0.00    -0.169 NA 
HETATM   15  C   UNL     1      -9.073  11.263  66.536  1.00  0.00    -0.184 A  
HETATM   16  H   UNL     1     -10.016  10.686  68.505  1.00  0.00     0.000 HD 
HETATM   17  C   UNL     1      -8.956  10.416  65.267  1.00  0.00    -0.187 A  
HETATM   18  N   UNL     1      -9.687   9.224  65.624  1.00  0.00    -0.275 NA 
ENDBRANCH  11  13
ENDBRANCH  10  11
ENDBRANCH   2   3
TORSDOF 3
ENDMDL
MODEL      138
REMARK 921   NORMALIZED FREE ENERGY PREDICTED BY IDOCK:   -3.44 KCAL/MOL
REMARK 922        TOTAL FREE ENERGY PREDICTED BY IDOCK:   -4.45 KCAL/MOL
REMARK 923 INTER-LIGAND FREE ENERGY PREDICTED BY IDOCK:   -4.12 KCAL/MOL
REMARK 924 INTRA-LIGAND FREE ENERGY PREDICTED BY IDOCK:   -0.33 KCAL/MOL
REMARK 927      BINDING AFFINITY PREDICTED BY RF-SCORE:    0.00 PKD
ROOT
HETATM    1  C   UNL     1      -9.789  10.064  67.128  1.00  0.00    -0.185 C  
HETATM    2  O   UNL     1     -10.152   9.062  68.080  1.00  0.00    -0.175 OA 
ENDROOT
BRANCH   2   3
HETATM    3  C   UNL     1      -9.429   9.203  69.252  1.00  0.00    -0.158 A  
HETATM    4  N   UNL     1      -8.272   9.895  69.154  1.00  0.00    -0.118 NA 
HETATM    5  C   UNL     1      -7.456   9.872  70.212  1.00  0.00    -0.162 A  
HETATM    6  N   UNL     1      -7.714   9.205  71.339  1.00  0.00    -0.335 NA 
HETATM    7  C   UNL     1      -6.112  10.507  70.051  1.00  0.00    -0.091 C  
HETATM    8  C   UNL     1      -8.910   8.579  71.386  1.00  0.00    -0.198 A  
HETATM    9 CL   UNL     1      -9.130   7.700  72.860  1.00  0.00    -0.209 Cl 
HETATM   10  C   UNL     1      -9.864   8.536  70.381  1.00  0.00    -0.179 A  
BRANCH  10  11
HETATM   11  N   UNL     1     -11.091   7.884  70.555  1.00  0.00    -0.257 NA 
HETATM   12  H   UNL     1     -11.121   6.951  70.144  1.00  0.00     0.000 HD 
BRANCH  11  13
HETATM   13  C   UNL     1     -12.243   8.247  71.160  1.00  0.00    -0.233 A  
HETATM   14  N   UNL     1     -13.345   7.560  71.004  1.00  0.00    -0.601 NA 
HETATM   15  C   UNL     1     -14.367   8.300  71.791  1.00  0.00    -0.483 A  
HETATM   16  H   UNL     1     -13.475   6.706  70.462  1.00  0.00     0.000 HD 
HETATM   17  C   UNL     1     -13.641   9.444  72.502  1.00  0.00    -0.370 A  
HETATM   18  N   UNL     1     -12.289   9.297  72.020  1.00  0.00    -0.371 NA 
ENDBRANCH  11  13
ENDBRANCH  10  11
ENDBRANCH   2   3
TORSDOF 3
ENDMDL
MODEL      139
REMARK 921   NORMALIZED FREE ENERGY PREDICTED BY IDOCK:   -3.43 KCAL/MOL
REMARK 922        TOTAL FREE ENERGY PREDICTED BY IDOCK:   -4.45 KCAL/MOL
REMARK 923 INTER-LIGAND FREE ENERGY PREDICTED BY IDOCK:   -4.06 KCAL/MOL
REMARK 924 INTRA-LIGAND FREE ENERGY PREDICTED BY IDOCK:   -0.39 KCAL/MOL
REMARK 927      BINDING AFFINITY PREDICTED BY RF-SCORE:    0.00 PKD
ROOT
HETATM    1  C   UNL     1     -10.613   5.389  66.566  1.00  0.00    -0.289 C  
HETATM    2  O   UNL     1     -11.301   6.536  67.071  1.00  0.00    -0.342 OA 
ENDROOT
BRANCH   2   3
HETATM    3  C   UNL     1     -10.813   6.904  68.312  1.00  0.00    -0.184 A  
HETATM    4  N   UNL     1     -11.299   6.214  69.368  1.00  0.00    -0.412 NA 
HETATM    5  C   UNL     1     -11.008   6.678  70.587  1.00  0.00    -0.280 A  
HETATM    6  N   UNL     1     -10.282   7.774  70.814  1.00  0.00    -0.197 NA 
HETATM    7  C   UNL     1     -11.671   6.007  71.748  1.00  0.00    -0.249 C  
HETATM    8  C   UNL     1      -9.785   8.383  69.715  1.00  0.00    -0.180 A  
HETATM    9 CL   UNL     1      -8.906   9.820  70.106  1.00  0.00    -0.252 Cl 
HETATM   10  C   UNL     1      -9.982   8.004  68.396  1.00  0.00    -0.185 A  
BRANCH  10  11
HETATM   11  N   UNL     1      -9.385   8.693  67.333  1.00  0.00    -0.141 NA 
HETATM   12  H   UNL     1      -8.437   8.380  67.124  1.00  0.00     0.000 HD 
BRANCH  11  13
HETATM   13  C   UNL     1      -9.817   9.690  66.530  1.00  0.00    -0.235 A  
HETATM   14  N   UNL     1     -10.266  10.816  67.018  1.00  0.00    -0.208 NA 
HETATM   15  C   UNL     1     -10.665  11.613  65.827  1.00  0.00    -0.280 A  
HETATM   16  H   UNL     1     -10.329  11.089  67.999  1.00  0.00     0.000 HD 
HETATM   17  C   UNL     1     -10.265  10.801  64.594  1.00  0.00    -0.350 A  
HETATM   18  N   UNL     1      -9.729   9.596  65.178  1.00  0.00    -0.278 NA 
ENDBRANCH  11  13
ENDBRANCH  10  11
ENDBRANCH   2   3
TORSDOF 3
ENDMDL
MODEL      140
REMARK 921   NORMALIZED FREE ENERGY PREDICTED BY IDOCK:   -3.40 KCAL/MOL
REMARK 922        TOTAL FREE ENERGY PREDICTED BY IDOCK:   -4.41 KCAL/MOL
REMARK 923 INTER-LIGAND FREE ENERGY PREDICTED BY IDOCK:   -4.46 KCAL/MOL
REMARK 924 INTRA-LIGAND FREE ENERGY PREDICTED BY IDOCK:    0.05 KCAL/MOL
REMARK 927      BINDING AFFINITY PREDICTED BY RF-SCORE:    0.00 PKD
ROOT
HETATM    1  C   UNL     1     -10.879  19.957  67.891  1.00  0.00    -0.042 C  
HETATM    2  O   UNL     1     -10.349  18.830  68.592  1.00  0.00    -0.351 OA 
ENDROOT
BRANCH   2   3
HETATM    3  C   UNL     1      -9.509  18.088  67.780  1.00  0.00    -0.264 A  
HETATM    4  N   UNL     1      -8.392  18.716  67.351  1.00  0.00    -0.258 NA 
HETATM    5  C   UNL     1      -7.671  18.104  66.407  1.00  0.00    -0.261 A  
HETATM    6  N   UNL     1      -7.996  16.928  65.866  1.00  0.00    -0.381 NA 
HETATM    7  C   UNL     1      -6.524  18.866  65.823  1.00  0.00    -0.278 C  
HETATM    8  C   UNL     1      -9.095  16.333  66.379  1.00  0.00    -0.301 A  
HETATM    9 CL   UNL     1      -9.464  14.844  65.580  1.00  0.00    -0.254 Cl 
HETATM   10  C   UNL     1      -9.923  16.834  67.372  1.00  0.00    -0.267 A  
BRANCH  10  11
HETATM   11  N   UNL     1     -11.020  16.110  67.854  1.00  0.00    -0.334 NA 
HETATM   12  H   UNL     1     -11.806  16.696  68.136  1.00  0.00     0.000 HD 
BRANCH  11  13
HETATM   13  C   UNL     1     -11.243  14.788  68.019  1.00  0.00    -0.299 A  
HETATM   14  N   UNL     1     -12.210  14.172  67.390  1.00  0.00    -0.570 NA 
HETATM   15  C   UNL     1     -12.137  12.766  67.868  1.00  0.00    -0.132 A  
HETATM   16  H   UNL     1     -12.869  14.569  66.720  1.00  0.00     0.000 HD 
HETATM   17  C   UNL     1     -10.910  12.666  68.775  1.00  0.00    -0.231 A  
HETATM   18  N   UNL     1     -10.422  14.024  68.785  1.00  0.00    -0.241 NA 
ENDBRANCH  11  13
ENDBRANCH  10  11
ENDBRANCH   2   3
TORSDOF 3
ENDMDL
MODEL      141
REMARK 921   NORMALIZED FREE ENERGY PREDICTED BY IDOCK:   -3.40 KCAL/MOL
REMARK 922        TOTAL FREE ENERGY PREDICTED BY IDOCK:   -4.41 KCAL/MOL
REMARK 923 INTER-LIGAND FREE ENERGY PREDICTED BY IDOCK:   -4.20 KCAL/MOL
REMARK 924 INTRA-LIGAND FREE ENERGY PREDICTED BY IDOCK:   -0.21 KCAL/MOL
REMARK 927      BINDING AFFINITY PREDICTED BY RF-SCORE:    0.00 PKD
ROOT
HETATM    1  C   UNL     1     -10.862  11.247  68.947  1.00  0.00    -0.208 C  
HETATM    2  O   UNL     1     -11.390  10.557  67.811  1.00  0.00    -0.367 OA 
ENDROOT
BRANCH   2   3
HETATM    3  C   UNL     1     -11.122  11.244  66.641  1.00  0.00    -0.235 A  
HETATM    4  N   UNL     1     -11.645  12.487  66.551  1.00  0.00    -0.369 NA 
HETATM    5  C   UNL     1     -11.581  13.093  65.361  1.00  0.00    -0.333 A  
HETATM    6  N   UNL     1     -11.043  12.540  64.272  1.00  0.00    -0.330 NA 
HETATM    7  C   UNL     1     -12.294  14.400  65.221  1.00  0.00    -0.372 C  
HETATM    8  C   UNL     1     -10.493  11.319  64.447  1.00  0.00    -0.345 A  
HETATM    9 CL   UNL     1      -9.871  10.664  62.972  1.00  0.00    -0.356 Cl 
HETATM   10  C   UNL     1     -10.463  10.583  65.622  1.00  0.00    -0.143 A  
BRANCH  10  11
HETATM   11  N   UNL     1      -9.829   9.337  65.697  1.00  0.00    -0.441 NA 
HETATM   12  H   UNL     1     -10.434   8.590  66.039  1.00  0.00     0.000 HD 
BRANCH  11  13
HETATM   13  C   UNL     1      -8.575   8.929  65.407  1.00  0.00    -0.176 A  
HETATM   14  N   UNL     1      -8.343   7.766  64.855  1.00  0.00    -0.300 NA 
HETATM   15  C   UNL     1      -6.862   7.691  64.739  1.00  0.00    -0.051 A  
HETATM   16  H   UNL     1      -9.026   7.065  64.569  1.00  0.00     0.000 HD 
HETATM   17  C   UNL     1      -6.309   9.039  65.207  1.00  0.00    -0.064 A  
HETATM   18  N   UNL     1      -7.505   9.742  65.602  1.00  0.00    -0.105 NA 
ENDBRANCH  11  13
ENDBRANCH  10  11
ENDBRANCH   2   3
TORSDOF 3
ENDMDL
MODEL      142
REMARK 921   NORMALIZED FREE ENERGY PREDICTED BY IDOCK:   -3.39 KCAL/MOL
REMARK 922        TOTAL FREE ENERGY PREDICTED BY IDOCK:   -4.40 KCAL/MOL
REMARK 923 INTER-LIGAND FREE ENERGY PREDICTED BY IDOCK:   -3.98 KCAL/MOL
REMARK 924 INTRA-LIGAND FREE ENERGY PREDICTED BY IDOCK:   -0.42 KCAL/MOL
REMARK 927      BINDING AFFINITY PREDICTED BY RF-SCORE:    0.00 PKD
ROOT
HETATM    1  C   UNL     1     -11.928  14.374  67.091  1.00  0.00    -0.389 C  
HETATM    2  O   UNL     1     -11.291  14.168  68.354  1.00  0.00    -0.258 OA 
ENDROOT
BRANCH   2   3
HETATM    3  C   UNL     1      -9.961  13.821  68.190  1.00  0.00    -0.242 A  
HETATM    4  N   UNL     1      -9.098  14.846  68.014  1.00  0.00    -0.177 NA 
HETATM    5  C   UNL     1      -7.850  14.539  67.649  1.00  0.00    -0.180 A  
HETATM    6  N   UNL     1      -7.419  13.292  67.443  1.00  0.00    -0.154 NA 
HETATM    7  C   UNL     1      -6.940  15.675  67.306  1.00  0.00    -0.224 C  
HETATM    8  C   UNL     1      -8.319  12.315  67.687  1.00  0.00    -0.166 A  
HETATM    9 CL   UNL     1      -7.687  10.743  67.342  1.00  0.00    -0.105 Cl 
HETATM   10  C   UNL     1      -9.635  12.482  68.092  1.00  0.00    -0.215 A  
BRANCH  10  11
HETATM   11  N   UNL     1     -10.471  11.389  68.353  1.00  0.00    -0.192 NA 
HETATM   12  H   UNL     1     -10.868  10.968  67.512  1.00  0.00     0.000 HD 
BRANCH  11  13
HETATM   13  C   UNL     1     -10.857  10.783  69.497  1.00  0.00    -0.242 A  
HETATM   14  N   UNL     1     -10.014  10.104  70.230  1.00  0.00    -0.410 NA 
HETATM   15  C   UNL     1     -10.829   9.580  71.358  1.00  0.00    -0.312 A  
HETATM   16  H   UNL     1      -9.017   9.964  70.065  1.00  0.00     0.000 HD 
HETATM   17  C   UNL     1     -12.235  10.164  71.201  1.00  0.00    -0.389 A  
HETATM   18  N   UNL     1     -12.120  10.920  69.977  1.00  0.00    -0.329 NA 
ENDBRANCH  11  13
ENDBRANCH  10  11
ENDBRANCH   2   3
TORSDOF 3
ENDMDL
MODEL      143
REMARK 921   NORMALIZED FREE ENERGY PREDICTED BY IDOCK:   -3.38 KCAL/MOL
REMARK 922        TOTAL FREE ENERGY PREDICTED BY IDOCK:   -4.39 KCAL/MOL
REMARK 923 INTER-LIGAND FREE ENERGY PREDICTED BY IDOCK:   -4.00 KCAL/MOL
REMARK 924 INTRA-LIGAND FREE ENERGY PREDICTED BY IDOCK:   -0.39 KCAL/MOL
REMARK 927      BINDING AFFINITY PREDICTED BY RF-SCORE:    0.00 PKD
ROOT
HETATM    1  C   UNL     1      -7.645  14.206  68.606  1.00  0.00    -0.126 C  
HETATM    2  O   UNL     1      -7.936  13.537  67.376  1.00  0.00    -0.162 OA 
ENDROOT
BRANCH   2   3
HETATM    3  C   UNL     1      -8.239  12.205  67.594  1.00  0.00    -0.163 A  
HETATM    4  N   UNL     1      -7.906  11.713  68.808  1.00  0.00    -0.125 NA 
HETATM    5  C   UNL     1      -7.995  10.389  68.976  1.00  0.00    -0.131 A  
HETATM    6  N   UNL     1      -8.379   9.541  68.020  1.00  0.00    -0.118 NA 
HETATM    7  C   UNL     1      -7.482   9.830  70.265  1.00  0.00    -0.173 C  
HETATM    8  C   UNL     1      -8.746  10.106  66.850  1.00  0.00    -0.129 A  
HETATM    9 CL   UNL     1      -9.175   8.926  65.660  1.00  0.00    -0.278 Cl 
HETATM   10  C   UNL     1      -8.730  11.458  66.540  1.00  0.00    -0.181 A  
BRANCH  10  11
HETATM   11  N   UNL     1      -9.169  11.937  65.300  1.00  0.00    -0.430 NA 
HETATM   12  H   UNL     1      -8.414  12.108  64.636  1.00  0.00     0.000 HD 
BRANCH  11  13
HETATM   13  C   UNL     1     -10.396  12.217  64.810  1.00  0.00    -0.288 A  
HETATM   14  N   UNL     1     -10.798  11.746  63.658  1.00  0.00    -0.406 NA 
HETATM   15  C   UNL     1     -12.163  12.307  63.474  1.00  0.00    -0.568 A  
HETATM   16  H   UNL     1     -10.288  11.129  63.025  1.00  0.00     0.000 HD 
HETATM   17  C   UNL     1     -12.505  13.074  64.752  1.00  0.00    -0.427 A  
HETATM   18  N   UNL     1     -11.297  12.935  65.528  1.00  0.00    -0.299 NA 
ENDBRANCH  11  13
ENDBRANCH  10  11
ENDBRANCH   2   3
TORSDOF 3
ENDMDL
MODEL      144
REMARK 921   NORMALIZED FREE ENERGY PREDICTED BY IDOCK:   -3.38 KCAL/MOL
REMARK 922        TOTAL FREE ENERGY PREDICTED BY IDOCK:   -4.39 KCAL/MOL
REMARK 923 INTER-LIGAND FREE ENERGY PREDICTED BY IDOCK:   -3.99 KCAL/MOL
REMARK 924 INTRA-LIGAND FREE ENERGY PREDICTED BY IDOCK:   -0.40 KCAL/MOL
REMARK 927      BINDING AFFINITY PREDICTED BY RF-SCORE:    0.00 PKD
ROOT
HETATM    1  C   UNL     1     -10.502   6.949  68.614  1.00  0.00    -0.195 C  
HETATM    2  O   UNL     1     -10.260   7.723  67.437  1.00  0.00    -0.202 OA 
ENDROOT
BRANCH   2   3
HETATM    3  C   UNL     1     -10.514   9.065  67.663  1.00  0.00    -0.260 A  
HETATM    4  N   UNL     1     -10.908   9.391  68.914  1.00  0.00    -0.171 NA 
HETATM    5  C   UNL     1     -11.357  10.634  69.108  1.00  0.00    -0.273 A  
HETATM    6  N   UNL     1     -11.444  11.555  68.145  1.00  0.00    -0.313 NA 
HETATM    7  C   UNL     1     -11.936  10.949  70.451  1.00  0.00    -0.453 C  
HETATM    8  C   UNL     1     -10.985  11.177  66.933  1.00  0.00    -0.273 A  
HETATM    9 CL   UNL     1     -11.189  12.414  65.742  1.00  0.00    -0.353 Cl 
HETATM   10  C   UNL     1     -10.471   9.935  66.590  1.00  0.00    -0.169 A  
BRANCH  10  11
HETATM   11  N   UNL     1      -9.988   9.665  65.304  1.00  0.00    -0.405 NA 
HETATM   12  H   UNL     1     -10.723   9.523  64.612  1.00  0.00     0.000 HD 
BRANCH  11  13
HETATM   13  C   UNL     1      -8.739   9.556  64.800  1.00  0.00    -0.197 A  
HETATM   14  N   UNL     1      -8.006  10.609  64.551  1.00  0.00    -0.356 NA 
HETATM   15  C   UNL     1      -6.743  10.067  63.983  1.00  0.00    -0.128 A  
HETATM   16  H   UNL     1      -8.247  11.588  64.711  1.00  0.00     0.000 HD 
HETATM   17  C   UNL     1      -6.840   8.541  64.057  1.00  0.00    -0.075 A  
HETATM   18  N   UNL     1      -8.161   8.343  64.603  1.00  0.00    -0.162 NA 
ENDBRANCH  11  13
ENDBRANCH  10  11
ENDBRANCH   2   3
TORSDOF 3
ENDMDL
MODEL      145
REMARK 921   NORMALIZED FREE ENERGY PREDICTED BY IDOCK:   -3.38 KCAL/MOL
REMARK 922        TOTAL FREE ENERGY PREDICTED BY IDOCK:   -4.38 KCAL/MOL
REMARK 923 INTER-LIGAND FREE ENERGY PREDICTED BY IDOCK:   -3.99 KCAL/MOL
REMARK 924 INTRA-LIGAND FREE ENERGY PREDICTED BY IDOCK:   -0.39 KCAL/MOL
REMARK 927      BINDING AFFINITY PREDICTED BY RF-SCORE:    0.00 PKD
ROOT
HETATM    1  C   UNL     1     -10.772  17.342  67.672  1.00  0.00    -0.310 C  
HETATM    2  O   UNL     1     -11.061  16.106  68.329  1.00  0.00    -0.331 OA 
ENDROOT
BRANCH   2   3
HETATM    3  C   UNL     1     -10.659  15.027  67.561  1.00  0.00    -0.265 A  
HETATM    4  N   UNL     1     -11.584  14.529  66.711  1.00  0.00    -0.369 NA 
HETATM    5  C   UNL     1     -11.300  13.369  66.111  1.00  0.00    -0.303 A  
HETATM    6  N   UNL     1     -10.172  12.683  66.310  1.00  0.00    -0.246 NA 
HETATM    7  C   UNL     1     -12.382  12.740  65.292  1.00  0.00    -0.546 C  
HETATM    8  C   UNL     1      -9.272  13.265  67.132  1.00  0.00    -0.235 A  
HETATM    9 CL   UNL     1      -7.871  12.279  67.370  1.00  0.00    -0.162 Cl 
HETATM   10  C   UNL     1      -9.418  14.471  67.802  1.00  0.00    -0.210 A  
BRANCH  10  11
HETATM   11  N   UNL     1      -8.398  14.999  68.603  1.00  0.00    -0.157 NA 
HETATM   12  H   UNL     1      -8.446  14.700  69.577  1.00  0.00     0.000 HD 
BRANCH  11  13
HETATM   13  C   UNL     1      -7.363  15.826  68.340  1.00  0.00    -0.117 A  
HETATM   14  N   UNL     1      -7.352  17.064  68.760  1.00  0.00    -0.226 NA 
HETATM   15  C   UNL     1      -6.080  17.630  68.239  1.00  0.00    -0.165 A  
HETATM   16  H   UNL     1      -8.060  17.538  69.322  1.00  0.00     0.000 HD 
HETATM   17  C   UNL     1      -5.329  16.485  67.556  1.00  0.00    -0.145 A  
HETATM   18  N   UNL     1      -6.253  15.385  67.694  1.00  0.00    -0.204 NA 
ENDBRANCH  11  13
ENDBRANCH  10  11
ENDBRANCH   2   3
TORSDOF 3
ENDMDL
MODEL      146
REMARK 921   NORMALIZED FREE ENERGY PREDICTED BY IDOCK:   -3.38 KCAL/MOL
REMARK 922        TOTAL FREE ENERGY PREDICTED BY IDOCK:   -4.38 KCAL/MOL
REMARK 923 INTER-LIGAND FREE ENERGY PREDICTED BY IDOCK:   -4.00 KCAL/MOL
REMARK 924 INTRA-LIGAND FREE ENERGY PREDICTED BY IDOCK:   -0.38 KCAL/MOL
REMARK 927      BINDING AFFINITY PREDICTED BY RF-SCORE:    0.00 PKD
ROOT
HETATM    1  C   UNL     1     -11.550  15.175  67.331  1.00  0.00    -0.240 C  
HETATM    2  O   UNL     1     -10.350  15.189  68.107  1.00  0.00    -0.234 OA 
ENDROOT
BRANCH   2   3
HETATM    3  C   UNL     1      -9.625  16.346  67.882  1.00  0.00    -0.228 A  
HETATM    4  N   UNL     1     -10.231  17.503  68.231  1.00  0.00    -0.343 NA 
HETATM    5  C   UNL     1      -9.649  18.640  67.839  1.00  0.00    -0.310 A  
HETATM    6  N   UNL     1      -8.523  18.694  67.124  1.00  0.00    -0.261 NA 
HETATM    7  C   UNL     1     -10.397  19.911  68.090  1.00  0.00    -0.533 C  
HETATM    8  C   UNL     1      -7.945  17.503  66.855  1.00  0.00    -0.226 A  
HETATM    9 CL   UNL     1      -6.525  17.671  65.882  1.00  0.00    -0.257 Cl 
HETATM   10  C   UNL     1      -8.418  16.250  67.216  1.00  0.00    -0.177 A  
BRANCH  10  11
HETATM   11  N   UNL     1      -7.712  15.079  66.914  1.00  0.00    -0.295 NA 
HETATM   12  H   UNL     1      -7.740  14.828  65.926  1.00  0.00     0.000 HD 
BRANCH  11  13
HETATM   13  C   UNL     1      -7.002  14.217  67.674  1.00  0.00    -0.184 A  
HETATM   14  N   UNL     1      -6.554  13.087  67.191  1.00  0.00    -0.461 NA 
HETATM   15  C   UNL     1      -5.870  12.430  68.337  1.00  0.00    -0.056 A  
HETATM   16  H   UNL     1      -6.653  12.734  66.239  1.00  0.00     0.000 HD 
HETATM   17  C   UNL     1      -5.908  13.418  69.504  1.00  0.00    -0.102 A  
HETATM   18  N   UNL     1      -6.653  14.522  68.950  1.00  0.00    -0.090 NA 
ENDBRANCH  11  13
ENDBRANCH  10  11
ENDBRANCH   2   3
TORSDOF 3
ENDMDL
MODEL      147
REMARK 921   NORMALIZED FREE ENERGY PREDICTED BY IDOCK:   -3.38 KCAL/MOL
REMARK 922        TOTAL FREE ENERGY PREDICTED BY IDOCK:   -4.38 KCAL/MOL
REMARK 923 INTER-LIGAND FREE ENERGY PREDICTED BY IDOCK:   -3.95 KCAL/MOL
REMARK 924 INTRA-LIGAND FREE ENERGY PREDICTED BY IDOCK:   -0.43 KCAL/MOL
REMARK 927      BINDING AFFINITY PREDICTED BY RF-SCORE:    0.00 PKD
ROOT
HETATM    1  C   UNL     1     -10.643  13.692  65.541  1.00  0.00    -0.296 C  
HETATM    2  O   UNL     1     -11.153  13.790  66.873  1.00  0.00    -0.294 OA 
ENDROOT
BRANCH   2   3
HETATM    3  C   UNL     1     -10.511  14.791  67.580  1.00  0.00    -0.254 A  
HETATM    4  N   UNL     1     -10.955  16.049  67.361  1.00  0.00    -0.284 NA 
HETATM    5  C   UNL     1     -10.227  17.050  67.865  1.00  0.00    -0.317 A  
HETATM    6  N   UNL     1      -9.098  16.877  68.555  1.00  0.00    -0.250 NA 
HETATM    7  C   UNL     1     -10.632  18.441  67.494  1.00  0.00    -0.447 C  
HETATM    8  C   UNL     1      -8.742  15.594  68.780  1.00  0.00    -0.197 A  
HETATM    9 CL   UNL     1      -7.242  15.472  69.633  1.00  0.00    -0.194 Cl 
HETATM   10  C   UNL     1      -9.408  14.459  68.343  1.00  0.00    -0.206 A  
BRANCH  10  11
HETATM   11  N   UNL     1      -8.965  13.171  68.669  1.00  0.00    -0.379 NA 
HETATM   12  H   UNL     1      -9.483  12.742  69.436  1.00  0.00     0.000 HD 
BRANCH  11  13
HETATM   13  C   UNL     1      -7.987  12.385  68.169  1.00  0.00    -0.153 A  
HETATM   14  N   UNL     1      -7.538  12.541  66.951  1.00  0.00    -0.384 NA 
HETATM   15  C   UNL     1      -6.515  11.475  66.784  1.00  0.00    -0.128 A  
HETATM   16  H   UNL     1      -7.827  13.239  66.265  1.00  0.00     0.000 HD 
HETATM   17  C   UNL     1      -6.381  10.771  68.136  1.00  0.00    -0.057 A  
HETATM   18  N   UNL     1      -7.371  11.450  68.937  1.00  0.00    -0.110 NA 
ENDBRANCH  11  13
ENDBRANCH  10  11
ENDBRANCH   2   3
TORSDOF 3
ENDMDL
MODEL      148
REMARK 921   NORMALIZED FREE ENERGY PREDICTED BY IDOCK:   -3.37 KCAL/MOL
REMARK 922        TOTAL FREE ENERGY PREDICTED BY IDOCK:   -4.37 KCAL/MOL
REMARK 923 INTER-LIGAND FREE ENERGY PREDICTED BY IDOCK:   -4.01 KCAL/MOL
REMARK 924 INTRA-LIGAND FREE ENERGY PREDICTED BY IDOCK:   -0.36 KCAL/MOL
REMARK 927      BINDING AFFINITY PREDICTED BY RF-SCORE:    0.00 PKD
ROOT
HETATM    1  C   UNL     1     -11.409  13.039  69.009  1.00  0.00    -0.289 C  
HETATM    2  O   UNL     1     -10.104  13.060  68.428  1.00  0.00    -0.231 OA 
ENDROOT
BRANCH   2   3
HETATM    3  C   UNL     1     -10.140  13.559  67.137  1.00  0.00    -0.245 A  
HETATM    4  N   UNL     1     -10.186  14.905  67.024  1.00  0.00    -0.254 NA 
HETATM    5  C   UNL     1     -10.430  15.408  65.810  1.00  0.00    -0.355 A  
HETATM    6  N   UNL     1     -10.636  14.663  64.722  1.00  0.00    -0.406 NA 
HETATM    7  C   UNL     1     -10.634  16.886  65.712  1.00  0.00    -0.238 C  
HETATM    8  C   UNL     1     -10.524  13.328  64.898  1.00  0.00    -0.371 A  
HETATM    9 CL   UNL     1     -10.859  12.447  63.448  1.00  0.00    -0.476 Cl 
HETATM   10  C   UNL     1     -10.253  12.668  66.087  1.00  0.00    -0.258 A  
BRANCH  10  11
HETATM   11  N   UNL     1     -10.122  11.275  66.145  1.00  0.00    -0.228 NA 
HETATM   12  H   UNL     1     -11.001  10.775  66.012  1.00  0.00     0.000 HD 
BRANCH  11  13
HETATM   13  C   UNL     1      -9.061  10.463  66.344  1.00  0.00    -0.157 A  
HETATM   14  N   UNL     1      -9.192   9.162  66.385  1.00  0.00    -0.170 NA 
HETATM   15  C   UNL     1      -7.821   8.652  66.653  1.00  0.00    -0.097 A  
HETATM   16  H   UNL     1     -10.046   8.618  66.262  1.00  0.00     0.000 HD 
HETATM   17  C   UNL     1      -6.885   9.862  66.643  1.00  0.00    -0.084 A  
HETATM   18  N   UNL     1      -7.799  10.958  66.430  1.00  0.00    -0.151 NA 
ENDBRANCH  11  13
ENDBRANCH  10  11
ENDBRANCH   2   3
TORSDOF 3
ENDMDL
MODEL      149
REMARK 921   NORMALIZED FREE ENERGY PREDICTED BY IDOCK:   -3.36 KCAL/MOL
REMARK 922        TOTAL FREE ENERGY PREDICTED BY IDOCK:   -4.36 KCAL/MOL
REMARK 923 INTER-LIGAND FREE ENERGY PREDICTED BY IDOCK:   -3.98 KCAL/MOL
REMARK 924 INTRA-LIGAND FREE ENERGY PREDICTED BY IDOCK:   -0.37 KCAL/MOL
REMARK 927      BINDING AFFINITY PREDICTED BY RF-SCORE:    0.00 PKD
ROOT
HETATM    1  C   UNL     1      -9.936  11.302  62.998  1.00  0.00    -0.311 C  
HETATM    2  O   UNL     1      -9.346  11.206  64.297  1.00  0.00    -0.210 OA 
ENDROOT
BRANCH   2   3
HETATM    3  C   UNL     1     -10.158  11.785  65.257  1.00  0.00    -0.262 A  
HETATM    4  N   UNL     1     -10.347  13.119  65.145  1.00  0.00    -0.309 NA 
HETATM    5  C   UNL     1     -10.950  13.737  66.165  1.00  0.00    -0.292 A  
HETATM    6  N   UNL     1     -11.360  13.119  67.275  1.00  0.00    -0.291 NA 
HETATM    7  C   UNL     1     -11.022  15.230  66.112  1.00  0.00    -0.307 C  
HETATM    8  C   UNL     1     -11.185  11.780  67.296  1.00  0.00    -0.305 A  
HETATM    9 CL   UNL     1     -11.696  11.077  68.791  1.00  0.00    -0.381 Cl 
HETATM   10  C   UNL     1     -10.601  11.004  66.306  1.00  0.00    -0.237 A  
BRANCH  10  11
HETATM   11  N   UNL     1     -10.505   9.611  66.420  1.00  0.00    -0.164 NA 
HETATM   12  H   UNL     1     -11.393   9.127  66.282  1.00  0.00     0.000 HD 
BRANCH  11  13
HETATM   13  C   UNL     1      -9.470   8.782  66.676  1.00  0.00    -0.203 A  
HETATM   14  N   UNL     1      -9.294   7.676  66.002  1.00  0.00    -0.384 NA 
HETATM   15  C   UNL     1      -8.089   7.050  66.607  1.00  0.00    -0.110 A  
HETATM   16  H   UNL     1      -9.860   7.320  65.231  1.00  0.00     0.000 HD 
HETATM   17  C   UNL     1      -7.553   8.033  67.650  1.00  0.00    -0.102 A  
HETATM   18  N   UNL     1      -8.521   9.102  67.593  1.00  0.00    -0.116 NA 
ENDBRANCH  11  13
ENDBRANCH  10  11
ENDBRANCH   2   3
TORSDOF 3
ENDMDL
MODEL      150
REMARK 921   NORMALIZED FREE ENERGY PREDICTED BY IDOCK:   -3.35 KCAL/MOL
REMARK 922        TOTAL FREE ENERGY PREDICTED BY IDOCK:   -4.35 KCAL/MOL
REMARK 923 INTER-LIGAND FREE ENERGY PREDICTED BY IDOCK:   -4.17 KCAL/MOL
REMARK 924 INTRA-LIGAND FREE ENERGY PREDICTED BY IDOCK:   -0.18 KCAL/MOL
REMARK 927      BINDING AFFINITY PREDICTED BY RF-SCORE:    0.00 PKD
ROOT
HETATM    1  C   UNL     1     -10.771  16.083  65.376  1.00  0.00    -0.383 C  
HETATM    2  O   UNL     1     -10.701  15.933  66.796  1.00  0.00    -0.321 OA 
ENDROOT
BRANCH   2   3
HETATM    3  C   UNL     1      -9.654  15.105  67.159  1.00  0.00    -0.218 A  
HETATM    4  N   UNL     1      -9.679  13.857  66.640  1.00  0.00    -0.280 NA 
HETATM    5  C   UNL     1      -8.804  12.974  67.131  1.00  0.00    -0.218 A  
HETATM    6  N   UNL     1      -7.926  13.252  68.097  1.00  0.00    -0.140 NA 
HETATM    7  C   UNL     1      -8.932  11.557  66.669  1.00  0.00    -0.185 C  
HETATM    8  C   UNL     1      -7.922  14.531  68.532  1.00  0.00    -0.142 A  
HETATM    9 CL   UNL     1      -6.792  14.781  69.817  1.00  0.00    -0.174 Cl 
HETATM   10  C   UNL     1      -8.750  15.557  68.102  1.00  0.00    -0.164 A  
BRANCH  10  11
HETATM   11  N   UNL     1      -8.631  16.860  68.599  1.00  0.00    -0.260 NA 
HETATM   12  H   UNL     1      -8.195  16.908  69.520  1.00  0.00     0.000 HD 
BRANCH  11  13
HETATM   13  C   UNL     1      -8.980  18.066  68.100  1.00  0.00    -0.283 A  
HETATM   14  N   UNL     1      -8.352  18.595  67.083  1.00  0.00    -0.259 NA 
HETATM   15  C   UNL     1      -9.008  19.913  66.876  1.00  0.00    -0.347 A  
HETATM   16  H   UNL     1      -7.581  18.192  66.549  1.00  0.00     0.000 HD 
HETATM   17  C   UNL     1     -10.174  19.991  67.864  1.00  0.00    -0.405 A  
HETATM   18  N   UNL     1     -10.051  18.746  68.584  1.00  0.00    -0.392 NA 
ENDBRANCH  11  13
ENDBRANCH  10  11
ENDBRANCH   2   3
TORSDOF 3
ENDMDL
MODEL      151
REMARK 921   NORMALIZED FREE ENERGY PREDICTED BY IDOCK:   -3.35 KCAL/MOL
REMARK 922        TOTAL FREE ENERGY PREDICTED BY IDOCK:   -4.35 KCAL/MOL
REMARK 923 INTER-LIGAND FREE ENERGY PREDICTED BY IDOCK:   -3.99 KCAL/MOL
REMARK 924 INTRA-LIGAND FREE ENERGY PREDICTED BY IDOCK:   -0.35 KCAL/MOL
REMARK 927      BINDING AFFINITY PREDICTED BY RF-SCORE:    0.00 PKD
ROOT
HETATM    1  C   UNL     1     -10.804  19.782  66.167  1.00  0.00    -0.277 C  
HETATM    2  O   UNL     1     -10.353  19.029  67.295  1.00  0.00    -0.371 OA 
ENDROOT
BRANCH   2   3
HETATM    3  C   UNL     1      -8.970  18.991  67.348  1.00  0.00    -0.291 A  
HETATM    4  N   UNL     1      -8.325  19.958  66.659  1.00  0.00    -0.316 NA 
HETATM    5  C   UNL     1      -7.002  19.829  66.519  1.00  0.00    -0.220 A  
HETATM    6  N   UNL     1      -6.296  18.807  67.009  1.00  0.00    -0.179 NA 
HETATM    7  C   UNL     1      -6.310  20.812  65.629  1.00  0.00    -0.264 C  
HETATM    8  C   UNL     1      -6.998  17.906  67.730  1.00  0.00    -0.199 A  
HETATM    9 CL   UNL     1      -6.010  16.595  68.275  1.00  0.00    -0.118 Cl 
HETATM   10  C   UNL     1      -8.362  17.922  67.978  1.00  0.00    -0.258 A  
BRANCH  10  11
HETATM   11  N   UNL     1      -8.980  16.950  68.774  1.00  0.00    -0.266 NA 
HETATM   12  H   UNL     1      -8.823  17.080  69.774  1.00  0.00     0.000 HD 
BRANCH  11  13
HETATM   13  C   UNL     1      -9.742  15.875  68.480  1.00  0.00    -0.211 A  
HETATM   14  N   UNL     1     -10.000  15.535  67.244  1.00  0.00    -0.235 NA 
HETATM   15  C   UNL     1     -10.882  14.343  67.355  1.00  0.00    -0.292 A  
HETATM   16  H   UNL     1      -9.669  15.988  66.392  1.00  0.00     0.000 HD 
HETATM   17  C   UNL     1     -10.986  14.002  68.843  1.00  0.00    -0.259 A  
HETATM   18  N   UNL     1     -10.209  15.052  69.455  1.00  0.00    -0.236 NA 
ENDBRANCH  11  13
ENDBRANCH  10  11
ENDBRANCH   2   3
TORSDOF 3
ENDMDL
MODEL      152
REMARK 921   NORMALIZED FREE ENERGY PREDICTED BY IDOCK:   -3.32 KCAL/MOL
REMARK 922        TOTAL FREE ENERGY PREDICTED BY IDOCK:   -4.32 KCAL/MOL
REMARK 923 INTER-LIGAND FREE ENERGY PREDICTED BY IDOCK:   -4.04 KCAL/MOL
REMARK 924 INTRA-LIGAND FREE ENERGY PREDICTED BY IDOCK:   -0.28 KCAL/MOL
REMARK 927      BINDING AFFINITY PREDICTED BY RF-SCORE:    0.00 PKD
ROOT
HETATM    1  C   UNL     1      -6.898  10.755  66.272  1.00  0.00    -0.135 C  
HETATM    2  O   UNL     1      -7.502  11.611  67.244  1.00  0.00    -0.126 OA 
ENDROOT
BRANCH   2   3
HETATM    3  C   UNL     1      -8.883  11.534  67.187  1.00  0.00    -0.168 A  
HETATM    4  N   UNL     1      -9.449  11.922  66.022  1.00  0.00    -0.234 NA 
HETATM    5  C   UNL     1     -10.779  12.056  66.005  1.00  0.00    -0.279 A  
HETATM    6  N   UNL     1     -11.564  11.840  67.063  1.00  0.00    -0.542 NA 
HETATM    7  C   UNL     1     -11.391  12.632  64.768  1.00  0.00    -0.350 C  
HETATM    8  C   UNL     1     -10.936  11.405  68.177  1.00  0.00    -0.232 A  
HETATM    9 CL   UNL     1     -12.026  11.205  69.505  1.00  0.00    -0.400 Cl 
HETATM   10  C   UNL     1      -9.574  11.198  68.334  1.00  0.00    -0.192 A  
BRANCH  10  11
HETATM   11  N   UNL     1      -9.036  10.707  69.530  1.00  0.00    -0.405 NA 
HETATM   12  H   UNL     1      -8.400  11.358  69.990  1.00  0.00     0.000 HD 
BRANCH  11  13
HETATM   13  C   UNL     1      -9.192   9.541  70.194  1.00  0.00    -0.244 A  
HETATM   14  N   UNL     1      -9.110   9.478  71.497  1.00  0.00    -0.237 NA 
HETATM   15  C   UNL     1      -9.302   8.039  71.820  1.00  0.00    -0.165 A  
HETATM   16  H   UNL     1      -8.950  10.246  72.149  1.00  0.00     0.000 HD 
HETATM   17  C   UNL     1      -9.615   7.325  70.504  1.00  0.00    -0.168 A  
HETATM   18  N   UNL     1      -9.520   8.396  69.542  1.00  0.00    -0.165 NA 
ENDBRANCH  11  13
ENDBRANCH  10  11
ENDBRANCH   2   3
TORSDOF 3
ENDMDL
MODEL      153
REMARK 921   NORMALIZED FREE ENERGY PREDICTED BY IDOCK:   -3.30 KCAL/MOL
REMARK 922        TOTAL FREE ENERGY PREDICTED BY IDOCK:   -4.29 KCAL/MOL
REMARK 923 INTER-LIGAND FREE ENERGY PREDICTED BY IDOCK:   -3.89 KCAL/MOL
REMARK 924 INTRA-LIGAND FREE ENERGY PREDICTED BY IDOCK:   -0.40 KCAL/MOL
REMARK 927      BINDING AFFINITY PREDICTED BY RF-SCORE:    0.00 PKD
ROOT
HETATM    1  C   UNL     1     -14.326   7.670  71.696  1.00  0.00    -0.477 C  
HETATM    2  O   UNL     1     -12.980   7.690  72.178  1.00  0.00    -0.224 OA 
ENDROOT
BRANCH   2   3
HETATM    3  C   UNL     1     -12.129   8.274  71.256  1.00  0.00    -0.280 A  
HETATM    4  N   UNL     1     -12.208   9.619  71.146  1.00  0.00    -0.330 NA 
HETATM    5  C   UNL     1     -11.555  10.188  70.128  1.00  0.00    -0.277 A  
HETATM    6  N   UNL     1     -10.848   9.508  69.223  1.00  0.00    -0.218 NA 
HETATM    7  C   UNL     1     -11.767  11.653  69.916  1.00  0.00    -0.414 C  
HETATM    8  C   UNL     1     -10.770   8.175  69.424  1.00  0.00    -0.156 A  
HETATM    9 CL   UNL     1      -9.880   7.377  68.174  1.00  0.00    -0.163 Cl 
HETATM   10  C   UNL     1     -11.371   7.453  70.444  1.00  0.00    -0.249 A  
BRANCH  10  11
HETATM   11  N   UNL     1     -11.190   6.071  70.576  1.00  0.00    -0.320 NA 
HETATM   12  H   UNL     1     -11.817   5.518  69.992  1.00  0.00     0.000 HD 
BRANCH  11  13
HETATM   13  C   UNL     1     -10.349   5.325  71.325  1.00  0.00    -0.222 A  
HETATM   14  N   UNL     1      -9.920   4.159  70.919  1.00  0.00    -0.178 NA 
HETATM   15  C   UNL     1      -9.063   3.662  72.028  1.00  0.00    -0.108 A  
HETATM   16  H   UNL     1     -10.128   3.692  70.036  1.00  0.00     0.000 HD 
HETATM   17  C   UNL     1      -8.989   4.781  73.069  1.00  0.00    -0.115 A  
HETATM   18  N   UNL     1      -9.849   5.790  72.499  1.00  0.00    -0.162 NA 
ENDBRANCH  11  13
ENDBRANCH  10  11
ENDBRANCH   2   3
TORSDOF 3
ENDMDL
MODEL      154
REMARK 921   NORMALIZED FREE ENERGY PREDICTED BY IDOCK:   -3.28 KCAL/MOL
REMARK 922        TOTAL FREE ENERGY PREDICTED BY IDOCK:   -4.27 KCAL/MOL
REMARK 923 INTER-LIGAND FREE ENERGY PREDICTED BY IDOCK:   -3.83 KCAL/MOL
REMARK 924 INTRA-LIGAND FREE ENERGY PREDICTED BY IDOCK:   -0.44 KCAL/MOL
REMARK 927      BINDING AFFINITY PREDICTED BY RF-SCORE:    0.00 PKD
ROOT
HETATM    1  C   UNL     1      -9.414   8.808  69.162  1.00  0.00    -0.157 C  
HETATM    2  O   UNL     1     -10.486   9.464  68.481  1.00  0.00    -0.200 OA 
ENDROOT
BRANCH   2   3
HETATM    3  C   UNL     1     -10.996  10.503  69.238  1.00  0.00    -0.244 A  
HETATM    4  N   UNL     1     -11.787  10.147  70.276  1.00  0.00    -0.270 NA 
HETATM    5  C   UNL     1     -12.457  11.123  70.896  1.00  0.00    -0.409 A  
HETATM    6  N   UNL     1     -12.396  12.410  70.545  1.00  0.00    -0.306 NA 
HETATM    7  C   UNL     1     -13.447  10.715  71.940  1.00  0.00    -0.341 C  
HETATM    8  C   UNL     1     -11.547  12.699  69.534  1.00  0.00    -0.281 A  
HETATM    9 CL   UNL     1     -11.576  14.378  69.117  1.00  0.00    -0.317 Cl 
HETATM   10  C   UNL     1     -10.773  11.800  68.817  1.00  0.00    -0.221 A  
BRANCH  10  11
HETATM   11  N   UNL     1      -9.896  12.220  67.809  1.00  0.00    -0.196 NA 
HETATM   12  H   UNL     1     -10.341  12.322  66.897  1.00  0.00     0.000 HD 
BRANCH  11  13
HETATM   13  C   UNL     1      -8.578  12.515  67.807  1.00  0.00    -0.178 A  
HETATM   14  N   UNL     1      -8.077  13.420  68.606  1.00  0.00    -0.300 NA 
HETATM   15  C   UNL     1      -6.629  13.464  68.269  1.00  0.00    -0.105 A  
HETATM   16  H   UNL     1      -8.570  13.973  69.307  1.00  0.00     0.000 HD 
HETATM   17  C   UNL     1      -6.379  12.365  67.235  1.00  0.00    -0.142 A  
HETATM   18  N   UNL     1      -7.702  11.828  67.028  1.00  0.00    -0.161 NA 
ENDBRANCH  11  13
ENDBRANCH  10  11
ENDBRANCH   2   3
TORSDOF 3
ENDMDL
MODEL      155
REMARK 921   NORMALIZED FREE ENERGY PREDICTED BY IDOCK:   -3.27 KCAL/MOL
REMARK 922        TOTAL FREE ENERGY PREDICTED BY IDOCK:   -4.25 KCAL/MOL
REMARK 923 INTER-LIGAND FREE ENERGY PREDICTED BY IDOCK:   -3.87 KCAL/MOL
REMARK 924 INTRA-LIGAND FREE ENERGY PREDICTED BY IDOCK:   -0.38 KCAL/MOL
REMARK 927      BINDING AFFINITY PREDICTED BY RF-SCORE:    0.00 PKD
ROOT
HETATM    1  C   UNL     1      -6.833   8.476  64.525  1.00  0.00    -0.069 C  
HETATM    2  O   UNL     1      -8.232   8.749  64.631  1.00  0.00    -0.149 OA 
ENDROOT
BRANCH   2   3
HETATM    3  C   UNL     1      -8.679   8.563  65.928  1.00  0.00    -0.174 A  
HETATM    4  N   UNL     1      -8.437   7.349  66.469  1.00  0.00    -0.122 NA 
HETATM    5  C   UNL     1      -9.033   7.069  67.633  1.00  0.00    -0.117 A  
HETATM    6  N   UNL     1      -9.848   7.910  68.274  1.00  0.00    -0.164 NA 
HETATM    7  C   UNL     1      -8.891   5.675  68.155  1.00  0.00    -0.108 C  
HETATM    8  C   UNL     1     -10.003   9.123  67.702  1.00  0.00    -0.195 A  
HETATM    9 CL   UNL     1     -11.116  10.120  68.574  1.00  0.00    -0.282 Cl 
HETATM   10  C   UNL     1      -9.432   9.561  66.516  1.00  0.00    -0.182 A  
BRANCH  10  11
HETATM   11  N   UNL     1      -9.634  10.860  66.034  1.00  0.00    -0.200 NA 
HETATM   12  H   UNL     1      -8.893  11.512  66.292  1.00  0.00     0.000 HD 
BRANCH  11  13
HETATM   13  C   UNL     1     -10.617  11.421  65.296  1.00  0.00    -0.277 A  
HETATM   14  N   UNL     1     -10.742  11.172  64.019  1.00  0.00    -0.430 NA 
HETATM   15  C   UNL     1     -11.900  11.996  63.583  1.00  0.00    -0.506 A  
HETATM   16  H   UNL     1     -10.170  10.550  63.447  1.00  0.00     0.000 HD 
HETATM   17  C   UNL     1     -12.473  12.658  64.838  1.00  0.00    -0.494 A  
HETATM   18  N   UNL     1     -11.568  12.205  65.866  1.00  0.00    -0.399 NA 
ENDBRANCH  11  13
ENDBRANCH  10  11
ENDBRANCH   2   3
TORSDOF 3
ENDMDL
MODEL      156
REMARK 921   NORMALIZED FREE ENERGY PREDICTED BY IDOCK:   -3.26 KCAL/MOL
REMARK 922        TOTAL FREE ENERGY PREDICTED BY IDOCK:   -4.24 KCAL/MOL
REMARK 923 INTER-LIGAND FREE ENERGY PREDICTED BY IDOCK:   -3.83 KCAL/MOL
REMARK 924 INTRA-LIGAND FREE ENERGY PREDICTED BY IDOCK:   -0.41 KCAL/MOL
REMARK 927      BINDING AFFINITY PREDICTED BY RF-SCORE:    0.00 PKD
ROOT
HETATM    1  C   UNL     1     -11.940   6.718  70.729  1.00  0.00    -0.378 C  
HETATM    2  O   UNL     1     -10.774   7.534  70.870  1.00  0.00    -0.229 OA 
ENDROOT
BRANCH   2   3
HETATM    3  C   UNL     1     -11.029   8.838  70.485  1.00  0.00    -0.239 A  
HETATM    4  N   UNL     1     -11.768   9.576  71.343  1.00  0.00    -0.365 NA 
HETATM    5  C   UNL     1     -12.204  10.763  70.910  1.00  0.00    -0.384 A  
HETATM    6  N   UNL     1     -11.960  11.247  69.691  1.00  0.00    -0.334 NA 
HETATM    7  C   UNL     1     -13.147  11.509  71.800  1.00  0.00    -0.503 C  
HETATM    8  C   UNL     1     -11.173  10.481  68.905  1.00  0.00    -0.266 A  
HETATM    9 CL   UNL     1     -10.958  11.164  67.331  1.00  0.00    -0.322 Cl 
HETATM   10  C   UNL     1     -10.631   9.245  69.226  1.00  0.00    -0.222 A  
BRANCH  10  11
HETATM   11  N   UNL     1      -9.794   8.554  68.342  1.00  0.00    -0.167 NA 
HETATM   12  H   UNL     1     -10.297   7.967  67.677  1.00  0.00     0.000 HD 
BRANCH  11  13
HETATM   13  C   UNL     1      -8.452   8.511  68.196  1.00  0.00    -0.134 A  
HETATM   14  N   UNL     1      -7.892   8.422  67.018  1.00  0.00    -0.095 NA 
HETATM   15  C   UNL     1      -6.432   8.366  67.294  1.00  0.00    -0.058 A  
HETATM   16  H   UNL     1      -8.356   8.397  66.109  1.00  0.00     0.000 HD 
HETATM   17  C   UNL     1      -6.257   8.550  68.803  1.00  0.00    -0.045 A  
HETATM   18  N   UNL     1      -7.622   8.637  69.264  1.00  0.00    -0.092 NA 
ENDBRANCH  11  13
ENDBRANCH  10  11
ENDBRANCH   2   3
TORSDOF 3
ENDMDL
MODEL      157
REMARK 921   NORMALIZED FREE ENERGY PREDICTED BY IDOCK:   -3.26 KCAL/MOL
REMARK 922        TOTAL FREE ENERGY PREDICTED BY IDOCK:   -4.24 KCAL/MOL
REMARK 923 INTER-LIGAND FREE ENERGY PREDICTED BY IDOCK:   -3.94 KCAL/MOL
REMARK 924 INTRA-LIGAND FREE ENERGY PREDICTED BY IDOCK:   -0.30 KCAL/MOL
REMARK 927      BINDING AFFINITY PREDICTED BY RF-SCORE:    0.00 PKD
ROOT
HETATM    1  C   UNL     1     -11.942  13.333  67.852  1.00  0.00    -0.309 C  
HETATM    2  O   UNL     1     -11.272  13.114  69.096  1.00  0.00    -0.262 OA 
ENDROOT
BRANCH   2   3
HETATM    3  C   UNL     1     -11.294  11.775  69.445  1.00  0.00    -0.272 A  
HETATM    4  N   UNL     1     -12.320  11.385  70.234  1.00  0.00    -0.311 NA 
HETATM    5  C   UNL     1     -12.258  10.156  70.755  1.00  0.00    -0.338 A  
HETATM    6  N   UNL     1     -11.247   9.309  70.548  1.00  0.00    -0.255 NA 
HETATM    7  C   UNL     1     -13.312   9.781  71.747  1.00  0.00    -0.506 C  
HETATM    8  C   UNL     1     -10.282   9.745  69.709  1.00  0.00    -0.242 A  
HETATM    9 CL   UNL     1      -8.993   8.604  69.546  1.00  0.00    -0.143 Cl 
HETATM   10  C   UNL     1     -10.226  10.979  69.079  1.00  0.00    -0.200 A  
BRANCH  10  11
HETATM   11  N   UNL     1      -9.191  11.311  68.196  1.00  0.00    -0.164 NA 
HETATM   12  H   UNL     1      -9.167  10.731  67.356  1.00  0.00     0.000 HD 
BRANCH  11  13
HETATM   13  C   UNL     1      -8.218  12.246  68.236  1.00  0.00    -0.167 A  
HETATM   14  N   UNL     1      -7.293  12.234  69.160  1.00  0.00    -0.318 NA 
HETATM   15  C   UNL     1      -6.455  13.429  68.874  1.00  0.00    -0.103 A  
HETATM   16  H   UNL     1      -7.172  11.554  69.911  1.00  0.00     0.000 HD 
HETATM   17  C   UNL     1      -6.989  14.048  67.581  1.00  0.00    -0.183 A  
HETATM   18  N   UNL     1      -8.111  13.196  67.271  1.00  0.00    -0.169 NA 
ENDBRANCH  11  13
ENDBRANCH  10  11
ENDBRANCH   2   3
TORSDOF 3
ENDMDL
MODEL      158
REMARK 921   NORMALIZED FREE ENERGY PREDICTED BY IDOCK:   -3.26 KCAL/MOL
REMARK 922        TOTAL FREE ENERGY PREDICTED BY IDOCK:   -4.24 KCAL/MOL
REMARK 923 INTER-LIGAND FREE ENERGY PREDICTED BY IDOCK:   -3.83 KCAL/MOL
REMARK 924 INTRA-LIGAND FREE ENERGY PREDICTED BY IDOCK:   -0.41 KCAL/MOL
REMARK 927      BINDING AFFINITY PREDICTED BY RF-SCORE:    0.00 PKD
ROOT
HETATM    1  C   UNL     1      -6.556   9.105  71.173  1.00  0.00    -0.088 C  
HETATM    2  O   UNL     1      -7.900   9.582  71.082  1.00  0.00    -0.326 OA 
ENDROOT
BRANCH   2   3
HETATM    3  C   UNL     1      -8.381   9.476  69.789  1.00  0.00    -0.164 A  
HETATM    4  N   UNL     1      -7.540   8.921  68.889  1.00  0.00    -0.086 NA 
HETATM    5  C   UNL     1      -7.890   8.993  67.601  1.00  0.00    -0.101 A  
HETATM    6  N   UNL     1      -9.004   9.582  67.162  1.00  0.00    -0.134 NA 
HETATM    7  C   UNL     1      -6.890   8.517  66.595  1.00  0.00    -0.072 C  
HETATM    8  C   UNL     1      -9.822  10.070  68.120  1.00  0.00    -0.142 A  
HETATM    9 CL   UNL     1     -11.209  10.860  67.455  1.00  0.00    -0.378 Cl 
HETATM   10  C   UNL     1      -9.604  10.046  69.489  1.00  0.00    -0.230 A  
BRANCH  10  11
HETATM   11  N   UNL     1     -10.544  10.550  70.396  1.00  0.00    -0.414 NA 
HETATM   12  H   UNL     1     -10.409  11.537  70.618  1.00  0.00     0.000 HD 
BRANCH  11  13
HETATM   13  C   UNL     1     -11.593   9.988  71.035  1.00  0.00    -0.393 A  
HETATM   14  N   UNL     1     -11.426   9.201  72.065  1.00  0.00    -0.344 NA 
HETATM   15  C   UNL     1     -12.800   8.775  72.443  1.00  0.00    -0.371 A  
HETATM   16  H   UNL     1     -10.547   8.937  72.512  1.00  0.00     0.000 HD 
HETATM   17  C   UNL     1     -13.768   9.534  71.534  1.00  0.00    -0.270 A  
HETATM   18  N   UNL     1     -12.872  10.280  70.683  1.00  0.00    -0.323 NA 
ENDBRANCH  11  13
ENDBRANCH  10  11
ENDBRANCH   2   3
TORSDOF 3
ENDMDL
MODEL      159
REMARK 921   NORMALIZED FREE ENERGY PREDICTED BY IDOCK:   -3.22 KCAL/MOL
REMARK 922        TOTAL FREE ENERGY PREDICTED BY IDOCK:   -4.20 KCAL/MOL
REMARK 923 INTER-LIGAND FREE ENERGY PREDICTED BY IDOCK:   -3.73 KCAL/MOL
REMARK 924 INTRA-LIGAND FREE ENERGY PREDICTED BY IDOCK:   -0.47 KCAL/MOL
REMARK 927      BINDING AFFINITY PREDICTED BY RF-SCORE:    0.00 PKD
ROOT
HETATM    1  C   UNL     1      -9.865  10.528  68.408  1.00  0.00    -0.161 C  
HETATM    2  O   UNL     1      -8.795  10.669  67.470  1.00  0.00    -0.131 OA 
ENDROOT
BRANCH   2   3
HETATM    3  C   UNL     1      -8.042  11.797  67.741  1.00  0.00    -0.143 A  
HETATM    4  N   UNL     1      -7.197  11.708  68.793  1.00  0.00    -0.110 NA 
HETATM    5  C   UNL     1      -6.613  12.836  69.205  1.00  0.00    -0.101 A  
HETATM    6  N   UNL     1      -6.821  14.031  68.647  1.00  0.00    -0.095 NA 
HETATM    7  C   UNL     1      -5.802  12.766  70.459  1.00  0.00    -0.132 C  
HETATM    8  C   UNL     1      -7.635  14.038  67.569  1.00  0.00    -0.180 A  
HETATM    9 CL   UNL     1      -7.887  15.633  66.951  1.00  0.00    -0.268 Cl 
HETATM   10  C   UNL     1      -8.290  12.947  67.016  1.00  0.00    -0.107 A  
BRANCH  10  11
HETATM   11  N   UNL     1      -9.084  13.066  65.869  1.00  0.00    -0.410 NA 
HETATM   12  H   UNL     1      -8.589  12.848  65.004  1.00  0.00     0.000 HD 
BRANCH  11  13
HETATM   13  C   UNL     1     -10.376  13.415  65.682  1.00  0.00    -0.290 A  
HETATM   14  N   UNL     1     -11.213  13.505  66.683  1.00  0.00    -0.306 NA 
HETATM   15  C   UNL     1     -12.512  13.870  66.058  1.00  0.00    -0.461 A  
HETATM   16  H   UNL     1     -11.018  13.357  67.673  1.00  0.00     0.000 HD 
HETATM   17  C   UNL     1     -12.246  14.079  64.566  1.00  0.00    -0.434 A  
HETATM   18  N   UNL     1     -10.842  13.763  64.456  1.00  0.00    -0.401 NA 
ENDBRANCH  11  13
ENDBRANCH  10  11
ENDBRANCH   2   3
TORSDOF 3
ENDMDL
MODEL      160
REMARK 921   NORMALIZED FREE ENERGY PREDICTED BY IDOCK:   -3.20 KCAL/MOL
REMARK 922        TOTAL FREE ENERGY PREDICTED BY IDOCK:   -4.18 KCAL/MOL
REMARK 923 INTER-LIGAND FREE ENERGY PREDICTED BY IDOCK:   -3.91 KCAL/MOL
REMARK 924 INTRA-LIGAND FREE ENERGY PREDICTED BY IDOCK:   -0.27 KCAL/MOL
REMARK 927      BINDING AFFINITY PREDICTED BY RF-SCORE:    0.00 PKD
ROOT
HETATM    1  C   UNL     1      -9.252  16.320  65.930  1.00  0.00    -0.233 C  
HETATM    2  O   UNL     1      -9.783  16.246  67.255  1.00  0.00    -0.232 OA 
ENDROOT
BRANCH   2   3
HETATM    3  C   UNL     1      -8.804  16.502  68.199  1.00  0.00    -0.203 A  
HETATM    4  N   UNL     1      -8.460  17.800  68.358  1.00  0.00    -0.289 NA 
HETATM    5  C   UNL     1      -7.382  18.059  69.105  1.00  0.00    -0.111 A  
HETATM    6  N   UNL     1      -6.634  17.118  69.685  1.00  0.00    -0.188 NA 
HETATM    7  C   UNL     1      -6.912  19.477  69.155  1.00  0.00    -0.392 C  
HETATM    8  C   UNL     1      -7.066  15.848  69.527  1.00  0.00    -0.184 A  
HETATM    9 CL   UNL     1      -6.005  14.700  70.268  1.00  0.00    -0.149 Cl 
HETATM   10  C   UNL     1      -8.174  15.432  68.804  1.00  0.00    -0.172 A  
BRANCH  10  11
HETATM   11  N   UNL     1      -8.550  14.085  68.739  1.00  0.00    -0.335 NA 
HETATM   12  H   UNL     1      -7.771  13.437  68.848  1.00  0.00     0.000 HD 
BRANCH  11  13
HETATM   13  C   UNL     1      -9.742  13.475  68.560  1.00  0.00    -0.168 A  
HETATM   14  N   UNL     1     -10.780  13.768  69.299  1.00  0.00    -0.429 NA 
HETATM   15  C   UNL     1     -11.858  12.867  68.814  1.00  0.00    -0.315 A  
HETATM   16  H   UNL     1     -10.838  14.462  70.045  1.00  0.00     0.000 HD 
HETATM   17  C   UNL     1     -11.294  12.104  67.614  1.00  0.00    -0.314 A  
HETATM   18  N   UNL     1      -9.936  12.587  67.552  1.00  0.00    -0.199 NA 
ENDBRANCH  11  13
ENDBRANCH  10  11
ENDBRANCH   2   3
TORSDOF 3
ENDMDL
MODEL      161
REMARK 921   NORMALIZED FREE ENERGY PREDICTED BY IDOCK:   -3.20 KCAL/MOL
REMARK 922        TOTAL FREE ENERGY PREDICTED BY IDOCK:   -4.17 KCAL/MOL
REMARK 923 INTER-LIGAND FREE ENERGY PREDICTED BY IDOCK:   -3.63 KCAL/MOL
REMARK 924 INTRA-LIGAND FREE ENERGY PREDICTED BY IDOCK:   -0.55 KCAL/MOL
REMARK 927      BINDING AFFINITY PREDICTED BY RF-SCORE:    0.00 PKD
ROOT
HETATM    1  C   UNL     1     -10.582   9.779  68.589  1.00  0.00    -0.221 C  
HETATM    2  O   UNL     1      -9.676   9.575  69.676  1.00  0.00    -0.176 OA 
ENDROOT
BRANCH   2   3
HETATM    3  C   UNL     1      -9.264   8.255  69.740  1.00  0.00    -0.154 A  
HETATM    4  N   UNL     1      -8.382   7.864  68.793  1.00  0.00    -0.127 NA 
HETATM    5  C   UNL     1      -8.126   6.555  68.701  1.00  0.00    -0.118 A  
HETATM    6  N   UNL     1      -8.692   5.628  69.476  1.00  0.00    -0.109 NA 
HETATM    7  C   UNL     1      -7.271   6.107  67.558  1.00  0.00    -0.076 C  
HETATM    8  C   UNL     1      -9.523   6.095  70.433  1.00  0.00    -0.161 A  
HETATM    9 CL   UNL     1     -10.247   4.819  71.349  1.00  0.00    -0.261 Cl 
HETATM   10  C   UNL     1      -9.863   7.419  70.663  1.00  0.00    -0.179 A  
BRANCH  10  11
HETATM   11  N   UNL     1     -10.710   7.793  71.713  1.00  0.00    -0.218 NA 
HETATM   12  H   UNL     1     -10.307   7.640  72.638  1.00  0.00     0.000 HD 
BRANCH  11  13
HETATM   13  C   UNL     1     -11.956   8.315  71.744  1.00  0.00    -0.316 A  
HETATM   14  N   UNL     1     -12.158   9.607  71.743  1.00  0.00    -0.386 NA 
HETATM   15  C   UNL     1     -13.635   9.760  71.817  1.00  0.00    -0.313 A  
HETATM   16  H   UNL     1     -11.456  10.347  71.701  1.00  0.00     0.000 HD 
HETATM   17  C   UNL     1     -14.233   8.353  71.747  1.00  0.00    -0.458 A  
HETATM   18  N   UNL     1     -13.056   7.520  71.696  1.00  0.00    -0.356 NA 
ENDBRANCH  11  13
ENDBRANCH  10  11
ENDBRANCH   2   3
TORSDOF 3
ENDMDL
MODEL      162
REMARK 921   NORMALIZED FREE ENERGY PREDICTED BY IDOCK:   -3.20 KCAL/MOL
REMARK 922        TOTAL FREE ENERGY PREDICTED BY IDOCK:   -4.17 KCAL/MOL
REMARK 923 INTER-LIGAND FREE ENERGY PREDICTED BY IDOCK:   -3.75 KCAL/MOL
REMARK 924 INTRA-LIGAND FREE ENERGY PREDICTED BY IDOCK:   -0.42 KCAL/MOL
REMARK 927      BINDING AFFINITY PREDICTED BY RF-SCORE:    0.00 PKD
ROOT
HETATM    1  C   UNL     1      -9.678   8.546  66.349  1.00  0.00    -0.258 C  
HETATM    2  O   UNL     1     -10.476   9.498  67.056  1.00  0.00    -0.249 OA 
ENDROOT
BRANCH   2   3
HETATM    3  C   UNL     1      -9.701  10.540  67.536  1.00  0.00    -0.166 A  
HETATM    4  N   UNL     1      -8.484  10.199  68.016  1.00  0.00    -0.117 NA 
HETATM    5  C   UNL     1      -7.800  11.143  68.671  1.00  0.00    -0.138 A  
HETATM    6  N   UNL     1      -8.252  12.381  68.880  1.00  0.00     0.121 NA 
HETATM    7  C   UNL     1      -6.527  10.725  69.335  1.00  0.00    -0.076 C  
HETATM    8  C   UNL     1      -9.451  12.667  68.328  1.00  0.00    -0.203 A  
HETATM    9 CL   UNL     1      -9.975  14.273  68.697  1.00  0.00    -0.237 Cl 
HETATM   10  C   UNL     1     -10.258  11.801  67.605  1.00  0.00    -0.199 A  
BRANCH  10  11
HETATM   11  N   UNL     1     -11.472  12.219  67.044  1.00  0.00    -0.336 NA 
HETATM   12  H   UNL     1     -12.258  12.180  67.693  1.00  0.00     0.000 HD 
BRANCH  11  13
HETATM   13  C   UNL     1     -11.806  12.664  65.813  1.00  0.00    -0.444 A  
HETATM   14  N   UNL     1     -12.107  13.917  65.596  1.00  0.00    -0.396 NA 
HETATM   15  C   UNL     1     -12.444  13.981  64.149  1.00  0.00    -0.234 A  
HETATM   16  H   UNL     1     -12.111  14.683  66.270  1.00  0.00     0.000 HD 
HETATM   17  C   UNL     1     -12.176  12.591  63.568  1.00  0.00    -0.558 A  
HETATM   18  N   UNL     1     -11.768  11.843  64.732  1.00  0.00    -0.260 NA 
ENDBRANCH  11  13
ENDBRANCH  10  11
ENDBRANCH   2   3
TORSDOF 3
ENDMDL
MODEL      163
REMARK 921   NORMALIZED FREE ENERGY PREDICTED BY IDOCK:   -3.20 KCAL/MOL
REMARK 922        TOTAL FREE ENERGY PREDICTED BY IDOCK:   -4.17 KCAL/MOL
REMARK 923 INTER-LIGAND FREE ENERGY PREDICTED BY IDOCK:   -4.11 KCAL/MOL
REMARK 924 INTRA-LIGAND FREE ENERGY PREDICTED BY IDOCK:   -0.06 KCAL/MOL
REMARK 927      BINDING AFFINITY PREDICTED BY RF-SCORE:    0.00 PKD
ROOT
HETATM    1  C   UNL     1      -7.628  13.082  68.223  1.00  0.00    -0.135 C  
HETATM    2  O   UNL     1      -8.359  14.102  68.907  1.00  0.00    -0.111 OA 
ENDROOT
BRANCH   2   3
HETATM    3  C   UNL     1      -9.370  14.610  68.110  1.00  0.00    -0.197 A  
HETATM    4  N   UNL     1     -10.169  13.697  67.513  1.00  0.00    -0.239 NA 
HETATM    5  C   UNL     1     -11.016  14.144  66.581  1.00  0.00    -0.303 A  
HETATM    6  N   UNL     1     -11.107  15.422  66.207  1.00  0.00    -0.278 NA 
HETATM    7  C   UNL     1     -11.788  13.119  65.813  1.00  0.00    -0.442 C  
HETATM    8  C   UNL     1     -10.317  16.286  66.881  1.00  0.00    -0.299 A  
HETATM    9 CL   UNL     1     -10.466  17.905  66.292  1.00  0.00    -0.354 Cl 
HETATM   10  C   UNL     1      -9.411  15.972  67.884  1.00  0.00    -0.210 A  
BRANCH  10  11
HETATM   11  N   UNL     1      -8.668  16.959  68.542  1.00  0.00    -0.243 NA 
HETATM   12  H   UNL     1      -8.624  16.832  69.554  1.00  0.00     0.000 HD 
BRANCH  11  13
HETATM   13  C   UNL     1      -7.997  18.046  68.102  1.00  0.00    -0.267 A  
HETATM   14  N   UNL     1      -8.205  19.232  68.612  1.00  0.00    -0.368 NA 
HETATM   15  C   UNL     1      -7.313  20.138  67.841  1.00  0.00    -0.291 A  
HETATM   16  H   UNL     1      -8.839  19.482  69.372  1.00  0.00     0.000 HD 
HETATM   17  C   UNL     1      -6.493  19.258  66.896  1.00  0.00    -0.193 A  
HETATM   18  N   UNL     1      -7.021  17.942  67.164  1.00  0.00    -0.176 NA 
ENDBRANCH  11  13
ENDBRANCH  10  11
ENDBRANCH   2   3
TORSDOF 3
ENDMDL
MODEL      164
REMARK 921   NORMALIZED FREE ENERGY PREDICTED BY IDOCK:   -3.18 KCAL/MOL
REMARK 922        TOTAL FREE ENERGY PREDICTED BY IDOCK:   -4.15 KCAL/MOL
REMARK 923 INTER-LIGAND FREE ENERGY PREDICTED BY IDOCK:   -3.76 KCAL/MOL
REMARK 924 INTRA-LIGAND FREE ENERGY PREDICTED BY IDOCK:   -0.39 KCAL/MOL
REMARK 927      BINDING AFFINITY PREDICTED BY RF-SCORE:    0.00 PKD
ROOT
HETATM    1  C   UNL     1     -10.973   6.258  68.509  1.00  0.00    -0.340 C  
HETATM    2  O   UNL     1     -11.266   5.524  69.700  1.00  0.00    -0.138 OA 
ENDROOT
BRANCH   2   3
HETATM    3  C   UNL     1     -11.326   6.362  70.799  1.00  0.00    -0.350 A  
HETATM    4  N   UNL     1     -12.186   7.401  70.706  1.00  0.00    -0.224 NA 
HETATM    5  C   UNL     1     -12.117   8.338  71.657  1.00  0.00    -0.306 A  
HETATM    6  N   UNL     1     -11.252   8.308  72.673  1.00  0.00    -0.376 NA 
HETATM    7  C   UNL     1     -12.958   9.561  71.472  1.00  0.00    -0.471 C  
HETATM    8  C   UNL     1     -10.459   7.216  72.732  1.00  0.00    -0.244 A  
HETATM    9 CL   UNL     1      -9.339   7.293  74.047  1.00  0.00    -0.296 Cl 
HETATM   10  C   UNL     1     -10.435   6.158  71.835  1.00  0.00    -0.213 A  
BRANCH  10  11
HETATM   11  N   UNL     1      -9.592   5.055  72.018  1.00  0.00    -0.152 NA 
HETATM   12  H   UNL     1      -8.657   5.186  71.632  1.00  0.00     0.000 HD 
BRANCH  11  13
HETATM   13  C   UNL     1      -9.774   3.851  72.603  1.00  0.00    -0.143 A  
HETATM   14  N   UNL     1     -10.732   3.647  73.469  1.00  0.00    -0.198 NA 
HETATM   15  C   UNL     1     -10.566   2.232  73.893  1.00  0.00    -0.152 A  
HETATM   16  H   UNL     1     -11.439   4.313  73.784  1.00  0.00     0.000 HD 
HETATM   17  C   UNL     1      -9.435   1.643  73.047  1.00  0.00    -0.072 A  
HETATM   18  N   UNL     1      -9.017   2.777  72.259  1.00  0.00    -0.084 NA 
ENDBRANCH  11  13
ENDBRANCH  10  11
ENDBRANCH   2   3
TORSDOF 3
ENDMDL
MODEL      165
REMARK 921   NORMALIZED FREE ENERGY PREDICTED BY IDOCK:   -3.18 KCAL/MOL
REMARK 922        TOTAL FREE ENERGY PREDICTED BY IDOCK:   -4.15 KCAL/MOL
REMARK 923 INTER-LIGAND FREE ENERGY PREDICTED BY IDOCK:   -3.70 KCAL/MOL
REMARK 924 INTRA-LIGAND FREE ENERGY PREDICTED BY IDOCK:   -0.45 KCAL/MOL
REMARK 927      BINDING AFFINITY PREDICTED BY RF-SCORE:    0.00 PKD
ROOT
HETATM    1  C   UNL     1     -12.004   6.576  70.330  1.00  0.00    -0.229 C  
HETATM    2  O   UNL     1     -12.176   6.922  71.706  1.00  0.00    -0.326 OA 
ENDROOT
BRANCH   2   3
HETATM    3  C   UNL     1     -11.059   6.582  72.449  1.00  0.00    -0.259 A  
HETATM    4  N   UNL     1     -11.012   5.307  72.898  1.00  0.00    -0.266 NA 
HETATM    5  C   UNL     1     -10.058   5.007  73.784  1.00  0.00    -0.187 A  
HETATM    6  N   UNL     1      -9.168   5.887  74.249  1.00  0.00    -0.128 NA 
HETATM    7  C   UNL     1     -10.100   3.643  74.395  1.00  0.00    -0.211 C  
HETATM    8  C   UNL     1      -9.241   7.127  73.720  1.00  0.00    -0.214 A  
HETATM    9 CL   UNL     1      -8.087   8.207  74.422  1.00  0.00    -0.306 Cl 
HETATM   10  C   UNL     1     -10.157   7.575  72.779  1.00  0.00    -0.240 A  
BRANCH  10  11
HETATM   11  N   UNL     1     -10.115   8.879  72.271  1.00  0.00    -0.239 NA 
HETATM   12  H   UNL     1     -10.590   9.563  72.860  1.00  0.00     0.000 HD 
BRANCH  11  13
HETATM   13  C   UNL     1      -9.570   9.409  71.154  1.00  0.00    -0.150 A  
HETATM   14  N   UNL     1      -8.281   9.373  70.937  1.00  0.00    -0.298 NA 
HETATM   15  C   UNL     1      -8.095  10.082  69.643  1.00  0.00    -0.172 A  
HETATM   16  H   UNL     1      -7.562   8.952  71.526  1.00  0.00     0.000 HD 
HETATM   17  C   UNL     1      -9.491  10.421  69.116  1.00  0.00    -0.208 A  
HETATM   18  N   UNL     1     -10.346   9.933  70.171  1.00  0.00    -0.270 NA 
ENDBRANCH  11  13
ENDBRANCH  10  11
ENDBRANCH   2   3
TORSDOF 3
ENDMDL
MODEL      166
REMARK 921   NORMALIZED FREE ENERGY PREDICTED BY IDOCK:   -3.15 KCAL/MOL
REMARK 922        TOTAL FREE ENERGY PREDICTED BY IDOCK:   -4.12 KCAL/MOL
REMARK 923 INTER-LIGAND FREE ENERGY PREDICTED BY IDOCK:   -3.73 KCAL/MOL
REMARK 924 INTRA-LIGAND FREE ENERGY PREDICTED BY IDOCK:   -0.39 KCAL/MOL
REMARK 927      BINDING AFFINITY PREDICTED BY RF-SCORE:    0.00 PKD
ROOT
HETATM    1  C   UNL     1     -10.568  10.801  68.484  1.00  0.00    -0.195 C  
HETATM    2  O   UNL     1     -10.520   9.494  69.061  1.00  0.00    -0.202 OA 
ENDROOT
BRANCH   2   3
HETATM    3  C   UNL     1      -9.994   8.575  68.170  1.00  0.00    -0.181 A  
HETATM    4  N   UNL     1      -9.104   9.060  67.275  1.00  0.00    -0.133 NA 
HETATM    5  C   UNL     1      -8.738   8.249  66.278  1.00  0.00    -0.151 A  
HETATM    6  N   UNL     1      -9.203   7.009  66.116  1.00  0.00    -0.123 NA 
HETATM    7  C   UNL     1      -7.876   8.834  65.205  1.00  0.00    -0.108 C  
HETATM    8  C   UNL     1     -10.048   6.572  67.075  1.00  0.00    -0.179 A  
HETATM    9 CL   UNL     1     -10.637   4.978  66.751  1.00  0.00    -0.274 Cl 
HETATM   10  C   UNL     1     -10.496   7.288  68.175  1.00  0.00    -0.198 A  
BRANCH  10  11
HETATM   11  N   UNL     1     -11.347   6.718  69.130  1.00  0.00    -0.562 NA 
HETATM   12  H   UNL     1     -12.335   6.781  68.888  1.00  0.00     0.000 HD 
BRANCH  11  13
HETATM   13  C   UNL     1     -11.116   6.102  70.310  1.00  0.00    -0.366 A  
HETATM   14  N   UNL     1     -10.171   5.208  70.443  1.00  0.00    -0.259 NA 
HETATM   15  C   UNL     1     -10.272   4.757  71.857  1.00  0.00    -0.193 A  
HETATM   16  H   UNL     1      -9.510   4.889  69.734  1.00  0.00     0.000 HD 
HETATM   17  C   UNL     1     -11.346   5.619  72.524  1.00  0.00    -0.294 A  
HETATM   18  N   UNL     1     -11.804   6.442  71.430  1.00  0.00    -0.314 NA 
ENDBRANCH  11  13
ENDBRANCH  10  11
ENDBRANCH   2   3
TORSDOF 3
ENDMDL
MODEL      167
REMARK 921   NORMALIZED FREE ENERGY PREDICTED BY IDOCK:   -3.14 KCAL/MOL
REMARK 922        TOTAL FREE ENERGY PREDICTED BY IDOCK:   -4.11 KCAL/MOL
REMARK 923 INTER-LIGAND FREE ENERGY PREDICTED BY IDOCK:   -3.76 KCAL/MOL
REMARK 924 INTRA-LIGAND FREE ENERGY PREDICTED BY IDOCK:   -0.35 KCAL/MOL
REMARK 927      BINDING AFFINITY PREDICTED BY RF-SCORE:    0.00 PKD
ROOT
HETATM    1  C   UNL     1     -10.759  10.891  68.772  1.00  0.00    -0.207 C  
HETATM    2  O   UNL     1     -10.070  10.080  69.726  1.00  0.00    -0.226 OA 
ENDROOT
BRANCH   2   3
HETATM    3  C   UNL     1     -10.922   9.155  70.302  1.00  0.00    -0.245 A  
HETATM    4  N   UNL     1     -11.983   9.661  70.969  1.00  0.00    -0.322 NA 
HETATM    5  C   UNL     1     -12.704   8.811  71.706  1.00  0.00    -0.359 A  
HETATM    6  N   UNL     1     -12.432   7.509  71.823  1.00  0.00    -0.320 NA 
HETATM    7  C   UNL     1     -13.781   9.395  72.564  1.00  0.00    -0.419 C  
HETATM    8  C   UNL     1     -11.390   7.063  71.089  1.00  0.00    -0.282 A  
HETATM    9 CL   UNL     1     -11.082   5.380  71.347  1.00  0.00    -0.156 Cl 
HETATM   10  C   UNL     1     -10.570   7.819  70.265  1.00  0.00    -0.231 A  
BRANCH  10  11
HETATM   11  N   UNL     1      -9.537   7.240  69.518  1.00  0.00    -0.155 NA 
HETATM   12  H   UNL     1      -8.609   7.405  69.907  1.00  0.00     0.000 HD 
BRANCH  11  13
HETATM   13  C   UNL     1      -9.528   6.506  68.384  1.00  0.00    -0.120 A  
HETATM   14  N   UNL     1      -8.456   5.871  67.987  1.00  0.00    -0.111 NA 
HETATM   15  C   UNL     1      -8.848   5.229  66.705  1.00  0.00    -0.113 A  
HETATM   16  H   UNL     1      -7.550   5.827  68.454  1.00  0.00     0.000 HD 
HETATM   17  C   UNL     1     -10.338   5.511  66.503  1.00  0.00    -0.256 A  
HETATM   18  N   UNL     1     -10.655   6.331  67.647  1.00  0.00    -0.235 NA 
ENDBRANCH  11  13
ENDBRANCH  10  11
ENDBRANCH   2   3
TORSDOF 3
ENDMDL
MODEL      168
REMARK 921   NORMALIZED FREE ENERGY PREDICTED BY IDOCK:   -3.12 KCAL/MOL
REMARK 922        TOTAL FREE ENERGY PREDICTED BY IDOCK:   -4.08 KCAL/MOL
REMARK 923 INTER-LIGAND FREE ENERGY PREDICTED BY IDOCK:   -3.90 KCAL/MOL
REMARK 924 INTRA-LIGAND FREE ENERGY PREDICTED BY IDOCK:   -0.18 KCAL/MOL
REMARK 927      BINDING AFFINITY PREDICTED BY RF-SCORE:    0.00 PKD
ROOT
HETATM    1  C   UNL     1     -10.813  16.619  69.570  1.00  0.00    -0.285 C  
HETATM    2  O   UNL     1      -9.974  15.461  69.572  1.00  0.00    -0.239 OA 
ENDROOT
BRANCH   2   3
HETATM    3  C   UNL     1     -10.488  14.473  68.750  1.00  0.00    -0.246 A  
HETATM    4  N   UNL     1     -11.209  13.508  69.364  1.00  0.00    -0.225 NA 
HETATM    5  C   UNL     1     -11.540  12.437  68.637  1.00  0.00    -0.319 A  
HETATM    6  N   UNL     1     -11.195  12.268  67.359  1.00  0.00    -0.281 NA 
HETATM    7  C   UNL     1     -12.203  11.304  69.354  1.00  0.00    -0.315 C  
HETATM    8  C   UNL     1     -10.520  13.293  66.795  1.00  0.00    -0.270 A  
HETATM    9 CL   UNL     1     -10.071  12.959  65.159  1.00  0.00    -0.269 Cl 
HETATM   10  C   UNL     1     -10.130  14.470  67.416  1.00  0.00    -0.235 A  
BRANCH  10  11
HETATM   11  N   UNL     1      -9.464  15.486  66.720  1.00  0.00    -0.225 NA 
HETATM   12  H   UNL     1      -9.952  15.795  65.879  1.00  0.00     0.000 HD 
BRANCH  11  13
HETATM   13  C   UNL     1      -8.301  16.137  66.942  1.00  0.00    -0.236 A  
HETATM   14  N   UNL     1      -8.260  17.435  67.090  1.00  0.00    -0.204 NA 
HETATM   15  C   UNL     1      -6.819  17.751  67.274  1.00  0.00    -0.169 A  
HETATM   16  H   UNL     1      -9.044  18.089  67.081  1.00  0.00     0.000 HD 
HETATM   17  C   UNL     1      -6.072  16.416  67.318  1.00  0.00    -0.166 A  
HETATM   18  N   UNL     1      -7.133  15.462  67.100  1.00  0.00    -0.213 NA 
ENDBRANCH  11  13
ENDBRANCH  10  11
ENDBRANCH   2   3
TORSDOF 3
ENDMDL
MODEL      169
REMARK 921   NORMALIZED FREE ENERGY PREDICTED BY IDOCK:   -3.11 KCAL/MOL
REMARK 922        TOTAL FREE ENERGY PREDICTED BY IDOCK:   -4.07 KCAL/MOL
REMARK 923 INTER-LIGAND FREE ENERGY PREDICTED BY IDOCK:   -3.70 KCAL/MOL
REMARK 924 INTRA-LIGAND FREE ENERGY PREDICTED BY IDOCK:   -0.37 KCAL/MOL
REMARK 927      BINDING AFFINITY PREDICTED BY RF-SCORE:    0.00 PKD
ROOT
HETATM    1  C   UNL     1      -9.139   2.606  70.239  1.00  0.00    -0.111 C  
HETATM    2  O   UNL     1      -9.385   3.207  68.965  1.00  0.00    -0.152 OA 
ENDROOT
BRANCH   2   3
HETATM    3  C   UNL     1      -9.821   4.513  69.106  1.00  0.00    -0.152 A  
HETATM    4  N   UNL     1     -10.398   4.820  70.290  1.00  0.00    -0.194 NA 
HETATM    5  C   UNL     1     -11.011   6.004  70.381  1.00  0.00    -0.328 A  
HETATM    6  N   UNL     1     -11.091   6.882  69.378  1.00  0.00    -0.231 NA 
HETATM    7  C   UNL     1     -11.780   6.279  71.634  1.00  0.00    -0.342 C  
HETATM    8  C   UNL     1     -10.448   6.532  68.243  1.00  0.00    -0.219 A  
HETATM    9 CL   UNL     1     -10.653   7.704  66.988  1.00  0.00    -0.421 Cl 
HETATM   10  C   UNL     1      -9.754   5.354  68.012  1.00  0.00    -0.136 A  
BRANCH  10  11
HETATM   11  N   UNL     1      -9.091   5.112  66.803  1.00  0.00    -0.116 NA 
HETATM   12  H   UNL     1      -8.096   5.337  66.829  1.00  0.00     0.000 HD 
BRANCH  11  13
HETATM   13  C   UNL     1      -9.509   4.641  65.608  1.00  0.00    -0.174 A  
HETATM   14  N   UNL     1     -10.734   4.221  65.427  1.00  0.00    -0.580 NA 
HETATM   15  C   UNL     1     -10.773   3.761  64.014  1.00  0.00    -0.242 A  
HETATM   16  H   UNL     1     -11.496   4.212  66.106  1.00  0.00     0.000 HD 
HETATM   17  C   UNL     1      -9.411   4.091  63.400  1.00  0.00    -0.150 A  
HETATM   18  N   UNL     1      -8.697   4.655  64.520  1.00  0.00    -0.147 NA 
ENDBRANCH  11  13
ENDBRANCH  10  11
ENDBRANCH   2   3
TORSDOF 3
ENDMDL
MODEL      170
REMARK 921   NORMALIZED FREE ENERGY PREDICTED BY IDOCK:   -3.10 KCAL/MOL
REMARK 922        TOTAL FREE ENERGY PREDICTED BY IDOCK:   -4.05 KCAL/MOL
REMARK 923 INTER-LIGAND FREE ENERGY PREDICTED BY IDOCK:   -3.66 KCAL/MOL
REMARK 924 INTRA-LIGAND FREE ENERGY PREDICTED BY IDOCK:   -0.39 KCAL/MOL
REMARK 927      BINDING AFFINITY PREDICTED BY RF-SCORE:    0.00 PKD
ROOT
HETATM    1  C   UNL     1      -7.604  11.148  66.378  1.00  0.00    -0.109 C  
HETATM    2  O   UNL     1      -7.620  11.884  67.604  1.00  0.00    -0.118 OA 
ENDROOT
BRANCH   2   3
HETATM    3  C   UNL     1      -8.888  12.364  67.880  1.00  0.00    -0.180 A  
HETATM    4  N   UNL     1      -9.714  11.516  68.532  1.00  0.00    -0.194 NA 
HETATM    5  C   UNL     1     -11.000  11.869  68.629  1.00  0.00    -0.228 A  
HETATM    6  N   UNL     1     -11.505  12.993  68.117  1.00  0.00    -0.297 NA 
HETATM    7  C   UNL     1     -11.941  10.863  69.212  1.00  0.00    -0.382 C  
HETATM    8  C   UNL     1     -10.614  13.817  67.525  1.00  0.00    -0.244 A  
HETATM    9 CL   UNL     1     -11.369  15.218  66.848  1.00  0.00    -0.267 Cl 
HETATM   10  C   UNL     1      -9.253  13.596  67.372  1.00  0.00    -0.222 A  
BRANCH  10  11
HETATM   11  N   UNL     1      -8.414  14.543  66.772  1.00  0.00    -0.410 NA 
HETATM   12  H   UNL     1      -8.394  14.485  65.754  1.00  0.00     0.000 HD 
BRANCH  11  13
HETATM   13  C   UNL     1      -7.626  15.518  67.275  1.00  0.00    -0.218 A  
HETATM   14  N   UNL     1      -8.111  16.473  68.025  1.00  0.00    -0.164 NA 
HETATM   15  C   UNL     1      -6.945  17.342  68.334  1.00  0.00    -0.201 A  
HETATM   16  H   UNL     1      -9.077  16.595  68.330  1.00  0.00     0.000 HD 
HETATM   17  C   UNL     1      -5.712  16.663  67.734  1.00  0.00    -0.136 A  
HETATM   18  N   UNL     1      -6.281  15.505  67.089  1.00  0.00    -0.289 NA 
ENDBRANCH  11  13
ENDBRANCH  10  11
ENDBRANCH   2   3
TORSDOF 3
ENDMDL
MODEL      171
REMARK 921   NORMALIZED FREE ENERGY PREDICTED BY IDOCK:   -3.09 KCAL/MOL
REMARK 922        TOTAL FREE ENERGY PREDICTED BY IDOCK:   -4.05 KCAL/MOL
REMARK 923 INTER-LIGAND FREE ENERGY PREDICTED BY IDOCK:   -3.68 KCAL/MOL
REMARK 924 INTRA-LIGAND FREE ENERGY PREDICTED BY IDOCK:   -0.37 KCAL/MOL
REMARK 927      BINDING AFFINITY PREDICTED BY RF-SCORE:    0.00 PKD
ROOT
HETATM    1  C   UNL     1     -11.066  14.402  67.632  1.00  0.00    -0.300 C  
HETATM    2  O   UNL     1     -10.075  13.464  68.057  1.00  0.00    -0.228 OA 
ENDROOT
BRANCH   2   3
HETATM    3  C   UNL     1     -10.036  12.366  67.216  1.00  0.00    -0.206 A  
HETATM    4  N   UNL     1     -10.039  12.634  65.891  1.00  0.00    -0.261 NA 
HETATM    5  C   UNL     1     -10.210  11.602  65.059  1.00  0.00    -0.275 A  
HETATM    6  N   UNL     1     -10.384  10.341  65.461  1.00  0.00    -0.224 NA 
HETATM    7  C   UNL     1     -10.368  11.917  63.605  1.00  0.00    -0.477 C  
HETATM    8  C   UNL     1     -10.318  10.139  66.794  1.00  0.00    -0.222 A  
HETATM    9 CL   UNL     1     -10.607   8.488  67.220  1.00  0.00    -0.358 Cl 
HETATM   10  C   UNL     1     -10.122  11.104  67.771  1.00  0.00    -0.178 A  
BRANCH  10  11
HETATM   11  N   UNL     1     -10.033  10.772  69.129  1.00  0.00    -0.286 NA 
HETATM   12  H   UNL     1     -10.858  11.034  69.669  1.00  0.00     0.000 HD 
BRANCH  11  13
HETATM   13  C   UNL     1      -9.070  10.175  69.864  1.00  0.00    -0.073 A  
HETATM   14  N   UNL     1      -9.323   9.129  70.605  1.00  0.00    -0.237 NA 
HETATM   15  C   UNL     1      -8.030   8.809  71.265  1.00  0.00    -0.139 A  
HETATM   16  H   UNL     1     -10.213   8.639  70.709  1.00  0.00     0.000 HD 
HETATM   17  C   UNL     1      -6.987   9.771  70.692  1.00  0.00    -0.094 A  
HETATM   18  N   UNL     1      -7.778  10.589  69.804  1.00  0.00    -0.120 NA 
ENDBRANCH  11  13
ENDBRANCH  10  11
ENDBRANCH   2   3
TORSDOF 3
ENDMDL
MODEL      172
REMARK 921   NORMALIZED FREE ENERGY PREDICTED BY IDOCK:   -3.08 KCAL/MOL
REMARK 922        TOTAL FREE ENERGY PREDICTED BY IDOCK:   -4.04 KCAL/MOL
REMARK 923 INTER-LIGAND FREE ENERGY PREDICTED BY IDOCK:   -3.58 KCAL/MOL
REMARK 924 INTRA-LIGAND FREE ENERGY PREDICTED BY IDOCK:   -0.46 KCAL/MOL
REMARK 927      BINDING AFFINITY PREDICTED BY RF-SCORE:    0.00 PKD
ROOT
HETATM    1  C   UNL     1     -10.378   4.738  72.891  1.00  0.00    -0.185 C  
HETATM    2  O   UNL     1     -10.323   5.265  71.564  1.00  0.00    -0.211 OA 
ENDROOT
BRANCH   2   3
HETATM    3  C   UNL     1     -10.919   6.512  71.497  1.00  0.00    -0.255 A  
HETATM    4  N   UNL     1     -12.242   6.552  71.770  1.00  0.00    -0.349 NA 
HETATM    5  C   UNL     1     -12.884   7.695  71.514  1.00  0.00    -0.344 A  
HETATM    6  N   UNL     1     -12.300   8.781  71.003  1.00  0.00    -0.213 NA 
HETATM    7  C   UNL     1     -14.372   7.692  71.670  1.00  0.00    -0.613 C  
HETATM    8  C   UNL     1     -10.967   8.687  70.804  1.00  0.00    -0.245 A  
HETATM    9 CL   UNL     1     -10.310  10.120  70.091  1.00  0.00    -0.315 Cl 
HETATM   10  C   UNL     1     -10.168   7.579  71.044  1.00  0.00    -0.190 A  
BRANCH  10  11
HETATM   11  N   UNL     1      -8.784   7.608  70.834  1.00  0.00    -0.136 NA 
HETATM   12  H   UNL     1      -8.511   7.404  69.872  1.00  0.00     0.000 HD 
BRANCH  11  13
HETATM   13  C   UNL     1      -7.738   7.852  71.654  1.00  0.00    -0.092 A  
HETATM   14  N   UNL     1      -7.255   6.928  72.443  1.00  0.00    -0.077 NA 
HETATM   15  C   UNL     1      -6.159   7.601  73.188  1.00  0.00    -0.060 A  
HETATM   16  H   UNL     1      -7.563   5.959  72.528  1.00  0.00     0.000 HD 
HETATM   17  C   UNL     1      -6.030   9.013  72.613  1.00  0.00    -0.007 A  
HETATM   18  N   UNL     1      -7.092   9.046  71.637  1.00  0.00    -0.286 NA 
ENDBRANCH  11  13
ENDBRANCH  10  11
ENDBRANCH   2   3
TORSDOF 3
ENDMDL
MODEL      173
REMARK 921   NORMALIZED FREE ENERGY PREDICTED BY IDOCK:   -2.96 KCAL/MOL
REMARK 922        TOTAL FREE ENERGY PREDICTED BY IDOCK:   -3.89 KCAL/MOL
REMARK 923 INTER-LIGAND FREE ENERGY PREDICTED BY IDOCK:   -3.52 KCAL/MOL
REMARK 924 INTRA-LIGAND FREE ENERGY PREDICTED BY IDOCK:   -0.37 KCAL/MOL
REMARK 927      BINDING AFFINITY PREDICTED BY RF-SCORE:    0.00 PKD
ROOT
HETATM    1  C   UNL     1     -10.316   4.519  72.544  1.00  0.00    -0.195 C  
HETATM    2  O   UNL     1     -10.439   5.082  71.236  1.00  0.00    -0.208 OA 
ENDROOT
BRANCH   2   3
HETATM    3  C   UNL     1     -10.973   6.358  71.291  1.00  0.00    -0.271 A  
HETATM    4  N   UNL     1     -12.271   6.441  71.657  1.00  0.00    -0.288 NA 
HETATM    5  C   UNL     1     -12.869   7.628  71.520  1.00  0.00    -0.344 A  
HETATM    6  N   UNL     1     -12.264   8.717  71.040  1.00  0.00    -0.242 NA 
HETATM    7  C   UNL     1     -14.342   7.685  71.777  1.00  0.00    -0.586 C  
HETATM    8  C   UNL     1     -10.954   8.575  70.744  1.00  0.00    -0.247 A  
HETATM    9 CL   UNL     1     -10.273  10.020  70.081  1.00  0.00    -0.317 Cl 
HETATM   10  C   UNL     1     -10.199   7.417  70.857  1.00  0.00    -0.192 A  
BRANCH  10  11
HETATM   11  N   UNL     1      -8.832   7.395  70.554  1.00  0.00    -0.148 NA 
HETATM   12  H   UNL     1      -8.233   7.624  71.348  1.00  0.00     0.000 HD 
BRANCH  11  13
HETATM   13  C   UNL     1      -8.150   7.130  69.419  1.00  0.00    -0.130 A  
HETATM   14  N   UNL     1      -8.587   7.520  68.250  1.00  0.00    -0.124 NA 
HETATM   15  C   UNL     1      -7.584   7.007  67.279  1.00  0.00    -0.108 A  
HETATM   16  H   UNL     1      -9.431   8.058  68.048  1.00  0.00     0.000 HD 
HETATM   17  C   UNL     1      -6.460   6.366  68.097  1.00  0.00    -0.053 A  
HETATM   18  N   UNL     1      -6.940   6.515  69.449  1.00  0.00    -0.068 NA 
ENDBRANCH  11  13
ENDBRANCH  10  11
ENDBRANCH   2   3
TORSDOF 3
ENDMDL
MODEL      174
REMARK 921   NORMALIZED FREE ENERGY PREDICTED BY IDOCK:   -2.94 KCAL/MOL
REMARK 922        TOTAL FREE ENERGY PREDICTED BY IDOCK:   -3.87 KCAL/MOL
REMARK 923 INTER-LIGAND FREE ENERGY PREDICTED BY IDOCK:   -4.04 KCAL/MOL
REMARK 924 INTRA-LIGAND FREE ENERGY PREDICTED BY IDOCK:    0.17 KCAL/MOL
REMARK 927      BINDING AFFINITY PREDICTED BY RF-SCORE:    0.00 PKD
ROOT
HETATM    1  C   UNL     1      -7.979  13.558  67.789  1.00  0.00    -0.168 C  
HETATM    2  O   UNL     1      -8.840  14.191  66.840  1.00  0.00    -0.227 OA 
ENDROOT
BRANCH   2   3
HETATM    3  C   UNL     1      -9.673  15.108  67.457  1.00  0.00    -0.205 A  
HETATM    4  N   UNL     1      -9.175  16.355  67.606  1.00  0.00    -0.199 NA 
HETATM    5  C   UNL     1      -9.866  17.201  68.377  1.00  0.00    -0.296 A  
HETATM    6  N   UNL     1     -11.000  16.882  69.004  1.00  0.00    -0.246 NA 
HETATM    7  C   UNL     1      -9.238  18.528  68.666  1.00  0.00    -0.336 C  
HETATM    8  C   UNL     1     -11.466  15.636  68.769  1.00  0.00    -0.376 A  
HETATM    9 CL   UNL     1     -12.906  15.298  69.665  1.00  0.00     0.032 Cl 
HETATM   10  C   UNL     1     -10.873  14.663  67.978  1.00  0.00    -0.257 A  
BRANCH  10  11
HETATM   11  N   UNL     1     -11.469  13.413  67.776  1.00  0.00    -0.297 NA 
HETATM   12  H   UNL     1     -11.729  13.235  66.805  1.00  0.00     0.000 HD 
BRANCH  11  13
HETATM   13  C   UNL     1     -11.768  12.395  68.612  1.00  0.00    -0.326 A  
HETATM   14  N   UNL     1     -12.109  11.216  68.162  1.00  0.00    -0.737 NA 
HETATM   15  C   UNL     1     -12.386  10.410  69.380  1.00  0.00     0.181 A  
HETATM   16  H   UNL     1     -12.172  10.914  67.189  1.00  0.00     0.000 HD 
HETATM   17  C   UNL     1     -12.039  11.289  70.584  1.00  0.00    -0.383 A  
HETATM   18  N   UNL     1     -11.651  12.530  69.958  1.00  0.00    -0.198 NA 
ENDBRANCH  11  13
ENDBRANCH  10  11
ENDBRANCH   2   3
TORSDOF 3
ENDMDL
MODEL      175
REMARK 921   NORMALIZED FREE ENERGY PREDICTED BY IDOCK:   -2.93 KCAL/MOL
REMARK 922        TOTAL FREE ENERGY PREDICTED BY IDOCK:   -3.86 KCAL/MOL
REMARK 923 INTER-LIGAND FREE ENERGY PREDICTED BY IDOCK:   -3.63 KCAL/MOL
REMARK 924 INTRA-LIGAND FREE ENERGY PREDICTED BY IDOCK:   -0.23 KCAL/MOL
REMARK 927      BINDING AFFINITY PREDICTED BY RF-SCORE:    0.00 PKD
ROOT
HETATM    1  C   UNL     1      -6.887  15.303  67.610  1.00  0.00    -0.180 C  
HETATM    2  O   UNL     1      -7.957  14.440  68.002  1.00  0.00    -0.119 OA 
ENDROOT
BRANCH   2   3
HETATM    3  C   UNL     1      -8.934  14.381  67.024  1.00  0.00    -0.240 A  
HETATM    4  N   UNL     1      -9.151  15.524  66.334  1.00  0.00    -0.292 NA 
HETATM    5  C   UNL     1     -10.220  15.560  65.533  1.00  0.00    -0.386 A  
HETATM    6  N   UNL     1     -11.077  14.548  65.387  1.00  0.00    -0.328 NA 
HETATM    7  C   UNL     1     -10.546  16.871  64.891  1.00  0.00     0.160 C  
HETATM    8  C   UNL     1     -10.771  13.421  66.065  1.00  0.00    -0.278 A  
HETATM    9 CL   UNL     1     -11.965  12.187  65.856  1.00  0.00    -0.359 Cl 
HETATM   10  C   UNL     1      -9.688  13.229  66.910  1.00  0.00    -0.248 A  
BRANCH  10  11
HETATM   11  N   UNL     1      -9.448  11.999  67.536  1.00  0.00    -0.175 NA 
HETATM   12  H   UNL     1      -8.605  11.529  67.204  1.00  0.00     0.000 HD 
BRANCH  11  13
HETATM   13  C   UNL     1     -10.112  11.313  68.491  1.00  0.00    -0.204 A  
HETATM   14  N   UNL     1      -9.804  10.077  68.786  1.00  0.00    -0.161 NA 
HETATM   15  C   UNL     1     -10.776   9.685  69.840  1.00  0.00    -0.252 A  
HETATM   16  H   UNL     1      -9.060   9.507  68.382  1.00  0.00     0.000 HD 
HETATM   17  C   UNL     1     -11.604  10.930  70.168  1.00  0.00    -0.338 A  
HETATM   18  N   UNL     1     -11.077  11.903  69.241  1.00  0.00    -0.229 NA 
ENDBRANCH  11  13
ENDBRANCH  10  11
ENDBRANCH   2   3
TORSDOF 3
ENDMDL
MODEL      176
REMARK 921   NORMALIZED FREE ENERGY PREDICTED BY IDOCK:   -2.93 KCAL/MOL
REMARK 922        TOTAL FREE ENERGY PREDICTED BY IDOCK:   -3.86 KCAL/MOL
REMARK 923 INTER-LIGAND FREE ENERGY PREDICTED BY IDOCK:   -3.53 KCAL/MOL
REMARK 924 INTRA-LIGAND FREE ENERGY PREDICTED BY IDOCK:   -0.33 KCAL/MOL
REMARK 927      BINDING AFFINITY PREDICTED BY RF-SCORE:    0.00 PKD
ROOT
HETATM    1  C   UNL     1      -9.248   9.588  70.476  1.00  0.00    -0.225 C  
HETATM    2  O   UNL     1      -8.439   9.125  69.392  1.00  0.00    -0.120 OA 
ENDROOT
BRANCH   2   3
HETATM    3  C   UNL     1      -8.516   9.984  68.310  1.00  0.00    -0.111 A  
HETATM    4  N   UNL     1      -7.625  11.001  68.297  1.00  0.00    -0.100 NA 
HETATM    5  C   UNL     1      -7.806  11.959  67.383  1.00  0.00    -0.158 A  
HETATM    6  N   UNL     1      -8.808  11.970  66.502  1.00  0.00    -0.198 NA 
HETATM    7  C   UNL     1      -6.916  13.158  67.467  1.00  0.00    -0.155 C  
HETATM    8  C   UNL     1      -9.629  10.898  66.538  1.00  0.00    -0.194 A  
HETATM    9 CL   UNL     1     -10.924  11.028  65.399  1.00  0.00    -0.164 Cl 
HETATM   10  C   UNL     1      -9.551   9.822  67.410  1.00  0.00    -0.155 A  
BRANCH  10  11
HETATM   11  N   UNL     1     -10.439   8.742  67.331  1.00  0.00    -0.298 NA 
HETATM   12  H   UNL     1     -11.383   8.965  67.647  1.00  0.00     0.000 HD 
BRANCH  11  13
HETATM   13  C   UNL     1     -10.292   7.464  66.920  1.00  0.00    -0.296 A  
HETATM   14  N   UNL     1     -11.305   6.639  66.871  1.00  0.00    -0.824 NA 
HETATM   15  C   UNL     1     -10.723   5.350  66.410  1.00  0.00    -0.217 A  
HETATM   16  H   UNL     1     -12.280   6.835  67.099  1.00  0.00     0.000 HD 
HETATM   17  C   UNL     1      -9.247   5.613  66.102  1.00  0.00    -0.159 A  
HETATM   18  N   UNL     1      -9.099   7.002  66.464  1.00  0.00    -0.153 NA 
ENDBRANCH  11  13
ENDBRANCH  10  11
ENDBRANCH   2   3
TORSDOF 3
ENDMDL
MODEL      177
REMARK 921   NORMALIZED FREE ENERGY PREDICTED BY IDOCK:   -2.92 KCAL/MOL
REMARK 922        TOTAL FREE ENERGY PREDICTED BY IDOCK:   -3.85 KCAL/MOL
REMARK 923 INTER-LIGAND FREE ENERGY PREDICTED BY IDOCK:   -3.50 KCAL/MOL
REMARK 924 INTRA-LIGAND FREE ENERGY PREDICTED BY IDOCK:   -0.35 KCAL/MOL
REMARK 927      BINDING AFFINITY PREDICTED BY RF-SCORE:    0.00 PKD
ROOT
HETATM    1  C   UNL     1      -6.762  12.643  68.093  1.00  0.00    -0.082 C  
HETATM    2  O   UNL     1      -7.941  11.871  67.851  1.00  0.00    -0.127 OA 
ENDROOT
BRANCH   2   3
HETATM    3  C   UNL     1      -8.833  12.562  67.049  1.00  0.00    -0.212 A  
HETATM    4  N   UNL     1      -9.080  13.842  67.406  1.00  0.00    -0.207 NA 
HETATM    5  C   UNL     1     -10.084  14.466  66.783  1.00  0.00    -0.266 A  
HETATM    6  N   UNL     1     -10.850  13.899  65.848  1.00  0.00    -0.285 NA 
HETATM    7  C   UNL     1     -10.458  15.825  67.283  1.00  0.00    -0.308 C  
HETATM    8  C   UNL     1     -10.513  12.637  65.505  1.00  0.00    -0.281 A  
HETATM    9 CL   UNL     1     -11.592  11.970  64.329  1.00  0.00    -0.430 Cl 
HETATM   10  C   UNL     1      -9.487  11.876  66.045  1.00  0.00    -0.229 A  
BRANCH  10  11
HETATM   11  N   UNL     1      -9.204  10.584  65.583  1.00  0.00    -0.177 NA 
HETATM   12  H   UNL     1      -9.646   9.847  66.133  1.00  0.00     0.000 HD 
BRANCH  11  13
HETATM   13  C   UNL     1      -8.462  10.122  64.553  1.00  0.00    -0.177 A  
HETATM   14  N   UNL     1      -8.150  10.884  63.537  1.00  0.00    -0.365 NA 
HETATM   15  C   UNL     1      -7.374  10.001  62.626  1.00  0.00    -0.129 A  
HETATM   16  H   UNL     1      -8.388  11.866  63.399  1.00  0.00     0.000 HD 
HETATM   17  C   UNL     1      -7.203   8.660  63.343  1.00  0.00    -0.095 A  
HETATM   18  N   UNL     1      -7.940   8.869  64.566  1.00  0.00    -0.127 NA 
ENDBRANCH  11  13
ENDBRANCH  10  11
ENDBRANCH   2   3
TORSDOF 3
ENDMDL
MODEL      178
REMARK 921   NORMALIZED FREE ENERGY PREDICTED BY IDOCK:   -2.90 KCAL/MOL
REMARK 922        TOTAL FREE ENERGY PREDICTED BY IDOCK:   -3.82 KCAL/MOL
REMARK 923 INTER-LIGAND FREE ENERGY PREDICTED BY IDOCK:   -3.54 KCAL/MOL
REMARK 924 INTRA-LIGAND FREE ENERGY PREDICTED BY IDOCK:   -0.27 KCAL/MOL
REMARK 927      BINDING AFFINITY PREDICTED BY RF-SCORE:    0.00 PKD
ROOT
HETATM    1  C   UNL     1     -10.150  15.846  65.503  1.00  0.00    -0.320 C  
HETATM    2  O   UNL     1     -10.120  16.068  66.915  1.00  0.00    -0.253 OA 
ENDROOT
BRANCH   2   3
HETATM    3  C   UNL     1      -8.834  16.338  67.350  1.00  0.00    -0.186 A  
HETATM    4  N   UNL     1      -8.095  17.140  66.551  1.00  0.00    -0.257 NA 
HETATM    5  C   UNL     1      -6.793  17.251  66.833  1.00  0.00    -0.196 A  
HETATM    6  N   UNL     1      -6.192  16.615  67.841  1.00  0.00    -0.127 NA 
HETATM    7  C   UNL     1      -5.947  18.011  65.863  1.00  0.00    -0.256 C  
HETATM    8  C   UNL     1      -7.001  15.873  68.629  1.00  0.00    -0.127 A  
HETATM    9 CL   UNL     1      -6.125  15.048  69.871  1.00  0.00    -0.134 Cl 
HETATM   10  C   UNL     1      -8.366  15.685  68.473  1.00  0.00    -0.166 A  
BRANCH  10  11
HETATM   11  N   UNL     1      -9.113  14.920  69.377  1.00  0.00    -0.415 NA 
HETATM   12  H   UNL     1      -8.549  14.283  69.939  1.00  0.00     0.000 HD 
BRANCH  11  13
HETATM   13  C   UNL     1     -10.435  14.860  69.651  1.00  0.00    -0.166 A  
HETATM   14  N   UNL     1     -11.262  14.188  68.894  1.00  0.00    -0.253 NA 
HETATM   15  C   UNL     1     -12.599  14.402  69.509  1.00  0.00     0.003 A  
HETATM   16  H   UNL     1     -11.040  13.639  68.063  1.00  0.00     0.000 HD 
HETATM   17  C   UNL     1     -12.375  15.205  70.792  1.00  0.00    -0.360 A  
HETATM   18  N   UNL     1     -10.950  15.429  70.771  1.00  0.00    -0.331 NA 
ENDBRANCH  11  13
ENDBRANCH  10  11
ENDBRANCH   2   3
TORSDOF 3
ENDMDL
MODEL      179
REMARK 921   NORMALIZED FREE ENERGY PREDICTED BY IDOCK:   -2.89 KCAL/MOL
REMARK 922        TOTAL FREE ENERGY PREDICTED BY IDOCK:   -3.81 KCAL/MOL
REMARK 923 INTER-LIGAND FREE ENERGY PREDICTED BY IDOCK:   -3.41 KCAL/MOL
REMARK 924 INTRA-LIGAND FREE ENERGY PREDICTED BY IDOCK:   -0.40 KCAL/MOL
REMARK 927      BINDING AFFINITY PREDICTED BY RF-SCORE:    0.00 PKD
ROOT
HETATM    1  C   UNL     1      -7.426  10.555  69.598  1.00  0.00    -0.141 C  
HETATM    2  O   UNL     1      -8.505  10.343  68.685  1.00  0.00    -0.115 OA 
ENDROOT
BRANCH   2   3
HETATM    3  C   UNL     1      -8.478   9.058  68.170  1.00  0.00    -0.129 A  
HETATM    4  N   UNL     1      -7.349   8.706  67.515  1.00  0.00    -0.088 NA 
HETATM    5  C   UNL     1      -7.372   7.557  66.834  1.00  0.00    -0.093 A  
HETATM    6  N   UNL     1      -8.436   6.755  66.760  1.00  0.00    -0.115 NA 
HETATM    7  C   UNL     1      -6.181   7.243  65.986  1.00  0.00    -0.041 C  
HETATM    8  C   UNL     1      -9.511   7.143  67.480  1.00  0.00    -0.124 A  
HETATM    9 CL   UNL     1     -10.854   6.071  67.278  1.00  0.00    -0.392 Cl 
HETATM   10  C   UNL     1      -9.624   8.291  68.249  1.00  0.00    -0.147 A  
BRANCH  10  11
HETATM   11  N   UNL     1     -10.780   8.574  68.988  1.00  0.00    -0.396 NA 
HETATM   12  H   UNL     1     -11.556   8.913  68.419  1.00  0.00     0.000 HD 
BRANCH  11  13
HETATM   13  C   UNL     1     -11.069   8.488  70.304  1.00  0.00    -0.214 A  
HETATM   14  N   UNL     1     -12.288   8.646  70.750  1.00  0.00    -0.489 NA 
HETATM   15  C   UNL     1     -12.172   8.512  72.226  1.00  0.00    -0.389 A  
HETATM   16  H   UNL     1     -13.132   8.823  70.205  1.00  0.00     0.000 HD 
HETATM   17  C   UNL     1     -10.718   8.143  72.528  1.00  0.00    -0.349 A  
HETATM   18  N   UNL     1     -10.119   8.153  71.215  1.00  0.00    -0.191 NA 
ENDBRANCH  11  13
ENDBRANCH  10  11
ENDBRANCH   2   3
TORSDOF 3
ENDMDL
MODEL      180
REMARK 921   NORMALIZED FREE ENERGY PREDICTED BY IDOCK:   -2.89 KCAL/MOL
REMARK 922        TOTAL FREE ENERGY PREDICTED BY IDOCK:   -3.81 KCAL/MOL
REMARK 923 INTER-LIGAND FREE ENERGY PREDICTED BY IDOCK:   -3.49 KCAL/MOL
REMARK 924 INTRA-LIGAND FREE ENERGY PREDICTED BY IDOCK:   -0.32 KCAL/MOL
REMARK 927      BINDING AFFINITY PREDICTED BY RF-SCORE:    0.00 PKD
ROOT
HETATM    1  C   UNL     1      -5.960  12.706  67.849  1.00  0.00    -0.108 C  
HETATM    2  O   UNL     1      -7.056  13.017  68.712  1.00  0.00    -0.100 OA 
ENDROOT
BRANCH   2   3
HETATM    3  C   UNL     1      -8.081  13.631  68.015  1.00  0.00    -0.161 A  
HETATM    4  N   UNL     1      -7.736  14.723  67.296  1.00  0.00    -0.203 NA 
HETATM    5  C   UNL     1      -8.730  15.455  66.782  1.00  0.00    -0.269 A  
HETATM    6  N   UNL     1     -10.024  15.174  66.947  1.00  0.00    -0.236 NA 
HETATM    7  C   UNL     1      -8.357  16.743  66.120  1.00  0.00    -0.301 C  
HETATM    8  C   UNL     1     -10.294  14.042  67.632  1.00  0.00    -0.242 A  
HETATM    9 CL   UNL     1     -11.993  13.792  67.839  1.00  0.00    -0.407 Cl 
HETATM   10  C   UNL     1      -9.372  13.175  68.199  1.00  0.00    -0.217 A  
BRANCH  10  11
HETATM   11  N   UNL     1      -9.767  12.005  68.858  1.00  0.00    -0.417 NA 
HETATM   12  H   UNL     1     -10.472  12.159  69.579  1.00  0.00     0.000 HD 
BRANCH  11  13
HETATM   13  C   UNL     1      -9.397  10.712  68.728  1.00  0.00    -0.180 A  
HETATM   14  N   UNL     1      -9.168  10.179  67.556  1.00  0.00    -0.137 NA 
HETATM   15  C   UNL     1      -8.830   8.760  67.844  1.00  0.00    -0.136 A  
HETATM   16  H   UNL     1      -9.212  10.636  66.645  1.00  0.00     0.000 HD 
HETATM   17  C   UNL     1      -8.797   8.610  69.367  1.00  0.00    -0.144 A  
HETATM   18  N   UNL     1      -9.171   9.930  69.815  1.00  0.00    -0.226 NA 
ENDBRANCH  11  13
ENDBRANCH  10  11
ENDBRANCH   2   3
TORSDOF 3
ENDMDL
MODEL      181
REMARK 921   NORMALIZED FREE ENERGY PREDICTED BY IDOCK:   -2.88 KCAL/MOL
REMARK 922        TOTAL FREE ENERGY PREDICTED BY IDOCK:   -3.80 KCAL/MOL
REMARK 923 INTER-LIGAND FREE ENERGY PREDICTED BY IDOCK:   -3.27 KCAL/MOL
REMARK 924 INTRA-LIGAND FREE ENERGY PREDICTED BY IDOCK:   -0.53 KCAL/MOL
REMARK 927      BINDING AFFINITY PREDICTED BY RF-SCORE:    0.00 PKD
ROOT
HETATM    1  C   UNL     1      -9.304   9.877  69.847  1.00  0.00    -0.216 C  
HETATM    2  O   UNL     1      -9.629   9.802  68.457  1.00  0.00    -0.146 OA 
ENDROOT
BRANCH   2   3
HETATM    3  C   UNL     1      -8.861   8.845  67.817  1.00  0.00    -0.135 A  
HETATM    4  N   UNL     1      -7.928   8.229  68.577  1.00  0.00    -0.120 NA 
HETATM    5  C   UNL     1      -7.039   7.457  67.945  1.00  0.00    -0.085 A  
HETATM    6  N   UNL     1      -7.018   7.271  66.623  1.00  0.00    -0.071 NA 
HETATM    7  C   UNL     1      -5.916   6.900  68.762  1.00  0.00    -0.026 C  
HETATM    8  C   UNL     1      -8.009   7.875  65.933  1.00  0.00    -0.106 A  
HETATM    9 CL   UNL     1      -7.867   7.621  64.228  1.00  0.00    -0.134 Cl 
HETATM   10  C   UNL     1      -9.010   8.681  66.453  1.00  0.00    -0.161 A  
BRANCH  10  11
HETATM   11  N   UNL     1     -10.014   9.227  65.643  1.00  0.00    -0.427 NA 
HETATM   12  H   UNL     1     -10.723   8.552  65.359  1.00  0.00     0.000 HD 
BRANCH  11  13
HETATM   13  C   UNL     1     -10.227  10.472  65.164  1.00  0.00    -0.288 A  
HETATM   14  N   UNL     1     -10.428  11.488  65.962  1.00  0.00    -0.244 NA 
HETATM   15  C   UNL     1     -10.653  12.644  65.054  1.00  0.00    -0.303 A  
HETATM   16  H   UNL     1     -10.430  11.489  66.982  1.00  0.00     0.000 HD 
HETATM   17  C   UNL     1     -10.436  12.139  63.626  1.00  0.00    -0.460 A  
HETATM   18  N   UNL     1     -10.165  10.737  63.834  1.00  0.00    -0.343 NA 
ENDBRANCH  11  13
ENDBRANCH  10  11
ENDBRANCH   2   3
TORSDOF 3
ENDMDL
MODEL      182
REMARK 921   NORMALIZED FREE ENERGY PREDICTED BY IDOCK:   -2.84 KCAL/MOL
REMARK 922        TOTAL FREE ENERGY PREDICTED BY IDOCK:   -3.75 KCAL/MOL
REMARK 923 INTER-LIGAND FREE ENERGY PREDICTED BY IDOCK:   -3.29 KCAL/MOL
REMARK 924 INTRA-LIGAND FREE ENERGY PREDICTED BY IDOCK:   -0.46 KCAL/MOL
REMARK 927      BINDING AFFINITY PREDICTED BY RF-SCORE:    0.00 PKD
ROOT
HETATM    1  C   UNL     1     -10.274   4.604  67.001  1.00  0.00    -0.126 C  
HETATM    2  O   UNL     1     -10.981   5.844  66.928  1.00  0.00    -0.299 OA 
ENDROOT
BRANCH   2   3
HETATM    3  C   UNL     1     -10.765   6.608  68.061  1.00  0.00    -0.265 A  
HETATM    4  N   UNL     1     -11.167   6.060  69.230  1.00  0.00    -0.365 NA 
HETATM    5  C   UNL     1     -11.164   6.851  70.308  1.00  0.00    -0.316 A  
HETATM    6  N   UNL     1     -10.799   8.134  70.290  1.00  0.00    -0.243 NA 
HETATM    7  C   UNL     1     -11.751   6.292  71.564  1.00  0.00    -0.329 C  
HETATM    8  C   UNL     1     -10.360   8.601  69.101  1.00  0.00    -0.217 A  
HETATM    9 CL   UNL     1      -9.962  10.283  69.164  1.00  0.00    -0.220 Cl 
HETATM   10  C   UNL     1     -10.285   7.895  67.909  1.00  0.00    -0.209 A  
BRANCH  10  11
HETATM   11  N   UNL     1      -9.777   8.472  66.739  1.00  0.00    -0.213 NA 
HETATM   12  H   UNL     1     -10.468   9.007  66.213  1.00  0.00     0.000 HD 
BRANCH  11  13
HETATM   13  C   UNL     1      -8.552   8.461  66.171  1.00  0.00    -0.141 A  
HETATM   14  N   UNL     1      -7.656   9.371  66.453  1.00  0.00    -0.096 NA 
HETATM   15  C   UNL     1      -6.484   9.026  65.606  1.00  0.00    -0.067 A  
HETATM   16  H   UNL     1      -7.743  10.148  67.109  1.00  0.00     0.000 HD 
HETATM   17  C   UNL     1      -6.822   7.716  64.890  1.00  0.00    -0.051 A  
HETATM   18  N   UNL     1      -8.168   7.457  65.340  1.00  0.00    -0.133 NA 
ENDBRANCH  11  13
ENDBRANCH  10  11
ENDBRANCH   2   3
TORSDOF 3
ENDMDL
MODEL      183
REMARK 921   NORMALIZED FREE ENERGY PREDICTED BY IDOCK:   -2.82 KCAL/MOL
REMARK 922        TOTAL FREE ENERGY PREDICTED BY IDOCK:   -3.73 KCAL/MOL
REMARK 923 INTER-LIGAND FREE ENERGY PREDICTED BY IDOCK:   -3.50 KCAL/MOL
REMARK 924 INTRA-LIGAND FREE ENERGY PREDICTED BY IDOCK:   -0.23 KCAL/MOL
REMARK 927      BINDING AFFINITY PREDICTED BY RF-SCORE:    0.00 PKD
ROOT
HETATM    1  C   UNL     1     -10.319  11.097  63.149  1.00  0.00    -0.247 C  
HETATM    2  O   UNL     1      -9.534  11.808  64.108  1.00  0.00    -0.114 OA 
ENDROOT
BRANCH   2   3
HETATM    3  C   UNL     1     -10.329  12.606  64.910  1.00  0.00    -0.308 A  
HETATM    4  N   UNL     1     -11.138  13.476  64.264  1.00  0.00    -0.376 NA 
HETATM    5  C   UNL     1     -11.761  14.397  65.006  1.00  0.00    -0.389 A  
HETATM    6  N   UNL     1     -11.622  14.508  66.329  1.00  0.00    -0.363 NA 
HETATM    7  C   UNL     1     -12.531  15.452  64.278  1.00  0.00     0.048 C  
HETATM    8  C   UNL     1     -10.840  13.575  66.914  1.00  0.00    -0.282 A  
HETATM    9 CL   UNL     1     -10.679  13.833  68.617  1.00  0.00    -0.262 Cl 
HETATM   10  C   UNL     1     -10.154  12.551  66.280  1.00  0.00    -0.250 A  
BRANCH  10  11
HETATM   11  N   UNL     1      -9.399  11.614  66.996  1.00  0.00    -0.177 NA 
HETATM   12  H   UNL     1      -9.613  11.592  67.993  1.00  0.00     0.000 HD 
BRANCH  11  13
HETATM   13  C   UNL     1      -8.444  10.733  66.626  1.00  0.00    -0.142 A  
HETATM   14  N   UNL     1      -7.307  11.130  66.117  1.00  0.00    -0.329 NA 
HETATM   15  C   UNL     1      -6.567   9.875  65.819  1.00  0.00    -0.094 A  
HETATM   16  H   UNL     1      -6.996  12.088  65.958  1.00  0.00     0.000 HD 
HETATM   17  C   UNL     1      -7.420   8.719  66.344  1.00  0.00    -0.087 A  
HETATM   18  N   UNL     1      -8.591   9.400  66.841  1.00  0.00    -0.127 NA 
ENDBRANCH  11  13
ENDBRANCH  10  11
ENDBRANCH   2   3
TORSDOF 3
ENDMDL
MODEL      184
REMARK 921   NORMALIZED FREE ENERGY PREDICTED BY IDOCK:   -2.77 KCAL/MOL
REMARK 922        TOTAL FREE ENERGY PREDICTED BY IDOCK:   -3.67 KCAL/MOL
REMARK 923 INTER-LIGAND FREE ENERGY PREDICTED BY IDOCK:   -3.25 KCAL/MOL
REMARK 924 INTRA-LIGAND FREE ENERGY PREDICTED BY IDOCK:   -0.42 KCAL/MOL
REMARK 927      BINDING AFFINITY PREDICTED BY RF-SCORE:    0.00 PKD
ROOT
HETATM    1  C   UNL     1     -10.905   5.842  69.835  1.00  0.00    -0.369 C  
HETATM    2  O   UNL     1     -11.419   6.361  68.606  1.00  0.00    -0.254 OA 
ENDROOT
BRANCH   2   3
HETATM    3  C   UNL     1     -10.754   7.517  68.236  1.00  0.00    -0.073 A  
HETATM    4  N   UNL     1     -10.780   8.528  69.133  1.00  0.00    -0.165 NA 
HETATM    5  C   UNL     1     -10.330   9.718  68.724  1.00  0.00    -0.208 A  
HETATM    6  N   UNL     1      -9.870   9.960  67.494  1.00  0.00    -0.163 NA 
HETATM    7  C   UNL     1     -10.501  10.871  69.661  1.00  0.00    -0.133 C  
HETATM    8  C   UNL     1      -9.825   8.892  66.668  1.00  0.00    -0.262 A  
HETATM    9 CL   UNL     1      -9.268   9.314  65.086  1.00  0.00    -0.285 Cl 
HETATM   10  C   UNL     1     -10.233   7.599  66.959  1.00  0.00    -0.300 A  
BRANCH  10  11
HETATM   11  N   UNL     1     -10.104   6.558  66.032  1.00  0.00    -0.335 NA 
HETATM   12  H   UNL     1     -10.902   6.467  65.404  1.00  0.00     0.000 HD 
BRANCH  11  13
HETATM   13  C   UNL     1      -9.130   5.648  65.806  1.00  0.00    -0.128 A  
HETATM   14  N   UNL     1      -8.845   5.236  64.599  1.00  0.00    -0.307 NA 
HETATM   15  C   UNL     1      -7.764   4.232  64.787  1.00  0.00    -0.078 A  
HETATM   16  H   UNL     1      -9.271   5.535  63.722  1.00  0.00     0.000 HD 
HETATM   17  C   UNL     1      -7.411   4.231  66.276  1.00  0.00    -0.085 A  
HETATM   18  N   UNL     1      -8.352   5.182  66.817  1.00  0.00    -0.108 NA 
ENDBRANCH  11  13
ENDBRANCH  10  11
ENDBRANCH   2   3
TORSDOF 3
ENDMDL
MODEL      185
REMARK 921   NORMALIZED FREE ENERGY PREDICTED BY IDOCK:   -2.74 KCAL/MOL
REMARK 922        TOTAL FREE ENERGY PREDICTED BY IDOCK:   -3.63 KCAL/MOL
REMARK 923 INTER-LIGAND FREE ENERGY PREDICTED BY IDOCK:   -4.05 KCAL/MOL
REMARK 924 INTRA-LIGAND FREE ENERGY PREDICTED BY IDOCK:    0.43 KCAL/MOL
REMARK 927      BINDING AFFINITY PREDICTED BY RF-SCORE:    0.00 PKD
ROOT
HETATM    1  C   UNL     1     -11.884   6.571  71.816  1.00  0.00    -0.335 C  
HETATM    2  O   UNL     1     -10.858   7.446  71.341  1.00  0.00    -0.228 OA 
ENDROOT
BRANCH   2   3
HETATM    3  C   UNL     1     -10.648   7.274  69.984  1.00  0.00    -0.233 A  
HETATM    4  N   UNL     1     -10.352   6.017  69.584  1.00  0.00    -0.209 NA 
HETATM    5  C   UNL     1      -9.942   5.858  68.322  1.00  0.00    -0.146 A  
HETATM    6  N   UNL     1      -9.803   6.859  67.451  1.00  0.00    -0.136 NA 
HETATM    7  C   UNL     1      -9.469   4.496  67.926  1.00  0.00    -0.200 C  
HETATM    8  C   UNL     1     -10.165   8.080  67.902  1.00  0.00    -0.212 A  
HETATM    9 CL   UNL     1      -9.899   9.318  66.724  1.00  0.00    -0.266 Cl 
HETATM   10  C   UNL     1     -10.628   8.392  69.172  1.00  0.00    -0.163 A  
BRANCH  10  11
HETATM   11  N   UNL     1     -11.012   9.693  69.519  1.00  0.00    -0.297 NA 
HETATM   12  H   UNL     1     -11.283   9.793  70.497  1.00  0.00     0.000 HD 
BRANCH  11  13
HETATM   13  C   UNL     1     -11.094  10.842  68.813  1.00  0.00    -0.256 A  
HETATM   14  N   UNL     1     -12.194  11.193  68.200  1.00  0.00    -0.645 NA 
HETATM   15  C   UNL     1     -11.860  12.476  67.526  1.00  0.00    -0.323 A  
HETATM   16  H   UNL     1     -13.085  10.696  68.186  1.00  0.00     0.000 HD 
HETATM   17  C   UNL     1     -10.437  12.844  67.950  1.00  0.00    -0.224 A  
HETATM   18  N   UNL     1     -10.061  11.723  68.776  1.00  0.00    -0.182 NA 
ENDBRANCH  11  13
ENDBRANCH  10  11
ENDBRANCH   2   3
TORSDOF 3
ENDMDL
MODEL      186
REMARK 921   NORMALIZED FREE ENERGY PREDICTED BY IDOCK:   -2.73 KCAL/MOL
REMARK 922        TOTAL FREE ENERGY PREDICTED BY IDOCK:   -3.63 KCAL/MOL
REMARK 923 INTER-LIGAND FREE ENERGY PREDICTED BY IDOCK:   -3.12 KCAL/MOL
REMARK 924 INTRA-LIGAND FREE ENERGY PREDICTED BY IDOCK:   -0.51 KCAL/MOL
REMARK 927      BINDING AFFINITY PREDICTED BY RF-SCORE:    0.00 PKD
ROOT
HETATM    1  C   UNL     1      -6.421   6.655  69.998  1.00  0.00    -0.040 C  
HETATM    2  O   UNL     1      -7.679   7.176  69.563  1.00  0.00    -0.108 OA 
ENDROOT
BRANCH   2   3
HETATM    3  C   UNL     1      -8.725   6.600  70.264  1.00  0.00    -0.147 A  
HETATM    4  N   UNL     1      -8.595   5.285  70.547  1.00  0.00    -0.118 NA 
HETATM    5  C   UNL     1      -9.669   4.657  71.036  1.00  0.00    -0.188 A  
HETATM    6  N   UNL     1     -10.847   5.247  71.247  1.00  0.00    -0.134 NA 
HETATM    7  C   UNL     1      -9.573   3.174  71.204  1.00  0.00    -0.230 C  
HETATM    8  C   UNL     1     -10.890   6.573  70.990  1.00  0.00    -0.253 A  
HETATM    9 CL   UNL     1     -12.467   7.236  71.242  1.00  0.00    -0.396 Cl 
HETATM   10  C   UNL     1      -9.854   7.358  70.506  1.00  0.00    -0.180 A  
BRANCH  10  11
HETATM   11  N   UNL     1     -10.002   8.737  70.313  1.00  0.00    -0.180 NA 
HETATM   12  H   UNL     1      -9.864   9.287  71.161  1.00  0.00     0.000 HD 
BRANCH  11  13
HETATM   13  C   UNL     1     -10.291   9.483  69.224  1.00  0.00    -0.208 A  
HETATM   14  N   UNL     1      -9.745   9.239  68.061  1.00  0.00    -0.147 NA 
HETATM   15  C   UNL     1     -10.290  10.287  67.159  1.00  0.00    -0.238 A  
HETATM   16  H   UNL     1      -9.089   8.494  67.825  1.00  0.00     0.000 HD 
HETATM   17  C   UNL     1     -11.312  11.086  67.970  1.00  0.00    -0.306 A  
HETATM   18  N   UNL     1     -11.223  10.469  69.271  1.00  0.00    -0.246 NA 
ENDBRANCH  11  13
ENDBRANCH  10  11
ENDBRANCH   2   3
TORSDOF 3
ENDMDL
MODEL      187
REMARK 921   NORMALIZED FREE ENERGY PREDICTED BY IDOCK:   -2.72 KCAL/MOL
REMARK 922        TOTAL FREE ENERGY PREDICTED BY IDOCK:   -3.60 KCAL/MOL
REMARK 923 INTER-LIGAND FREE ENERGY PREDICTED BY IDOCK:   -3.08 KCAL/MOL
REMARK 924 INTRA-LIGAND FREE ENERGY PREDICTED BY IDOCK:   -0.53 KCAL/MOL
REMARK 927      BINDING AFFINITY PREDICTED BY RF-SCORE:    0.00 PKD
ROOT
HETATM    1  C   UNL     1      -8.468   9.039  67.122  1.00  0.00    -0.113 C  
HETATM    2  O   UNL     1      -9.487   8.230  67.715  1.00  0.00    -0.145 OA 
ENDROOT
BRANCH   2   3
HETATM    3  C   UNL     1      -8.950   7.348  68.636  1.00  0.00    -0.131 A  
HETATM    4  N   UNL     1      -8.549   6.153  68.147  1.00  0.00    -0.116 NA 
HETATM    5  C   UNL     1      -8.222   5.209  69.035  1.00  0.00    -0.088 A  
HETATM    6  N   UNL     1      -8.277   5.378  70.358  1.00  0.00    -0.103 NA 
HETATM    7  C   UNL     1      -7.928   3.843  68.502  1.00  0.00    -0.067 C  
HETATM    8  C   UNL     1      -8.636   6.612  70.775  1.00  0.00    -0.135 A  
HETATM    9 CL   UNL     1      -8.731   6.717  72.498  1.00  0.00    -0.126 Cl 
HETATM   10  C   UNL     1      -8.978   7.691  69.974  1.00  0.00    -0.143 A  
BRANCH  10  11
HETATM   11  N   UNL     1      -9.299   8.941  70.517  1.00  0.00    -0.185 NA 
HETATM   12  H   UNL     1      -8.505   9.418  70.945  1.00  0.00     0.000 HD 
BRANCH  11  13
HETATM   13  C   UNL     1     -10.453   9.639  70.587  1.00  0.00    -0.312 A  
HETATM   14  N   UNL     1     -10.850  10.408  69.607  1.00  0.00    -0.259 NA 
HETATM   15  C   UNL     1     -12.121  11.012  70.089  1.00  0.00    -0.356 A  
HETATM   16  H   UNL     1     -10.389  10.562  68.710  1.00  0.00     0.000 HD 
HETATM   17  C   UNL     1     -12.431  10.374  71.445  1.00  0.00    -0.415 A  
HETATM   18  N   UNL     1     -11.292   9.511  71.648  1.00  0.00    -0.382 NA 
ENDBRANCH  11  13
ENDBRANCH  10  11
ENDBRANCH   2   3
TORSDOF 3
ENDMDL
MODEL      188
REMARK 921   NORMALIZED FREE ENERGY PREDICTED BY IDOCK:   -2.71 KCAL/MOL
REMARK 922        TOTAL FREE ENERGY PREDICTED BY IDOCK:   -3.59 KCAL/MOL
REMARK 923 INTER-LIGAND FREE ENERGY PREDICTED BY IDOCK:   -3.17 KCAL/MOL
REMARK 924 INTRA-LIGAND FREE ENERGY PREDICTED BY IDOCK:   -0.43 KCAL/MOL
REMARK 927      BINDING AFFINITY PREDICTED BY RF-SCORE:    0.00 PKD
ROOT
HETATM    1  C   UNL     1     -10.391   8.146  66.905  1.00  0.00    -0.331 C  
HETATM    2  O   UNL     1     -11.058   6.882  66.864  1.00  0.00    -0.379 OA 
ENDROOT
BRANCH   2   3
HETATM    3  C   UNL     1     -10.872   6.182  68.043  1.00  0.00    -0.313 A  
HETATM    4  N   UNL     1     -11.252   6.816  69.175  1.00  0.00    -0.213 NA 
HETATM    5  C   UNL     1     -10.897   6.257  70.336  1.00  0.00    -0.299 A  
HETATM    6  N   UNL     1     -10.191   5.129  70.436  1.00  0.00    -0.259 NA 
HETATM    7  C   UNL     1     -11.182   7.034  71.582  1.00  0.00    -0.276 C  
HETATM    8  C   UNL     1      -9.890   4.523  69.268  1.00  0.00    -0.171 A  
HETATM    9 CL   UNL     1      -8.930   3.103  69.496  1.00  0.00    -0.157 Cl 
HETATM   10  C   UNL     1     -10.211   4.970  67.994  1.00  0.00    -0.078 A  
BRANCH  10  11
HETATM   11  N   UNL     1      -9.878   4.236  66.849  1.00  0.00    -0.213 NA 
HETATM   12  H   UNL     1     -10.511   3.459  66.662  1.00  0.00     0.000 HD 
BRANCH  11  13
HETATM   13  C   UNL     1      -8.883   4.355  65.943  1.00  0.00    -0.120 A  
HETATM   14  N   UNL     1      -7.832   5.099  66.172  1.00  0.00    -0.102 NA 
HETATM   15  C   UNL     1      -7.013   4.988  64.936  1.00  0.00    -0.054 A  
HETATM   16  H   UNL     1      -7.622   5.637  67.013  1.00  0.00     0.000 HD 
HETATM   17  C   UNL     1      -7.713   3.978  64.025  1.00  0.00    -0.083 A  
HETATM   18  N   UNL     1      -8.893   3.644  64.786  1.00  0.00    -0.116 NA 
ENDBRANCH  11  13
ENDBRANCH  10  11
ENDBRANCH   2   3
TORSDOF 3
ENDMDL
MODEL      189
REMARK 921   NORMALIZED FREE ENERGY PREDICTED BY IDOCK:   -2.70 KCAL/MOL
REMARK 922        TOTAL FREE ENERGY PREDICTED BY IDOCK:   -3.59 KCAL/MOL
REMARK 923 INTER-LIGAND FREE ENERGY PREDICTED BY IDOCK:   -3.18 KCAL/MOL
REMARK 924 INTRA-LIGAND FREE ENERGY PREDICTED BY IDOCK:   -0.41 KCAL/MOL
REMARK 927      BINDING AFFINITY PREDICTED BY RF-SCORE:    0.00 PKD
ROOT
HETATM    1  C   UNL     1      -6.648   8.916  69.024  1.00  0.00    -0.048 C  
HETATM    2  O   UNL     1      -7.882   9.569  69.331  1.00  0.00    -0.083 OA 
ENDROOT
BRANCH   2   3
HETATM    3  C   UNL     1      -8.567   8.897  70.328  1.00  0.00    -0.167 A  
HETATM    4  N   UNL     1      -8.093   9.059  71.584  1.00  0.00    -0.347 NA 
HETATM    5  C   UNL     1      -8.599   8.267  72.534  1.00  0.00    -0.208 A  
HETATM    6  N   UNL     1      -9.527   7.333  72.311  1.00  0.00    -0.141 NA 
HETATM    7  C   UNL     1      -7.969   8.337  73.888  1.00  0.00    -0.256 C  
HETATM    8  C   UNL     1      -9.991   7.262  71.044  1.00  0.00    -0.187 A  
HETATM    9 CL   UNL     1     -11.146   5.991  70.842  1.00  0.00    -0.360 Cl 
HETATM   10  C   UNL     1      -9.580   8.031  69.965  1.00  0.00    -0.171 A  
BRANCH  10  11
HETATM   11  N   UNL     1     -10.161   7.896  68.699  1.00  0.00    -0.202 NA 
HETATM   12  H   UNL     1     -10.847   8.620  68.484  1.00  0.00     0.000 HD 
BRANCH  11  13
HETATM   13  C   UNL     1      -9.993   6.996  67.705  1.00  0.00    -0.152 A  
HETATM   14  N   UNL     1      -8.888   6.943  67.009  1.00  0.00    -0.117 NA 
HETATM   15  C   UNL     1      -9.119   5.863  66.013  1.00  0.00    -0.142 A  
HETATM   16  H   UNL     1      -8.051   7.516  67.123  1.00  0.00     0.000 HD 
HETATM   17  C   UNL     1     -10.481   5.245  66.334  1.00  0.00    -0.292 A  
HETATM   18  N   UNL     1     -10.934   6.055  67.439  1.00  0.00    -0.303 NA 
ENDBRANCH  11  13
ENDBRANCH  10  11
ENDBRANCH   2   3
TORSDOF 3
ENDMDL
MODEL      190
REMARK 921   NORMALIZED FREE ENERGY PREDICTED BY IDOCK:   -2.70 KCAL/MOL
REMARK 922        TOTAL FREE ENERGY PREDICTED BY IDOCK:   -3.59 KCAL/MOL
REMARK 923 INTER-LIGAND FREE ENERGY PREDICTED BY IDOCK:   -3.28 KCAL/MOL
REMARK 924 INTRA-LIGAND FREE ENERGY PREDICTED BY IDOCK:   -0.31 KCAL/MOL
REMARK 927      BINDING AFFINITY PREDICTED BY RF-SCORE:    0.00 PKD
ROOT
HETATM    1  C   UNL     1     -11.512  15.508  68.227  1.00  0.00    -0.353 C  
HETATM    2  O   UNL     1     -10.273  15.144  68.839  1.00  0.00    -0.219 OA 
ENDROOT
BRANCH   2   3
HETATM    3  C   UNL     1      -9.693  14.068  68.189  1.00  0.00    -0.220 A  
HETATM    4  N   UNL     1     -10.508  13.019  67.940  1.00  0.00    -0.224 NA 
HETATM    5  C   UNL     1      -9.935  11.892  67.504  1.00  0.00    -0.187 A  
HETATM    6  N   UNL     1      -8.622  11.747  67.315  1.00  0.00    -0.155 NA 
HETATM    7  C   UNL     1     -10.812  10.687  67.375  1.00  0.00    -0.353 C  
HETATM    8  C   UNL     1      -7.876  12.851  67.534  1.00  0.00    -0.177 A  
HETATM    9 CL   UNL     1      -6.186  12.552  67.315  1.00  0.00    -0.157 Cl 
HETATM   10  C   UNL     1      -8.331  14.090  67.962  1.00  0.00    -0.163 A  
BRANCH  10  11
HETATM   11  N   UNL     1      -7.466  15.179  68.121  1.00  0.00    -0.108 NA 
HETATM   12  H   UNL     1      -6.717  15.013  68.793  1.00  0.00     0.000 HD 
BRANCH  11  13
HETATM   13  C   UNL     1      -7.429  16.408  67.561  1.00  0.00    -0.141 A  
HETATM   14  N   UNL     1      -6.605  17.330  67.985  1.00  0.00    -0.162 NA 
HETATM   15  C   UNL     1      -6.902  18.520  67.145  1.00  0.00    -0.201 A  
HETATM   16  H   UNL     1      -5.910  17.250  68.728  1.00  0.00     0.000 HD 
HETATM   17  C   UNL     1      -7.944  18.087  66.111  1.00  0.00    -0.192 A  
HETATM   18  N   UNL     1      -8.193  16.715  66.481  1.00  0.00    -0.266 NA 
ENDBRANCH  11  13
ENDBRANCH  10  11
ENDBRANCH   2   3
TORSDOF 3
ENDMDL
MODEL      191
REMARK 921   NORMALIZED FREE ENERGY PREDICTED BY IDOCK:   -2.69 KCAL/MOL
REMARK 922        TOTAL FREE ENERGY PREDICTED BY IDOCK:   -3.57 KCAL/MOL
REMARK 923 INTER-LIGAND FREE ENERGY PREDICTED BY IDOCK:   -3.19 KCAL/MOL
REMARK 924 INTRA-LIGAND FREE ENERGY PREDICTED BY IDOCK:   -0.38 KCAL/MOL
REMARK 927      BINDING AFFINITY PREDICTED BY RF-SCORE:    0.00 PKD
ROOT
HETATM    1  C   UNL     1     -11.186   8.955  70.627  1.00  0.00    -0.266 C  
HETATM    2  O   UNL     1     -11.145   9.333  69.249  1.00  0.00    -0.147 OA 
ENDROOT
BRANCH   2   3
HETATM    3  C   UNL     1      -9.841   9.441  68.800  1.00  0.00    -0.163 A  
HETATM    4  N   UNL     1      -9.019   8.416  69.118  1.00  0.00    -0.146 NA 
HETATM    5  C   UNL     1      -7.714   8.584  68.882  1.00  0.00    -0.100 A  
HETATM    6  N   UNL     1      -7.187   9.696  68.365  1.00  0.00    -0.074 NA 
HETATM    7  C   UNL     1      -6.789   7.517  69.373  1.00  0.00    -0.048 C  
HETATM    8  C   UNL     1      -8.071  10.658  68.024  1.00  0.00    -0.112 A  
HETATM    9 CL   UNL     1      -7.292  12.076  67.414  1.00  0.00    -0.139 Cl 
HETATM   10  C   UNL     1      -9.448  10.615  68.186  1.00  0.00    -0.154 A  
BRANCH  10  11
HETATM   11  N   UNL     1     -10.275  11.661  67.759  1.00  0.00    -0.183 NA 
HETATM   12  H   UNL     1     -10.442  12.369  68.475  1.00  0.00     0.000 HD 
BRANCH  11  13
HETATM   13  C   UNL     1     -10.896  11.917  66.588  1.00  0.00    -0.276 A  
HETATM   14  N   UNL     1     -10.284  11.772  65.441  1.00  0.00    -0.251 NA 
HETATM   15  C   UNL     1     -11.286  12.182  64.422  1.00  0.00    -0.344 A  
HETATM   16  H   UNL     1      -9.330  11.448  65.281  1.00  0.00     0.000 HD 
HETATM   17  C   UNL     1     -12.589  12.472  65.169  1.00  0.00    -0.281 A  
HETATM   18  N   UNL     1     -12.209  12.260  66.545  1.00  0.00    -0.507 NA 
ENDBRANCH  11  13
ENDBRANCH  10  11
ENDBRANCH   2   3
TORSDOF 3
ENDMDL
MODEL      192
REMARK 921   NORMALIZED FREE ENERGY PREDICTED BY IDOCK:   -2.67 KCAL/MOL
REMARK 922        TOTAL FREE ENERGY PREDICTED BY IDOCK:   -3.55 KCAL/MOL
REMARK 923 INTER-LIGAND FREE ENERGY PREDICTED BY IDOCK:   -3.05 KCAL/MOL
REMARK 924 INTRA-LIGAND FREE ENERGY PREDICTED BY IDOCK:   -0.50 KCAL/MOL
REMARK 927      BINDING AFFINITY PREDICTED BY RF-SCORE:    0.00 PKD
ROOT
HETATM    1  C   UNL     1     -10.304   4.475  72.682  1.00  0.00    -0.193 C  
HETATM    2  O   UNL     1      -9.945   4.686  71.314  1.00  0.00    -0.186 OA 
ENDROOT
BRANCH   2   3
HETATM    3  C   UNL     1     -10.290   5.960  70.899  1.00  0.00    -0.229 A  
HETATM    4  N   UNL     1     -11.067   6.669  71.748  1.00  0.00    -0.240 NA 
HETATM    5  C   UNL     1     -11.586   7.812  71.291  1.00  0.00    -0.277 A  
HETATM    6  N   UNL     1     -11.388   8.280  70.056  1.00  0.00    -0.085 NA 
HETATM    7  C   UNL     1     -12.567   8.518  72.172  1.00  0.00    -0.431 C  
HETATM    8  C   UNL     1     -10.561   7.547  69.280  1.00  0.00    -0.210 A  
HETATM    9 CL   UNL     1     -10.409   8.202  67.686  1.00  0.00    -0.298 Cl 
HETATM   10  C   UNL     1      -9.934   6.359  69.626  1.00  0.00    -0.164 A  
BRANCH  10  11
HETATM   11  N   UNL     1      -9.062   5.702  68.749  1.00  0.00    -0.117 NA 
HETATM   12  H   UNL     1      -8.180   6.193  68.604  1.00  0.00     0.000 HD 
BRANCH  11  13
HETATM   13  C   UNL     1      -9.160   4.546  68.056  1.00  0.00    -0.123 A  
HETATM   14  N   UNL     1      -9.233   3.389  68.660  1.00  0.00    -0.155 NA 
HETATM   15  C   UNL     1      -9.291   2.390  67.560  1.00  0.00    -0.117 A  
HETATM   16  H   UNL     1      -9.246   3.211  69.664  1.00  0.00     0.000 HD 
HETATM   17  C   UNL     1      -9.353   3.175  66.248  1.00  0.00    -0.097 A  
HETATM   18  N   UNL     1      -9.268   4.542  66.702  1.00  0.00    -0.126 NA 
ENDBRANCH  11  13
ENDBRANCH  10  11
ENDBRANCH   2   3
TORSDOF 3
ENDMDL
MODEL      193
REMARK 921   NORMALIZED FREE ENERGY PREDICTED BY IDOCK:   -2.65 KCAL/MOL
REMARK 922        TOTAL FREE ENERGY PREDICTED BY IDOCK:   -3.52 KCAL/MOL
REMARK 923 INTER-LIGAND FREE ENERGY PREDICTED BY IDOCK:   -3.06 KCAL/MOL
REMARK 924 INTRA-LIGAND FREE ENERGY PREDICTED BY IDOCK:   -0.46 KCAL/MOL
REMARK 927      BINDING AFFINITY PREDICTED BY RF-SCORE:    0.00 PKD
ROOT
HETATM    1  C   UNL     1     -12.112  12.999  68.510  1.00  0.00    -0.149 C  
HETATM    2  O   UNL     1     -11.267  13.421  67.437  1.00  0.00    -0.270 OA 
ENDROOT
BRANCH   2   3
HETATM    3  C   UNL     1     -10.234  14.217  67.900  1.00  0.00    -0.235 A  
HETATM    4  N   UNL     1     -10.552  15.502  68.171  1.00  0.00    -0.259 NA 
HETATM    5  C   UNL     1      -9.542  16.342  68.419  1.00  0.00    -0.219 A  
HETATM    6  N   UNL     1      -8.256  15.987  68.406  1.00  0.00    -0.159 NA 
HETATM    7  C   UNL     1      -9.881  17.791  68.567  1.00  0.00    -0.355 C  
HETATM    8  C   UNL     1      -8.014  14.677  68.179  1.00  0.00    -0.136 A  
HETATM    9 CL   UNL     1      -6.322  14.325  68.126  1.00  0.00    -0.117 Cl 
HETATM   10  C   UNL     1      -8.957  13.690  67.931  1.00  0.00    -0.195 A  
BRANCH  10  11
HETATM   11  N   UNL     1      -8.592  12.351  67.745  1.00  0.00    -0.162 NA 
HETATM   12  H   UNL     1      -8.352  12.122  66.781  1.00  0.00     0.000 HD 
BRANCH  11  13
HETATM   13  C   UNL     1      -8.496  11.303  68.592  1.00  0.00    -0.143 A  
HETATM   14  N   UNL     1      -9.534  10.564  68.888  1.00  0.00    -0.185 NA 
HETATM   15  C   UNL     1      -9.021   9.562  69.859  1.00  0.00    -0.212 A  
HETATM   16  H   UNL     1     -10.485  10.655  68.531  1.00  0.00     0.000 HD 
HETATM   17  C   UNL     1      -7.511   9.785  69.974  1.00  0.00    -0.154 A  
HETATM   18  N   UNL     1      -7.301  10.922  69.112  1.00  0.00    -0.116 NA 
ENDBRANCH  11  13
ENDBRANCH  10  11
ENDBRANCH   2   3
TORSDOF 3
ENDMDL
MODEL      194
REMARK 921   NORMALIZED FREE ENERGY PREDICTED BY IDOCK:   -2.62 KCAL/MOL
REMARK 922        TOTAL FREE ENERGY PREDICTED BY IDOCK:   -3.49 KCAL/MOL
REMARK 923 INTER-LIGAND FREE ENERGY PREDICTED BY IDOCK:   -3.11 KCAL/MOL
REMARK 924 INTRA-LIGAND FREE ENERGY PREDICTED BY IDOCK:   -0.38 KCAL/MOL
REMARK 927      BINDING AFFINITY PREDICTED BY RF-SCORE:    0.00 PKD
ROOT
HETATM    1  C   UNL     1      -9.580  12.374  66.303  1.00  0.00    -0.241 C  
HETATM    2  O   UNL     1     -10.335  11.164  66.206  1.00  0.00    -0.235 OA 
ENDROOT
BRANCH   2   3
HETATM    3  C   UNL     1      -9.525  10.097  65.861  1.00  0.00    -0.196 A  
HETATM    4  N   UNL     1      -8.731  10.281  64.782  1.00  0.00    -0.177 NA 
HETATM    5  C   UNL     1      -8.096   9.209  64.301  1.00  0.00    -0.148 A  
HETATM    6  N   UNL     1      -8.208   7.982  64.816  1.00  0.00    -0.144 NA 
HETATM    7  C   UNL     1      -7.342   9.379  63.020  1.00  0.00    -0.106 C  
HETATM    8  C   UNL     1      -8.975   7.882  65.923  1.00  0.00    -0.123 A  
HETATM    9 CL   UNL     1      -9.103   6.250  66.483  1.00  0.00    -0.155 Cl 
HETATM   10  C   UNL     1      -9.672   8.906  66.545  1.00  0.00    -0.254 A  
BRANCH  10  11
HETATM   11  N   UNL     1     -10.410   8.692  67.716  1.00  0.00    -0.235 NA 
HETATM   12  H   UNL     1     -11.358   8.354  67.546  1.00  0.00     0.000 HD 
BRANCH  11  13
HETATM   13  C   UNL     1     -10.116   8.846  69.025  1.00  0.00    -0.197 A  
HETATM   14  N   UNL     1      -8.911   8.634  69.486  1.00  0.00    -0.142 NA 
HETATM   15  C   UNL     1      -9.016   8.874  70.949  1.00  0.00    -0.222 A  
HETATM   16  H   UNL     1      -8.080   8.364  68.958  1.00  0.00     0.000 HD 
HETATM   17  C   UNL     1     -10.441   9.361  71.219  1.00  0.00    -0.315 A  
HETATM   18  N   UNL     1     -11.040   9.305  69.908  1.00  0.00    -0.217 NA 
ENDBRANCH  11  13
ENDBRANCH  10  11
ENDBRANCH   2   3
TORSDOF 3
ENDMDL
MODEL      195
REMARK 921   NORMALIZED FREE ENERGY PREDICTED BY IDOCK:   -2.61 KCAL/MOL
REMARK 922        TOTAL FREE ENERGY PREDICTED BY IDOCK:   -3.49 KCAL/MOL
REMARK 923 INTER-LIGAND FREE ENERGY PREDICTED BY IDOCK:   -3.29 KCAL/MOL
REMARK 924 INTRA-LIGAND FREE ENERGY PREDICTED BY IDOCK:   -0.19 KCAL/MOL
REMARK 927      BINDING AFFINITY PREDICTED BY RF-SCORE:    0.00 PKD
ROOT
HETATM    1  C   UNL     1     -12.026   6.706  70.490  1.00  0.00    -0.316 C  
HETATM    2  O   UNL     1     -10.632   6.423  70.347  1.00  0.00    -0.216 OA 
ENDROOT
BRANCH   2   3
HETATM    3  C   UNL     1      -9.862   7.372  70.995  1.00  0.00    -0.179 A  
HETATM    4  N   UNL     1      -9.227   8.263  70.200  1.00  0.00    -0.154 NA 
HETATM    5  C   UNL     1      -8.318   9.056  70.776  1.00  0.00    -0.192 A  
HETATM    6  N   UNL     1      -8.002   9.009  72.072  1.00  0.00    -0.333 NA 
HETATM    7  C   UNL     1      -7.508   9.932  69.875  1.00  0.00    -0.156 C  
HETATM    8  C   UNL     1      -8.711   8.132  72.815  1.00  0.00    -0.217 A  
HETATM    9 CL   UNL     1      -8.194   8.106  74.466  1.00  0.00    -0.270 Cl 
HETATM   10  C   UNL     1      -9.696   7.267  72.363  1.00  0.00    -0.154 A  
BRANCH  10  11
HETATM   11  N   UNL     1     -10.395   6.423  73.234  1.00  0.00    -0.215 NA 
HETATM   12  H   UNL     1     -11.053   6.914  73.840  1.00  0.00     0.000 HD 
BRANCH  11  13
HETATM   13  C   UNL     1     -10.370   5.087  73.432  1.00  0.00    -0.202 A  
HETATM   14  N   UNL     1     -11.458   4.365  73.379  1.00  0.00    -0.270 NA 
HETATM   15  C   UNL     1     -11.010   2.980  73.682  1.00  0.00    -0.228 A  
HETATM   16  H   UNL     1     -12.407   4.682  73.176  1.00  0.00     0.000 HD 
HETATM   17  C   UNL     1      -9.486   3.021  73.802  1.00  0.00    -0.087 A  
HETATM   18  N   UNL     1      -9.199   4.423  73.616  1.00  0.00    -0.104 NA 
ENDBRANCH  11  13
ENDBRANCH  10  11
ENDBRANCH   2   3
TORSDOF 3
ENDMDL
MODEL      196
REMARK 921   NORMALIZED FREE ENERGY PREDICTED BY IDOCK:   -2.61 KCAL/MOL
REMARK 922        TOTAL FREE ENERGY PREDICTED BY IDOCK:   -3.48 KCAL/MOL
REMARK 923 INTER-LIGAND FREE ENERGY PREDICTED BY IDOCK:   -3.10 KCAL/MOL
REMARK 924 INTRA-LIGAND FREE ENERGY PREDICTED BY IDOCK:   -0.38 KCAL/MOL
REMARK 927      BINDING AFFINITY PREDICTED BY RF-SCORE:    0.00 PKD
ROOT
HETATM    1  C   UNL     1      -8.929   4.768  67.946  1.00  0.00    -0.111 C  
HETATM    2  O   UNL     1      -9.414   5.196  69.221  1.00  0.00    -0.122 OA 
ENDROOT
BRANCH   2   3
HETATM    3  C   UNL     1      -9.716   6.546  69.211  1.00  0.00    -0.144 A  
HETATM    4  N   UNL     1      -9.114   7.281  68.249  1.00  0.00    -0.135 NA 
HETATM    5  C   UNL     1      -9.221   8.610  68.339  1.00  0.00    -0.138 A  
HETATM    6  N   UNL     1      -9.872   9.241  69.318  1.00  0.00    -0.167 NA 
HETATM    7  C   UNL     1      -8.429   9.425  67.366  1.00  0.00    -0.125 C  
HETATM    8  C   UNL     1     -10.493   8.445  70.215  1.00  0.00    -0.218 A  
HETATM    9 CL   UNL     1     -11.262   9.351  71.471  1.00  0.00    -0.449 Cl 
HETATM   10  C   UNL     1     -10.490   7.058  70.234  1.00  0.00    -0.208 A  
BRANCH  10  11
HETATM   11  N   UNL     1     -11.203   6.332  71.196  1.00  0.00    -0.296 NA 
HETATM   12  H   UNL     1     -12.189   6.204  70.966  1.00  0.00     0.000 HD 
BRANCH  11  13
HETATM   13  C   UNL     1     -10.843   5.767  72.370  1.00  0.00    -0.247 A  
HETATM   14  N   UNL     1     -11.596   4.878  72.962  1.00  0.00    -0.303 NA 
HETATM   15  C   UNL     1     -10.872   4.543  74.217  1.00  0.00    -0.134 A  
HETATM   16  H   UNL     1     -12.485   4.498  72.635  1.00  0.00     0.000 HD 
HETATM   17  C   UNL     1      -9.543   5.299  74.180  1.00  0.00    -0.143 A  
HETATM   18  N   UNL     1      -9.644   6.040  72.946  1.00  0.00    -0.155 NA 
ENDBRANCH  11  13
ENDBRANCH  10  11
ENDBRANCH   2   3
TORSDOF 3
ENDMDL
MODEL      197
REMARK 921   NORMALIZED FREE ENERGY PREDICTED BY IDOCK:   -2.61 KCAL/MOL
REMARK 922        TOTAL FREE ENERGY PREDICTED BY IDOCK:   -3.48 KCAL/MOL
REMARK 923 INTER-LIGAND FREE ENERGY PREDICTED BY IDOCK:   -3.13 KCAL/MOL
REMARK 924 INTRA-LIGAND FREE ENERGY PREDICTED BY IDOCK:   -0.35 KCAL/MOL
REMARK 927      BINDING AFFINITY PREDICTED BY RF-SCORE:    0.00 PKD
ROOT
HETATM    1  C   UNL     1      -6.373   6.092  71.573  1.00  0.00    -0.049 C  
HETATM    2  O   UNL     1      -7.191   7.264  71.552  1.00  0.00    -0.070 OA 
ENDROOT
BRANCH   2   3
HETATM    3  C   UNL     1      -8.335   7.087  72.310  1.00  0.00    -0.110 A  
HETATM    4  N   UNL     1      -8.392   5.950  73.040  1.00  0.00    -0.118 NA 
HETATM    5  C   UNL     1      -9.561   5.651  73.615  1.00  0.00    -0.141 A  
HETATM    6  N   UNL     1     -10.661   6.398  73.501  1.00  0.00    -0.271 NA 
HETATM    7  C   UNL     1      -9.668   4.322  74.292  1.00  0.00    -0.147 C  
HETATM    8  C   UNL     1     -10.518   7.545  72.801  1.00  0.00    -0.295 A  
HETATM    9 CL   UNL     1     -12.006   8.416  72.664  1.00  0.00    -0.426 Cl 
HETATM   10  C   UNL     1      -9.367   7.995  72.173  1.00  0.00    -0.190 A  
BRANCH  10  11
HETATM   11  N   UNL     1      -9.324   9.224  71.503  1.00  0.00    -0.287 NA 
HETATM   12  H   UNL     1      -9.049  10.006  72.099  1.00  0.00     0.000 HD 
BRANCH  11  13
HETATM   13  C   UNL     1      -9.575   9.579  70.224  1.00  0.00    -0.265 A  
HETATM   14  N   UNL     1     -10.796   9.691  69.771  1.00  0.00    -0.240 NA 
HETATM   15  C   UNL     1     -10.637  10.056  68.338  1.00  0.00    -0.220 A  
HETATM   16  H   UNL     1     -11.667   9.557  70.286  1.00  0.00     0.000 HD 
HETATM   17  C   UNL     1      -9.139  10.241  68.089  1.00  0.00    -0.136 A  
HETATM   18  N   UNL     1      -8.570   9.913  69.374  1.00  0.00    -0.160 NA 
ENDBRANCH  11  13
ENDBRANCH  10  11
ENDBRANCH   2   3
TORSDOF 3
ENDMDL
MODEL      198
REMARK 921   NORMALIZED FREE ENERGY PREDICTED BY IDOCK:   -2.54 KCAL/MOL
REMARK 922        TOTAL FREE ENERGY PREDICTED BY IDOCK:   -3.40 KCAL/MOL
REMARK 923 INTER-LIGAND FREE ENERGY PREDICTED BY IDOCK:   -2.98 KCAL/MOL
REMARK 924 INTRA-LIGAND FREE ENERGY PREDICTED BY IDOCK:   -0.42 KCAL/MOL
REMARK 927      BINDING AFFINITY PREDICTED BY RF-SCORE:    0.00 PKD
ROOT
HETATM    1  C   UNL     1      -8.035   5.297  69.135  1.00  0.00    -0.089 C  
HETATM    2  O   UNL     1      -8.187   6.704  68.934  1.00  0.00    -0.117 OA 
ENDROOT
BRANCH   2   3
HETATM    3  C   UNL     1      -9.114   7.236  69.813  1.00  0.00    -0.141 A  
HETATM    4  N   UNL     1      -9.699   6.358  70.659  1.00  0.00    -0.179 NA 
HETATM    5  C   UNL     1     -10.741   6.798  71.372  1.00  0.00    -0.224 A  
HETATM    6  N   UNL     1     -11.232   8.037  71.288  1.00  0.00    -0.251 NA 
HETATM    7  C   UNL     1     -11.483   5.790  72.190  1.00  0.00    -0.295 C  
HETATM    8  C   UNL     1     -10.567   8.874  70.463  1.00  0.00    -0.220 A  
HETATM    9 CL   UNL     1     -11.307  10.435  70.380  1.00  0.00    -0.393 Cl 
HETATM   10  C   UNL     1      -9.462   8.566  69.682  1.00  0.00    -0.165 A  
BRANCH  10  11
HETATM   11  N   UNL     1      -8.828   9.529  68.888  1.00  0.00    -0.134 NA 
HETATM   12  H   UNL     1      -8.279  10.204  69.422  1.00  0.00     0.000 HD 
BRANCH  11  13
HETATM   13  C   UNL     1      -8.800   9.742  67.554  1.00  0.00    -0.125 A  
HETATM   14  N   UNL     1      -7.780   9.374  66.823  1.00  0.00    -0.097 NA 
HETATM   15  C   UNL     1      -8.123   9.814  65.445  1.00  0.00    -0.127 A  
HETATM   16  H   UNL     1      -6.935   8.892  67.131  1.00  0.00     0.000 HD 
HETATM   17  C   UNL     1      -9.542  10.384  65.500  1.00  0.00    -0.234 A  
HETATM   18  N   UNL     1      -9.864  10.275  66.902  1.00  0.00    -0.189 NA 
ENDBRANCH  11  13
ENDBRANCH  10  11
ENDBRANCH   2   3
TORSDOF 3
ENDMDL
MODEL      199
REMARK 921   NORMALIZED FREE ENERGY PREDICTED BY IDOCK:   -2.54 KCAL/MOL
REMARK 922        TOTAL FREE ENERGY PREDICTED BY IDOCK:   -3.40 KCAL/MOL
REMARK 923 INTER-LIGAND FREE ENERGY PREDICTED BY IDOCK:   -3.03 KCAL/MOL
REMARK 924 INTRA-LIGAND FREE ENERGY PREDICTED BY IDOCK:   -0.37 KCAL/MOL
REMARK 927      BINDING AFFINITY PREDICTED BY RF-SCORE:    0.00 PKD
ROOT
HETATM    1  C   UNL     1     -11.453  11.070  69.753  1.00  0.00    -0.311 C  
HETATM    2  O   UNL     1     -10.731  10.356  70.759  1.00  0.00    -0.123 OA 
ENDROOT
BRANCH   2   3
HETATM    3  C   UNL     1     -10.113   9.237  70.229  1.00  0.00    -0.219 A  
HETATM    4  N   UNL     1     -10.888   8.136  70.103  1.00  0.00    -0.245 NA 
HETATM    5  C   UNL     1     -10.274   6.990  69.792  1.00  0.00    -0.201 A  
HETATM    6  N   UNL     1      -8.957   6.875  69.610  1.00  0.00    -0.144 NA 
HETATM    7  C   UNL     1     -11.105   5.747  69.804  1.00  0.00    -0.318 C  
HETATM    8  C   UNL     1      -8.252   8.023  69.700  1.00  0.00    -0.121 A  
HETATM    9 CL   UNL     1      -6.553   7.764  69.504  1.00  0.00    -0.038 Cl 
HETATM   10  C   UNL     1      -8.753   9.283  69.991  1.00  0.00    -0.195 A  
BRANCH  10  11
HETATM   11  N   UNL     1      -7.930  10.416  70.022  1.00  0.00    -0.357 NA 
HETATM   12  H   UNL     1      -7.574  10.638  70.952  1.00  0.00     0.000 HD 
BRANCH  11  13
HETATM   13  C   UNL     1      -7.514  11.272  69.063  1.00  0.00    -0.116 A  
HETATM   14  N   UNL     1      -7.414  12.556  69.287  1.00  0.00    -0.321 NA 
HETATM   15  C   UNL     1      -6.967  13.133  67.992  1.00  0.00    -0.116 A  
HETATM   16  H   UNL     1      -7.602  13.053  70.158  1.00  0.00     0.000 HD 
HETATM   17  C   UNL     1      -6.725  11.960  67.041  1.00  0.00    -0.119 A  
HETATM   18  N   UNL     1      -7.105  10.825  67.848  1.00  0.00    -0.084 NA 
ENDBRANCH  11  13
ENDBRANCH  10  11
ENDBRANCH   2   3
TORSDOF 3
ENDMDL
MODEL      200
REMARK 921   NORMALIZED FREE ENERGY PREDICTED BY IDOCK:   -2.52 KCAL/MOL
REMARK 922        TOTAL FREE ENERGY PREDICTED BY IDOCK:   -3.38 KCAL/MOL
REMARK 923 INTER-LIGAND FREE ENERGY PREDICTED BY IDOCK:   -2.95 KCAL/MOL
REMARK 924 INTRA-LIGAND FREE ENERGY PREDICTED BY IDOCK:   -0.43 KCAL/MOL
REMARK 927      BINDING AFFINITY PREDICTED BY RF-SCORE:    0.00 PKD
ROOT
HETATM    1  C   UNL     1     -10.497   8.861  67.201  1.00  0.00    -0.274 C  
HETATM    2  O   UNL     1     -10.168  10.027  67.959  1.00  0.00    -0.164 OA 
ENDROOT
BRANCH   2   3
HETATM    3  C   UNL     1      -9.297   9.723  68.990  1.00  0.00    -0.161 A  
HETATM    4  N   UNL     1      -9.810   8.986  70.001  1.00  0.00    -0.176 NA 
HETATM    5  C   UNL     1      -9.061   8.852  71.100  1.00  0.00    -0.249 A  
HETATM    6  N   UNL     1      -7.857   9.405  71.254  1.00  0.00    -0.315 NA 
HETATM    7  C   UNL     1      -9.688   8.169  72.273  1.00  0.00    -0.322 C  
HETATM    8  C   UNL     1      -7.385  10.084  70.185  1.00  0.00    -0.163 A  
HETATM    9 CL   UNL     1      -5.846  10.808  70.499  1.00  0.00    -0.112 Cl 
HETATM   10  C   UNL     1      -8.035  10.285  68.977  1.00  0.00    -0.125 A  
BRANCH  10  11
HETATM   11  N   UNL     1      -7.432  10.977  67.920  1.00  0.00    -0.091 NA 
HETATM   12  H   UNL     1      -7.463  11.992  68.024  1.00  0.00     0.000 HD 
BRANCH  11  13
HETATM   13  C   UNL     1      -6.817  10.567  66.790  1.00  0.00    -0.103 A  
HETATM   14  N   UNL     1      -6.083  11.379  66.075  1.00  0.00    -0.421 NA 
HETATM   15  C   UNL     1      -5.628  10.562  64.919  1.00  0.00    -0.135 A  
HETATM   16  H   UNL     1      -5.870  12.359  66.267  1.00  0.00     0.000 HD 
HETATM   17  C   UNL     1      -6.129   9.136  65.157  1.00  0.00    -0.060 A  
HETATM   18  N   UNL     1      -6.870   9.271  66.388  1.00  0.00    -0.082 NA 
ENDBRANCH  11  13
ENDBRANCH  10  11
ENDBRANCH   2   3
TORSDOF 3
ENDMDL
MODEL      201
REMARK 921   NORMALIZED FREE ENERGY PREDICTED BY IDOCK:   -2.52 KCAL/MOL
REMARK 922        TOTAL FREE ENERGY PREDICTED BY IDOCK:   -3.37 KCAL/MOL
REMARK 923 INTER-LIGAND FREE ENERGY PREDICTED BY IDOCK:   -2.99 KCAL/MOL
REMARK 924 INTRA-LIGAND FREE ENERGY PREDICTED BY IDOCK:   -0.38 KCAL/MOL
REMARK 927      BINDING AFFINITY PREDICTED BY RF-SCORE:    0.00 PKD
ROOT
HETATM    1  C   UNL     1     -10.810   6.966  67.303  1.00  0.00    -0.356 C  
HETATM    2  O   UNL     1      -9.928   7.679  66.432  1.00  0.00    -0.182 OA 
ENDROOT
BRANCH   2   3
HETATM    3  C   UNL     1      -8.940   8.332  67.148  1.00  0.00    -0.138 A  
HETATM    4  N   UNL     1      -8.627   7.796  68.350  1.00  0.00    -0.128 NA 
HETATM    5  C   UNL     1      -7.833   8.514  69.150  1.00  0.00    -0.100 A  
HETATM    6  N   UNL     1      -7.348   9.717  68.835  1.00  0.00    -0.072 NA 
HETATM    7  C   UNL     1      -7.612   7.995  70.535  1.00  0.00    -0.076 C  
HETATM    8  C   UNL     1      -7.659  10.167  67.600  1.00  0.00    -0.090 A  
HETATM    9 CL   UNL     1      -7.031  11.752  67.305  1.00  0.00    -0.127 Cl 
HETATM   10  C   UNL     1      -8.447   9.525  66.657  1.00  0.00    -0.133 A  
BRANCH  10  11
HETATM   11  N   UNL     1      -8.673  10.072  65.388  1.00  0.00    -0.150 NA 
HETATM   12  H   UNL     1      -7.923   9.886  64.723  1.00  0.00     0.000 HD 
BRANCH  11  13
HETATM   13  C   UNL     1      -9.689  10.798  64.871  1.00  0.00    -0.276 A  
HETATM   14  N   UNL     1     -10.458  11.536  65.628  1.00  0.00    -0.259 NA 
HETATM   15  C   UNL     1     -11.452  12.129  64.695  1.00  0.00    -0.328 A  
HETATM   16  H   UNL     1     -10.392  11.674  66.637  1.00  0.00     0.000 HD 
HETATM   17  C   UNL     1     -11.051  11.697  63.283  1.00  0.00    -0.246 A  
HETATM   18  N   UNL     1      -9.906  10.854  63.532  1.00  0.00    -0.327 NA 
ENDBRANCH  11  13
ENDBRANCH  10  11
ENDBRANCH   2   3
TORSDOF 3
ENDMDL
MODEL      202
REMARK 921   NORMALIZED FREE ENERGY PREDICTED BY IDOCK:   -2.51 KCAL/MOL
REMARK 922        TOTAL FREE ENERGY PREDICTED BY IDOCK:   -3.36 KCAL/MOL
REMARK 923 INTER-LIGAND FREE ENERGY PREDICTED BY IDOCK:   -3.12 KCAL/MOL
REMARK 924 INTRA-LIGAND FREE ENERGY PREDICTED BY IDOCK:   -0.23 KCAL/MOL
REMARK 927      BINDING AFFINITY PREDICTED BY RF-SCORE:    0.00 PKD
ROOT
HETATM    1  C   UNL     1      -5.185  17.026  66.389  1.00  0.00    -0.009 C  
HETATM    2  O   UNL     1      -6.595  16.798  66.438  1.00  0.00    -0.211 OA 
ENDROOT
BRANCH   2   3
HETATM    3  C   UNL     1      -6.928  15.953  67.482  1.00  0.00    -0.180 A  
HETATM    4  N   UNL     1      -6.251  16.143  68.636  1.00  0.00    -0.115 NA 
HETATM    5  C   UNL     1      -6.398  15.218  69.590  1.00  0.00    -0.154 A  
HETATM    6  N   UNL     1      -7.160  14.130  69.462  1.00  0.00    -0.057 NA 
HETATM    7  C   UNL     1      -5.533  15.346  70.803  1.00  0.00    -0.101 C  
HETATM    8  C   UNL     1      -7.847  14.031  68.303  1.00  0.00    -0.140 A  
HETATM    9 CL   UNL     1      -8.761  12.565  68.208  1.00  0.00    -0.185 Cl 
HETATM   10  C   UNL     1      -7.813  14.920  67.240  1.00  0.00    -0.206 A  
BRANCH  10  11
HETATM   11  N   UNL     1      -8.600  14.735  66.097  1.00  0.00    -0.329 NA 
HETATM   12  H   UNL     1      -8.320  13.932  65.532  1.00  0.00     0.000 HD 
BRANCH  11  13
HETATM   13  C   UNL     1      -9.657  15.409  65.594  1.00  0.00    -0.288 A  
HETATM   14  N   UNL     1     -10.621  14.797  64.957  1.00  0.00    -0.414 NA 
HETATM   15  C   UNL     1     -11.552  15.880  64.545  1.00  0.00    -0.232 A  
HETATM   16  H   UNL     1     -10.714  13.796  64.781  1.00  0.00     0.000 HD 
HETATM   17  C   UNL     1     -11.016  17.181  65.147  1.00  0.00     0.048 A  
HETATM   18  N   UNL     1      -9.805  16.743  65.798  1.00  0.00    -0.552 NA 
ENDBRANCH  11  13
ENDBRANCH  10  11
ENDBRANCH   2   3
TORSDOF 3
ENDMDL
MODEL      203
REMARK 921   NORMALIZED FREE ENERGY PREDICTED BY IDOCK:   -2.50 KCAL/MOL
REMARK 922        TOTAL FREE ENERGY PREDICTED BY IDOCK:   -3.35 KCAL/MOL
REMARK 923 INTER-LIGAND FREE ENERGY PREDICTED BY IDOCK:   -3.05 KCAL/MOL
REMARK 924 INTRA-LIGAND FREE ENERGY PREDICTED BY IDOCK:   -0.30 KCAL/MOL
REMARK 927      BINDING AFFINITY PREDICTED BY RF-SCORE:    0.00 PKD
ROOT
HETATM    1  C   UNL     1     -10.538   7.286  67.269  1.00  0.00    -0.325 C  
HETATM    2  O   UNL     1     -10.387   6.190  68.174  1.00  0.00    -0.157 OA 
ENDROOT
BRANCH   2   3
HETATM    3  C   UNL     1     -10.598   6.590  69.481  1.00  0.00    -0.246 A  
HETATM    4  N   UNL     1     -11.876   6.532  69.920  1.00  0.00    -0.304 NA 
HETATM    5  C   UNL     1     -12.144   7.102  71.098  1.00  0.00    -0.358 A  
HETATM    6  N   UNL     1     -11.233   7.724  71.850  1.00  0.00    -0.254 NA 
HETATM    7  C   UNL     1     -13.580   7.174  71.511  1.00  0.00    -0.408 C  
HETATM    8  C   UNL     1      -9.969   7.699  71.376  1.00  0.00    -0.181 A  
HETATM    9 CL   UNL     1      -8.873   8.574  72.389  1.00  0.00    -0.289 Cl 
HETATM   10  C   UNL     1      -9.539   7.127  70.188  1.00  0.00    -0.168 A  
BRANCH  10  11
HETATM   11  N   UNL     1      -8.190   7.129  69.813  1.00  0.00    -0.129 NA 
HETATM   12  H   UNL     1      -7.752   8.048  69.866  1.00  0.00     0.000 HD 
BRANCH  11  13
HETATM   13  C   UNL     1      -7.355   6.153  69.394  1.00  0.00    -0.091 A  
HETATM   14  N   UNL     1      -7.701   4.892  69.431  1.00  0.00    -0.066 NA 
HETATM   15  C   UNL     1      -6.511   4.158  68.927  1.00  0.00    -0.040 A  
HETATM   16  H   UNL     1      -8.591   4.499  69.738  1.00  0.00     0.000 HD 
HETATM   17  C   UNL     1      -5.487   5.210  68.497  1.00  0.00    -0.011 A  
HETATM   18  N   UNL     1      -6.149   6.444  68.842  1.00  0.00    -0.027 NA 
ENDBRANCH  11  13
ENDBRANCH  10  11
ENDBRANCH   2   3
TORSDOF 3
ENDMDL
MODEL      204
REMARK 921   NORMALIZED FREE ENERGY PREDICTED BY IDOCK:   -2.48 KCAL/MOL
REMARK 922        TOTAL FREE ENERGY PREDICTED BY IDOCK:   -3.33 KCAL/MOL
REMARK 923 INTER-LIGAND FREE ENERGY PREDICTED BY IDOCK:   -3.03 KCAL/MOL
REMARK 924 INTRA-LIGAND FREE ENERGY PREDICTED BY IDOCK:   -0.31 KCAL/MOL
REMARK 927      BINDING AFFINITY PREDICTED BY RF-SCORE:    0.00 PKD
ROOT
HETATM    1  C   UNL     1      -9.363   3.311  69.071  1.00  0.00    -0.163 C  
HETATM    2  O   UNL     1      -9.483   4.642  69.577  1.00  0.00    -0.133 OA 
ENDROOT
BRANCH   2   3
HETATM    3  C   UNL     1      -9.742   4.637  70.936  1.00  0.00    -0.192 A  
HETATM    4  N   UNL     1     -10.071   3.440  71.472  1.00  0.00    -0.081 NA 
HETATM    5  C   UNL     1     -10.525   3.438  72.729  1.00  0.00    -0.127 A  
HETATM    6  N   UNL     1     -10.678   4.539  73.469  1.00  0.00    -0.230 NA 
HETATM    7  C   UNL     1     -11.033   2.139  73.269  1.00  0.00    -0.279 C  
HETATM    8  C   UNL     1     -10.281   5.692  72.888  1.00  0.00    -0.186 A  
HETATM    9 CL   UNL     1     -10.567   7.065  73.901  1.00  0.00    -0.349 Cl 
HETATM   10  C   UNL     1      -9.771   5.844  71.608  1.00  0.00    -0.160 A  
BRANCH  10  11
HETATM   11  N   UNL     1      -9.355   7.090  71.122  1.00  0.00    -0.158 NA 
HETATM   12  H   UNL     1      -8.368   7.285  71.285  1.00  0.00     0.000 HD 
BRANCH  11  13
HETATM   13  C   UNL     1     -10.005   8.085  70.479  1.00  0.00    -0.190 A  
HETATM   14  N   UNL     1     -11.025   8.698  71.020  1.00  0.00    -0.248 NA 
HETATM   15  C   UNL     1     -11.465   9.680  69.993  1.00  0.00    -0.145 A  
HETATM   16  H   UNL     1     -11.430   8.539  71.942  1.00  0.00     0.000 HD 
HETATM   17  C   UNL     1     -10.463   9.597  68.839  1.00  0.00    -0.215 A  
HETATM   18  N   UNL     1      -9.577   8.545  69.275  1.00  0.00    -0.168 NA 
ENDBRANCH  11  13
ENDBRANCH  10  11
ENDBRANCH   2   3
TORSDOF 3
ENDMDL
MODEL      205
REMARK 921   NORMALIZED FREE ENERGY PREDICTED BY IDOCK:   -2.48 KCAL/MOL
REMARK 922        TOTAL FREE ENERGY PREDICTED BY IDOCK:   -3.33 KCAL/MOL
REMARK 923 INTER-LIGAND FREE ENERGY PREDICTED BY IDOCK:   -3.00 KCAL/MOL
REMARK 924 INTRA-LIGAND FREE ENERGY PREDICTED BY IDOCK:   -0.32 KCAL/MOL
REMARK 927      BINDING AFFINITY PREDICTED BY RF-SCORE:    0.00 PKD
ROOT
HETATM    1  C   UNL     1     -10.698   7.418  66.933  1.00  0.00    -0.254 C  
HETATM    2  O   UNL     1      -9.728   8.412  67.273  1.00  0.00    -0.160 OA 
ENDROOT
BRANCH   2   3
HETATM    3  C   UNL     1      -9.383   9.170  66.168  1.00  0.00    -0.228 A  
HETATM    4  N   UNL     1     -10.127  10.279  65.955  1.00  0.00    -0.256 NA 
HETATM    5  C   UNL     1      -9.956  10.914  64.791  1.00  0.00    -0.307 A  
HETATM    6  N   UNL     1      -9.110  10.514  63.840  1.00  0.00    -0.215 NA 
HETATM    7  C   UNL     1     -10.884  12.048  64.491  1.00  0.00    -0.363 C  
HETATM    8  C   UNL     1      -8.363   9.429  64.141  1.00  0.00    -0.168 A  
HETATM    9 CL   UNL     1      -7.340   8.956  62.830  1.00  0.00    -0.096 Cl 
HETATM   10  C   UNL     1      -8.413   8.686  65.311  1.00  0.00    -0.179 A  
BRANCH  10  11
HETATM   11  N   UNL     1      -7.561   7.597  65.531  1.00  0.00    -0.087 NA 
HETATM   12  H   UNL     1      -6.643   7.862  65.890  1.00  0.00     0.000 HD 
BRANCH  11  13
HETATM   13  C   UNL     1      -7.714   6.266  65.361  1.00  0.00    -0.097 A  
HETATM   14  N   UNL     1      -8.668   5.775  64.614  1.00  0.00    -0.353 NA 
HETATM   15  C   UNL     1      -8.512   4.300  64.720  1.00  0.00    -0.119 A  
HETATM   16  H   UNL     1      -9.365   6.291  64.076  1.00  0.00     0.000 HD 
HETATM   17  C   UNL     1      -7.255   4.044  65.553  1.00  0.00    -0.068 A  
HETATM   18  N   UNL     1      -6.835   5.380  65.898  1.00  0.00    -0.056 NA 
ENDBRANCH  11  13
ENDBRANCH  10  11
ENDBRANCH   2   3
TORSDOF 3
ENDMDL
MODEL      206
REMARK 921   NORMALIZED FREE ENERGY PREDICTED BY IDOCK:   -2.46 KCAL/MOL
REMARK 922        TOTAL FREE ENERGY PREDICTED BY IDOCK:   -3.30 KCAL/MOL
REMARK 923 INTER-LIGAND FREE ENERGY PREDICTED BY IDOCK:   -3.37 KCAL/MOL
REMARK 924 INTRA-LIGAND FREE ENERGY PREDICTED BY IDOCK:    0.07 KCAL/MOL
REMARK 927      BINDING AFFINITY PREDICTED BY RF-SCORE:    0.00 PKD
ROOT
HETATM    1  C   UNL     1     -12.649  11.139  69.561  1.00  0.00     0.068 C  
HETATM    2  O   UNL     1     -11.273  11.445  69.795  1.00  0.00    -0.251 OA 
ENDROOT
BRANCH   2   3
HETATM    3  C   UNL     1     -10.587  11.600  68.604  1.00  0.00    -0.209 A  
HETATM    4  N   UNL     1     -10.223  12.863  68.290  1.00  0.00    -0.241 NA 
HETATM    5  C   UNL     1      -9.747  13.074  67.059  1.00  0.00    -0.235 A  
HETATM    6  N   UNL     1      -9.621  12.119  66.134  1.00  0.00    -0.240 NA 
HETATM    7  C   UNL     1      -9.489  14.492  66.660  1.00  0.00    -0.301 C  
HETATM    8  C   UNL     1      -9.955  10.872  66.533  1.00  0.00    -0.211 A  
HETATM    9 CL   UNL     1      -9.811   9.716  65.255  1.00  0.00    -0.351 Cl 
HETATM   10  C   UNL     1     -10.438  10.501  67.779  1.00  0.00    -0.224 A  
BRANCH  10  11
HETATM   11  N   UNL     1     -10.717   9.166  68.095  1.00  0.00    -0.415 NA 
HETATM   12  H   UNL     1     -11.655   9.021  68.467  1.00  0.00     0.000 HD 
BRANCH  11  13
HETATM   13  C   UNL     1      -9.988   8.032  68.005  1.00  0.00    -0.179 A  
HETATM   14  N   UNL     1     -10.463   6.955  67.435  1.00  0.00    -0.233 NA 
HETATM   15  C   UNL     1      -9.381   5.944  67.575  1.00  0.00    -0.110 A  
HETATM   16  H   UNL     1     -11.374   6.835  66.993  1.00  0.00     0.000 HD 
HETATM   17  C   UNL     1      -8.185   6.655  68.211  1.00  0.00    -0.114 A  
HETATM   18  N   UNL     1      -8.699   7.985  68.432  1.00  0.00    -0.131 NA 
ENDBRANCH  11  13
ENDBRANCH  10  11
ENDBRANCH   2   3
TORSDOF 3
ENDMDL
MODEL      207
REMARK 921   NORMALIZED FREE ENERGY PREDICTED BY IDOCK:   -2.46 KCAL/MOL
REMARK 922        TOTAL FREE ENERGY PREDICTED BY IDOCK:   -3.30 KCAL/MOL
REMARK 923 INTER-LIGAND FREE ENERGY PREDICTED BY IDOCK:   -2.78 KCAL/MOL
REMARK 924 INTRA-LIGAND FREE ENERGY PREDICTED BY IDOCK:   -0.52 KCAL/MOL
REMARK 927      BINDING AFFINITY PREDICTED BY RF-SCORE:    0.00 PKD
ROOT
HETATM    1  C   UNL     1      -7.021   5.289  66.713  1.00  0.00    -0.065 C  
HETATM    2  O   UNL     1      -8.116   6.063  66.216  1.00  0.00    -0.107 OA 
ENDROOT
BRANCH   2   3
HETATM    3  C   UNL     1      -8.629   6.889  67.201  1.00  0.00    -0.121 A  
HETATM    4  N   UNL     1      -9.178   6.267  68.268  1.00  0.00    -0.113 NA 
HETATM    5  C   UNL     1      -9.863   7.025  69.130  1.00  0.00    -0.158 A  
HETATM    6  N   UNL     1     -10.038   8.341  68.992  1.00  0.00    -0.197 NA 
HETATM    7  C   UNL     1     -10.598   6.319  70.224  1.00  0.00    -0.305 C  
HETATM    8  C   UNL     1      -9.419   8.904  67.931  1.00  0.00    -0.142 A  
HETATM    9 CL   UNL     1      -9.747  10.597  67.805  1.00  0.00    -0.175 Cl 
HETATM   10  C   UNL     1      -8.659   8.251  66.971  1.00  0.00    -0.123 A  
BRANCH  10  11
HETATM   11  N   UNL     1      -8.030   8.945  65.931  1.00  0.00    -0.104 NA 
HETATM   12  H   UNL     1      -7.103   9.295  66.174  1.00  0.00     0.000 HD 
BRANCH  11  13
HETATM   13  C   UNL     1      -8.408   9.243  64.669  1.00  0.00    -0.161 A  
HETATM   14  N   UNL     1      -8.486   8.325  63.742  1.00  0.00    -0.397 NA 
HETATM   15  C   UNL     1      -8.895   9.059  62.514  1.00  0.00    -0.143 A  
HETATM   16  H   UNL     1      -8.306   7.325  63.838  1.00  0.00     0.000 HD 
HETATM   17  C   UNL     1      -9.142  10.512  62.926  1.00  0.00    -0.282 A  
HETATM   18  N   UNL     1      -8.801  10.498  64.328  1.00  0.00    -0.193 NA 
ENDBRANCH  11  13
ENDBRANCH  10  11
ENDBRANCH   2   3
TORSDOF 3
ENDMDL
MODEL      208
REMARK 921   NORMALIZED FREE ENERGY PREDICTED BY IDOCK:   -2.45 KCAL/MOL
REMARK 922        TOTAL FREE ENERGY PREDICTED BY IDOCK:   -3.29 KCAL/MOL
REMARK 923 INTER-LIGAND FREE ENERGY PREDICTED BY IDOCK:   -2.89 KCAL/MOL
REMARK 924 INTRA-LIGAND FREE ENERGY PREDICTED BY IDOCK:   -0.40 KCAL/MOL
REMARK 927      BINDING AFFINITY PREDICTED BY RF-SCORE:    0.00 PKD
ROOT
HETATM    1  C   UNL     1     -11.120  10.620  69.201  1.00  0.00    -0.255 C  
HETATM    2  O   UNL     1      -9.878   9.914  69.221  1.00  0.00    -0.184 OA 
ENDROOT
BRANCH   2   3
HETATM    3  C   UNL     1      -9.965   8.774  70.000  1.00  0.00    -0.187 A  
HETATM    4  N   UNL     1      -9.949   8.968  71.338  1.00  0.00    -0.304 NA 
HETATM    5  C   UNL     1      -9.824   7.885  72.111  1.00  0.00    -0.205 A  
HETATM    6  N   UNL     1      -9.706   6.642  71.639  1.00  0.00    -0.164 NA 
HETATM    7  C   UNL     1      -9.651   8.110  73.579  1.00  0.00    -0.061 C  
HETATM    8  C   UNL     1      -9.782   6.517  70.296  1.00  0.00    -0.168 A  
HETATM    9 CL   UNL     1      -9.566   4.881  69.779  1.00  0.00    -0.223 Cl 
HETATM   10  C   UNL     1      -9.935   7.542  69.375  1.00  0.00    -0.178 A  
BRANCH  10  11
HETATM   11  N   UNL     1     -10.039   7.291  68.001  1.00  0.00    -0.165 NA 
HETATM   12  H   UNL     1     -10.984   7.053  67.700  1.00  0.00     0.000 HD 
BRANCH  11  13
HETATM   13  C   UNL     1      -9.136   7.302  66.998  1.00  0.00    -0.135 A  
HETATM   14  N   UNL     1      -9.495   7.480  65.753  1.00  0.00    -0.390 NA 
HETATM   15  C   UNL     1      -8.231   7.388  64.976  1.00  0.00    -0.098 A  
HETATM   16  H   UNL     1     -10.436   7.645  65.394  1.00  0.00     0.000 HD 
HETATM   17  C   UNL     1      -7.094   7.243  65.990  1.00  0.00    -0.066 A  
HETATM   18  N   UNL     1      -7.804   7.206  67.246  1.00  0.00    -0.109 NA 
ENDBRANCH  11  13
ENDBRANCH  10  11
ENDBRANCH   2   3
TORSDOF 3
ENDMDL
MODEL      209
REMARK 921   NORMALIZED FREE ENERGY PREDICTED BY IDOCK:   -2.45 KCAL/MOL
REMARK 922        TOTAL FREE ENERGY PREDICTED BY IDOCK:   -3.29 KCAL/MOL
REMARK 923 INTER-LIGAND FREE ENERGY PREDICTED BY IDOCK:   -2.85 KCAL/MOL
REMARK 924 INTRA-LIGAND FREE ENERGY PREDICTED BY IDOCK:   -0.44 KCAL/MOL
REMARK 927      BINDING AFFINITY PREDICTED BY RF-SCORE:    0.00 PKD
ROOT
HETATM    1  C   UNL     1     -10.764   7.689  69.388  1.00  0.00    -0.184 C  
HETATM    2  O   UNL     1      -9.411   7.334  69.090  1.00  0.00    -0.149 OA 
ENDROOT
BRANCH   2   3
HETATM    3  C   UNL     1      -9.331   6.041  68.603  1.00  0.00    -0.117 A  
HETATM    4  N   UNL     1      -9.615   5.884  67.291  1.00  0.00    -0.112 NA 
HETATM    5  C   UNL     1      -9.748   4.633  66.841  1.00  0.00    -0.197 A  
HETATM    6  N   UNL     1      -9.627   3.547  67.608  1.00  0.00    -0.182 NA 
HETATM    7  C   UNL     1     -10.212   4.462  65.429  1.00  0.00    -0.247 C  
HETATM    8  C   UNL     1      -9.293   3.777  68.896  1.00  0.00    -0.166 A  
HETATM    9 CL   UNL     1      -9.212   2.318  69.821  1.00  0.00    -0.179 Cl 
HETATM   10  C   UNL     1      -9.098   5.013  69.495  1.00  0.00    -0.109 A  
BRANCH  10  11
HETATM   11  N   UNL     1      -8.715   5.130  70.837  1.00  0.00    -0.128 NA 
HETATM   12  H   UNL     1      -7.731   4.917  71.002  1.00  0.00     0.000 HD 
BRANCH  11  13
HETATM   13  C   UNL     1      -9.392   5.471  71.956  1.00  0.00    -0.147 A  
HETATM   14  N   UNL     1     -10.222   4.642  72.533  1.00  0.00    -0.180 NA 
HETATM   15  C   UNL     1     -10.773   5.401  73.687  1.00  0.00    -0.293 A  
HETATM   16  H   UNL     1     -10.444   3.687  72.253  1.00  0.00     0.000 HD 
HETATM   17  C   UNL     1     -10.038   6.742  73.731  1.00  0.00    -0.321 A  
HETATM   18  N   UNL     1      -9.178   6.660  72.575  1.00  0.00    -0.138 NA 
ENDBRANCH  11  13
ENDBRANCH  10  11
ENDBRANCH   2   3
TORSDOF 3
ENDMDL
MODEL      210
REMARK 921   NORMALIZED FREE ENERGY PREDICTED BY IDOCK:   -2.43 KCAL/MOL
REMARK 922        TOTAL FREE ENERGY PREDICTED BY IDOCK:   -3.27 KCAL/MOL
REMARK 923 INTER-LIGAND FREE ENERGY PREDICTED BY IDOCK:   -3.08 KCAL/MOL
REMARK 924 INTRA-LIGAND FREE ENERGY PREDICTED BY IDOCK:   -0.19 KCAL/MOL
REMARK 927      BINDING AFFINITY PREDICTED BY RF-SCORE:    0.00 PKD
ROOT
HETATM    1  C   UNL     1      -8.225   5.891  69.668  1.00  0.00    -0.110 C  
HETATM    2  O   UNL     1      -9.525   6.268  69.207  1.00  0.00    -0.135 OA 
ENDROOT
BRANCH   2   3
HETATM    3  C   UNL     1      -9.453   7.346  68.342  1.00  0.00    -0.143 A  
HETATM    4  N   UNL     1      -8.992   7.078  67.099  1.00  0.00    -0.119 NA 
HETATM    5  C   UNL     1      -8.717   8.122  66.312  1.00  0.00    -0.150 A  
HETATM    6  N   UNL     1      -8.862   9.395  66.684  1.00  0.00    -0.133 NA 
HETATM    7  C   UNL     1      -8.064   7.832  64.998  1.00  0.00    -0.139 C  
HETATM    8  C   UNL     1      -9.374   9.588  67.918  1.00  0.00    -0.132 A  
HETATM    9 CL   UNL     1      -9.474  11.265  68.330  1.00  0.00    -0.183 Cl 
HETATM   10  C   UNL     1      -9.728   8.608  68.832  1.00  0.00    -0.170 A  
BRANCH  10  11
HETATM   11  N   UNL     1     -10.289   8.925  70.076  1.00  0.00    -0.197 NA 
HETATM   12  H   UNL     1     -10.964   9.688  70.038  1.00  0.00     0.000 HD 
BRANCH  11  13
HETATM   13  C   UNL     1     -10.111   8.420  71.316  1.00  0.00    -0.202 A  
HETATM   14  N   UNL     1      -9.060   8.720  72.034  1.00  0.00    -0.360 NA 
HETATM   15  C   UNL     1      -9.226   7.944  73.292  1.00  0.00    -0.282 A  
HETATM   16  H   UNL     1      -8.295   9.348  71.786  1.00  0.00     0.000 HD 
HETATM   17  C   UNL     1     -10.588   7.251  73.211  1.00  0.00    -0.382 A  
HETATM   18  N   UNL     1     -11.055   7.639  71.902  1.00  0.00    -0.241 NA 
ENDBRANCH  11  13
ENDBRANCH  10  11
ENDBRANCH   2   3
TORSDOF 3
ENDMDL
MODEL      211
REMARK 921   NORMALIZED FREE ENERGY PREDICTED BY IDOCK:   -2.41 KCAL/MOL
REMARK 922        TOTAL FREE ENERGY PREDICTED BY IDOCK:   -3.24 KCAL/MOL
REMARK 923 INTER-LIGAND FREE ENERGY PREDICTED BY IDOCK:   -2.82 KCAL/MOL
REMARK 924 INTRA-LIGAND FREE ENERGY PREDICTED BY IDOCK:   -0.42 KCAL/MOL
REMARK 927      BINDING AFFINITY PREDICTED BY RF-SCORE:    0.00 PKD
ROOT
HETATM    1  C   UNL     1      -7.745   5.124  68.270  1.00  0.00    -0.083 C  
HETATM    2  O   UNL     1      -9.092   5.444  67.915  1.00  0.00    -0.109 OA 
ENDROOT
BRANCH   2   3
HETATM    3  C   UNL     1      -9.372   6.775  68.169  1.00  0.00    -0.122 A  
HETATM    4  N   UNL     1      -9.568   7.102  69.466  1.00  0.00    -0.154 NA 
HETATM    5  C   UNL     1     -10.040   8.325  69.723  1.00  0.00    -0.197 A  
HETATM    6  N   UNL     1     -10.333   9.224  68.781  1.00  0.00    -0.206 NA 
HETATM    7  C   UNL     1     -10.402   8.633  71.141  1.00  0.00    -0.294 C  
HETATM    8  C   UNL     1     -10.065   8.849  67.512  1.00  0.00    -0.227 A  
HETATM    9 CL   UNL     1     -10.526  10.056  66.362  1.00  0.00    -0.241 Cl 
HETATM   10  C   UNL     1      -9.553   7.629  67.098  1.00  0.00    -0.162 A  
BRANCH  10  11
HETATM   11  N   UNL     1      -9.278   7.362  65.751  1.00  0.00    -0.390 NA 
HETATM   12  H   UNL     1     -10.066   6.957  65.245  1.00  0.00     0.000 HD 
BRANCH  11  13
HETATM   13  C   UNL     1      -8.175   7.534  64.990  1.00  0.00    -0.103 A  
HETATM   14  N   UNL     1      -8.196   7.337  63.698  1.00  0.00    -0.349 NA 
HETATM   15  C   UNL     1      -6.801   7.593  63.252  1.00  0.00    -0.067 A  
HETATM   16  H   UNL     1      -8.994   7.067  63.122  1.00  0.00     0.000 HD 
HETATM   17  C   UNL     1      -6.023   8.073  64.479  1.00  0.00    -0.052 A  
HETATM   18  N   UNL     1      -7.015   7.996  65.524  1.00  0.00    -0.059 NA 
ENDBRANCH  11  13
ENDBRANCH  10  11
ENDBRANCH   2   3
TORSDOF 3
ENDMDL
MODEL      212
REMARK 921   NORMALIZED FREE ENERGY PREDICTED BY IDOCK:   -2.37 KCAL/MOL
REMARK 922        TOTAL FREE ENERGY PREDICTED BY IDOCK:   -3.20 KCAL/MOL
REMARK 923 INTER-LIGAND FREE ENERGY PREDICTED BY IDOCK:   -2.78 KCAL/MOL
REMARK 924 INTRA-LIGAND FREE ENERGY PREDICTED BY IDOCK:   -0.43 KCAL/MOL
REMARK 927      BINDING AFFINITY PREDICTED BY RF-SCORE:    0.00 PKD
ROOT
HETATM    1  C   UNL     1      -9.306   2.535  70.420  1.00  0.00    -0.134 C  
HETATM    2  O   UNL     1      -9.302   3.177  69.143  1.00  0.00    -0.151 OA 
ENDROOT
BRANCH   2   3
HETATM    3  C   UNL     1      -9.768   4.477  69.237  1.00  0.00    -0.190 A  
HETATM    4  N   UNL     1     -10.308   4.827  70.426  1.00  0.00    -0.185 NA 
HETATM    5  C   UNL     1     -10.950   5.998  70.483  1.00  0.00    -0.319 A  
HETATM    6  N   UNL     1     -11.090   6.823  69.444  1.00  0.00    -0.270 NA 
HETATM    7  C   UNL     1     -11.678   6.316  71.750  1.00  0.00    -0.355 C  
HETATM    8  C   UNL     1     -10.481   6.434  68.303  1.00  0.00    -0.223 A  
HETATM    9 CL   UNL     1     -10.764   7.538  67.001  1.00  0.00    -0.422 Cl 
HETATM   10  C   UNL     1      -9.764   5.264  68.102  1.00  0.00    -0.142 A  
BRANCH  10  11
HETATM   11  N   UNL     1      -9.140   4.980  66.881  1.00  0.00    -0.116 NA 
HETATM   12  H   UNL     1      -9.788   4.688  66.149  1.00  0.00     0.000 HD 
BRANCH  11  13
HETATM   13  C   UNL     1      -7.851   5.017  66.481  1.00  0.00    -0.100 A  
HETATM   14  N   UNL     1      -6.889   4.535  67.224  1.00  0.00    -0.054 NA 
HETATM   15  C   UNL     1      -5.645   4.800  66.453  1.00  0.00    -0.017 A  
HETATM   16  H   UNL     1      -6.973   4.078  68.133  1.00  0.00     0.000 HD 
HETATM   17  C   UNL     1      -6.071   5.404  65.114  1.00  0.00    -0.026 A  
HETATM   18  N   UNL     1      -7.505   5.485  65.254  1.00  0.00    -0.072 NA 
ENDBRANCH  11  13
ENDBRANCH  10  11
ENDBRANCH   2   3
TORSDOF 3
ENDMDL
MODEL      213
REMARK 921   NORMALIZED FREE ENERGY PREDICTED BY IDOCK:   -2.37 KCAL/MOL
REMARK 922        TOTAL FREE ENERGY PREDICTED BY IDOCK:   -3.20 KCAL/MOL
REMARK 923 INTER-LIGAND FREE ENERGY PREDICTED BY IDOCK:   -2.83 KCAL/MOL
REMARK 924 INTRA-LIGAND FREE ENERGY PREDICTED BY IDOCK:   -0.37 KCAL/MOL
REMARK 927      BINDING AFFINITY PREDICTED BY RF-SCORE:    0.00 PKD
ROOT
HETATM    1  C   UNL     1     -10.559   5.463  67.486  1.00  0.00    -0.129 C  
HETATM    2  O   UNL     1     -10.647   6.833  67.882  1.00  0.00    -0.196 OA 
ENDROOT
BRANCH   2   3
HETATM    3  C   UNL     1     -10.688   6.952  69.260  1.00  0.00    -0.238 A  
HETATM    4  N   UNL     1     -11.864   6.634  69.847  1.00  0.00    -0.284 NA 
HETATM    5  C   UNL     1     -12.001   6.933  71.142  1.00  0.00    -0.366 A  
HETATM    6  N   UNL     1     -11.056   7.528  71.874  1.00  0.00    -0.234 NA 
HETATM    7  C   UNL     1     -13.350   6.724  71.752  1.00  0.00    -0.185 C  
HETATM    8  C   UNL     1      -9.890   7.770  71.237  1.00  0.00    -0.171 A  
HETATM    9 CL   UNL     1      -8.750   8.588  72.248  1.00  0.00    -0.276 Cl 
HETATM   10  C   UNL     1      -9.596   7.493  69.910  1.00  0.00    -0.160 A  
BRANCH  10  11
HETATM   11  N   UNL     1      -8.334   7.754  69.364  1.00  0.00    -0.131 NA 
HETATM   12  H   UNL     1      -7.599   7.143  69.720  1.00  0.00     0.000 HD 
BRANCH  11  13
HETATM   13  C   UNL     1      -7.897   8.655  68.457  1.00  0.00    -0.108 A  
HETATM   14  N   UNL     1      -8.653   9.643  68.054  1.00  0.00    -0.119 NA 
HETATM   15  C   UNL     1      -7.828  10.367  67.051  1.00  0.00    -0.112 A  
HETATM   16  H   UNL     1      -9.600   9.867  68.359  1.00  0.00     0.000 HD 
HETATM   17  C   UNL     1      -6.452   9.697  67.039  1.00  0.00    -0.066 A  
HETATM   18  N   UNL     1      -6.624   8.622  67.985  1.00  0.00    -0.057 NA 
ENDBRANCH  11  13
ENDBRANCH  10  11
ENDBRANCH   2   3
TORSDOF 3
ENDMDL
MODEL      214
REMARK 921   NORMALIZED FREE ENERGY PREDICTED BY IDOCK:   -2.37 KCAL/MOL
REMARK 922        TOTAL FREE ENERGY PREDICTED BY IDOCK:   -3.20 KCAL/MOL
REMARK 923 INTER-LIGAND FREE ENERGY PREDICTED BY IDOCK:   -2.90 KCAL/MOL
REMARK 924 INTRA-LIGAND FREE ENERGY PREDICTED BY IDOCK:   -0.30 KCAL/MOL
REMARK 927      BINDING AFFINITY PREDICTED BY RF-SCORE:    0.00 PKD
ROOT
HETATM    1  C   UNL     1     -11.203  10.901  67.707  1.00  0.00    -0.317 C  
HETATM    2  O   UNL     1     -10.647   9.742  68.331  1.00  0.00    -0.208 OA 
ENDROOT
BRANCH   2   3
HETATM    3  C   UNL     1      -9.273   9.703  68.176  1.00  0.00    -0.125 A  
HETATM    4  N   UNL     1      -8.671  10.888  67.931  1.00  0.00    -0.128 NA 
HETATM    5  C   UNL     1      -7.383  10.856  67.573  1.00  0.00    -0.096 A  
HETATM    6  N   UNL     1      -6.674   9.733  67.439  1.00  0.00    -0.073 NA 
HETATM    7  C   UNL     1      -6.760  12.149  67.154  1.00  0.00    -0.123 C  
HETATM    8  C   UNL     1      -7.324   8.591  67.749  1.00  0.00    -0.093 A  
HETATM    9 CL   UNL     1      -6.343   7.190  67.493  1.00  0.00    -0.045 Cl 
HETATM   10  C   UNL     1      -8.645   8.472  68.156  1.00  0.00    -0.138 A  
BRANCH  10  11
HETATM   11  N   UNL     1      -9.206   7.233  68.490  1.00  0.00    -0.139 NA 
HETATM   12  H   UNL     1      -8.873   6.464  67.909  1.00  0.00     0.000 HD 
BRANCH  11  13
HETATM   13  C   UNL     1     -10.102   6.857  69.428  1.00  0.00    -0.167 A  
HETATM   14  N   UNL     1     -11.372   7.146  69.318  1.00  0.00    -0.486 NA 
HETATM   15  C   UNL     1     -11.995   6.595  70.551  1.00  0.00    -0.316 A  
HETATM   16  H   UNL     1     -11.835   7.641  68.554  1.00  0.00     0.000 HD 
HETATM   17  C   UNL     1     -10.894   5.856  71.314  1.00  0.00    -0.270 A  
HETATM   18  N   UNL     1      -9.734   6.093  70.489  1.00  0.00    -0.171 NA 
ENDBRANCH  11  13
ENDBRANCH  10  11
ENDBRANCH   2   3
TORSDOF 3
ENDMDL
MODEL      215
REMARK 921   NORMALIZED FREE ENERGY PREDICTED BY IDOCK:   -2.37 KCAL/MOL
REMARK 922        TOTAL FREE ENERGY PREDICTED BY IDOCK:   -3.20 KCAL/MOL
REMARK 923 INTER-LIGAND FREE ENERGY PREDICTED BY IDOCK:   -2.83 KCAL/MOL
REMARK 924 INTRA-LIGAND FREE ENERGY PREDICTED BY IDOCK:   -0.37 KCAL/MOL
REMARK 927      BINDING AFFINITY PREDICTED BY RF-SCORE:    0.00 PKD
ROOT
HETATM    1  C   UNL     1     -10.242   4.550  65.718  1.00  0.00    -0.265 C  
HETATM    2  O   UNL     1     -10.129   5.698  66.562  1.00  0.00    -0.167 OA 
ENDROOT
BRANCH   2   3
HETATM    3  C   UNL     1      -8.991   6.426  66.263  1.00  0.00    -0.156 A  
HETATM    4  N   UNL     1      -7.919   5.709  65.859  1.00  0.00    -0.104 NA 
HETATM    5  C   UNL     1      -6.753   6.355  65.763  1.00  0.00    -0.048 A  
HETATM    6  N   UNL     1      -6.591   7.649  66.049  1.00  0.00    -0.045 NA 
HETATM    7  C   UNL     1      -5.539   5.533  65.465  1.00  0.00    -0.013 C  
HETATM    8  C   UNL     1      -7.714   8.314  66.397  1.00  0.00    -0.091 A  
HETATM    9 CL   UNL     1      -7.396   9.966  66.801  1.00  0.00    -0.094 Cl 
HETATM   10  C   UNL     1      -8.990   7.784  66.515  1.00  0.00    -0.161 A  
BRANCH  10  11
HETATM   11  N   UNL     1     -10.093   8.581  66.848  1.00  0.00    -0.267 NA 
HETATM   12  H   UNL     1     -10.650   8.866  66.042  1.00  0.00     0.000 HD 
BRANCH  11  13
HETATM   13  C   UNL     1     -10.564   9.046  68.025  1.00  0.00    -0.186 A  
HETATM   14  N   UNL     1     -11.423  10.030  68.079  1.00  0.00    -0.610 NA 
HETATM   15  C   UNL     1     -11.652  10.255  69.531  1.00  0.00    -0.168 A  
HETATM   16  H   UNL     1     -11.844  10.532  67.297  1.00  0.00     0.000 HD 
HETATM   17  C   UNL     1     -10.872   9.170  70.278  1.00  0.00    -0.246 A  
HETATM   18  N   UNL     1     -10.225   8.460  69.202  1.00  0.00    -0.207 NA 
ENDBRANCH  11  13
ENDBRANCH  10  11
ENDBRANCH   2   3
TORSDOF 3
ENDMDL
MODEL      216
REMARK 921   NORMALIZED FREE ENERGY PREDICTED BY IDOCK:   -2.37 KCAL/MOL
REMARK 922        TOTAL FREE ENERGY PREDICTED BY IDOCK:   -3.19 KCAL/MOL
REMARK 923 INTER-LIGAND FREE ENERGY PREDICTED BY IDOCK:   -2.94 KCAL/MOL
REMARK 924 INTRA-LIGAND FREE ENERGY PREDICTED BY IDOCK:   -0.25 KCAL/MOL
REMARK 927      BINDING AFFINITY PREDICTED BY RF-SCORE:    0.00 PKD
ROOT
HETATM    1  C   UNL     1     -10.448  11.212  64.781  1.00  0.00    -0.323 C  
HETATM    2  O   UNL     1     -10.541  11.079  66.202  1.00  0.00    -0.257 OA 
ENDROOT
BRANCH   2   3
HETATM    3  C   UNL     1     -10.105  12.227  66.839  1.00  0.00    -0.211 A  
HETATM    4  N   UNL     1     -11.070  13.082  67.245  1.00  0.00    -0.265 NA 
HETATM    5  C   UNL     1     -10.679  14.286  67.674  1.00  0.00    -0.258 A  
HETATM    6  N   UNL     1      -9.406  14.686  67.714  1.00  0.00    -0.194 NA 
HETATM    7  C   UNL     1     -11.751  15.284  67.976  1.00  0.00    -0.268 C  
HETATM    8  C   UNL     1      -8.492  13.763  67.343  1.00  0.00    -0.202 A  
HETATM    9 CL   UNL     1      -6.880  14.390  67.377  1.00  0.00    -0.155 Cl 
HETATM   10  C   UNL     1      -8.747  12.473  66.902  1.00  0.00    -0.182 A  
BRANCH  10  11
HETATM   11  N   UNL     1      -7.713  11.586  66.578  1.00  0.00    -0.316 NA 
HETATM   12  H   UNL     1      -7.381  11.678  65.617  1.00  0.00     0.000 HD 
BRANCH  11  13
HETATM   13  C   UNL     1      -7.070  10.632  67.285  1.00  0.00    -0.089 A  
HETATM   14  N   UNL     1      -7.161  10.567  68.588  1.00  0.00    -0.073 NA 
HETATM   15  C   UNL     1      -6.293   9.422  68.972  1.00  0.00    -0.042 A  
HETATM   16  H   UNL     1      -7.707  11.169  69.205  1.00  0.00     0.000 HD 
HETATM   17  C   UNL     1      -5.791   8.788  67.673  1.00  0.00    -0.040 A  
HETATM   18  N   UNL     1      -6.363   9.651  66.668  1.00  0.00    -0.065 NA 
ENDBRANCH  11  13
ENDBRANCH  10  11
ENDBRANCH   2   3
TORSDOF 3
ENDMDL
MODEL      217
REMARK 921   NORMALIZED FREE ENERGY PREDICTED BY IDOCK:   -2.32 KCAL/MOL
REMARK 922        TOTAL FREE ENERGY PREDICTED BY IDOCK:   -3.14 KCAL/MOL
REMARK 923 INTER-LIGAND FREE ENERGY PREDICTED BY IDOCK:   -2.69 KCAL/MOL
REMARK 924 INTRA-LIGAND FREE ENERGY PREDICTED BY IDOCK:   -0.45 KCAL/MOL
REMARK 927      BINDING AFFINITY PREDICTED BY RF-SCORE:    0.00 PKD
ROOT
HETATM    1  C   UNL     1      -6.455   5.516  71.966  1.00  0.00    -0.052 C  
HETATM    2  O   UNL     1      -7.207   6.682  72.312  1.00  0.00    -0.082 OA 
ENDROOT
BRANCH   2   3
HETATM    3  C   UNL     1      -8.556   6.393  72.413  1.00  0.00    -0.120 A  
HETATM    4  N   UNL     1      -8.901   5.506  73.373  1.00  0.00    -0.117 NA 
HETATM    5  C   UNL     1     -10.158   5.052  73.361  1.00  0.00    -0.165 A  
HETATM    6  N   UNL     1     -11.074   5.415  72.461  1.00  0.00    -0.256 NA 
HETATM    7  C   UNL     1     -10.498   3.959  74.324  1.00  0.00    -0.274 C  
HETATM    8  C   UNL     1     -10.675   6.343  71.564  1.00  0.00    -0.238 A  
HETATM    9 CL   UNL     1     -11.910   6.708  70.409  1.00  0.00    -0.449 Cl 
HETATM   10  C   UNL     1      -9.418   6.919  71.470  1.00  0.00    -0.155 A  
BRANCH  10  11
HETATM   11  N   UNL     1      -9.126   7.903  70.517  1.00  0.00    -0.153 NA 
HETATM   12  H   UNL     1      -9.181   8.855  70.881  1.00  0.00     0.000 HD 
BRANCH  11  13
HETATM   13  C   UNL     1      -8.786   7.841  69.211  1.00  0.00    -0.139 A  
HETATM   14  N   UNL     1      -7.981   6.918  68.756  1.00  0.00    -0.118 NA 
HETATM   15  C   UNL     1      -7.839   7.219  67.306  1.00  0.00    -0.111 A  
HETATM   16  H   UNL     1      -7.545   6.158  69.279  1.00  0.00     0.000 HD 
HETATM   17  C   UNL     1      -8.779   8.387  67.000  1.00  0.00    -0.126 A  
HETATM   18  N   UNL     1      -9.329   8.689  68.300  1.00  0.00    -0.137 NA 
ENDBRANCH  11  13
ENDBRANCH  10  11
ENDBRANCH   2   3
TORSDOF 3
ENDMDL
MODEL      218
REMARK 921   NORMALIZED FREE ENERGY PREDICTED BY IDOCK:   -2.29 KCAL/MOL
REMARK 922        TOTAL FREE ENERGY PREDICTED BY IDOCK:   -3.11 KCAL/MOL
REMARK 923 INTER-LIGAND FREE ENERGY PREDICTED BY IDOCK:   -2.70 KCAL/MOL
REMARK 924 INTRA-LIGAND FREE ENERGY PREDICTED BY IDOCK:   -0.41 KCAL/MOL
REMARK 927      BINDING AFFINITY PREDICTED BY RF-SCORE:    0.00 PKD
ROOT
HETATM    1  C   UNL     1      -8.831   8.191  71.035  1.00  0.00    -0.143 C  
HETATM    2  O   UNL     1      -8.043   7.826  69.900  1.00  0.00    -0.115 OA 
ENDROOT
BRANCH   2   3
HETATM    3  C   UNL     1      -8.585   6.734  69.246  1.00  0.00    -0.129 A  
HETATM    4  N   UNL     1      -9.004   5.719  70.036  1.00  0.00    -0.137 NA 
HETATM    5  C   UNL     1      -9.338   4.574  69.433  1.00  0.00    -0.149 A  
HETATM    6  N   UNL     1      -9.273   4.379  68.114  1.00  0.00    -0.128 NA 
HETATM    7  C   UNL     1      -9.652   3.406  70.312  1.00  0.00    -0.215 C  
HETATM    8  C   UNL     1      -8.896   5.451  67.383  1.00  0.00    -0.105 A  
HETATM    9 CL   UNL     1      -8.790   5.086  65.695  1.00  0.00    -0.138 Cl 
HETATM   10  C   UNL     1      -8.545   6.703  67.865  1.00  0.00    -0.118 A  
BRANCH  10  11
HETATM   11  N   UNL     1      -8.205   7.756  67.008  1.00  0.00    -0.116 NA 
HETATM   12  H   UNL     1      -7.266   7.679  66.617  1.00  0.00     0.000 HD 
BRANCH  11  13
HETATM   13  C   UNL     1      -8.875   8.854  66.596  1.00  0.00    -0.129 A  
HETATM   14  N   UNL     1      -9.350   8.953  65.382  1.00  0.00    -0.433 NA 
HETATM   15  C   UNL     1      -9.973  10.302  65.327  1.00  0.00    -0.317 A  
HETATM   16  H   UNL     1      -9.303   8.258  64.637  1.00  0.00     0.000 HD 
HETATM   17  C   UNL     1      -9.871  10.898  66.732  1.00  0.00    -0.195 A  
HETATM   18  N   UNL     1      -9.155   9.872  67.451  1.00  0.00    -0.134 NA 
ENDBRANCH  11  13
ENDBRANCH  10  11
ENDBRANCH   2   3
TORSDOF 3
ENDMDL
MODEL      219
REMARK 921   NORMALIZED FREE ENERGY PREDICTED BY IDOCK:   -2.27 KCAL/MOL
REMARK 922        TOTAL FREE ENERGY PREDICTED BY IDOCK:   -3.09 KCAL/MOL
REMARK 923 INTER-LIGAND FREE ENERGY PREDICTED BY IDOCK:   -3.48 KCAL/MOL
REMARK 924 INTRA-LIGAND FREE ENERGY PREDICTED BY IDOCK:    0.40 KCAL/MOL
REMARK 927      BINDING AFFINITY PREDICTED BY RF-SCORE:    0.00 PKD
ROOT
HETATM    1  C   UNL     1     -10.796   5.382  66.433  1.00  0.00    -0.131 C  
HETATM    2  O   UNL     1     -10.876   6.698  66.986  1.00  0.00    -0.337 OA 
ENDROOT
BRANCH   2   3
HETATM    3  C   UNL     1      -9.881   7.514  66.476  1.00  0.00    -0.156 A  
HETATM    4  N   UNL     1      -8.806   6.881  65.955  1.00  0.00    -0.139 NA 
HETATM    5  C   UNL     1      -7.745   7.634  65.646  1.00  0.00    -0.099 A  
HETATM    6  N   UNL     1      -7.689   8.954  65.829  1.00  0.00    -0.093 NA 
HETATM    7  C   UNL     1      -6.504   6.919  65.215  1.00  0.00    -0.043 C  
HETATM    8  C   UNL     1      -8.816   9.527  66.305  1.00  0.00    -0.149 A  
HETATM    9 CL   UNL     1      -8.629  11.227  66.560  1.00  0.00    -0.166 Cl 
HETATM   10  C   UNL     1      -9.995   8.880  66.645  1.00  0.00    -0.276 A  
BRANCH  10  11
HETATM   11  N   UNL     1     -11.119   9.583  67.096  1.00  0.00    -0.218 NA 
HETATM   12  H   UNL     1     -11.993   9.067  66.993  1.00  0.00     0.000 HD 
BRANCH  11  13
HETATM   13  C   UNL     1     -11.275  10.810  67.639  1.00  0.00    -0.299 A  
HETATM   14  N   UNL     1     -10.902  11.069  68.865  1.00  0.00    -0.202 NA 
HETATM   15  C   UNL     1     -11.273  12.492  69.082  1.00  0.00    -0.239 A  
HETATM   16  H   UNL     1     -10.455  10.435  69.527  1.00  0.00     0.000 HD 
HETATM   17  C   UNL     1     -11.810  13.021  67.750  1.00  0.00    -0.347 A  
HETATM   18  N   UNL     1     -11.753  11.850  66.908  1.00  0.00    -0.589 NA 
ENDBRANCH  11  13
ENDBRANCH  10  11
ENDBRANCH   2   3
TORSDOF 3
ENDMDL
MODEL      220
REMARK 921   NORMALIZED FREE ENERGY PREDICTED BY IDOCK:   -2.25 KCAL/MOL
REMARK 922        TOTAL FREE ENERGY PREDICTED BY IDOCK:   -3.06 KCAL/MOL
REMARK 923 INTER-LIGAND FREE ENERGY PREDICTED BY IDOCK:   -2.71 KCAL/MOL
REMARK 924 INTRA-LIGAND FREE ENERGY PREDICTED BY IDOCK:   -0.35 KCAL/MOL
REMARK 927      BINDING AFFINITY PREDICTED BY RF-SCORE:    0.00 PKD
ROOT
HETATM    1  C   UNL     1     -10.666   7.468  66.962  1.00  0.00    -0.297 C  
HETATM    2  O   UNL     1     -10.639   8.271  68.144  1.00  0.00    -0.191 OA 
ENDROOT
BRANCH   2   3
HETATM    3  C   UNL     1      -9.585   9.168  68.114  1.00  0.00    -0.144 A  
HETATM    4  N   UNL     1      -9.149   9.527  66.886  1.00  0.00    -0.133 NA 
HETATM    5  C   UNL     1      -8.010  10.224  66.822  1.00  0.00    -0.114 A  
HETATM    6  N   UNL     1      -7.287  10.570  67.889  1.00  0.00    -0.088 NA 
HETATM    7  C   UNL     1      -7.448  10.488  65.461  1.00  0.00    -0.111 C  
HETATM    8  C   UNL     1      -7.808  10.222  69.085  1.00  0.00    -0.127 A  
HETATM    9 CL   UNL     1      -6.776  10.664  70.401  1.00  0.00    -0.105 Cl 
HETATM   10  C   UNL     1      -8.986   9.524  69.306  1.00  0.00    -0.160 A  
BRANCH  10  11
HETATM   11  N   UNL     1      -9.450   9.250  70.598  1.00  0.00    -0.256 NA 
HETATM   12  H   UNL     1     -10.244   9.827  70.879  1.00  0.00     0.000 HD 
BRANCH  11  13
HETATM   13  C   UNL     1      -9.055   8.374  71.547  1.00  0.00    -0.195 A  
HETATM   14  N   UNL     1      -8.896   7.103  71.283  1.00  0.00    -0.129 NA 
HETATM   15  C   UNL     1      -8.497   6.494  72.579  1.00  0.00    -0.121 A  
HETATM   16  H   UNL     1      -9.019   6.634  70.386  1.00  0.00     0.000 HD 
HETATM   17  C   UNL     1      -8.349   7.638  73.583  1.00  0.00    -0.183 A  
HETATM   18  N   UNL     1      -8.727   8.788  72.798  1.00  0.00    -0.351 NA 
ENDBRANCH  11  13
ENDBRANCH  10  11
ENDBRANCH   2   3
TORSDOF 3
ENDMDL
MODEL      221
REMARK 921   NORMALIZED FREE ENERGY PREDICTED BY IDOCK:   -2.24 KCAL/MOL
REMARK 922        TOTAL FREE ENERGY PREDICTED BY IDOCK:   -3.05 KCAL/MOL
REMARK 923 INTER-LIGAND FREE ENERGY PREDICTED BY IDOCK:   -2.61 KCAL/MOL
REMARK 924 INTRA-LIGAND FREE ENERGY PREDICTED BY IDOCK:   -0.44 KCAL/MOL
REMARK 927      BINDING AFFINITY PREDICTED BY RF-SCORE:    0.00 PKD
ROOT
HETATM    1  C   UNL     1      -5.737   3.725  65.903  1.00  0.00    -0.018 C  
HETATM    2  O   UNL     1      -6.871   3.630  66.769  1.00  0.00    -0.051 OA 
ENDROOT
BRANCH   2   3
HETATM    3  C   UNL     1      -7.527   4.845  66.866  1.00  0.00    -0.087 A  
HETATM    4  N   UNL     1      -6.793   5.879  67.333  1.00  0.00    -0.062 NA 
HETATM    5  C   UNL     1      -7.446   7.006  67.632  1.00  0.00    -0.098 A  
HETATM    6  N   UNL     1      -8.766   7.159  67.504  1.00  0.00    -0.121 NA 
HETATM    7  C   UNL     1      -6.662   8.095  68.292  1.00  0.00    -0.064 C  
HETATM    8  C   UNL     1      -9.429   6.104  66.983  1.00  0.00    -0.129 A  
HETATM    9 CL   UNL     1     -11.135   6.376  66.907  1.00  0.00    -0.433 Cl 
HETATM   10  C   UNL     1      -8.883   4.886  66.606  1.00  0.00    -0.110 A  
BRANCH  10  11
HETATM   11  N   UNL     1      -9.664   3.871  66.040  1.00  0.00    -0.302 NA 
HETATM   12  H   UNL     1     -10.182   3.321  66.726  1.00  0.00     0.000 HD 
BRANCH  11  13
HETATM   13  C   UNL     1      -9.867   3.475  64.764  1.00  0.00    -0.152 A  
HETATM   14  N   UNL     1     -11.062   3.456  64.234  1.00  0.00    -0.612 NA 
HETATM   15  C   UNL     1     -10.857   2.935  62.856  1.00  0.00    -0.188 A  
HETATM   16  H   UNL     1     -11.941   3.735  64.669  1.00  0.00     0.000 HD 
HETATM   17  C   UNL     1      -9.348   2.773  62.661  1.00  0.00    -0.093 A  
HETATM   18  N   UNL     1      -8.827   3.156  63.951  1.00  0.00    -0.092 NA 
ENDBRANCH  11  13
ENDBRANCH  10  11
ENDBRANCH   2   3
TORSDOF 3
ENDMDL
MODEL      222
REMARK 921   NORMALIZED FREE ENERGY PREDICTED BY IDOCK:   -2.23 KCAL/MOL
REMARK 922        TOTAL FREE ENERGY PREDICTED BY IDOCK:   -3.03 KCAL/MOL
REMARK 923 INTER-LIGAND FREE ENERGY PREDICTED BY IDOCK:   -2.77 KCAL/MOL
REMARK 924 INTRA-LIGAND FREE ENERGY PREDICTED BY IDOCK:   -0.26 KCAL/MOL
REMARK 927      BINDING AFFINITY PREDICTED BY RF-SCORE:    0.00 PKD
ROOT
HETATM    1  C   UNL     1     -10.438   8.664  72.268  1.00  0.00    -0.306 C  
HETATM    2  O   UNL     1      -9.516   8.356  71.220  1.00  0.00    -0.160 OA 
ENDROOT
BRANCH   2   3
HETATM    3  C   UNL     1      -9.357   9.431  70.364  1.00  0.00    -0.268 A  
HETATM    4  N   UNL     1     -10.490   9.924  69.816  1.00  0.00    -0.242 NA 
HETATM    5  C   UNL     1     -10.354  10.820  68.833  1.00  0.00    -0.202 A  
HETATM    6  N   UNL     1      -9.176  11.240  68.366  1.00  0.00    -0.173 NA 
HETATM    7  C   UNL     1     -11.598  11.249  68.124  1.00  0.00    -0.359 C  
HETATM    8  C   UNL     1      -8.088  10.745  68.994  1.00  0.00    -0.140 A  
HETATM    9 CL   UNL     1      -6.613  11.304  68.284  1.00  0.00    -0.057 Cl 
HETATM   10  C   UNL     1      -8.076   9.833  70.038  1.00  0.00    -0.189 A  
BRANCH  10  11
HETATM   11  N   UNL     1      -6.883   9.415  70.641  1.00  0.00    -0.093 NA 
HETATM   12  H   UNL     1      -6.045   9.743  70.159  1.00  0.00     0.000 HD 
BRANCH  11  13
HETATM   13  C   UNL     1      -6.622   8.665  71.733  1.00  0.00    -0.075 A  
HETATM   14  N   UNL     1      -6.736   7.362  71.713  1.00  0.00    -0.053 NA 
HETATM   15  C   UNL     1      -6.401   6.931  73.096  1.00  0.00    -0.062 A  
HETATM   16  H   UNL     1      -6.997   6.772  70.922  1.00  0.00     0.000 HD 
HETATM   17  C   UNL     1      -5.974   8.184  73.863  1.00  0.00    -0.093 A  
HETATM   18  N   UNL     1      -6.154   9.224  72.879  1.00  0.00    -0.304 NA 
ENDBRANCH  11  13
ENDBRANCH  10  11
ENDBRANCH   2   3
TORSDOF 3
ENDMDL
MODEL      223
REMARK 921   NORMALIZED FREE ENERGY PREDICTED BY IDOCK:   -2.21 KCAL/MOL
REMARK 922        TOTAL FREE ENERGY PREDICTED BY IDOCK:   -3.01 KCAL/MOL
REMARK 923 INTER-LIGAND FREE ENERGY PREDICTED BY IDOCK:   -2.67 KCAL/MOL
REMARK 924 INTRA-LIGAND FREE ENERGY PREDICTED BY IDOCK:   -0.34 KCAL/MOL
REMARK 927      BINDING AFFINITY PREDICTED BY RF-SCORE:    0.00 PKD
ROOT
HETATM    1  C   UNL     1      -8.650   8.187  71.056  1.00  0.00    -0.137 C  
HETATM    2  O   UNL     1      -7.810   8.440  69.927  1.00  0.00    -0.095 OA 
ENDROOT
BRANCH   2   3
HETATM    3  C   UNL     1      -8.422   8.042  68.752  1.00  0.00    -0.127 A  
HETATM    4  N   UNL     1      -8.344   6.723  68.461  1.00  0.00    -0.120 NA 
HETATM    5  C   UNL     1      -8.740   6.342  67.243  1.00  0.00    -0.106 A  
HETATM    6  N   UNL     1      -9.191   7.182  66.309  1.00  0.00    -0.156 NA 
HETATM    7  C   UNL     1      -8.511   4.913  66.868  1.00  0.00    -0.106 C  
HETATM    8  C   UNL     1      -9.290   8.475  66.685  1.00  0.00    -0.189 A  
HETATM    9 CL   UNL     1      -9.833   9.491  65.394  1.00  0.00    -0.336 Cl 
HETATM   10  C   UNL     1      -8.943   9.010  67.916  1.00  0.00    -0.132 A  
BRANCH  10  11
HETATM   11  N   UNL     1      -9.124  10.368  68.209  1.00  0.00    -0.141 NA 
HETATM   12  H   UNL     1      -8.251  10.885  68.309  1.00  0.00     0.000 HD 
BRANCH  11  13
HETATM   13  C   UNL     1     -10.228  11.127  68.385  1.00  0.00    -0.188 A  
HETATM   14  N   UNL     1     -11.302  10.652  68.959  1.00  0.00    -0.263 NA 
HETATM   15  C   UNL     1     -12.278  11.773  68.924  1.00  0.00    -0.030 A  
HETATM   16  H   UNL     1     -11.440   9.718  69.346  1.00  0.00     0.000 HD 
HETATM   17  C   UNL     1     -11.545  12.984  68.342  1.00  0.00    -0.335 A  
HETATM   18  N   UNL     1     -10.242  12.441  68.043  1.00  0.00    -0.213 NA 
ENDBRANCH  11  13
ENDBRANCH  10  11
ENDBRANCH   2   3
TORSDOF 3
ENDMDL
MODEL      224
REMARK 921   NORMALIZED FREE ENERGY PREDICTED BY IDOCK:   -2.21 KCAL/MOL
REMARK 922        TOTAL FREE ENERGY PREDICTED BY IDOCK:   -3.01 KCAL/MOL
REMARK 923 INTER-LIGAND FREE ENERGY PREDICTED BY IDOCK:   -2.63 KCAL/MOL
REMARK 924 INTRA-LIGAND FREE ENERGY PREDICTED BY IDOCK:   -0.38 KCAL/MOL
REMARK 927      BINDING AFFINITY PREDICTED BY RF-SCORE:    0.00 PKD
ROOT
HETATM    1  C   UNL     1     -10.781   4.572  65.579  1.00  0.00    -0.130 C  
HETATM    2  O   UNL     1     -10.526   5.729  66.378  1.00  0.00    -0.210 OA 
ENDROOT
BRANCH   2   3
HETATM    3  C   UNL     1      -9.188   5.815  66.719  1.00  0.00    -0.131 A  
HETATM    4  N   UNL     1      -8.336   5.090  65.960  1.00  0.00    -0.113 NA 
HETATM    5  C   UNL     1      -7.074   4.987  66.387  1.00  0.00    -0.072 A  
HETATM    6  N   UNL     1      -6.619   5.546  67.511  1.00  0.00    -0.052 NA 
HETATM    7  C   UNL     1      -6.172   4.063  65.633  1.00  0.00    -0.031 C  
HETATM    8  C   UNL     1      -7.511   6.297  68.192  1.00  0.00    -0.090 A  
HETATM    9 CL   UNL     1      -6.846   6.933  69.657  1.00  0.00    -0.050 Cl 
HETATM   10  C   UNL     1      -8.839   6.514  67.859  1.00  0.00    -0.114 A  
BRANCH  10  11
HETATM   11  N   UNL     1      -9.666   7.346  68.623  1.00  0.00    -0.150 NA 
HETATM   12  H   UNL     1      -9.652   8.322  68.326  1.00  0.00     0.000 HD 
BRANCH  11  13
HETATM   13  C   UNL     1     -10.479   7.112  69.677  1.00  0.00    -0.229 A  
HETATM   14  N   UNL     1     -11.544   7.838  69.895  1.00  0.00    -0.457 NA 
HETATM   15  C   UNL     1     -12.128   7.287  71.147  1.00  0.00    -0.340 A  
HETATM   16  H   UNL     1     -11.897   8.611  69.331  1.00  0.00     0.000 HD 
HETATM   17  C   UNL     1     -11.285   6.070  71.534  1.00  0.00    -0.264 A  
HETATM   18  N   UNL     1     -10.267   6.062  70.511  1.00  0.00    -0.196 NA 
ENDBRANCH  11  13
ENDBRANCH  10  11
ENDBRANCH   2   3
TORSDOF 3
ENDMDL
MODEL      225
REMARK 921   NORMALIZED FREE ENERGY PREDICTED BY IDOCK:   -2.20 KCAL/MOL
REMARK 922        TOTAL FREE ENERGY PREDICTED BY IDOCK:   -3.00 KCAL/MOL
REMARK 923 INTER-LIGAND FREE ENERGY PREDICTED BY IDOCK:   -2.65 KCAL/MOL
REMARK 924 INTRA-LIGAND FREE ENERGY PREDICTED BY IDOCK:   -0.35 KCAL/MOL
REMARK 927      BINDING AFFINITY PREDICTED BY RF-SCORE:    0.00 PKD
ROOT
HETATM    1  C   UNL     1     -10.205  10.651  65.756  1.00  0.00    -0.252 C  
HETATM    2  O   UNL     1      -9.104  11.482  66.131  1.00  0.00    -0.206 OA 
ENDROOT
BRANCH   2   3
HETATM    3  C   UNL     1      -9.536  12.742  66.506  1.00  0.00    -0.257 A  
HETATM    4  N   UNL     1     -10.182  13.454  65.555  1.00  0.00    -0.294 NA 
HETATM    5  C   UNL     1     -10.427  14.741  65.817  1.00  0.00    -0.334 A  
HETATM    6  N   UNL     1     -10.066  15.354  66.946  1.00  0.00    -0.253 NA 
HETATM    7  C   UNL     1     -11.001  15.566  64.709  1.00  0.00    -0.416 C  
HETATM    8  C   UNL     1      -9.471  14.571  67.872  1.00  0.00    -0.212 A  
HETATM    9 CL   UNL     1      -8.992  15.463  69.274  1.00  0.00    -0.250 Cl 
HETATM   10  C   UNL     1      -9.176  13.221  67.751  1.00  0.00    -0.209 A  
BRANCH  10  11
HETATM   11  N   UNL     1      -8.588  12.497  68.795  1.00  0.00    -0.373 NA 
HETATM   12  H   UNL     1      -8.014  13.067  69.416  1.00  0.00     0.000 HD 
BRANCH  11  13
HETATM   13  C   UNL     1      -8.632  11.192  69.142  1.00  0.00     0.057 A  
HETATM   14  N   UNL     1      -7.878  10.301  68.553  1.00  0.00    -0.093 NA 
HETATM   15  C   UNL     1      -8.250   9.009  69.190  1.00  0.00    -0.121 A  
HETATM   16  H   UNL     1      -7.187  10.456  67.819  1.00  0.00     0.000 HD 
HETATM   17  C   UNL     1      -9.248   9.333  70.304  1.00  0.00    -0.237 A  
HETATM   18  N   UNL     1      -9.404  10.761  70.173  1.00  0.00     0.803 NA 
ENDBRANCH  11  13
ENDBRANCH  10  11
ENDBRANCH   2   3
TORSDOF 3
ENDMDL
MODEL      226
REMARK 921   NORMALIZED FREE ENERGY PREDICTED BY IDOCK:   -2.19 KCAL/MOL
REMARK 922        TOTAL FREE ENERGY PREDICTED BY IDOCK:   -2.98 KCAL/MOL
REMARK 923 INTER-LIGAND FREE ENERGY PREDICTED BY IDOCK:   -2.56 KCAL/MOL
REMARK 924 INTRA-LIGAND FREE ENERGY PREDICTED BY IDOCK:   -0.42 KCAL/MOL
REMARK 927      BINDING AFFINITY PREDICTED BY RF-SCORE:    0.00 PKD
ROOT
HETATM    1  C   UNL     1      -6.293   9.036  68.603  1.00  0.00    -0.053 C  
HETATM    2  O   UNL     1      -7.555   9.704  68.665  1.00  0.00    -0.078 OA 
ENDROOT
BRANCH   2   3
HETATM    3  C   UNL     1      -8.499   8.929  69.316  1.00  0.00    -0.121 A  
HETATM    4  N   UNL     1      -8.369   8.842  70.659  1.00  0.00    -0.148 NA 
HETATM    5  C   UNL     1      -9.131   7.943  71.289  1.00  0.00    -0.139 A  
HETATM    6  N   UNL     1      -9.993   7.132  70.672  1.00  0.00    -0.190 NA 
HETATM    7  C   UNL     1      -8.879   7.739  72.749  1.00  0.00    -0.227 C  
HETATM    8  C   UNL     1     -10.108   7.309  69.338  1.00  0.00    -0.183 A  
HETATM    9 CL   UNL     1     -11.205   6.180  68.621  1.00  0.00    -0.387 Cl 
HETATM   10  C   UNL     1      -9.405   8.214  68.557  1.00  0.00    -0.138 A  
BRANCH  10  11
HETATM   11  N   UNL     1      -9.634   8.336  67.181  1.00  0.00    -0.167 NA 
HETATM   12  H   UNL     1     -10.531   8.764  66.952  1.00  0.00     0.000 HD 
BRANCH  11  13
HETATM   13  C   UNL     1      -8.901   8.000  66.097  1.00  0.00    -0.166 A  
HETATM   14  N   UNL     1      -8.362   6.815  65.976  1.00  0.00    -0.128 NA 
HETATM   15  C   UNL     1      -7.625   6.864  64.685  1.00  0.00    -0.106 A  
HETATM   16  H   UNL     1      -8.432   6.029  66.623  1.00  0.00     0.000 HD 
HETATM   17  C   UNL     1      -7.928   8.223  64.051  1.00  0.00    -0.147 A  
HETATM   18  N   UNL     1      -8.758   8.851  65.049  1.00  0.00    -0.183 NA 
ENDBRANCH  11  13
ENDBRANCH  10  11
ENDBRANCH   2   3
TORSDOF 3
ENDMDL
MODEL      227
REMARK 921   NORMALIZED FREE ENERGY PREDICTED BY IDOCK:   -2.13 KCAL/MOL
REMARK 922        TOTAL FREE ENERGY PREDICTED BY IDOCK:   -2.92 KCAL/MOL
REMARK 923 INTER-LIGAND FREE ENERGY PREDICTED BY IDOCK:   -2.51 KCAL/MOL
REMARK 924 INTRA-LIGAND FREE ENERGY PREDICTED BY IDOCK:   -0.41 KCAL/MOL
REMARK 927      BINDING AFFINITY PREDICTED BY RF-SCORE:    0.00 PKD
ROOT
HETATM    1  C   UNL     1     -10.900   6.801  67.687  1.00  0.00    -0.289 C  
HETATM    2  O   UNL     1     -10.519   7.808  66.746  1.00  0.00    -0.321 OA 
ENDROOT
BRANCH   2   3
HETATM    3  C   UNL     1     -10.059   8.943  67.390  1.00  0.00    -0.227 A  
HETATM    4  N   UNL     1     -11.007   9.808  67.814  1.00  0.00    -0.246 NA 
HETATM    5  C   UNL     1     -10.594  11.002  68.250  1.00  0.00    -0.187 A  
HETATM    6  N   UNL     1      -9.315  11.382  68.281  1.00  0.00    -0.181 NA 
HETATM    7  C   UNL     1     -11.648  12.013  68.573  1.00  0.00    -0.363 C  
HETATM    8  C   UNL     1      -8.419  10.450  67.893  1.00  0.00    -0.114 A  
HETATM    9 CL   UNL     1      -6.797  11.052  67.916  1.00  0.00    -0.067 Cl 
HETATM   10  C   UNL     1      -8.697   9.168  67.441  1.00  0.00    -0.115 A  
BRANCH  10  11
HETATM   11  N   UNL     1      -7.680   8.269  67.098  1.00  0.00    -0.096 NA 
HETATM   12  H   UNL     1      -7.260   8.454  66.187  1.00  0.00     0.000 HD 
BRANCH  11  13
HETATM   13  C   UNL     1      -7.146   7.205  67.736  1.00  0.00    -0.085 A  
HETATM   14  N   UNL     1      -6.174   6.507  67.209  1.00  0.00    -0.034 NA 
HETATM   15  C   UNL     1      -5.906   5.425  68.193  1.00  0.00    -0.017 A  
HETATM   16  H   UNL     1      -5.703   6.669  66.318  1.00  0.00     0.000 HD 
HETATM   17  C   UNL     1      -6.803   5.692  69.403  1.00  0.00    -0.061 A  
HETATM   18  N   UNL     1      -7.542   6.860  68.988  1.00  0.00    -0.102 NA 
ENDBRANCH  11  13
ENDBRANCH  10  11
ENDBRANCH   2   3
TORSDOF 3
ENDMDL
MODEL      228
REMARK 921   NORMALIZED FREE ENERGY PREDICTED BY IDOCK:   -2.13 KCAL/MOL
REMARK 922        TOTAL FREE ENERGY PREDICTED BY IDOCK:   -2.91 KCAL/MOL
REMARK 923 INTER-LIGAND FREE ENERGY PREDICTED BY IDOCK:   -2.57 KCAL/MOL
REMARK 924 INTRA-LIGAND FREE ENERGY PREDICTED BY IDOCK:   -0.34 KCAL/MOL
REMARK 927      BINDING AFFINITY PREDICTED BY RF-SCORE:    0.00 PKD
ROOT
HETATM    1  C   UNL     1     -12.451   6.967  71.100  1.00  0.00    -0.362 C  
HETATM    2  O   UNL     1     -11.183   7.421  70.621  1.00  0.00    -0.261 OA 
ENDROOT
BRANCH   2   3
HETATM    3  C   UNL     1     -10.168   7.081  71.498  1.00  0.00    -0.198 A  
HETATM    4  N   UNL     1     -10.479   6.152  72.430  1.00  0.00    -0.193 NA 
HETATM    5  C   UNL     1      -9.594   5.955  73.413  1.00  0.00    -0.143 A  
HETATM    6  N   UNL     1      -8.444   6.621  73.526  1.00  0.00    -0.121 NA 
HETATM    7  C   UNL     1     -10.004   5.043  74.526  1.00  0.00    -0.247 C  
HETATM    8  C   UNL     1      -8.175   7.496  72.532  1.00  0.00    -0.108 A  
HETATM    9 CL   UNL     1      -6.693   8.347  72.793  1.00  0.00    -0.108 Cl 
HETATM   10  C   UNL     1      -8.982   7.786  71.442  1.00  0.00    -0.133 A  
BRANCH  10  11
HETATM   11  N   UNL     1      -8.583   8.688  70.447  1.00  0.00    -0.142 NA 
HETATM   12  H   UNL     1      -8.499   9.650  70.777  1.00  0.00     0.000 HD 
BRANCH  11  13
HETATM   13  C   UNL     1      -8.289   8.535  69.138  1.00  0.00    -0.120 A  
HETATM   14  N   UNL     1      -8.613   9.441  68.253  1.00  0.00    -0.120 NA 
HETATM   15  C   UNL     1      -8.152   8.884  66.953  1.00  0.00    -0.109 A  
HETATM   16  H   UNL     1      -9.080  10.334  68.417  1.00  0.00     0.000 HD 
HETATM   17  C   UNL     1      -7.419   7.577  67.264  1.00  0.00    -0.100 A  
HETATM   18  N   UNL     1      -7.572   7.470  68.695  1.00  0.00    -0.107 NA 
ENDBRANCH  11  13
ENDBRANCH  10  11
ENDBRANCH   2   3
TORSDOF 3
ENDMDL
MODEL      229
REMARK 921   NORMALIZED FREE ENERGY PREDICTED BY IDOCK:   -2.12 KCAL/MOL
REMARK 922        TOTAL FREE ENERGY PREDICTED BY IDOCK:   -2.91 KCAL/MOL
REMARK 923 INTER-LIGAND FREE ENERGY PREDICTED BY IDOCK:   -2.63 KCAL/MOL
REMARK 924 INTRA-LIGAND FREE ENERGY PREDICTED BY IDOCK:   -0.28 KCAL/MOL
REMARK 927      BINDING AFFINITY PREDICTED BY RF-SCORE:    0.00 PKD
ROOT
HETATM    1  C   UNL     1     -11.779   6.846  70.713  1.00  0.00    -0.369 C  
HETATM    2  O   UNL     1     -10.438   6.769  70.226  1.00  0.00    -0.198 OA 
ENDROOT
BRANCH   2   3
HETATM    3  C   UNL     1      -9.927   8.029  69.973  1.00  0.00    -0.191 A  
HETATM    4  N   UNL     1     -10.578   8.755  69.036  1.00  0.00    -0.206 NA 
HETATM    5  C   UNL     1      -9.993   9.883  68.622  1.00  0.00    -0.164 A  
HETATM    6  N   UNL     1      -8.815  10.320  69.071  1.00  0.00    -0.158 NA 
HETATM    7  C   UNL     1     -10.634  10.604  67.479  1.00  0.00    -0.297 C  
HETATM    8  C   UNL     1      -8.246   9.574  70.042  1.00  0.00    -0.170 A  
HETATM    9 CL   UNL     1      -6.702  10.189  70.519  1.00  0.00    -0.127 Cl 
HETATM   10  C   UNL     1      -8.745   8.399  70.585  1.00  0.00    -0.146 A  
BRANCH  10  11
HETATM   11  N   UNL     1      -8.085   7.725  71.620  1.00  0.00    -0.100 NA 
HETATM   12  H   UNL     1      -7.456   8.320  72.160  1.00  0.00     0.000 HD 
BRANCH  11  13
HETATM   13  C   UNL     1      -8.116   6.443  72.044  1.00  0.00    -0.108 A  
HETATM   14  N   UNL     1      -8.947   6.049  72.973  1.00  0.00    -0.128 NA 
HETATM   15  C   UNL     1      -8.640   4.607  73.169  1.00  0.00    -0.102 A  
HETATM   16  H   UNL     1      -9.650   6.607  73.458  1.00  0.00     0.000 HD 
HETATM   17  C   UNL     1      -7.586   4.230  72.126  1.00  0.00    -0.079 A  
HETATM   18  N   UNL     1      -7.340   5.490  71.467  1.00  0.00    -0.084 NA 
ENDBRANCH  11  13
ENDBRANCH  10  11
ENDBRANCH   2   3
TORSDOF 3
ENDMDL
MODEL      230
REMARK 921   NORMALIZED FREE ENERGY PREDICTED BY IDOCK:   -2.11 KCAL/MOL
REMARK 922        TOTAL FREE ENERGY PREDICTED BY IDOCK:   -2.89 KCAL/MOL
REMARK 923 INTER-LIGAND FREE ENERGY PREDICTED BY IDOCK:   -2.53 KCAL/MOL
REMARK 924 INTRA-LIGAND FREE ENERGY PREDICTED BY IDOCK:   -0.36 KCAL/MOL
REMARK 927      BINDING AFFINITY PREDICTED BY RF-SCORE:    0.00 PKD
ROOT
HETATM    1  C   UNL     1      -9.840   8.218  68.697  1.00  0.00    -0.176 C  
HETATM    2  O   UNL     1     -10.408   7.732  67.480  1.00  0.00    -0.220 OA 
ENDROOT
BRANCH   2   3
HETATM    3  C   UNL     1      -9.683   6.662  66.984  1.00  0.00    -0.157 A  
HETATM    4  N   UNL     1     -10.086   5.436  67.386  1.00  0.00    -0.168 NA 
HETATM    5  C   UNL     1      -9.288   4.405  67.095  1.00  0.00    -0.155 A  
HETATM    6  N   UNL     1      -8.128   4.520  66.445  1.00  0.00    -0.103 NA 
HETATM    7  C   UNL     1      -9.654   3.074  67.671  1.00  0.00    -0.080 C  
HETATM    8  C   UNL     1      -7.813   5.766  66.028  1.00  0.00    -0.101 A  
HETATM    9 CL   UNL     1      -6.271   5.824  65.246  1.00  0.00    -0.035 Cl 
HETATM   10  C   UNL     1      -8.552   6.921  66.235  1.00  0.00    -0.136 A  
BRANCH  10  11
HETATM   11  N   UNL     1      -8.145   8.159  65.722  1.00  0.00    -0.108 NA 
HETATM   12  H   UNL     1      -7.546   8.688  66.356  1.00  0.00     0.000 HD 
BRANCH  11  13
HETATM   13  C   UNL     1      -8.391   8.791  64.554  1.00  0.00    -0.162 A  
HETATM   14  N   UNL     1      -9.377   9.639  64.428  1.00  0.00    -0.415 NA 
HETATM   15  C   UNL     1      -9.325  10.074  63.006  1.00  0.00    -0.263 A  
HETATM   16  H   UNL     1     -10.039   9.937  65.145  1.00  0.00     0.000 HD 
HETATM   17  C   UNL     1      -8.087   9.423  62.387  1.00  0.00    -0.130 A  
HETATM   18  N   UNL     1      -7.574   8.633  63.480  1.00  0.00    -0.117 NA 
ENDBRANCH  11  13
ENDBRANCH  10  11
ENDBRANCH   2   3
TORSDOF 3
ENDMDL
MODEL      231
REMARK 921   NORMALIZED FREE ENERGY PREDICTED BY IDOCK:   -2.10 KCAL/MOL
REMARK 922        TOTAL FREE ENERGY PREDICTED BY IDOCK:   -2.88 KCAL/MOL
REMARK 923 INTER-LIGAND FREE ENERGY PREDICTED BY IDOCK:   -2.71 KCAL/MOL
REMARK 924 INTRA-LIGAND FREE ENERGY PREDICTED BY IDOCK:   -0.18 KCAL/MOL
REMARK 927      BINDING AFFINITY PREDICTED BY RF-SCORE:    0.00 PKD
ROOT
HETATM    1  C   UNL     1      -7.462   9.017  69.456  1.00  0.00    -0.076 C  
HETATM    2  O   UNL     1      -8.354   8.132  70.139  1.00  0.00    -0.120 OA 
ENDROOT
BRANCH   2   3
HETATM    3  C   UNL     1      -8.574   6.982  69.403  1.00  0.00    -0.134 A  
HETATM    4  N   UNL     1      -7.608   6.038  69.476  1.00  0.00    -0.091 NA 
HETATM    5  C   UNL     1      -7.691   5.013  68.622  1.00  0.00    -0.078 A  
HETATM    6  N   UNL     1      -8.656   4.878  67.710  1.00  0.00    -0.104 NA 
HETATM    7  C   UNL     1      -6.545   4.053  68.597  1.00  0.00    -0.045 C  
HETATM    8  C   UNL     1      -9.614   5.829  67.728  1.00  0.00    -0.115 A  
HETATM    9 CL   UNL     1     -10.788   5.599  66.479  1.00  0.00    -0.312 Cl 
HETATM   10  C   UNL     1      -9.674   6.931  68.568  1.00  0.00    -0.138 A  
BRANCH  10  11
HETATM   11  N   UNL     1     -10.740   7.838  68.523  1.00  0.00    -0.394 NA 
HETATM   12  H   UNL     1     -11.657   7.391  68.530  1.00  0.00     0.000 HD 
BRANCH  11  13
HETATM   13  C   UNL     1     -10.794   9.186  68.471  1.00  0.00    -0.043 A  
HETATM   14  N   UNL     1     -11.389   9.885  69.402  1.00  0.00    -0.416 NA 
HETATM   15  C   UNL     1     -11.257  11.298  68.958  1.00  0.00    -0.258 A  
HETATM   16  H   UNL     1     -11.844   9.537  70.246  1.00  0.00     0.000 HD 
HETATM   17  C   UNL     1     -10.398  11.290  67.692  1.00  0.00    -0.184 A  
HETATM   18  N   UNL     1     -10.163   9.881  67.489  1.00  0.00    -0.201 NA 
ENDBRANCH  11  13
ENDBRANCH  10  11
ENDBRANCH   2   3
TORSDOF 3
ENDMDL
MODEL      232
REMARK 921   NORMALIZED FREE ENERGY PREDICTED BY IDOCK:   -2.05 KCAL/MOL
REMARK 922        TOTAL FREE ENERGY PREDICTED BY IDOCK:   -2.82 KCAL/MOL
REMARK 923 INTER-LIGAND FREE ENERGY PREDICTED BY IDOCK:   -2.39 KCAL/MOL
REMARK 924 INTRA-LIGAND FREE ENERGY PREDICTED BY IDOCK:   -0.43 KCAL/MOL
REMARK 927      BINDING AFFINITY PREDICTED BY RF-SCORE:    0.00 PKD
ROOT
HETATM    1  C   UNL     1     -11.435   6.499  70.014  1.00  0.00    -0.412 C  
HETATM    2  O   UNL     1     -11.176   6.400  68.611  1.00  0.00    -0.329 OA 
ENDROOT
BRANCH   2   3
HETATM    3  C   UNL     1     -10.339   7.417  68.187  1.00  0.00    -0.192 A  
HETATM    4  N   UNL     1     -10.905   8.638  68.062  1.00  0.00    -0.057 NA 
HETATM    5  C   UNL     1     -10.183   9.588  67.461  1.00  0.00    -0.228 A  
HETATM    6  N   UNL     1      -8.953   9.396  66.977  1.00  0.00    -0.129 NA 
HETATM    7  C   UNL     1     -10.863  10.890  67.184  1.00  0.00    -0.337 C  
HETATM    8  C   UNL     1      -8.430   8.168  67.183  1.00  0.00    -0.124 A  
HETATM    9 CL   UNL     1      -6.860   7.999  66.476  1.00  0.00    -0.066 Cl 
HETATM   10  C   UNL     1      -9.049   7.096  67.809  1.00  0.00    -0.127 A  
BRANCH  10  11
HETATM   11  N   UNL     1      -8.393   5.874  68.001  1.00  0.00    -0.111 NA 
HETATM   12  H   UNL     1      -8.497   5.227  67.219  1.00  0.00     0.000 HD 
BRANCH  11  13
HETATM   13  C   UNL     1      -7.652   5.383  69.017  1.00  0.00    -0.085 A  
HETATM   14  N   UNL     1      -6.399   5.046  68.851  1.00  0.00    -0.031 NA 
HETATM   15  C   UNL     1      -5.967   4.529  70.177  1.00  0.00    -0.017 A  
HETATM   16  H   UNL     1      -5.841   5.122  68.000  1.00  0.00     0.000 HD 
HETATM   17  C   UNL     1      -7.139   4.732  71.139  1.00  0.00    -0.051 A  
HETATM   18  N   UNL     1      -8.152   5.291  70.276  1.00  0.00    -0.090 NA 
ENDBRANCH  11  13
ENDBRANCH  10  11
ENDBRANCH   2   3
TORSDOF 3
ENDMDL
MODEL      233
REMARK 921   NORMALIZED FREE ENERGY PREDICTED BY IDOCK:   -2.05 KCAL/MOL
REMARK 922        TOTAL FREE ENERGY PREDICTED BY IDOCK:   -2.82 KCAL/MOL
REMARK 923 INTER-LIGAND FREE ENERGY PREDICTED BY IDOCK:   -2.62 KCAL/MOL
REMARK 924 INTRA-LIGAND FREE ENERGY PREDICTED BY IDOCK:   -0.20 KCAL/MOL
REMARK 927      BINDING AFFINITY PREDICTED BY RF-SCORE:    0.00 PKD
ROOT
HETATM    1  C   UNL     1      -5.165   8.873  69.960  1.00  0.00    -0.029 C  
HETATM    2  O   UNL     1      -6.190   9.758  70.416  1.00  0.00    -0.061 OA 
ENDROOT
BRANCH   2   3
HETATM    3  C   UNL     1      -7.203   9.061  71.052  1.00  0.00    -0.106 A  
HETATM    4  N   UNL     1      -6.810   8.066  71.878  1.00  0.00    -0.064 NA 
HETATM    5  C   UNL     1      -7.758   7.247  72.342  1.00  0.00    -0.088 A  
HETATM    6  N   UNL     1      -9.052   7.351  72.030  1.00  0.00    -0.128 NA 
HETATM    7  C   UNL     1      -7.307   6.058  73.129  1.00  0.00    -0.093 C  
HETATM    8  C   UNL     1      -9.380   8.398  71.242  1.00  0.00    -0.187 A  
HETATM    9 CL   UNL     1     -11.064   8.418  70.851  1.00  0.00    -0.276 Cl 
HETATM   10  C   UNL     1      -8.512   9.339  70.709  1.00  0.00    -0.195 A  
BRANCH  10  11
HETATM   11  N   UNL     1      -8.972  10.409  69.931  1.00  0.00    -0.376 NA 
HETATM   12  H   UNL     1      -8.713  11.324  70.301  1.00  0.00     0.000 HD 
BRANCH  11  13
HETATM   13  C   UNL     1      -9.690  10.469  68.789  1.00  0.00    -0.184 A  
HETATM   14  N   UNL     1     -10.556  11.424  68.573  1.00  0.00    -0.189 NA 
HETATM   15  C   UNL     1     -11.145  11.109  67.244  1.00  0.00    -0.302 A  
HETATM   16  H   UNL     1     -10.780  12.211  69.182  1.00  0.00     0.000 HD 
HETATM   17  C   UNL     1     -10.392   9.892  66.701  1.00  0.00    -0.205 A  
HETATM   18  N   UNL     1      -9.486   9.583  67.780  1.00  0.00    -0.131 NA 
ENDBRANCH  11  13
ENDBRANCH  10  11
ENDBRANCH   2   3
TORSDOF 3
ENDMDL
MODEL      234
REMARK 921   NORMALIZED FREE ENERGY PREDICTED BY IDOCK:   -2.02 KCAL/MOL
REMARK 922        TOTAL FREE ENERGY PREDICTED BY IDOCK:   -2.79 KCAL/MOL
REMARK 923 INTER-LIGAND FREE ENERGY PREDICTED BY IDOCK:   -2.56 KCAL/MOL
REMARK 924 INTRA-LIGAND FREE ENERGY PREDICTED BY IDOCK:   -0.23 KCAL/MOL
REMARK 927      BINDING AFFINITY PREDICTED BY RF-SCORE:    0.00 PKD
ROOT
HETATM    1  C   UNL     1      -7.348   3.850  69.699  1.00  0.00    -0.049 C  
HETATM    2  O   UNL     1      -8.756   3.608  69.651  1.00  0.00    -0.066 OA 
ENDROOT
BRANCH   2   3
HETATM    3  C   UNL     1      -9.467   4.795  69.676  1.00  0.00    -0.153 A  
HETATM    4  N   UNL     1      -9.915   5.243  68.482  1.00  0.00    -0.159 NA 
HETATM    5  C   UNL     1     -10.420   6.480  68.444  1.00  0.00    -0.218 A  
HETATM    6  N   UNL     1     -10.497   7.287  69.505  1.00  0.00    -0.225 NA 
HETATM    7  C   UNL     1     -10.773   7.032  67.100  1.00  0.00    -0.433 C  
HETATM    8  C   UNL     1     -10.080   6.756  70.674  1.00  0.00    -0.187 A  
HETATM    9 CL   UNL     1     -10.168   7.891  71.976  1.00  0.00    -0.252 Cl 
HETATM   10  C   UNL     1      -9.558   5.486  70.869  1.00  0.00    -0.170 A  
BRANCH  10  11
HETATM   11  N   UNL     1      -9.190   5.026  72.140  1.00  0.00    -0.135 NA 
HETATM   12  H   UNL     1      -8.375   5.501  72.527  1.00  0.00     0.000 HD 
BRANCH  11  13
HETATM   13  C   UNL     1      -9.702   4.076  72.953  1.00  0.00    -0.133 A  
HETATM   14  N   UNL     1      -8.947   3.407  73.785  1.00  0.00    -0.087 NA 
HETATM   15  C   UNL     1      -9.873   2.454  74.454  1.00  0.00    -0.104 A  
HETATM   16  H   UNL     1      -7.944   3.514  73.940  1.00  0.00     0.000 HD 
HETATM   17  C   UNL     1     -11.281   2.772  73.948  1.00  0.00    -0.109 A  
HETATM   18  N   UNL     1     -11.037   3.831  72.999  1.00  0.00    -0.080 NA 
ENDBRANCH  11  13
ENDBRANCH  10  11
ENDBRANCH   2   3
TORSDOF 3
ENDMDL
MODEL      235
REMARK 921   NORMALIZED FREE ENERGY PREDICTED BY IDOCK:   -1.98 KCAL/MOL
REMARK 922        TOTAL FREE ENERGY PREDICTED BY IDOCK:   -2.74 KCAL/MOL
REMARK 923 INTER-LIGAND FREE ENERGY PREDICTED BY IDOCK:   -2.46 KCAL/MOL
REMARK 924 INTRA-LIGAND FREE ENERGY PREDICTED BY IDOCK:   -0.28 KCAL/MOL
REMARK 927      BINDING AFFINITY PREDICTED BY RF-SCORE:    0.00 PKD
ROOT
HETATM    1  C   UNL     1      -5.540   9.556  69.079  1.00  0.00    -0.036 C  
HETATM    2  O   UNL     1      -6.874  10.067  69.034  1.00  0.00    -0.052 OA 
ENDROOT
BRANCH   2   3
HETATM    3  C   UNL     1      -7.801   9.040  69.034  1.00  0.00    -0.090 A  
HETATM    4  N   UNL     1      -7.537   8.004  69.860  1.00  0.00    -0.085 NA 
HETATM    5  C   UNL     1      -8.297   6.912  69.732  1.00  0.00    -0.132 A  
HETATM    6  N   UNL     1      -9.282   6.789  68.840  1.00  0.00    -0.132 NA 
HETATM    7  C   UNL     1      -7.907   5.712  70.536  1.00  0.00    -0.099 C  
HETATM    8  C   UNL     1      -9.524   7.881  68.084  1.00  0.00    -0.147 A  
HETATM    9 CL   UNL     1     -10.779   7.608  66.925  1.00  0.00    -0.384 Cl 
HETATM   10  C   UNL     1      -8.838   9.086  68.122  1.00  0.00    -0.133 A  
BRANCH  10  11
HETATM   11  N   UNL     1      -9.202  10.169  67.313  1.00  0.00    -0.138 NA 
HETATM   12  H   UNL     1      -9.550  10.973  67.836  1.00  0.00     0.000 HD 
BRANCH  11  13
HETATM   13  C   UNL     1      -9.185  10.359  65.976  1.00  0.00    -0.167 A  
HETATM   14  N   UNL     1     -10.153  10.985  65.360  1.00  0.00    -0.255 NA 
HETATM   15  C   UNL     1      -9.774  10.949  63.922  1.00  0.00    -0.303 A  
HETATM   16  H   UNL     1     -10.986  11.405  65.773  1.00  0.00     0.000 HD 
HETATM   17  C   UNL     1      -8.389  10.305  63.843  1.00  0.00    -0.165 A  
HETATM   18  N   UNL     1      -8.121   9.978  65.222  1.00  0.00    -0.139 NA 
ENDBRANCH  11  13
ENDBRANCH  10  11
ENDBRANCH   2   3
TORSDOF 3
ENDMDL
MODEL      236
REMARK 921   NORMALIZED FREE ENERGY PREDICTED BY IDOCK:   -1.96 KCAL/MOL
REMARK 922        TOTAL FREE ENERGY PREDICTED BY IDOCK:   -2.71 KCAL/MOL
REMARK 923 INTER-LIGAND FREE ENERGY PREDICTED BY IDOCK:   -2.24 KCAL/MOL
REMARK 924 INTRA-LIGAND FREE ENERGY PREDICTED BY IDOCK:   -0.48 KCAL/MOL
REMARK 927      BINDING AFFINITY PREDICTED BY RF-SCORE:    0.00 PKD
ROOT
HETATM    1  C   UNL     1      -9.561   6.509  66.444  1.00  0.00    -0.104 C  
HETATM    2  O   UNL     1     -10.357   7.343  67.290  1.00  0.00    -0.226 OA 
ENDROOT
BRANCH   2   3
HETATM    3  C   UNL     1     -10.027   8.677  67.128  1.00  0.00    -0.231 A  
HETATM    4  N   UNL     1     -10.417   9.247  65.966  1.00  0.00     0.042 NA 
HETATM    5  C   UNL     1      -9.938  10.464  65.691  1.00  0.00    -0.272 A  
HETATM    6  N   UNL     1      -9.100  11.132  66.487  1.00  0.00    -0.176 NA 
HETATM    7  C   UNL     1     -10.245  11.029  64.341  1.00  0.00    -0.409 C  
HETATM    8  C   UNL     1      -8.794  10.526  67.654  1.00  0.00    -0.131 A  
HETATM    9 CL   UNL     1      -7.664  11.442  68.589  1.00  0.00    -0.131 Cl 
HETATM   10  C   UNL     1      -9.232   9.282  68.083  1.00  0.00    -0.130 A  
BRANCH  10  11
HETATM   11  N   UNL     1      -8.878   8.766  69.335  1.00  0.00    -0.141 NA 
HETATM   12  H   UNL     1      -9.532   9.011  70.079  1.00  0.00     0.000 HD 
BRANCH  11  13
HETATM   13  C   UNL     1      -7.841   8.008  69.753  1.00  0.00    -0.106 A  
HETATM   14  N   UNL     1      -6.798   8.536  70.339  1.00  0.00    -0.036 NA 
HETATM   15  C   UNL     1      -5.889   7.389  70.602  1.00  0.00    -0.027 A  
HETATM   16  H   UNL     1      -6.643   9.519  70.566  1.00  0.00     0.000 HD 
HETATM   17  C   UNL     1      -6.634   6.123  70.173  1.00  0.00    -0.044 A  
HETATM   18  N   UNL     1      -7.871   6.654  69.653  1.00  0.00    -0.113 NA 
ENDBRANCH  11  13
ENDBRANCH  10  11
ENDBRANCH   2   3
TORSDOF 3
ENDMDL
MODEL      237
REMARK 921   NORMALIZED FREE ENERGY PREDICTED BY IDOCK:   -1.92 KCAL/MOL
REMARK 922        TOTAL FREE ENERGY PREDICTED BY IDOCK:   -2.67 KCAL/MOL
REMARK 923 INTER-LIGAND FREE ENERGY PREDICTED BY IDOCK:   -2.31 KCAL/MOL
REMARK 924 INTRA-LIGAND FREE ENERGY PREDICTED BY IDOCK:   -0.36 KCAL/MOL
REMARK 927      BINDING AFFINITY PREDICTED BY RF-SCORE:    0.00 PKD
ROOT
HETATM    1  C   UNL     1     -11.136   7.943  69.872  1.00  0.00    -0.120 C  
HETATM    2  O   UNL     1     -11.078   6.540  69.606  1.00  0.00    -0.309 OA 
ENDROOT
BRANCH   2   3
HETATM    3  C   UNL     1      -9.891   5.995  70.061  1.00  0.00    -0.172 A  
HETATM    4  N   UNL     1      -9.828   5.733  71.386  1.00  0.00    -0.167 NA 
HETATM    5  C   UNL     1      -8.634   5.404  71.888  1.00  0.00    -0.131 A  
HETATM    6  N   UNL     1      -7.516   5.329  71.164  1.00  0.00    -0.081 NA 
HETATM    7  C   UNL     1      -8.533   5.266  73.374  1.00  0.00    -0.113 C  
HETATM    8  C   UNL     1      -7.661   5.552  69.839  1.00  0.00    -0.082 A  
HETATM    9 CL   UNL     1      -6.153   5.486  68.996  1.00  0.00    -0.024 Cl 
HETATM   10  C   UNL     1      -8.835   5.878  69.177  1.00  0.00    -0.117 A  
BRANCH  10  11
HETATM   11  N   UNL     1      -8.876   6.051  67.788  1.00  0.00    -0.107 NA 
HETATM   12  H   UNL     1      -8.758   7.021  67.493  1.00  0.00     0.000 HD 
BRANCH  11  13
HETATM   13  C   UNL     1      -9.041   5.188  66.762  1.00  0.00    -0.118 A  
HETATM   14  N   UNL     1      -9.988   5.350  65.876  1.00  0.00    -0.360 NA 
HETATM   15  C   UNL     1      -9.850   4.189  64.957  1.00  0.00    -0.201 A  
HETATM   16  H   UNL     1     -10.671   6.106  65.825  1.00  0.00     0.000 HD 
HETATM   17  C   UNL     1      -8.608   3.413  65.403  1.00  0.00    -0.111 A  
HETATM   18  N   UNL     1      -8.179   4.157  66.562  1.00  0.00    -0.101 NA 
ENDBRANCH  11  13
ENDBRANCH  10  11
ENDBRANCH   2   3
TORSDOF 3
ENDMDL
MODEL      238
REMARK 921   NORMALIZED FREE ENERGY PREDICTED BY IDOCK:   -1.92 KCAL/MOL
REMARK 922        TOTAL FREE ENERGY PREDICTED BY IDOCK:   -2.67 KCAL/MOL
REMARK 923 INTER-LIGAND FREE ENERGY PREDICTED BY IDOCK:   -2.26 KCAL/MOL
REMARK 924 INTRA-LIGAND FREE ENERGY PREDICTED BY IDOCK:   -0.41 KCAL/MOL
REMARK 927      BINDING AFFINITY PREDICTED BY RF-SCORE:    0.00 PKD
ROOT
HETATM    1  C   UNL     1      -9.426   6.453  67.147  1.00  0.00    -0.129 C  
HETATM    2  O   UNL     1     -10.237   5.608  67.967  1.00  0.00    -0.159 OA 
ENDROOT
BRANCH   2   3
HETATM    3  C   UNL     1      -9.652   4.365  68.133  1.00  0.00    -0.142 A  
HETATM    4  N   UNL     1      -9.324   3.709  66.997  1.00  0.00    -0.188 NA 
HETATM    5  C   UNL     1      -8.952   2.431  67.116  1.00  0.00    -0.145 A  
HETATM    6  N   UNL     1      -8.898   1.775  68.277  1.00  0.00    -0.087 NA 
HETATM    7  C   UNL     1      -8.738   1.662  65.851  1.00  0.00    -0.116 C  
HETATM    8  C   UNL     1      -9.189   2.506  69.375  1.00  0.00    -0.125 A  
HETATM    9 CL   UNL     1      -9.145   1.559  70.821  1.00  0.00    -0.127 Cl 
HETATM   10  C   UNL     1      -9.565   3.840  69.408  1.00  0.00    -0.149 A  
BRANCH  10  11
HETATM   11  N   UNL     1      -9.809   4.509  70.613  1.00  0.00    -0.214 NA 
HETATM   12  H   UNL     1     -10.508   4.054  71.200  1.00  0.00     0.000 HD 
BRANCH  11  13
HETATM   13  C   UNL     1      -9.300   5.639  71.152  1.00  0.00    -0.153 A  
HETATM   14  N   UNL     1      -9.977   6.757  71.165  1.00  0.00    -0.182 NA 
HETATM   15  C   UNL     1      -9.066   7.745  71.801  1.00  0.00    -0.137 A  
HETATM   16  H   UNL     1     -10.922   6.917  70.814  1.00  0.00     0.000 HD 
HETATM   17  C   UNL     1      -7.818   6.979  72.244  1.00  0.00    -0.091 A  
HETATM   18  N   UNL     1      -8.094   5.643  71.776  1.00  0.00    -0.117 NA 
ENDBRANCH  11  13
ENDBRANCH  10  11
ENDBRANCH   2   3
TORSDOF 3
ENDMDL
MODEL      239
REMARK 921   NORMALIZED FREE ENERGY PREDICTED BY IDOCK:   -1.79 KCAL/MOL
REMARK 922        TOTAL FREE ENERGY PREDICTED BY IDOCK:   -2.52 KCAL/MOL
REMARK 923 INTER-LIGAND FREE ENERGY PREDICTED BY IDOCK:   -2.24 KCAL/MOL
REMARK 924 INTRA-LIGAND FREE ENERGY PREDICTED BY IDOCK:   -0.28 KCAL/MOL
REMARK 927      BINDING AFFINITY PREDICTED BY RF-SCORE:    0.00 PKD
ROOT
HETATM    1  C   UNL     1      -5.933   8.072  68.149  1.00  0.00    -0.041 C  
HETATM    2  O   UNL     1      -7.066   8.451  68.934  1.00  0.00    -0.064 OA 
ENDROOT
BRANCH   2   3
HETATM    3  C   UNL     1      -7.988   7.422  69.007  1.00  0.00    -0.122 A  
HETATM    4  N   UNL     1      -8.889   7.361  68.002  1.00  0.00    -0.127 NA 
HETATM    5  C   UNL     1      -9.912   6.514  68.149  1.00  0.00    -0.139 A  
HETATM    6  N   UNL     1     -10.093   5.742  69.223  1.00  0.00    -0.187 NA 
HETATM    7  C   UNL     1     -10.989   6.558  67.112  1.00  0.00    -0.480 C  
HETATM    8  C   UNL     1      -9.127   5.816  70.164  1.00  0.00    -0.140 A  
HETATM    9 CL   UNL     1      -9.476   4.824  71.537  1.00  0.00    -0.197 Cl 
HETATM   10  C   UNL     1      -8.002   6.627  70.137  1.00  0.00    -0.112 A  
BRANCH  10  11
HETATM   11  N   UNL     1      -7.043   6.593  71.157  1.00  0.00    -0.074 NA 
HETATM   12  H   UNL     1      -6.165   6.154  70.879  1.00  0.00     0.000 HD 
BRANCH  11  13
HETATM   13  C   UNL     1      -7.051   7.027  72.436  1.00  0.00    -0.065 A  
HETATM   14  N   UNL     1      -6.111   6.690  73.280  1.00  0.00    -0.058 NA 
HETATM   15  C   UNL     1      -6.504   7.333  74.562  1.00  0.00    -0.082 A  
HETATM   16  H   UNL     1      -5.289   6.113  73.099  1.00  0.00     0.000 HD 
HETATM   17  C   UNL     1      -7.750   8.174  74.275  1.00  0.00    -0.226 A  
HETATM   18  N   UNL     1      -7.995   7.897  72.880  1.00  0.00    -0.124 NA 
ENDBRANCH  11  13
ENDBRANCH  10  11
ENDBRANCH   2   3
TORSDOF 3
ENDMDL
MODEL      240
REMARK 921   NORMALIZED FREE ENERGY PREDICTED BY IDOCK:   -1.70 KCAL/MOL
REMARK 922        TOTAL FREE ENERGY PREDICTED BY IDOCK:   -2.41 KCAL/MOL
REMARK 923 INTER-LIGAND FREE ENERGY PREDICTED BY IDOCK:   -2.45 KCAL/MOL
REMARK 924 INTRA-LIGAND FREE ENERGY PREDICTED BY IDOCK:    0.04 KCAL/MOL
REMARK 927      BINDING AFFINITY PREDICTED BY RF-SCORE:    0.00 PKD
ROOT
HETATM    1  C   UNL     1      -7.018  10.592  69.343  1.00  0.00    -0.099 C  
HETATM    2  O   UNL     1      -8.103  11.097  68.561  1.00  0.00    -0.131 OA 
ENDROOT
BRANCH   2   3
HETATM    3  C   UNL     1      -8.558  10.144  67.666  1.00  0.00    -0.118 A  
HETATM    4  N   UNL     1      -8.292  10.382  66.362  1.00  0.00    -0.135 NA 
HETATM    5  C   UNL     1      -8.892   9.595  65.463  1.00  0.00    -0.172 A  
HETATM    6  N   UNL     1      -9.734   8.609  65.780  1.00  0.00    -0.094 NA 
HETATM    7  C   UNL     1      -8.722   9.954  64.021  1.00  0.00    -0.229 C  
HETATM    8  C   UNL     1      -9.912   8.394  67.101  1.00  0.00    -0.238 A  
HETATM    9 CL   UNL     1     -11.057   7.135  67.410  1.00  0.00    -0.281 Cl 
HETATM   10  C   UNL     1      -9.341   9.110  68.143  1.00  0.00    -0.138 A  
BRANCH  10  11
HETATM   11  N   UNL     1      -9.569   8.774  69.482  1.00  0.00    -0.165 NA 
HETATM   12  H   UNL     1     -10.275   9.355  69.936  1.00  0.00     0.000 HD 
BRANCH  11  13
HETATM   13  C   UNL     1      -9.039   7.832  70.293  1.00  0.00    -0.152 A  
HETATM   14  N   UNL     1      -8.742   8.090  71.540  1.00  0.00    -0.127 NA 
HETATM   15  C   UNL     1      -8.161   6.824  72.061  1.00  0.00    -0.104 A  
HETATM   16  H   UNL     1      -8.878   8.966  72.045  1.00  0.00     0.000 HD 
HETATM   17  C   UNL     1      -8.283   5.785  70.944  1.00  0.00    -0.121 A  
HETATM   18  N   UNL     1      -8.865   6.554  69.871  1.00  0.00    -0.143 NA 
ENDBRANCH  11  13
ENDBRANCH  10  11
ENDBRANCH   2   3
TORSDOF 3
ENDMDL
MODEL      241
REMARK 921   NORMALIZED FREE ENERGY PREDICTED BY IDOCK:   -1.52 KCAL/MOL
REMARK 922        TOTAL FREE ENERGY PREDICTED BY IDOCK:   -2.20 KCAL/MOL
REMARK 923 INTER-LIGAND FREE ENERGY PREDICTED BY IDOCK:   -1.83 KCAL/MOL
REMARK 924 INTRA-LIGAND FREE ENERGY PREDICTED BY IDOCK:   -0.37 KCAL/MOL
REMARK 927      BINDING AFFINITY PREDICTED BY RF-SCORE:    0.00 PKD
ROOT
HETATM    1  C   UNL     1     -10.874   6.803  67.340  1.00  0.00    -0.347 C  
HETATM    2  O   UNL     1     -10.303   7.598  66.299  1.00  0.00    -0.012 OA 
ENDROOT
BRANCH   2   3
HETATM    3  C   UNL     1      -9.338   8.455  66.798  1.00  0.00    -0.184 A  
HETATM    4  N   UNL     1      -9.796   9.573  67.403  1.00  0.00    -0.161 NA 
HETATM    5  C   UNL     1      -8.897  10.514  67.709  1.00  0.00    -0.125 A  
HETATM    6  N   UNL     1      -7.592  10.413  67.445  1.00  0.00    -0.094 NA 
HETATM    7  C   UNL     1      -9.420  11.812  68.236  1.00  0.00    -0.193 C  
HETATM    8  C   UNL     1      -7.198   9.248  66.886  1.00  0.00    -0.086 A  
HETATM    9 CL   UNL     1      -5.505   9.232  66.533  1.00  0.00    -0.044 Cl 
HETATM   10  C   UNL     1      -8.010   8.178  66.537  1.00  0.00    -0.101 A  
BRANCH  10  11
HETATM   11  N   UNL     1      -7.484   6.999  65.996  1.00  0.00    -0.078 NA 
HETATM   12  H   UNL     1      -7.025   6.401  66.684  1.00  0.00     0.000 HD 
BRANCH  11  13
HETATM   13  C   UNL     1      -7.465   6.496  64.742  1.00  0.00    -0.091 A  
HETATM   14  N   UNL     1      -7.104   5.262  64.504  1.00  0.00    -0.053 NA 
HETATM   15  C   UNL     1      -7.186   5.122  63.026  1.00  0.00    -0.043 A  
HETATM   16  H   UNL     1      -6.828   4.552  65.182  1.00  0.00     0.000 HD 
HETATM   17  C   UNL     1      -7.755   6.435  62.484  1.00  0.00    -0.093 A  
HETATM   18  N   UNL     1      -7.896   7.227  63.682  1.00  0.00    -0.123 NA 
ENDBRANCH  11  13
ENDBRANCH  10  11
ENDBRANCH   2   3
TORSDOF 3
ENDMDL
MODEL      242
REMARK 921   NORMALIZED FREE ENERGY PREDICTED BY IDOCK:   12.91 KCAL/MOL
REMARK 922        TOTAL FREE ENERGY PREDICTED BY IDOCK:   14.76 KCAL/MOL
REMARK 923 INTER-LIGAND FREE ENERGY PREDICTED BY IDOCK:   14.60 KCAL/MOL
REMARK 924 INTRA-LIGAND FREE ENERGY PREDICTED BY IDOCK:    0.16 KCAL/MOL
REMARK 927      BINDING AFFINITY PREDICTED BY RF-SCORE:    0.00 PKD
ROOT
HETATM    1  C   UNL     1     -10.858  10.407  72.786  1.00  0.00     6.921 C  
HETATM    2  O   UNL     1     -10.683   9.268  71.939  1.00  0.00    -0.339 OA 
ENDROOT
BRANCH   2   3
HETATM    3  C   UNL     1     -11.032   9.561  70.633  1.00  0.00    -0.306 A  
HETATM    4  N   UNL     1     -12.285  10.032  70.446  1.00  0.00    -0.214 NA 
HETATM    5  C   UNL     1     -12.720  10.127  69.186  1.00  0.00     1.540 A  
HETATM    6  N   UNL     1     -11.998   9.779  68.119  1.00  0.00     0.979 NA 
HETATM    7  C   UNL     1     -14.155  10.501  68.985  1.00  0.00     7.142 C  
HETATM    8  C   UNL     1     -10.738   9.366  68.377  1.00  0.00    -0.168 A  
HETATM    9 CL   UNL     1      -9.900   8.887  66.941  1.00  0.00    -0.263 Cl 
HETATM   10  C   UNL     1     -10.144   9.241  69.624  1.00  0.00    -0.197 A  
BRANCH  10  11
HETATM   11  N   UNL     1      -8.812   8.836  69.770  1.00  0.00    -0.138 NA 
HETATM   12  H   UNL     1      -8.614   8.398  70.670  1.00  0.00     0.000 HD 
BRANCH  11  13
HETATM   13  C   UNL     1      -7.737   8.912  68.955  1.00  0.00    -0.090 A  
HETATM   14  N   UNL     1      -7.140  10.050  68.713  1.00  0.00    -0.069 NA 
HETATM   15  C   UNL     1      -6.050   9.710  67.760  1.00  0.00    -0.052 A  
HETATM   16  H   UNL     1      -7.372  10.968  69.093  1.00  0.00     0.000 HD 
HETATM   17  C   UNL     1      -6.060   8.189  67.595  1.00  0.00    -0.051 A  
HETATM   18  N   UNL     1      -7.181   7.797  68.415  1.00  0.00    -0.090 NA 
ENDBRANCH  11  13
ENDBRANCH  10  11
ENDBRANCH   2   3
TORSDOF 3
ENDMDL
MODEL      243
REMARK 921   NORMALIZED FREE ENERGY PREDICTED BY IDOCK:   34.23 KCAL/MOL
REMARK 922        TOTAL FREE ENERGY PREDICTED BY IDOCK:   39.82 KCAL/MOL
REMARK 923 INTER-LIGAND FREE ENERGY PREDICTED BY IDOCK:   39.28 KCAL/MOL
REMARK 924 INTRA-LIGAND FREE ENERGY PREDICTED BY IDOCK:    0.54 KCAL/MOL
REMARK 927      BINDING AFFINITY PREDICTED BY RF-SCORE:    0.00 PKD
ROOT
HETATM    1  C   UNL     1     -11.319  20.234  71.042  1.00  0.00     6.671 C  
HETATM    2  O   UNL     1     -12.522  19.478  70.884  1.00  0.00    13.822 OA 
ENDROOT
BRANCH   2   3
HETATM    3  C   UNL     1     -12.357  18.179  71.330  1.00  0.00    10.776 A  
HETATM    4  N   UNL     1     -12.921  17.885  72.523  1.00  0.00     7.371 NA 
HETATM    5  C   UNL     1     -12.606  16.709  73.074  1.00  0.00     0.118 A  
HETATM    6  N   UNL     1     -11.771  15.826  72.522  1.00  0.00    -0.462 NA 
HETATM    7  C   UNL     1     -13.105  16.450  74.460  1.00  0.00     0.484 C  
HETATM    8  C   UNL     1     -11.285  16.162  71.307  1.00  0.00    -0.163 A  
HETATM    9 CL   UNL     1     -10.174  14.985  70.699  1.00  0.00     0.174 Cl 
HETATM   10  C   UNL     1     -11.541  17.331  70.605  1.00  0.00     2.001 A  
BRANCH  10  11
HETATM   11  N   UNL     1     -11.010  17.557  69.330  1.00  0.00    -0.137 NA 
HETATM   12  H   UNL     1     -10.512  18.444  69.245  1.00  0.00     0.000 HD 
BRANCH  11  13
HETATM   13  C   UNL     1     -11.028  16.834  68.189  1.00  0.00    -0.309 A  
HETATM   14  N   UNL     1     -10.399  17.234  67.114  1.00  0.00    -0.322 NA 
HETATM   15  C   UNL     1     -10.694  16.193  66.094  1.00  0.00    -0.221 A  
HETATM   16  H   UNL     1      -9.833  18.075  67.000  1.00  0.00     0.000 HD 
HETATM   17  C   UNL     1     -11.492  15.093  66.796  1.00  0.00    -0.195 A  
HETATM   18  N   UNL     1     -11.633  15.620  68.132  1.00  0.00    -0.330 NA 
ENDBRANCH  11  13
ENDBRANCH  10  11
ENDBRANCH   2   3
TORSDOF 3
ENDMDL
