MODEL        1
REMARK 921   NORMALIZED FREE ENERGY PREDICTED BY IDOCK:   -7.23 KCAL/MOL
REMARK 922        TOTAL FREE ENERGY PREDICTED BY IDOCK:   -9.60 KCAL/MOL
REMARK 923 INTER-LIGAND FREE ENERGY PREDICTED BY IDOCK:   -9.34 KCAL/MOL
REMARK 924 INTRA-LIGAND FREE ENERGY PREDICTED BY IDOCK:   -0.26 KCAL/MOL
REMARK 927      BINDING AFFINITY PREDICTED BY RF-SCORE:    0.00 PKD
ROOT
HETATM    1  C   UNL     1      -8.339  11.217  68.453  1.00  0.00    -0.149 C  
HETATM    2  O   UNL     1      -9.681  10.823  68.187  1.00  0.00    -0.152 OA 
ENDROOT
BRANCH   2   3
HETATM    3  C   UNL     1     -10.447  11.605  67.351  1.00  0.00    -0.210 A  
HETATM    4  C   UNL     1     -11.040  12.852  67.727  1.00  0.00    -0.291 A  
HETATM    5  C   UNL     1     -11.663  13.613  66.714  1.00  0.00    -0.392 A  
HETATM    6  C   UNL     1     -11.271  11.734  63.603  1.00  0.00    -0.435 C  
HETATM    7  O   UNL     1     -12.326  14.777  66.964  1.00  0.00    -0.435 OA 
HETATM    8  C   UNL     1      -9.895   9.811  65.640  1.00  0.00    -0.371 C  
HETATM    9  C   UNL     1     -11.647  13.160  65.402  1.00  0.00    -0.362 A  
HETATM   10  C   UNL     1     -12.154  13.808  64.188  1.00  0.00    -0.433 C  
HETATM   11  C   UNL     1     -10.477  11.146  66.008  1.00  0.00    -0.312 A  
HETATM   12  H   UNL     1     -12.745  15.290  66.283  1.00  0.00     0.000 HD 
HETATM   13  O   UNL     1     -12.652  14.908  64.067  1.00  0.00    -0.832 OA 
HETATM   14  C   UNL     1     -11.084  11.950  65.053  1.00  0.00    -0.360 A  
HETATM   15  O   UNL     1     -11.914  12.939  63.157  1.00  0.00    -0.529 OA 
BRANCH   4  16
HETATM   16  C   UNL     1     -11.074  13.237  69.188  1.00  0.00    -0.259 C  
BRANCH  16  17
HETATM   17  C   UNL     1     -12.304  13.825  69.801  1.00  0.00    -0.311 C  
HETATM   18  C   UNL     1     -12.403  15.027  70.398  1.00  0.00    -0.401 C  
HETATM   19  C   UNL     1     -11.317  16.073  70.363  1.00  0.00    -0.405 C  
BRANCH  18  20
HETATM   20  C   UNL     1     -13.622  15.410  71.233  1.00  0.00    -0.585 C  
BRANCH  20  21
HETATM   21  C   UNL     1     -13.748  14.742  72.607  1.00  0.00    -0.547 C  
HETATM   22  O   UNL     1     -11.944  14.733  74.214  1.00  0.00    -0.461 OA 
HETATM   23  O   UNL     1     -13.143  16.624  73.971  1.00  0.00    -0.557 OA 
HETATM   24  C   UNL     1     -12.846  15.344  73.660  1.00  0.00    -0.548 C  
ENDBRANCH  20  21
ENDBRANCH  18  20
ENDBRANCH  16  17
ENDBRANCH   4  16
ENDBRANCH   2   3
TORSDOF 5
ENDMDL
MODEL        2
REMARK 921   NORMALIZED FREE ENERGY PREDICTED BY IDOCK:   -7.11 KCAL/MOL
REMARK 922        TOTAL FREE ENERGY PREDICTED BY IDOCK:   -9.45 KCAL/MOL
REMARK 923 INTER-LIGAND FREE ENERGY PREDICTED BY IDOCK:   -8.85 KCAL/MOL
REMARK 924 INTRA-LIGAND FREE ENERGY PREDICTED BY IDOCK:   -0.60 KCAL/MOL
REMARK 927      BINDING AFFINITY PREDICTED BY RF-SCORE:    0.00 PKD
ROOT
HETATM    1  C   UNL     1      -9.276  12.937  67.869  1.00  0.00    -0.208 C  
HETATM    2  O   UNL     1     -10.587  13.491  67.930  1.00  0.00    -0.240 OA 
ENDROOT
BRANCH   2   3
HETATM    3  C   UNL     1     -11.075  13.900  69.151  1.00  0.00    -0.245 A  
HETATM    4  C   UNL     1     -10.966  15.233  69.661  1.00  0.00    -0.291 A  
HETATM    5  C   UNL     1     -11.654  15.535  70.857  1.00  0.00    -0.375 A  
HETATM    6  C   UNL     1     -13.381  12.477  71.871  1.00  0.00    -0.368 C  
HETATM    7  O   UNL     1     -11.563  16.745  71.478  1.00  0.00    -0.570 OA 
HETATM    8  C   UNL     1     -11.911  11.506  69.294  1.00  0.00    -0.414 C  
HETATM    9  C   UNL     1     -12.434  14.563  71.469  1.00  0.00    -0.424 A  
HETATM   10  C   UNL     1     -13.287  14.667  72.656  1.00  0.00    -0.482 C  
HETATM   11  C   UNL     1     -11.849  12.914  69.816  1.00  0.00    -0.380 A  
HETATM   12  H   UNL     1     -12.026  16.948  72.282  1.00  0.00     0.000 HD 
HETATM   13  O   UNL     1     -13.533  15.647  73.330  1.00  0.00    -0.524 OA 
HETATM   14  C   UNL     1     -12.521  13.278  70.976  1.00  0.00    -0.422 A  
HETATM   15  O   UNL     1     -13.824  13.423  72.858  1.00  0.00    -0.624 OA 
BRANCH   4  16
HETATM   16  C   UNL     1     -10.040  16.208  68.972  1.00  0.00    -0.247 C  
BRANCH  16  17
HETATM   17  C   UNL     1     -10.569  17.218  68.004  1.00  0.00    -0.394 C  
HETATM   18  C   UNL     1     -10.289  17.287  66.690  1.00  0.00    -0.305 C  
HETATM   19  C   UNL     1      -9.545  16.215  65.933  1.00  0.00    -0.359 C  
BRANCH  18  20
HETATM   20  C   UNL     1     -10.653  18.512  65.855  1.00  0.00    -0.336 C  
BRANCH  20  21
HETATM   21  C   UNL     1     -10.117  19.860  66.349  1.00  0.00    -0.615 C  
HETATM   22  O   UNL     1      -8.140  20.043  67.726  1.00  0.00    -0.293 OA 
HETATM   23  O   UNL     1      -7.870  19.671  65.521  1.00  0.00    -0.398 OA 
HETATM   24  C   UNL     1      -8.630  19.860  66.621  1.00  0.00    -0.337 C  
ENDBRANCH  20  21
ENDBRANCH  18  20
ENDBRANCH  16  17
ENDBRANCH   4  16
ENDBRANCH   2   3
TORSDOF 5
ENDMDL
MODEL        3
REMARK 921   NORMALIZED FREE ENERGY PREDICTED BY IDOCK:   -6.96 KCAL/MOL
REMARK 922        TOTAL FREE ENERGY PREDICTED BY IDOCK:   -9.25 KCAL/MOL
REMARK 923 INTER-LIGAND FREE ENERGY PREDICTED BY IDOCK:   -8.69 KCAL/MOL
REMARK 924 INTRA-LIGAND FREE ENERGY PREDICTED BY IDOCK:   -0.57 KCAL/MOL
REMARK 927      BINDING AFFINITY PREDICTED BY RF-SCORE:    0.00 PKD
ROOT
HETATM    1  C   UNL     1      -9.524  13.916  66.921  1.00  0.00    -0.258 C  
HETATM    2  O   UNL     1     -10.919  13.713  67.120  1.00  0.00    -0.282 OA 
ENDROOT
BRANCH   2   3
HETATM    3  C   UNL     1     -11.423  13.797  68.399  1.00  0.00    -0.316 A  
HETATM    4  C   UNL     1     -11.861  15.012  69.018  1.00  0.00    -0.330 A  
HETATM    5  C   UNL     1     -12.499  14.913  70.274  1.00  0.00    -0.336 A  
HETATM    6  C   UNL     1     -12.621  11.357  71.111  1.00  0.00    -0.386 C  
HETATM    7  O   UNL     1     -12.890  16.003  70.993  1.00  0.00    -0.574 OA 
HETATM    8  C   UNL     1     -11.115  11.276  68.377  1.00  0.00    -0.296 C  
HETATM    9  C   UNL     1     -12.719  13.665  70.841  1.00  0.00    -0.382 A  
HETATM   10  C   UNL     1     -13.420  13.317  72.080  1.00  0.00    -0.562 C  
HETATM   11  C   UNL     1     -11.626  12.536  69.018  1.00  0.00    -0.365 A  
HETATM   12  H   UNL     1     -13.320  15.937  71.837  1.00  0.00     0.000 HD 
HETATM   13  O   UNL     1     -14.007  14.049  72.851  1.00  0.00    -0.617 OA 
HETATM   14  C   UNL     1     -12.281  12.502  70.242  1.00  0.00    -0.345 A  
HETATM   15  O   UNL     1     -13.339  11.955  72.201  1.00  0.00    -0.503 OA 
BRANCH   4  16
HETATM   16  C   UNL     1     -11.520  16.331  68.366  1.00  0.00    -0.243 C  
BRANCH  16  17
HETATM   17  C   UNL     1     -10.300  17.096  68.767  1.00  0.00    -0.353 C  
HETATM   18  C   UNL     1      -9.970  18.339  68.369  1.00  0.00    -0.401 C  
HETATM   19  C   UNL     1     -10.897  19.248  67.601  1.00  0.00    -0.484 C  
BRANCH  18  20
HETATM   20  C   UNL     1      -8.578  18.915  68.610  1.00  0.00    -0.376 C  
BRANCH  20  21
HETATM   21  C   UNL     1      -7.423  18.257  67.846  1.00  0.00    -0.236 C  
HETATM   22  O   UNL     1      -7.759  17.037  65.788  1.00  0.00    -0.357 OA 
HETATM   23  O   UNL     1      -7.781  19.288  65.707  1.00  0.00    -0.427 OA 
HETATM   24  C   UNL     1      -7.679  18.113  66.364  1.00  0.00    -0.261 C  
ENDBRANCH  20  21
ENDBRANCH  18  20
ENDBRANCH  16  17
ENDBRANCH   4  16
ENDBRANCH   2   3
TORSDOF 5
ENDMDL
MODEL        4
REMARK 921   NORMALIZED FREE ENERGY PREDICTED BY IDOCK:   -6.90 KCAL/MOL
REMARK 922        TOTAL FREE ENERGY PREDICTED BY IDOCK:   -9.18 KCAL/MOL
REMARK 923 INTER-LIGAND FREE ENERGY PREDICTED BY IDOCK:   -8.52 KCAL/MOL
REMARK 924 INTRA-LIGAND FREE ENERGY PREDICTED BY IDOCK:   -0.66 KCAL/MOL
REMARK 927      BINDING AFFINITY PREDICTED BY RF-SCORE:    0.00 PKD
ROOT
HETATM    1  C   UNL     1     -10.897   7.029  67.038  1.00  0.00    -0.343 C  
HETATM    2  O   UNL     1     -10.105   7.438  68.148  1.00  0.00    -0.166 OA 
ENDROOT
BRANCH   2   3
HETATM    3  C   UNL     1     -10.629   8.355  69.032  1.00  0.00    -0.154 A  
HETATM    4  C   UNL     1     -10.614   9.773  68.833  1.00  0.00    -0.240 A  
HETATM    5  C   UNL     1     -11.331  10.571  69.751  1.00  0.00    -0.300 A  
HETATM    6  C   UNL     1     -12.856   8.282  72.160  1.00  0.00    -0.315 C  
HETATM    7  O   UNL     1     -11.327  11.933  69.708  1.00  0.00    -0.429 OA 
HETATM    8  C   UNL     1     -11.303   6.282  70.335  1.00  0.00    -0.440 C  
HETATM    9  C   UNL     1     -12.048   9.970  70.776  1.00  0.00    -0.418 A  
HETATM   10  C   UNL     1     -12.916  10.581  71.787  1.00  0.00    -0.476 C  
HETATM   11  C   UNL     1     -11.340   7.767  70.111  1.00  0.00    -0.121 A  
HETATM   12  H   UNL     1     -11.809  12.470  70.326  1.00  0.00     0.000 HD 
HETATM   13  O   UNL     1     -13.234  11.746  71.909  1.00  0.00    -0.482 OA 
HETATM   14  C   UNL     1     -12.045   8.603  70.967  1.00  0.00    -0.247 A  
HETATM   15  O   UNL     1     -13.369   9.558  72.578  1.00  0.00    -0.418 OA 
BRANCH   4  16
HETATM   16  C   UNL     1      -9.752  10.349  67.735  1.00  0.00    -0.181 C  
BRANCH  16  17
HETATM   17  C   UNL     1     -10.348  10.782  66.433  1.00  0.00    -0.306 C  
HETATM   18  C   UNL     1      -9.930  10.424  65.205  1.00  0.00    -0.376 C  
HETATM   19  C   UNL     1      -8.902   9.351  64.948  1.00  0.00    -0.240 C  
BRANCH  18  20
HETATM   20  C   UNL     1     -10.426  11.137  63.950  1.00  0.00    -0.445 C  
BRANCH  20  21
HETATM   21  C   UNL     1     -10.764  12.625  64.097  1.00  0.00    -0.435 C  
HETATM   22  O   UNL     1     -12.651  13.642  62.983  1.00  0.00    -0.729 OA 
HETATM   23  O   UNL     1     -13.043  12.399  64.821  1.00  0.00    -0.806 OA 
HETATM   24  C   UNL     1     -12.227  12.939  63.889  1.00  0.00    -0.449 C  
ENDBRANCH  20  21
ENDBRANCH  18  20
ENDBRANCH  16  17
ENDBRANCH   4  16
ENDBRANCH   2   3
TORSDOF 5
ENDMDL
MODEL        5
REMARK 921   NORMALIZED FREE ENERGY PREDICTED BY IDOCK:   -6.87 KCAL/MOL
REMARK 922        TOTAL FREE ENERGY PREDICTED BY IDOCK:   -9.15 KCAL/MOL
REMARK 923 INTER-LIGAND FREE ENERGY PREDICTED BY IDOCK:   -8.65 KCAL/MOL
REMARK 924 INTRA-LIGAND FREE ENERGY PREDICTED BY IDOCK:   -0.50 KCAL/MOL
REMARK 927      BINDING AFFINITY PREDICTED BY RF-SCORE:    0.00 PKD
ROOT
HETATM    1  C   UNL     1     -11.757  15.914  71.327  1.00  0.00    -0.448 C  
HETATM    2  O   UNL     1     -12.759  15.158  70.655  1.00  0.00    -0.361 OA 
ENDROOT
BRANCH   2   3
HETATM    3  C   UNL     1     -12.502  13.838  70.356  1.00  0.00    -0.314 A  
HETATM    4  C   UNL     1     -11.713  13.398  69.245  1.00  0.00    -0.383 A  
HETATM    5  C   UNL     1     -11.409  12.022  69.162  1.00  0.00    -0.281 A  
HETATM    6  C   UNL     1     -12.939  10.433  72.077  1.00  0.00    -0.396 C  
HETATM    7  O   UNL     1     -10.732  11.476  68.113  1.00  0.00    -0.188 OA 
HETATM    8  C   UNL     1     -13.829  13.399  72.477  1.00  0.00    -0.595 C  
HETATM    9  C   UNL     1     -11.837  11.158  70.161  1.00  0.00    -0.449 A  
HETATM   10  C   UNL     1     -11.578   9.725  70.325  1.00  0.00    -0.220 C  
HETATM   11  C   UNL     1     -12.959  12.928  71.345  1.00  0.00    -0.362 A  
HETATM   12  H   UNL     1     -10.526  10.550  68.057  1.00  0.00     0.000 HD 
HETATM   13  O   UNL     1     -10.885   8.997  69.644  1.00  0.00    -0.231 OA 
HETATM   14  C   UNL     1     -12.607  11.591  71.221  1.00  0.00    -0.452 A  
HETATM   15  O   UNL     1     -12.242   9.339  71.460  1.00  0.00    -0.318 OA 
BRANCH   4  16
HETATM   16  C   UNL     1     -11.348  14.392  68.167  1.00  0.00    -0.317 C  
BRANCH  16  17
HETATM   17  C   UNL     1     -11.925  14.283  66.792  1.00  0.00    -0.462 C  
HETATM   18  C   UNL     1     -11.320  14.635  65.642  1.00  0.00    -0.338 C  
HETATM   19  C   UNL     1      -9.864  15.013  65.542  1.00  0.00    -0.352 C  
BRANCH  18  20
HETATM   20  C   UNL     1     -12.094  14.746  64.331  1.00  0.00    -0.457 C  
BRANCH  20  21
HETATM   21  C   UNL     1     -11.961  13.570  63.356  1.00  0.00    -0.314 C  
HETATM   22  O   UNL     1     -11.262  11.370  64.068  1.00  0.00    -0.368 OA 
HETATM   23  O   UNL     1     -13.380  12.004  64.498  1.00  0.00    -0.572 OA 
HETATM   24  C   UNL     1     -12.140  12.218  64.008  1.00  0.00    -0.471 C  
ENDBRANCH  20  21
ENDBRANCH  18  20
ENDBRANCH  16  17
ENDBRANCH   4  16
ENDBRANCH   2   3
TORSDOF 5
ENDMDL
MODEL        6
REMARK 921   NORMALIZED FREE ENERGY PREDICTED BY IDOCK:   -6.82 KCAL/MOL
REMARK 922        TOTAL FREE ENERGY PREDICTED BY IDOCK:   -9.08 KCAL/MOL
REMARK 923 INTER-LIGAND FREE ENERGY PREDICTED BY IDOCK:   -8.57 KCAL/MOL
REMARK 924 INTRA-LIGAND FREE ENERGY PREDICTED BY IDOCK:   -0.50 KCAL/MOL
REMARK 927      BINDING AFFINITY PREDICTED BY RF-SCORE:    0.00 PKD
ROOT
HETATM    1  C   UNL     1     -14.189  14.270  72.189  1.00  0.00    -0.542 C  
HETATM    2  O   UNL     1     -12.800  14.003  72.022  1.00  0.00    -0.335 OA 
ENDROOT
BRANCH   2   3
HETATM    3  C   UNL     1     -12.357  13.547  70.800  1.00  0.00    -0.363 A  
HETATM    4  C   UNL     1     -12.511  12.202  70.334  1.00  0.00    -0.224 A  
HETATM    5  C   UNL     1     -12.146  11.927  68.997  1.00  0.00    -0.186 A  
HETATM    6  C   UNL     1     -11.006  15.085  67.552  1.00  0.00    -0.307 C  
HETATM    7  O   UNL     1     -12.177  10.673  68.465  1.00  0.00    -0.822 OA 
HETATM    8  C   UNL     1     -11.658  15.967  70.475  1.00  0.00    -0.402 C  
HETATM    9  C   UNL     1     -11.699  12.954  68.178  1.00  0.00    -0.395 A  
HETATM   10  C   UNL     1     -11.343  12.923  66.757  1.00  0.00    -0.322 C  
HETATM   11  C   UNL     1     -11.861  14.572  69.954  1.00  0.00    -0.373 A  
HETATM   12  H   UNL     1     -11.932  10.487  67.566  1.00  0.00     0.000 HD 
HETATM   13  O   UNL     1     -11.416  11.994  65.977  1.00  0.00    -0.350 OA 
HETATM   14  C   UNL     1     -11.542  14.244  68.642  1.00  0.00    -0.352 A  
HETATM   15  O   UNL     1     -10.943  14.191  66.429  1.00  0.00    -0.304 OA 
BRANCH   4  16
HETATM   16  C   UNL     1     -12.938  11.132  71.310  1.00  0.00    -0.457 C  
BRANCH  16  17
HETATM   17  C   UNL     1     -12.031   9.993  71.651  1.00  0.00    -0.369 C  
HETATM   18  C   UNL     1     -12.407   8.761  72.039  1.00  0.00    -0.444 C  
HETATM   19  C   UNL     1     -13.831   8.265  71.995  1.00  0.00    -0.406 C  
BRANCH  18  20
HETATM   20  C   UNL     1     -11.411   7.767  72.630  1.00  0.00    -0.449 C  
BRANCH  20  21
HETATM   21  C   UNL     1     -11.229   6.447  71.870  1.00  0.00    -0.325 C  
HETATM   22  O   UNL     1     -11.453   6.292  69.470  1.00  0.00    -0.428 OA 
HETATM   23  O   UNL     1      -9.555   7.169  70.307  1.00  0.00    -0.169 OA 
HETATM   24  C   UNL     1     -10.785   6.628  70.437  1.00  0.00    -0.250 C  
ENDBRANCH  20  21
ENDBRANCH  18  20
ENDBRANCH  16  17
ENDBRANCH   4  16
ENDBRANCH   2   3
TORSDOF 5
ENDMDL
MODEL        7
REMARK 921   NORMALIZED FREE ENERGY PREDICTED BY IDOCK:   -6.82 KCAL/MOL
REMARK 922        TOTAL FREE ENERGY PREDICTED BY IDOCK:   -9.07 KCAL/MOL
REMARK 923 INTER-LIGAND FREE ENERGY PREDICTED BY IDOCK:   -8.76 KCAL/MOL
REMARK 924 INTRA-LIGAND FREE ENERGY PREDICTED BY IDOCK:   -0.31 KCAL/MOL
REMARK 927      BINDING AFFINITY PREDICTED BY RF-SCORE:    0.00 PKD
ROOT
HETATM    1  C   UNL     1      -8.710  10.751  68.717  1.00  0.00    -0.163 C  
HETATM    2  O   UNL     1      -9.952  10.305  68.182  1.00  0.00    -0.142 OA 
ENDROOT
BRANCH   2   3
HETATM    3  C   UNL     1     -10.649  11.146  67.343  1.00  0.00    -0.234 A  
HETATM    4  C   UNL     1     -11.388  12.293  67.777  1.00  0.00    -0.362 A  
HETATM    5  C   UNL     1     -11.918  13.145  66.783  1.00  0.00    -0.373 A  
HETATM    6  C   UNL     1     -10.935  11.730  63.558  1.00  0.00    -0.424 C  
HETATM    7  O   UNL     1     -12.700  14.223  67.072  1.00  0.00    -0.483 OA 
HETATM    8  C   UNL     1      -9.716   9.636  65.526  1.00  0.00    -0.372 C  
HETATM    9  C   UNL     1     -11.678  12.875  65.442  1.00  0.00    -0.413 A  
HETATM   10  C   UNL     1     -12.056  13.649  64.256  1.00  0.00    -0.434 C  
HETATM   11  C   UNL     1     -10.450  10.872  65.965  1.00  0.00    -0.287 A  
HETATM   12  H   UNL     1     -13.057  14.796  66.404  1.00  0.00     0.000 HD 
HETATM   13  O   UNL     1     -12.617  14.724  64.199  1.00  0.00    -0.784 OA 
HETATM   14  C   UNL     1     -10.976  11.760  65.035  1.00  0.00    -0.357 A  
HETATM   15  O   UNL     1     -11.602  12.943  63.173  1.00  0.00    -0.422 OA 
BRANCH   4  16
HETATM   16  C   UNL     1     -11.661  12.474  69.251  1.00  0.00    -0.379 C  
BRANCH  16  17
HETATM   17  C   UNL     1     -12.152  11.337  70.089  1.00  0.00    -0.448 C  
HETATM   18  C   UNL     1     -12.731  11.429  71.300  1.00  0.00    -0.498 C  
HETATM   19  C   UNL     1     -13.166  12.731  71.925  1.00  0.00    -0.511 C  
BRANCH  18  20
HETATM   20  C   UNL     1     -12.937  10.203  72.186  1.00  0.00    -0.436 C  
BRANCH  20  21
HETATM   21  C   UNL     1     -12.807   8.836  71.503  1.00  0.00    -0.366 C  
HETATM   22  O   UNL     1     -10.716   8.032  70.601  1.00  0.00    -0.220 OA 
HETATM   23  O   UNL     1     -11.015   7.948  72.832  1.00  0.00    -0.377 OA 
HETATM   24  C   UNL     1     -11.417   8.250  71.579  1.00  0.00    -0.275 C  
ENDBRANCH  20  21
ENDBRANCH  18  20
ENDBRANCH  16  17
ENDBRANCH   4  16
ENDBRANCH   2   3
TORSDOF 5
ENDMDL
MODEL        8
REMARK 921   NORMALIZED FREE ENERGY PREDICTED BY IDOCK:   -6.81 KCAL/MOL
REMARK 922        TOTAL FREE ENERGY PREDICTED BY IDOCK:   -9.06 KCAL/MOL
REMARK 923 INTER-LIGAND FREE ENERGY PREDICTED BY IDOCK:   -8.82 KCAL/MOL
REMARK 924 INTRA-LIGAND FREE ENERGY PREDICTED BY IDOCK:   -0.24 KCAL/MOL
REMARK 927      BINDING AFFINITY PREDICTED BY RF-SCORE:    0.00 PKD
ROOT
HETATM    1  C   UNL     1      -9.349  11.039  68.386  1.00  0.00    -0.179 C  
HETATM    2  O   UNL     1      -8.900  11.726  67.222  1.00  0.00    -0.157 OA 
ENDROOT
BRANCH   2   3
HETATM    3  C   UNL     1      -9.748  12.627  66.618  1.00  0.00    -0.249 A  
HETATM    4  C   UNL     1      -9.855  14.008  66.981  1.00  0.00    -0.260 A  
HETATM    5  C   UNL     1     -10.653  14.840  66.165  1.00  0.00    -0.311 A  
HETATM    6  C   UNL     1     -11.964  12.729  63.484  1.00  0.00    -0.555 C  
HETATM    7  O   UNL     1     -10.890  16.150  66.453  1.00  0.00    -0.255 OA 
HETATM    8  C   UNL     1     -10.335  10.646  65.141  1.00  0.00    -0.331 C  
HETATM    9  C   UNL     1     -11.265  14.316  65.035  1.00  0.00    -0.364 A  
HETATM   10  C   UNL     1     -12.066  14.995  64.011  1.00  0.00    -0.094 C  
HETATM   11  C   UNL     1     -10.416  12.108  65.478  1.00  0.00    -0.300 A  
HETATM   12  H   UNL     1     -11.427  16.710  65.904  1.00  0.00     0.000 HD 
HETATM   13  O   UNL     1     -12.319  16.178  63.909  1.00  0.00    -0.895 OA 
HETATM   14  C   UNL     1     -11.167  12.981  64.702  1.00  0.00    -0.355 A  
HETATM   15  O   UNL     1     -12.456  14.030  63.121  1.00  0.00    -0.733 OA 
BRANCH   4  16
HETATM   16  C   UNL     1      -9.213  14.480  68.264  1.00  0.00    -0.201 C  
BRANCH  16  17
HETATM   17  C   UNL     1     -10.015  15.183  69.313  1.00  0.00    -0.243 C  
HETATM   18  C   UNL     1     -11.202  14.788  69.809  1.00  0.00    -0.306 C  
HETATM   19  C   UNL     1     -11.825  13.444  69.524  1.00  0.00    -0.391 C  
BRANCH  18  20
HETATM   20  C   UNL     1     -12.062  15.715  70.663  1.00  0.00    -0.443 C  
BRANCH  20  21
HETATM   21  C   UNL     1     -13.502  15.260  70.929  1.00  0.00    -0.441 C  
HETATM   22  O   UNL     1     -14.063  13.688  72.675  1.00  0.00    -0.746 OA 
HETATM   23  O   UNL     1     -13.623  15.818  73.262  1.00  0.00    -0.539 OA 
HETATM   24  C   UNL     1     -13.748  14.825  72.355  1.00  0.00    -0.471 C  
ENDBRANCH  20  21
ENDBRANCH  18  20
ENDBRANCH  16  17
ENDBRANCH   4  16
ENDBRANCH   2   3
TORSDOF 5
ENDMDL
MODEL        9
REMARK 921   NORMALIZED FREE ENERGY PREDICTED BY IDOCK:   -6.72 KCAL/MOL
REMARK 922        TOTAL FREE ENERGY PREDICTED BY IDOCK:   -8.95 KCAL/MOL
REMARK 923 INTER-LIGAND FREE ENERGY PREDICTED BY IDOCK:   -8.30 KCAL/MOL
REMARK 924 INTRA-LIGAND FREE ENERGY PREDICTED BY IDOCK:   -0.65 KCAL/MOL
REMARK 927      BINDING AFFINITY PREDICTED BY RF-SCORE:    0.00 PKD
ROOT
HETATM    1  C   UNL     1      -9.700   9.463  69.450  1.00  0.00    -0.177 C  
HETATM    2  O   UNL     1     -10.944  10.060  69.099  1.00  0.00    -0.223 OA 
ENDROOT
BRANCH   2   3
HETATM    3  C   UNL     1     -11.218  11.332  69.551  1.00  0.00    -0.272 A  
HETATM    4  C   UNL     1     -10.740  12.531  68.932  1.00  0.00    -0.202 A  
HETATM    5  C   UNL     1     -11.235  13.761  69.418  1.00  0.00    -0.207 A  
HETATM    6  C   UNL     1     -13.589  12.957  72.097  1.00  0.00    -0.495 C  
HETATM    7  O   UNL     1     -10.797  14.968  68.961  1.00  0.00    -0.224 OA 
HETATM    8  C   UNL     1     -12.613  10.106  71.283  1.00  0.00    -0.508 C  
HETATM    9  C   UNL     1     -12.184  13.772  70.432  1.00  0.00    -0.433 A  
HETATM   10  C   UNL     1     -12.889  14.907  71.034  1.00  0.00    -0.362 C  
HETATM   11  C   UNL     1     -12.160  11.371  70.612  1.00  0.00    -0.469 A  
HETATM   12  H   UNL     1     -11.131  15.795  69.287  1.00  0.00     0.000 HD 
HETATM   13  O   UNL     1     -12.829  16.082  70.735  1.00  0.00    -0.388 OA 
HETATM   14  C   UNL     1     -12.628  12.610  71.030  1.00  0.00    -0.354 A  
HETATM   15  O   UNL     1     -13.702  14.386  72.006  1.00  0.00    -0.367 OA 
BRANCH   4  16
HETATM   16  C   UNL     1      -9.657  12.434  67.884  1.00  0.00    -0.205 C  
BRANCH  16  17
HETATM   17  C   UNL     1      -9.952  12.705  66.443  1.00  0.00    -0.262 C  
HETATM   18  C   UNL     1      -9.981  11.798  65.450  1.00  0.00    -0.284 C  
HETATM   19  C   UNL     1      -9.916  10.307  65.672  1.00  0.00    -0.347 C  
BRANCH  18  20
HETATM   20  C   UNL     1     -10.015  12.217  63.982  1.00  0.00    -0.301 C  
BRANCH  20  21
HETATM   21  C   UNL     1     -11.308  11.918  63.215  1.00  0.00    -0.373 C  
HETATM   22  O   UNL     1     -13.495  12.207  64.198  1.00  0.00    -0.671 OA 
HETATM   23  O   UNL     1     -12.389  14.043  63.504  1.00  0.00    -0.748 OA 
HETATM   24  C   UNL     1     -12.499  12.711  63.700  1.00  0.00    -0.427 C  
ENDBRANCH  20  21
ENDBRANCH  18  20
ENDBRANCH  16  17
ENDBRANCH   4  16
ENDBRANCH   2   3
TORSDOF 5
ENDMDL
MODEL       10
REMARK 921   NORMALIZED FREE ENERGY PREDICTED BY IDOCK:   -6.67 KCAL/MOL
REMARK 922        TOTAL FREE ENERGY PREDICTED BY IDOCK:   -8.89 KCAL/MOL
REMARK 923 INTER-LIGAND FREE ENERGY PREDICTED BY IDOCK:   -8.24 KCAL/MOL
REMARK 924 INTRA-LIGAND FREE ENERGY PREDICTED BY IDOCK:   -0.65 KCAL/MOL
REMARK 927      BINDING AFFINITY PREDICTED BY RF-SCORE:    0.00 PKD
ROOT
HETATM    1  C   UNL     1     -11.878  13.145  65.903  1.00  0.00    -0.406 C  
HETATM    2  O   UNL     1     -10.950  13.089  66.982  1.00  0.00    -0.258 OA 
ENDROOT
BRANCH   2   3
HETATM    3  C   UNL     1     -11.423  13.224  68.268  1.00  0.00    -0.316 A  
HETATM    4  C   UNL     1     -11.841  14.462  68.851  1.00  0.00    -0.355 A  
HETATM    5  C   UNL     1     -12.449  14.414  70.125  1.00  0.00    -0.339 A  
HETATM    6  C   UNL     1     -12.563  10.892  71.099  1.00  0.00    -0.428 C  
HETATM    7  O   UNL     1     -12.819  15.532  70.811  1.00  0.00    -0.458 OA 
HETATM    8  C   UNL     1     -11.124  10.702  68.335  1.00  0.00    -0.328 C  
HETATM    9  C   UNL     1     -12.659  13.190  70.744  1.00  0.00    -0.338 A  
HETATM   10  C   UNL     1     -13.331  12.892  72.012  1.00  0.00    -0.482 C  
HETATM   11  C   UNL     1     -11.615  11.988  68.939  1.00  0.00    -0.377 A  
HETATM   12  H   UNL     1     -13.228  15.500  71.668  1.00  0.00     0.000 HD 
HETATM   13  O   UNL     1     -13.897  13.655  72.768  1.00  0.00    -0.727 OA 
HETATM   14  C   UNL     1     -12.240  12.003  70.179  1.00  0.00    -0.309 A  
HETATM   15  O   UNL     1     -13.253  11.535  72.183  1.00  0.00    -0.505 OA 
BRANCH   4  16
HETATM   16  C   UNL     1     -11.512  15.755  68.142  1.00  0.00    -0.302 C  
BRANCH  16  17
HETATM   17  C   UNL     1     -10.317  16.565  68.531  1.00  0.00    -0.289 C  
HETATM   18  C   UNL     1      -9.085  16.480  67.995  1.00  0.00    -0.209 C  
HETATM   19  C   UNL     1      -8.763  15.682  66.756  1.00  0.00    -0.306 C  
BRANCH  18  20
HETATM   20  C   UNL     1      -7.878  17.146  68.649  1.00  0.00    -0.265 C  
BRANCH  20  21
HETATM   21  C   UNL     1      -7.130  18.186  67.807  1.00  0.00    -0.212 C  
HETATM   22  O   UNL     1      -8.076  19.159  65.808  1.00  0.00    -0.452 OA 
HETATM   23  O   UNL     1      -8.804  19.908  67.804  1.00  0.00    -0.318 OA 
HETATM   24  C   UNL     1      -8.041  19.107  67.029  1.00  0.00    -0.262 C  
ENDBRANCH  20  21
ENDBRANCH  18  20
ENDBRANCH  16  17
ENDBRANCH   4  16
ENDBRANCH   2   3
TORSDOF 5
ENDMDL
MODEL       11
REMARK 921   NORMALIZED FREE ENERGY PREDICTED BY IDOCK:   -6.64 KCAL/MOL
REMARK 922        TOTAL FREE ENERGY PREDICTED BY IDOCK:   -8.84 KCAL/MOL
REMARK 923 INTER-LIGAND FREE ENERGY PREDICTED BY IDOCK:   -8.26 KCAL/MOL
REMARK 924 INTRA-LIGAND FREE ENERGY PREDICTED BY IDOCK:   -0.58 KCAL/MOL
REMARK 927      BINDING AFFINITY PREDICTED BY RF-SCORE:    0.00 PKD
ROOT
HETATM    1  C   UNL     1     -12.011  16.251  72.424  1.00  0.00    -0.540 C  
HETATM    2  O   UNL     1     -12.909  15.835  71.400  1.00  0.00    -0.467 OA 
ENDROOT
BRANCH   2   3
HETATM    3  C   UNL     1     -12.554  14.770  70.602  1.00  0.00    -0.354 A  
HETATM    4  C   UNL     1     -11.807  14.884  69.386  1.00  0.00    -0.356 A  
HETATM    5  C   UNL     1     -11.385  13.688  68.763  1.00  0.00    -0.289 A  
HETATM    6  C   UNL     1     -12.563  10.940  70.866  1.00  0.00    -0.397 C  
HETATM    7  O   UNL     1     -10.734  13.668  67.566  1.00  0.00    -0.256 OA 
HETATM    8  C   UNL     1     -13.688  13.403  72.418  1.00  0.00    -0.698 C  
HETATM    9  C   UNL     1     -11.664  12.465  69.356  1.00  0.00    -0.384 A  
HETATM   10  C   UNL     1     -11.266  11.117  68.940  1.00  0.00    -0.256 C  
HETATM   11  C   UNL     1     -12.859  13.505  71.168  1.00  0.00    -0.387 A  
HETATM   12  H   UNL     1     -10.450  12.864  67.147  1.00  0.00     0.000 HD 
HETATM   13  O   UNL     1     -10.558  10.789  68.010  1.00  0.00    -0.181 OA 
HETATM   14  C   UNL     1     -12.396  12.367  70.521  1.00  0.00    -0.346 A  
HETATM   15  O   UNL     1     -11.813  10.253  69.851  1.00  0.00    -0.245 OA 
BRANCH   4  16
HETATM   16  C   UNL     1     -11.607  16.250  68.773  1.00  0.00    -0.223 C  
BRANCH  16  17
HETATM   17  C   UNL     1     -10.362  17.036  69.033  1.00  0.00    -0.330 C  
HETATM   18  C   UNL     1      -9.998  18.180  68.424  1.00  0.00    -0.392 C  
HETATM   19  C   UNL     1     -10.903  18.968  67.510  1.00  0.00    -0.478 C  
BRANCH  18  20
HETATM   20  C   UNL     1      -8.588  18.747  68.559  1.00  0.00    -0.378 C  
BRANCH  20  21
HETATM   21  C   UNL     1      -7.451  17.901  67.974  1.00  0.00    -0.233 C  
HETATM   22  O   UNL     1      -7.815  16.272  66.227  1.00  0.00    -0.269 OA 
HETATM   23  O   UNL     1      -7.760  18.450  65.656  1.00  0.00    -0.518 OA 
HETATM   24  C   UNL     1      -7.702  17.444  66.555  1.00  0.00    -0.284 C  
ENDBRANCH  20  21
ENDBRANCH  18  20
ENDBRANCH  16  17
ENDBRANCH   4  16
ENDBRANCH   2   3
TORSDOF 5
ENDMDL
MODEL       12
REMARK 921   NORMALIZED FREE ENERGY PREDICTED BY IDOCK:   -6.60 KCAL/MOL
REMARK 922        TOTAL FREE ENERGY PREDICTED BY IDOCK:   -8.80 KCAL/MOL
REMARK 923 INTER-LIGAND FREE ENERGY PREDICTED BY IDOCK:   -8.18 KCAL/MOL
REMARK 924 INTRA-LIGAND FREE ENERGY PREDICTED BY IDOCK:   -0.62 KCAL/MOL
REMARK 927      BINDING AFFINITY PREDICTED BY RF-SCORE:    0.00 PKD
ROOT
HETATM    1  C   UNL     1      -7.425  10.433  66.785  1.00  0.00    -0.110 C  
HETATM    2  O   UNL     1      -8.719   9.844  66.710  1.00  0.00    -0.128 OA 
ENDROOT
BRANCH   2   3
HETATM    3  C   UNL     1      -9.801  10.657  66.452  1.00  0.00    -0.211 A  
HETATM    4  C   UNL     1     -10.501  11.412  67.446  1.00  0.00    -0.239 A  
HETATM    5  C   UNL     1     -11.489  12.320  67.003  1.00  0.00    -0.354 A  
HETATM    6  C   UNL     1     -11.548  12.106  63.354  1.00  0.00    -0.420 C  
HETATM    7  O   UNL     1     -12.272  13.037  67.858  1.00  0.00    -0.249 OA 
HETATM    8  C   UNL     1      -9.372   9.976  64.043  1.00  0.00    -0.324 C  
HETATM    9  C   UNL     1     -11.718  12.482  65.644  1.00  0.00    -0.473 A  
HETATM   10  C   UNL     1     -12.624  13.408  64.957  1.00  0.00    -0.403 C  
HETATM   11  C   UNL     1     -10.081  10.813  65.069  1.00  0.00    -0.377 A  
HETATM   12  H   UNL     1     -12.935  13.648  67.561  1.00  0.00     0.000 HD 
HETATM   13  O   UNL     1     -13.332  14.271  65.436  1.00  0.00    -0.649 OA 
HETATM   14  C   UNL     1     -11.047  11.739  64.695  1.00  0.00    -0.363 A  
HETATM   15  O   UNL     1     -12.494  13.155  63.617  1.00  0.00    -0.685 OA 
BRANCH   4  16
HETATM   16  C   UNL     1     -10.239  11.124  68.905  1.00  0.00    -0.209 C  
BRANCH  16  17
HETATM   17  C   UNL     1     -11.067  10.130  69.655  1.00  0.00    -0.308 C  
HETATM   18  C   UNL     1     -11.973  10.406  70.612  1.00  0.00    -0.448 C  
HETATM   19  C   UNL     1     -12.449  11.799  70.940  1.00  0.00    -0.416 C  
BRANCH  18  20
HETATM   20  C   UNL     1     -12.554   9.312  71.504  1.00  0.00    -0.430 C  
BRANCH  20  21
HETATM   21  C   UNL     1     -11.575   8.244  72.004  1.00  0.00    -0.403 C  
HETATM   22  O   UNL     1     -12.227   5.942  72.338  1.00  0.00    -0.239 OA 
HETATM   23  O   UNL     1     -11.858   6.649  70.231  1.00  0.00    -0.395 OA 
HETATM   24  C   UNL     1     -11.930   6.842  71.566  1.00  0.00    -0.344 C  
ENDBRANCH  20  21
ENDBRANCH  18  20
ENDBRANCH  16  17
ENDBRANCH   4  16
ENDBRANCH   2   3
TORSDOF 5
ENDMDL
MODEL       13
REMARK 921   NORMALIZED FREE ENERGY PREDICTED BY IDOCK:   -6.58 KCAL/MOL
REMARK 922        TOTAL FREE ENERGY PREDICTED BY IDOCK:   -8.76 KCAL/MOL
REMARK 923 INTER-LIGAND FREE ENERGY PREDICTED BY IDOCK:   -8.41 KCAL/MOL
REMARK 924 INTRA-LIGAND FREE ENERGY PREDICTED BY IDOCK:   -0.35 KCAL/MOL
REMARK 927      BINDING AFFINITY PREDICTED BY RF-SCORE:    0.00 PKD
ROOT
HETATM    1  C   UNL     1     -12.455  15.753  71.164  1.00  0.00    -0.436 C  
HETATM    2  O   UNL     1     -11.221  15.353  70.577  1.00  0.00    -0.282 OA 
ENDROOT
BRANCH   2   3
HETATM    3  C   UNL     1     -11.197  15.047  69.234  1.00  0.00    -0.286 A  
HETATM    4  C   UNL     1     -11.807  13.887  68.657  1.00  0.00    -0.407 A  
HETATM    5  C   UNL     1     -11.832  13.793  67.248  1.00  0.00    -0.401 A  
HETATM    6  C   UNL     1     -10.224  16.817  65.968  1.00  0.00    -0.346 C  
HETATM    7  O   UNL     1     -12.316  12.704  66.588  1.00  0.00    -0.474 OA 
HETATM    8  C   UNL     1      -9.957  17.256  69.047  1.00  0.00    -0.272 C  
HETATM    9  C   UNL     1     -11.313  14.825  66.478  1.00  0.00    -0.344 A  
HETATM   10  C   UNL     1     -11.299  14.981  65.021  1.00  0.00    -0.394 C  
HETATM   11  C   UNL     1     -10.639  16.070  68.425  1.00  0.00    -0.270 A  
HETATM   12  H   UNL     1     -12.334  12.640  65.640  1.00  0.00     0.000 HD 
HETATM   13  O   UNL     1     -11.789  14.259  64.176  1.00  0.00    -0.389 OA 
HETATM   14  C   UNL     1     -10.716  15.932  67.045  1.00  0.00    -0.292 A  
HETATM   15  O   UNL     1     -10.652  16.161  64.764  1.00  0.00    -0.630 OA 
BRANCH   4  16
HETATM   16  C   UNL     1     -12.284  12.780  69.568  1.00  0.00    -0.161 C  
BRANCH  16  17
HETATM   17  C   UNL     1     -11.477  11.535  69.754  1.00  0.00    -0.362 C  
HETATM   18  C   UNL     1     -11.679  10.585  70.686  1.00  0.00    -0.453 C  
HETATM   19  C   UNL     1     -12.895  10.527  71.576  1.00  0.00    -0.568 C  
BRANCH  18  20
HETATM   20  C   UNL     1     -10.638   9.505  70.968  1.00  0.00    -0.392 C  
BRANCH  20  21
HETATM   21  C   UNL     1     -10.978   8.498  72.073  1.00  0.00    -0.410 C  
HETATM   22  O   UNL     1     -12.592   6.728  71.761  1.00  0.00    -0.357 OA 
HETATM   23  O   UNL     1     -10.547   6.475  70.852  1.00  0.00    -0.217 OA 
HETATM   24  C   UNL     1     -11.471   7.168  71.552  1.00  0.00    -0.268 C  
ENDBRANCH  20  21
ENDBRANCH  18  20
ENDBRANCH  16  17
ENDBRANCH   4  16
ENDBRANCH   2   3
TORSDOF 5
ENDMDL
MODEL       14
REMARK 921   NORMALIZED FREE ENERGY PREDICTED BY IDOCK:   -6.57 KCAL/MOL
REMARK 922        TOTAL FREE ENERGY PREDICTED BY IDOCK:   -8.76 KCAL/MOL
REMARK 923 INTER-LIGAND FREE ENERGY PREDICTED BY IDOCK:   -8.04 KCAL/MOL
REMARK 924 INTRA-LIGAND FREE ENERGY PREDICTED BY IDOCK:   -0.71 KCAL/MOL
REMARK 927      BINDING AFFINITY PREDICTED BY RF-SCORE:    0.00 PKD
ROOT
HETATM    1  C   UNL     1      -9.963  10.133  69.358  1.00  0.00    -0.228 C  
HETATM    2  O   UNL     1     -11.284  10.526  68.997  1.00  0.00    -0.234 OA 
ENDROOT
BRANCH   2   3
HETATM    3  C   UNL     1     -11.904  11.511  69.734  1.00  0.00    -0.357 A  
HETATM    4  C   UNL     1     -12.596  11.285  70.967  1.00  0.00    -0.495 A  
HETATM    5  C   UNL     1     -13.044  12.418  71.683  1.00  0.00    -0.307 A  
HETATM    6  C   UNL     1     -12.022  15.349  69.753  1.00  0.00    -0.358 C  
HETATM    7  O   UNL     1     -13.777  12.326  72.828  1.00  0.00    -0.550 OA 
HETATM    8  C   UNL     1     -10.988  13.040  67.924  1.00  0.00    -0.264 C  
HETATM    9  C   UNL     1     -12.770  13.691  71.203  1.00  0.00    -0.432 A  
HETATM   10  C   UNL     1     -13.063  14.995  71.806  1.00  0.00    -0.356 C  
HETATM   11  C   UNL     1     -11.670  12.823  69.246  1.00  0.00    -0.376 A  
HETATM   12  H   UNL     1     -14.078  13.087  73.310  1.00  0.00     0.000 HD 
HETATM   13  O   UNL     1     -13.564  15.236  72.885  1.00  0.00    -0.483 OA 
HETATM   14  C   UNL     1     -12.114  13.896  70.007  1.00  0.00    -0.411 A  
HETATM   15  O   UNL     1     -12.608  15.939  70.924  1.00  0.00    -0.427 OA 
BRANCH   4  16
HETATM   16  C   UNL     1     -12.913   9.868  71.381  1.00  0.00    -0.504 C  
BRANCH  16  17
HETATM   17  C   UNL     1     -11.949   9.072  72.203  1.00  0.00    -0.395 C  
HETATM   18  C   UNL     1     -11.550   7.809  71.965  1.00  0.00    -0.347 C  
HETATM   19  C   UNL     1     -11.863   7.055  70.696  1.00  0.00    -0.377 C  
BRANCH  18  20
HETATM   20  C   UNL     1     -10.789   6.998  73.010  1.00  0.00    -0.342 C  
BRANCH  20  21
HETATM   21  C   UNL     1      -9.286   6.813  72.771  1.00  0.00    -0.150 C  
HETATM   22  O   UNL     1      -7.848   8.630  72.090  1.00  0.00    -0.265 OA 
HETATM   23  O   UNL     1      -8.480   8.526  74.249  1.00  0.00    -0.193 OA 
HETATM   24  C   UNL     1      -8.478   8.073  72.977  1.00  0.00    -0.193 C  
ENDBRANCH  20  21
ENDBRANCH  18  20
ENDBRANCH  16  17
ENDBRANCH   4  16
ENDBRANCH   2   3
TORSDOF 5
ENDMDL
MODEL       15
REMARK 921   NORMALIZED FREE ENERGY PREDICTED BY IDOCK:   -6.53 KCAL/MOL
REMARK 922        TOTAL FREE ENERGY PREDICTED BY IDOCK:   -8.71 KCAL/MOL
REMARK 923 INTER-LIGAND FREE ENERGY PREDICTED BY IDOCK:   -8.44 KCAL/MOL
REMARK 924 INTRA-LIGAND FREE ENERGY PREDICTED BY IDOCK:   -0.27 KCAL/MOL
REMARK 927      BINDING AFFINITY PREDICTED BY RF-SCORE:    0.00 PKD
ROOT
HETATM    1  C   UNL     1      -8.911  14.368  68.216  1.00  0.00    -0.182 C  
HETATM    2  O   UNL     1     -10.262  14.106  67.851  1.00  0.00    -0.229 OA 
ENDROOT
BRANCH   2   3
HETATM    3  C   UNL     1     -11.039  13.344  68.695  1.00  0.00    -0.263 A  
HETATM    4  C   UNL     1     -11.073  11.913  68.693  1.00  0.00    -0.295 A  
HETATM    5  C   UNL     1     -11.798  11.274  69.722  1.00  0.00    -0.364 A  
HETATM    6  C   UNL     1     -13.159  13.921  71.844  1.00  0.00    -0.385 C  
HETATM    7  O   UNL     1     -11.964   9.922  69.780  1.00  0.00    -0.463 OA 
HETATM    8  C   UNL     1     -11.701  15.601  69.654  1.00  0.00    -0.373 C  
HETATM    9  C   UNL     1     -12.410  12.033  70.710  1.00  0.00    -0.403 A  
HETATM   10  C   UNL     1     -13.140  11.593  71.903  1.00  0.00    -0.385 C  
HETATM   11  C   UNL     1     -11.705  14.099  69.696  1.00  0.00    -0.372 A  
HETATM   12  H   UNL     1     -12.452   9.492  70.473  1.00  0.00     0.000 HD 
HETATM   13  O   UNL     1     -13.320  10.463  72.307  1.00  0.00    -0.396 OA 
HETATM   14  C   UNL     1     -12.382  13.412  70.695  1.00  0.00    -0.423 A  
HETATM   15  O   UNL     1     -13.563  12.730  72.539  1.00  0.00    -0.538 OA 
BRANCH   4  16
HETATM   16  C   UNL     1     -10.439  11.167  67.542  1.00  0.00    -0.239 C  
BRANCH  16  17
HETATM   17  C   UNL     1     -10.902  11.382  66.137  1.00  0.00    -0.310 C  
HETATM   18  C   UNL     1     -10.125  11.428  65.039  1.00  0.00    -0.323 C  
HETATM   19  C   UNL     1      -8.661  11.062  65.030  1.00  0.00    -0.040 C  
BRANCH  18  20
HETATM   20  C   UNL     1     -10.659  11.928  63.699  1.00  0.00    -0.500 C  
BRANCH  20  21
HETATM   21  C   UNL     1     -12.156  12.251  63.637  1.00  0.00    -0.648 C  
HETATM   22  O   UNL     1     -13.256  13.625  65.291  1.00  0.00    -0.724 OA 
HETATM   23  O   UNL     1     -12.004  14.646  63.721  1.00  0.00    -0.332 OA 
HETATM   24  C   UNL     1     -12.526  13.550  64.314  1.00  0.00    -0.252 C  
ENDBRANCH  20  21
ENDBRANCH  18  20
ENDBRANCH  16  17
ENDBRANCH   4  16
ENDBRANCH   2   3
TORSDOF 5
ENDMDL
MODEL       16
REMARK 921   NORMALIZED FREE ENERGY PREDICTED BY IDOCK:   -6.53 KCAL/MOL
REMARK 922        TOTAL FREE ENERGY PREDICTED BY IDOCK:   -8.70 KCAL/MOL
REMARK 923 INTER-LIGAND FREE ENERGY PREDICTED BY IDOCK:   -8.16 KCAL/MOL
REMARK 924 INTRA-LIGAND FREE ENERGY PREDICTED BY IDOCK:   -0.55 KCAL/MOL
REMARK 927      BINDING AFFINITY PREDICTED BY RF-SCORE:    0.00 PKD
ROOT
HETATM    1  C   UNL     1     -10.364   7.725  66.899  1.00  0.00    -0.326 C  
HETATM    2  O   UNL     1      -9.714   7.980  68.140  1.00  0.00    -0.153 OA 
ENDROOT
BRANCH   2   3
HETATM    3  C   UNL     1     -10.354   8.769  69.071  1.00  0.00    -0.213 A  
HETATM    4  C   UNL     1     -10.331  10.200  69.071  1.00  0.00    -0.230 A  
HETATM    5  C   UNL     1     -11.163  10.868  69.996  1.00  0.00    -0.263 A  
HETATM    6  C   UNL     1     -12.946   8.278  71.861  1.00  0.00    -0.347 C  
HETATM    7  O   UNL     1     -11.170  12.223  70.141  1.00  0.00    -0.469 OA 
HETATM    8  C   UNL     1     -11.158   6.539  69.983  1.00  0.00    -0.422 C  
HETATM    9  C   UNL     1     -11.994  10.135  70.832  1.00  0.00    -0.461 A  
HETATM   10  C   UNL     1     -12.986  10.605  71.804  1.00  0.00    -0.472 C  
HETATM   11  C   UNL     1     -11.185   8.041  69.962  1.00  0.00    -0.091 A  
HETATM   12  H   UNL     1     -11.730  12.673  70.763  1.00  0.00     0.000 HD 
HETATM   13  O   UNL     1     -13.329  11.745  72.045  1.00  0.00    -0.487 OA 
HETATM   14  C   UNL     1     -11.998   8.755  70.833  1.00  0.00    -0.235 A  
HETATM   15  O   UNL     1     -13.521   9.486  72.384  1.00  0.00    -0.453 OA 
BRANCH   4  16
HETATM   16  C   UNL     1      -9.347  10.918  68.178  1.00  0.00    -0.165 C  
BRANCH  16  17
HETATM   17  C   UNL     1      -9.790  11.554  66.899  1.00  0.00    -0.220 C  
HETATM   18  C   UNL     1      -9.945  12.872  66.675  1.00  0.00    -0.251 C  
HETATM   19  C   UNL     1      -9.494  13.945  67.635  1.00  0.00    -0.212 C  
BRANCH  18  20
HETATM   20  C   UNL     1     -10.665  13.396  65.436  1.00  0.00    -0.307 C  
BRANCH  20  21
HETATM   21  C   UNL     1     -11.550  14.632  65.629  1.00  0.00    -0.328 C  
HETATM   22  O   UNL     1     -11.613  16.444  64.032  1.00  0.00    -1.071 OA 
HETATM   23  O   UNL     1     -12.731  14.551  63.539  1.00  0.00    -0.707 OA 
HETATM   24  C   UNL     1     -11.943  15.306  64.335  1.00  0.00    -0.277 C  
ENDBRANCH  20  21
ENDBRANCH  18  20
ENDBRANCH  16  17
ENDBRANCH   4  16
ENDBRANCH   2   3
TORSDOF 5
ENDMDL
MODEL       17
REMARK 921   NORMALIZED FREE ENERGY PREDICTED BY IDOCK:   -6.52 KCAL/MOL
REMARK 922        TOTAL FREE ENERGY PREDICTED BY IDOCK:   -8.68 KCAL/MOL
REMARK 923 INTER-LIGAND FREE ENERGY PREDICTED BY IDOCK:   -8.12 KCAL/MOL
REMARK 924 INTRA-LIGAND FREE ENERGY PREDICTED BY IDOCK:   -0.56 KCAL/MOL
REMARK 927      BINDING AFFINITY PREDICTED BY RF-SCORE:    0.00 PKD
ROOT
HETATM    1  C   UNL     1     -12.137  16.046  71.953  1.00  0.00    -0.514 C  
HETATM    2  O   UNL     1     -13.049  15.436  71.045  1.00  0.00    -0.454 OA 
ENDROOT
BRANCH   2   3
HETATM    3  C   UNL     1     -12.659  14.294  70.383  1.00  0.00    -0.343 A  
HETATM    4  C   UNL     1     -11.980  14.280  69.122  1.00  0.00    -0.372 A  
HETATM    5  C   UNL     1     -11.506  13.038  68.647  1.00  0.00    -0.307 A  
HETATM    6  C   UNL     1     -12.389  10.546  71.172  1.00  0.00    -0.405 C  
HETATM    7  O   UNL     1     -10.913  12.889  67.429  1.00  0.00    -0.249 OA 
HETATM    8  C   UNL     1     -13.608  13.129  72.430  1.00  0.00    -0.667 C  
HETATM    9  C   UNL     1     -11.671  11.895  69.418  1.00  0.00    -0.401 A  
HETATM   10  C   UNL     1     -11.200  10.530  69.169  1.00  0.00    -0.256 C  
HETATM   11  C   UNL     1     -12.848  13.105  71.134  1.00  0.00    -0.349 A  
HETATM   12  H   UNL     1     -10.594  12.053  67.109  1.00  0.00     0.000 HD 
HETATM   13  O   UNL     1     -10.516  10.118  68.254  1.00  0.00    -0.188 OA 
HETATM   14  C   UNL     1     -12.339  11.917  70.625  1.00  0.00    -0.405 A  
HETATM   15  O   UNL     1     -11.642   9.770  70.220  1.00  0.00    -0.251 OA 
BRANCH   4  16
HETATM   16  C   UNL     1     -11.905  15.556  68.316  1.00  0.00    -0.189 C  
BRANCH  16  17
HETATM   17  C   UNL     1     -10.811  16.549  68.546  1.00  0.00    -0.349 C  
HETATM   18  C   UNL     1      -9.773  16.797  67.726  1.00  0.00    -0.248 C  
HETATM   19  C   UNL     1      -9.658  16.244  66.327  1.00  0.00    -0.336 C  
BRANCH  18  20
HETATM   20  C   UNL     1      -8.571  17.620  68.180  1.00  0.00    -0.261 C  
BRANCH  20  21
HETATM   21  C   UNL     1      -8.421  19.013  67.558  1.00  0.00    -0.307 C  
HETATM   22  O   UNL     1     -10.197  20.073  66.310  1.00  0.00    -0.459 OA 
HETATM   23  O   UNL     1     -10.339  20.055  68.558  1.00  0.00    -0.438 OA 
HETATM   24  C   UNL     1      -9.730  19.749  67.392  1.00  0.00    -0.373 C  
ENDBRANCH  20  21
ENDBRANCH  18  20
ENDBRANCH  16  17
ENDBRANCH   4  16
ENDBRANCH   2   3
TORSDOF 5
ENDMDL
MODEL       18
REMARK 921   NORMALIZED FREE ENERGY PREDICTED BY IDOCK:   -6.46 KCAL/MOL
REMARK 922        TOTAL FREE ENERGY PREDICTED BY IDOCK:   -8.61 KCAL/MOL
REMARK 923 INTER-LIGAND FREE ENERGY PREDICTED BY IDOCK:   -8.13 KCAL/MOL
REMARK 924 INTRA-LIGAND FREE ENERGY PREDICTED BY IDOCK:   -0.47 KCAL/MOL
REMARK 927      BINDING AFFINITY PREDICTED BY RF-SCORE:    0.00 PKD
ROOT
HETATM    1  C   UNL     1     -10.989  10.440  67.451  1.00  0.00    -0.270 C  
HETATM    2  O   UNL     1     -10.465  11.158  68.563  1.00  0.00    -0.175 OA 
ENDROOT
BRANCH   2   3
HETATM    3  C   UNL     1     -11.340  11.825  69.391  1.00  0.00    -0.272 A  
HETATM    4  C   UNL     1     -12.000  11.234  70.516  1.00  0.00    -0.467 A  
HETATM    5  C   UNL     1     -12.745  12.087  71.361  1.00  0.00    -0.275 A  
HETATM    6  C   UNL     1     -12.416  15.462  69.994  1.00  0.00    -0.283 C  
HETATM    7  O   UNL     1     -13.476  11.629  72.415  1.00  0.00    -0.602 OA 
HETATM    8  C   UNL     1     -10.767  13.814  67.918  1.00  0.00    -0.256 C  
HETATM    9  C   UNL     1     -12.780  13.451  71.107  1.00  0.00    -0.411 A  
HETATM   10  C   UNL     1     -13.413  14.525  71.878  1.00  0.00    -0.378 C  
HETATM   11  C   UNL     1     -11.424  13.218  69.132  1.00  0.00    -0.357 A  
HETATM   12  H   UNL     1     -13.976  12.202  72.984  1.00  0.00     0.000 HD 
HETATM   13  O   UNL     1     -14.000  14.452  72.939  1.00  0.00    -0.564 OA 
HETATM   14  C   UNL     1     -12.151  14.008  70.012  1.00  0.00    -0.412 A  
HETATM   15  O   UNL     1     -13.176  15.686  71.192  1.00  0.00    -0.504 OA 
BRANCH   4  16
HETATM   16  C   UNL     1     -11.968   9.733  70.679  1.00  0.00    -0.340 C  
BRANCH  16  17
HETATM   17  C   UNL     1     -11.248   9.099  71.826  1.00  0.00    -0.451 C  
HETATM   18  C   UNL     1      -9.947   8.755  71.861  1.00  0.00    -0.401 C  
HETATM   19  C   UNL     1      -8.947   9.147  70.802  1.00  0.00    -0.296 C  
BRANCH  18  20
HETATM   20  C   UNL     1      -9.382   7.865  72.965  1.00  0.00    -0.329 C  
BRANCH  20  21
HETATM   21  C   UNL     1     -10.402   7.106  73.821  1.00  0.00    -0.390 C  
HETATM   22  O   UNL     1     -11.545   5.131  73.029  1.00  0.00    -0.320 OA 
HETATM   23  O   UNL     1      -9.406   4.924  73.704  1.00  0.00    -0.125 OA 
HETATM   24  C   UNL     1     -10.524   5.643  73.466  1.00  0.00    -0.254 C  
ENDBRANCH  20  21
ENDBRANCH  18  20
ENDBRANCH  16  17
ENDBRANCH   4  16
ENDBRANCH   2   3
TORSDOF 5
ENDMDL
MODEL       19
REMARK 921   NORMALIZED FREE ENERGY PREDICTED BY IDOCK:   -6.42 KCAL/MOL
REMARK 922        TOTAL FREE ENERGY PREDICTED BY IDOCK:   -8.56 KCAL/MOL
REMARK 923 INTER-LIGAND FREE ENERGY PREDICTED BY IDOCK:   -8.01 KCAL/MOL
REMARK 924 INTRA-LIGAND FREE ENERGY PREDICTED BY IDOCK:   -0.55 KCAL/MOL
REMARK 927      BINDING AFFINITY PREDICTED BY RF-SCORE:    0.00 PKD
ROOT
HETATM    1  C   UNL     1      -8.544  13.964  68.087  1.00  0.00    -0.180 C  
HETATM    2  O   UNL     1      -9.910  13.954  67.684  1.00  0.00    -0.228 OA 
ENDROOT
BRANCH   2   3
HETATM    3  C   UNL     1     -10.877  13.712  68.634  1.00  0.00    -0.263 A  
HETATM    4  C   UNL     1     -11.202  12.415  69.148  1.00  0.00    -0.295 A  
HETATM    5  C   UNL     1     -12.105  12.347  70.231  1.00  0.00    -0.297 A  
HETATM    6  C   UNL     1     -13.030  15.790  71.041  1.00  0.00    -0.320 C  
HETATM    7  O   UNL     1     -12.546  11.168  70.754  1.00  0.00    -0.347 OA 
HETATM    8  C   UNL     1     -11.126  16.239  68.608  1.00  0.00    -0.356 C  
HETATM    9  C   UNL     1     -12.610  13.516  70.783  1.00  0.00    -0.382 A  
HETATM   10  C   UNL     1     -13.488  13.693  71.944  1.00  0.00    -0.433 C  
HETATM   11  C   UNL     1     -11.437  14.890  69.192  1.00  0.00    -0.324 A  
HETATM   12  H   UNL     1     -13.153  11.122  71.483  1.00  0.00     0.000 HD 
HETATM   13  O   UNL     1     -13.920  12.850  72.704  1.00  0.00    -0.589 OA 
HETATM   14  C   UNL     1     -12.301  14.760  70.272  1.00  0.00    -0.400 A  
HETATM   15  O   UNL     1     -13.710  15.040  72.060  1.00  0.00    -0.363 OA 
BRANCH   4  16
HETATM   16  C   UNL     1     -10.662  11.192  68.444  1.00  0.00    -0.234 C  
BRANCH  16  17
HETATM   17  C   UNL     1     -10.998  10.915  67.013  1.00  0.00    -0.310 C  
HETATM   18  C   UNL     1     -10.134  10.878  65.983  1.00  0.00    -0.303 C  
HETATM   19  C   UNL     1      -8.634  10.910  66.144  1.00  0.00    -0.170 C  
BRANCH  18  20
HETATM   20  C   UNL     1     -10.613  10.866  64.534  1.00  0.00    -0.335 C  
BRANCH  20  21
HETATM   21  C   UNL     1     -10.894  12.231  63.895  1.00  0.00    -0.464 C  
HETATM   22  O   UNL     1     -13.010  12.766  62.858  1.00  0.00    -0.234 OA 
HETATM   23  O   UNL     1     -12.893  12.783  65.108  1.00  0.00    -0.726 OA 
HETATM   24  C   UNL     1     -12.359  12.604  63.880  1.00  0.00    -0.459 C  
ENDBRANCH  20  21
ENDBRANCH  18  20
ENDBRANCH  16  17
ENDBRANCH   4  16
ENDBRANCH   2   3
TORSDOF 5
ENDMDL
MODEL       20
REMARK 921   NORMALIZED FREE ENERGY PREDICTED BY IDOCK:   -6.42 KCAL/MOL
REMARK 922        TOTAL FREE ENERGY PREDICTED BY IDOCK:   -8.56 KCAL/MOL
REMARK 923 INTER-LIGAND FREE ENERGY PREDICTED BY IDOCK:   -8.32 KCAL/MOL
REMARK 924 INTRA-LIGAND FREE ENERGY PREDICTED BY IDOCK:   -0.24 KCAL/MOL
REMARK 927      BINDING AFFINITY PREDICTED BY RF-SCORE:    0.00 PKD
ROOT
HETATM    1  C   UNL     1      -6.840  14.652  67.407  1.00  0.00    -0.055 C  
HETATM    2  O   UNL     1      -8.119  15.066  67.876  1.00  0.00    -0.124 OA 
ENDROOT
BRANCH   2   3
HETATM    3  C   UNL     1      -9.203  14.942  67.035  1.00  0.00    -0.234 A  
HETATM    4  C   UNL     1      -9.550  15.885  66.016  1.00  0.00    -0.385 A  
HETATM    5  C   UNL     1     -10.596  15.540  65.132  1.00  0.00    -0.431 A  
HETATM    6  C   UNL     1     -11.753  12.218  66.127  1.00  0.00    -0.376 C  
HETATM    7  O   UNL     1     -11.064  16.387  64.172  1.00  0.00    -1.226 OA 
HETATM    8  C   UNL     1      -9.538  12.743  68.263  1.00  0.00    -0.211 C  
HETATM    9  C   UNL     1     -11.217  14.304  65.247  1.00  0.00    -0.337 A  
HETATM   10  C   UNL     1     -12.259  13.704  64.407  1.00  0.00    -0.390 C  
HETATM   11  C   UNL     1      -9.880  13.700  67.155  1.00  0.00    -0.242 A  
HETATM   12  H   UNL     1     -11.767  16.154  63.578  1.00  0.00     0.000 HD 
HETATM   13  O   UNL     1     -12.763  14.145  63.395  1.00  0.00    -0.767 OA 
HETATM   14  C   UNL     1     -10.884  13.408  66.242  1.00  0.00    -0.294 A  
HETATM   15  O   UNL     1     -12.544  12.483  64.957  1.00  0.00    -0.592 OA 
BRANCH   4  16
HETATM   16  C   UNL     1      -8.871  17.235  66.004  1.00  0.00    -0.119 C  
BRANCH  16  17
HETATM   17  C   UNL     1      -8.791  18.067  67.244  1.00  0.00    -0.247 C  
HETATM   18  C   UNL     1      -7.834  18.966  67.542  1.00  0.00    -0.256 C  
HETATM   19  C   UNL     1      -6.783  19.427  66.564  1.00  0.00    -0.198 C  
BRANCH  18  20
HETATM   20  C   UNL     1      -7.694  19.552  68.944  1.00  0.00    -0.369 C  
BRANCH  20  21
HETATM   21  C   UNL     1      -6.354  20.218  69.276  1.00  0.00    -0.328 C  
HETATM   22  O   UNL     1      -5.666  20.685  71.545  1.00  0.00    -0.585 OA 
HETATM   23  O   UNL     1      -5.506  18.566  70.798  1.00  0.00    -0.248 OA 
HETATM   24  C   UNL     1      -5.826  19.869  70.648  1.00  0.00    -0.302 C  
ENDBRANCH  20  21
ENDBRANCH  18  20
ENDBRANCH  16  17
ENDBRANCH   4  16
ENDBRANCH   2   3
TORSDOF 5
ENDMDL
MODEL       21
REMARK 921   NORMALIZED FREE ENERGY PREDICTED BY IDOCK:   -6.41 KCAL/MOL
REMARK 922        TOTAL FREE ENERGY PREDICTED BY IDOCK:   -8.55 KCAL/MOL
REMARK 923 INTER-LIGAND FREE ENERGY PREDICTED BY IDOCK:   -7.94 KCAL/MOL
REMARK 924 INTRA-LIGAND FREE ENERGY PREDICTED BY IDOCK:   -0.62 KCAL/MOL
REMARK 927      BINDING AFFINITY PREDICTED BY RF-SCORE:    0.00 PKD
ROOT
HETATM    1  C   UNL     1      -7.300  11.504  66.900  1.00  0.00    -0.140 C  
HETATM    2  O   UNL     1      -8.653  11.335  67.313  1.00  0.00    -0.137 OA 
ENDROOT
BRANCH   2   3
HETATM    3  C   UNL     1      -9.632  12.070  66.682  1.00  0.00    -0.216 A  
HETATM    4  C   UNL     1      -9.970  13.422  67.011  1.00  0.00    -0.246 A  
HETATM    5  C   UNL     1     -10.886  14.091  66.171  1.00  0.00    -0.291 A  
HETATM    6  C   UNL     1     -11.801  11.734  63.531  1.00  0.00    -0.378 C  
HETATM    7  O   UNL     1     -11.340  15.351  66.426  1.00  0.00    -0.236 OA 
HETATM    8  C   UNL     1      -9.867   9.987  65.248  1.00  0.00    -0.388 C  
HETATM    9  C   UNL     1     -11.391  13.449  65.049  1.00  0.00    -0.330 A  
HETATM   10  C   UNL     1     -12.281  13.963  64.004  1.00  0.00    -0.369 C  
HETATM   11  C   UNL     1     -10.192  11.422  65.550  1.00  0.00    -0.312 A  
HETATM   12  H   UNL     1     -11.956  15.802  65.860  1.00  0.00     0.000 HD 
HETATM   13  O   UNL     1     -12.726  15.085  63.872  1.00  0.00    -0.775 OA 
HETATM   14  C   UNL     1     -11.069  12.141  64.748  1.00  0.00    -0.364 A  
HETATM   15  O   UNL     1     -12.497  12.927  63.134  1.00  0.00    -0.641 OA 
BRANCH   4  16
HETATM   16  C   UNL     1      -9.429  14.022  68.288  1.00  0.00    -0.216 C  
BRANCH  16  17
HETATM   17  C   UNL     1      -8.976  15.446  68.338  1.00  0.00    -0.189 C  
HETATM   18  C   UNL     1      -9.637  16.475  68.899  1.00  0.00    -0.261 C  
HETATM   19  C   UNL     1     -10.867  16.314  69.758  1.00  0.00    -0.356 C  
BRANCH  18  20
HETATM   20  C   UNL     1      -9.225  17.923  68.651  1.00  0.00    -0.269 C  
BRANCH  20  21
HETATM   21  C   UNL     1      -8.964  18.321  67.194  1.00  0.00    -0.264 C  
HETATM   22  O   UNL     1     -10.593  17.974  65.444  1.00  0.00    -0.648 OA 
HETATM   23  O   UNL     1     -10.897  19.705  66.854  1.00  0.00    -0.483 OA 
HETATM   24  C   UNL     1     -10.221  18.622  66.412  1.00  0.00    -0.425 C  
ENDBRANCH  20  21
ENDBRANCH  18  20
ENDBRANCH  16  17
ENDBRANCH   4  16
ENDBRANCH   2   3
TORSDOF 5
ENDMDL
MODEL       22
REMARK 921   NORMALIZED FREE ENERGY PREDICTED BY IDOCK:   -6.41 KCAL/MOL
REMARK 922        TOTAL FREE ENERGY PREDICTED BY IDOCK:   -8.54 KCAL/MOL
REMARK 923 INTER-LIGAND FREE ENERGY PREDICTED BY IDOCK:   -7.97 KCAL/MOL
REMARK 924 INTRA-LIGAND FREE ENERGY PREDICTED BY IDOCK:   -0.57 KCAL/MOL
REMARK 927      BINDING AFFINITY PREDICTED BY RF-SCORE:    0.00 PKD
ROOT
HETATM    1  C   UNL     1     -11.953  16.257  71.897  1.00  0.00    -0.441 C  
HETATM    2  O   UNL     1     -12.934  15.629  71.079  1.00  0.00    -0.487 OA 
ENDROOT
BRANCH   2   3
HETATM    3  C   UNL     1     -12.605  14.458  70.433  1.00  0.00    -0.345 A  
HETATM    4  C   UNL     1     -11.936  14.390  69.170  1.00  0.00    -0.357 A  
HETATM    5  C   UNL     1     -11.527  13.118  68.713  1.00  0.00    -0.307 A  
HETATM    6  C   UNL     1     -12.514  10.714  71.284  1.00  0.00    -0.410 C  
HETATM    7  O   UNL     1     -10.950  12.920  67.494  1.00  0.00    -0.244 OA 
HETATM    8  C   UNL     1     -13.596  13.375  72.506  1.00  0.00    -0.659 C  
HETATM    9  C   UNL     1     -11.742  11.998  69.504  1.00  0.00    -0.408 A  
HETATM   10  C   UNL     1     -11.340  10.607  69.275  1.00  0.00    -0.282 C  
HETATM   11  C   UNL     1     -12.847  13.292  71.206  1.00  0.00    -0.398 A  
HETATM   12  H   UNL     1     -10.674  12.064  67.186  1.00  0.00     0.000 HD 
HETATM   13  O   UNL     1     -10.683  10.147  68.363  1.00  0.00    -0.204 OA 
HETATM   14  C   UNL     1     -12.400  12.073  70.714  1.00  0.00    -0.403 A  
HETATM   15  O   UNL     1     -11.812   9.888  70.342  1.00  0.00    -0.267 OA 
BRANCH   4  16
HETATM   16  C   UNL     1     -11.804  15.647  68.342  1.00  0.00    -0.211 C  
BRANCH  16  17
HETATM   17  C   UNL     1     -10.594  16.519  68.452  1.00  0.00    -0.323 C  
HETATM   18  C   UNL     1      -9.642  16.686  67.516  1.00  0.00    -0.242 C  
HETATM   19  C   UNL     1      -9.753  16.166  66.104  1.00  0.00    -0.352 C  
BRANCH  18  20
HETATM   20  C   UNL     1      -8.316  17.372  67.834  1.00  0.00    -0.230 C  
BRANCH  20  21
HETATM   21  C   UNL     1      -8.401  18.784  68.424  1.00  0.00    -0.373 C  
HETATM   22  O   UNL     1      -7.495  20.717  67.293  1.00  0.00    -0.341 OA 
HETATM   23  O   UNL     1      -9.456  19.880  66.565  1.00  0.00    -0.362 OA 
HETATM   24  C   UNL     1      -8.381  19.879  67.383  1.00  0.00    -0.322 C  
ENDBRANCH  20  21
ENDBRANCH  18  20
ENDBRANCH  16  17
ENDBRANCH   4  16
ENDBRANCH   2   3
TORSDOF 5
ENDMDL
MODEL       23
REMARK 921   NORMALIZED FREE ENERGY PREDICTED BY IDOCK:   -6.40 KCAL/MOL
REMARK 922        TOTAL FREE ENERGY PREDICTED BY IDOCK:   -8.54 KCAL/MOL
REMARK 923 INTER-LIGAND FREE ENERGY PREDICTED BY IDOCK:   -8.10 KCAL/MOL
REMARK 924 INTRA-LIGAND FREE ENERGY PREDICTED BY IDOCK:   -0.43 KCAL/MOL
REMARK 927      BINDING AFFINITY PREDICTED BY RF-SCORE:    0.00 PKD
ROOT
HETATM    1  C   UNL     1      -7.565  12.051  67.808  1.00  0.00    -0.130 C  
HETATM    2  O   UNL     1      -8.651  12.791  68.356  1.00  0.00    -0.177 OA 
ENDROOT
BRANCH   2   3
HETATM    3  C   UNL     1      -9.426  13.552  67.509  1.00  0.00    -0.222 A  
HETATM    4  C   UNL     1      -9.081  14.866  67.059  1.00  0.00    -0.255 A  
HETATM    5  C   UNL     1      -9.900  15.455  66.069  1.00  0.00    -0.326 A  
HETATM    6  C   UNL     1     -12.503  13.014  65.276  1.00  0.00    -0.499 C  
HETATM    7  O   UNL     1      -9.716  16.728  65.618  1.00  0.00    -0.539 OA 
HETATM    8  C   UNL     1     -10.923  11.500  67.502  1.00  0.00    -0.308 C  
HETATM    9  C   UNL     1     -10.967  14.742  65.542  1.00  0.00    -0.350 A  
HETATM   10  C   UNL     1     -11.894  15.112  64.468  1.00  0.00    -0.330 C  
HETATM   11  C   UNL     1     -10.546  12.858  66.981  1.00  0.00    -0.261 A  
HETATM   12  H   UNL     1     -10.266  17.124  64.953  1.00  0.00     0.000 HD 
HETATM   13  O   UNL     1     -11.890  16.107  63.773  1.00  0.00    -0.885 OA 
HETATM   14  C   UNL     1     -11.298  13.481  65.994  1.00  0.00    -0.327 A  
HETATM   15  O   UNL     1     -12.777  14.073  64.344  1.00  0.00    -0.663 OA 
BRANCH   4  16
HETATM   16  C   UNL     1      -7.946  15.599  67.734  1.00  0.00    -0.157 C  
BRANCH  16  17
HETATM   17  C   UNL     1      -8.058  17.052  68.069  1.00  0.00    -0.204 C  
HETATM   18  C   UNL     1      -7.366  18.058  67.502  1.00  0.00    -0.213 C  
HETATM   19  C   UNL     1      -6.500  17.895  66.278  1.00  0.00    -0.279 C  
BRANCH  18  20
HETATM   20  C   UNL     1      -7.350  19.459  68.106  1.00  0.00    -0.330 C  
BRANCH  20  21
HETATM   21  C   UNL     1      -8.237  20.508  67.425  1.00  0.00    -0.344 C  
HETATM   22  O   UNL     1     -10.137  19.909  66.060  1.00  0.00    -0.466 OA 
HETATM   23  O   UNL     1     -10.358  19.797  68.299  1.00  0.00    -0.435 OA 
HETATM   24  C   UNL     1      -9.650  20.037  67.174  1.00  0.00    -0.402 C  
ENDBRANCH  20  21
ENDBRANCH  18  20
ENDBRANCH  16  17
ENDBRANCH   4  16
ENDBRANCH   2   3
TORSDOF 5
ENDMDL
MODEL       24
REMARK 921   NORMALIZED FREE ENERGY PREDICTED BY IDOCK:   -6.40 KCAL/MOL
REMARK 922        TOTAL FREE ENERGY PREDICTED BY IDOCK:   -8.53 KCAL/MOL
REMARK 923 INTER-LIGAND FREE ENERGY PREDICTED BY IDOCK:   -8.45 KCAL/MOL
REMARK 924 INTRA-LIGAND FREE ENERGY PREDICTED BY IDOCK:   -0.08 KCAL/MOL
REMARK 927      BINDING AFFINITY PREDICTED BY RF-SCORE:    0.00 PKD
ROOT
HETATM    1  C   UNL     1      -9.688  10.110  68.054  1.00  0.00    -0.142 C  
HETATM    2  O   UNL     1     -11.079  10.403  68.132  1.00  0.00    -0.267 OA 
ENDROOT
BRANCH   2   3
HETATM    3  C   UNL     1     -11.479  11.539  68.801  1.00  0.00    -0.287 A  
HETATM    4  C   UNL     1     -11.564  12.840  68.210  1.00  0.00    -0.375 A  
HETATM    5  C   UNL     1     -12.141  13.873  68.981  1.00  0.00    -0.329 A  
HETATM    6  C   UNL     1     -13.110  12.381  72.174  1.00  0.00    -0.314 C  
HETATM    7  O   UNL     1     -12.206  15.166  68.554  1.00  0.00    -0.575 OA 
HETATM    8  C   UNL     1     -11.817   9.930  70.738  1.00  0.00    -0.415 C  
HETATM    9  C   UNL     1     -12.637  13.595  70.247  1.00  0.00    -0.253 A  
HETATM   10  C   UNL     1     -13.338  14.477  71.185  1.00  0.00    -0.354 C  
HETATM   11  C   UNL     1     -11.960  11.289  70.113  1.00  0.00    -0.452 A  
HETATM   12  H   UNL     1     -12.595  15.861  69.072  1.00  0.00     0.000 HD 
HETATM   13  O   UNL     1     -13.681  15.631  71.029  1.00  0.00    -0.582 OA 
HETATM   14  C   UNL     1     -12.538  12.341  70.812  1.00  0.00    -0.302 A  
HETATM   15  O   UNL     1     -13.597  13.727  72.301  1.00  0.00    -0.460 OA 
BRANCH   4  16
HETATM   16  C   UNL     1     -10.937  13.071  66.855  1.00  0.00    -0.289 C  
BRANCH  16  17
HETATM   17  C   UNL     1     -10.481  14.434  66.440  1.00  0.00    -0.295 C  
HETATM   18  C   UNL     1      -9.281  14.986  66.695  1.00  0.00    -0.302 C  
HETATM   19  C   UNL     1      -8.114  14.227  67.276  1.00  0.00    -0.199 C  
BRANCH  18  20
HETATM   20  C   UNL     1      -9.020  16.474  66.474  1.00  0.00    -0.312 C  
BRANCH  20  21
HETATM   21  C   UNL     1     -10.121  17.437  66.931  1.00  0.00    -0.314 C  
HETATM   22  O   UNL     1     -10.420  19.624  65.948  1.00  0.00    -0.494 OA 
HETATM   23  O   UNL     1     -11.152  17.831  64.798  1.00  0.00    -0.852 OA 
HETATM   24  C   UNL     1     -10.557  18.412  65.862  1.00  0.00    -0.285 C  
ENDBRANCH  20  21
ENDBRANCH  18  20
ENDBRANCH  16  17
ENDBRANCH   4  16
ENDBRANCH   2   3
TORSDOF 5
ENDMDL
MODEL       25
REMARK 921   NORMALIZED FREE ENERGY PREDICTED BY IDOCK:   -6.38 KCAL/MOL
REMARK 922        TOTAL FREE ENERGY PREDICTED BY IDOCK:   -8.51 KCAL/MOL
REMARK 923 INTER-LIGAND FREE ENERGY PREDICTED BY IDOCK:   -8.36 KCAL/MOL
REMARK 924 INTRA-LIGAND FREE ENERGY PREDICTED BY IDOCK:   -0.15 KCAL/MOL
REMARK 927      BINDING AFFINITY PREDICTED BY RF-SCORE:    0.00 PKD
ROOT
HETATM    1  C   UNL     1     -13.182  15.318  71.074  1.00  0.00    -0.484 C  
HETATM    2  O   UNL     1     -11.845  15.008  70.695  1.00  0.00    -0.273 OA 
ENDROOT
BRANCH   2   3
HETATM    3  C   UNL     1     -11.631  14.349  69.505  1.00  0.00    -0.304 A  
HETATM    4  C   UNL     1     -11.910  12.963  69.285  1.00  0.00    -0.363 A  
HETATM    5  C   UNL     1     -11.787  12.471  67.967  1.00  0.00    -0.325 A  
HETATM    6  C   UNL     1     -10.792  15.304  65.881  1.00  0.00    -0.342 C  
HETATM    7  O   UNL     1     -11.952  11.156  67.649  1.00  0.00    -0.613 OA 
HETATM    8  C   UNL     1     -10.909  16.647  68.697  1.00  0.00    -0.344 C  
HETATM    9  C   UNL     1     -11.446  13.336  66.936  1.00  0.00    -0.376 A  
HETATM   10  C   UNL     1     -11.336  13.072  65.498  1.00  0.00    -0.300 C  
HETATM   11  C   UNL     1     -11.248  15.205  68.440  1.00  0.00    -0.307 A  
HETATM   12  H   UNL     1     -11.869  10.825  66.762  1.00  0.00     0.000 HD 
HETATM   13  O   UNL     1     -11.573  12.045  64.896  1.00  0.00    -0.322 OA 
HETATM   14  C   UNL     1     -11.166  14.668  67.161  1.00  0.00    -0.349 A  
HETATM   15  O   UNL     1     -10.951  14.251  64.917  1.00  0.00    -0.362 OA 
BRANCH   4  16
HETATM   16  C   UNL     1     -12.206  12.077  70.472  1.00  0.00    -0.414 C  
BRANCH  16  17
HETATM   17  C   UNL     1     -11.538  10.749  70.628  1.00  0.00    -0.388 C  
HETATM   18  C   UNL     1     -11.974   9.718  71.375  1.00  0.00    -0.493 C  
HETATM   19  C   UNL     1     -13.335   9.669  72.024  1.00  0.00    -0.547 C  
BRANCH  18  20
HETATM   20  C   UNL     1     -11.082   8.519  71.687  1.00  0.00    -0.360 C  
BRANCH  20  21
HETATM   21  C   UNL     1      -9.572   8.729  71.524  1.00  0.00    -0.354 C  
HETATM   22  O   UNL     1      -8.062   8.789  73.409  1.00  0.00    -0.402 OA 
HETATM   23  O   UNL     1      -8.816   6.784  72.713  1.00  0.00    -0.122 OA 
HETATM   24  C   UNL     1      -8.752   8.131  72.644  1.00  0.00    -0.213 C  
ENDBRANCH  20  21
ENDBRANCH  18  20
ENDBRANCH  16  17
ENDBRANCH   4  16
ENDBRANCH   2   3
TORSDOF 5
ENDMDL
MODEL       26
REMARK 921   NORMALIZED FREE ENERGY PREDICTED BY IDOCK:   -6.37 KCAL/MOL
REMARK 922        TOTAL FREE ENERGY PREDICTED BY IDOCK:   -8.50 KCAL/MOL
REMARK 923 INTER-LIGAND FREE ENERGY PREDICTED BY IDOCK:   -8.11 KCAL/MOL
REMARK 924 INTRA-LIGAND FREE ENERGY PREDICTED BY IDOCK:   -0.39 KCAL/MOL
REMARK 927      BINDING AFFINITY PREDICTED BY RF-SCORE:    0.00 PKD
ROOT
HETATM    1  C   UNL     1      -7.966  11.488  68.425  1.00  0.00    -0.143 C  
HETATM    2  O   UNL     1      -9.058  10.596  68.229  1.00  0.00    -0.142 OA 
ENDROOT
BRANCH   2   3
HETATM    3  C   UNL     1      -9.933  10.383  69.272  1.00  0.00    -0.228 A  
HETATM    4  C   UNL     1     -11.060  11.217  69.566  1.00  0.00    -0.299 A  
HETATM    5  C   UNL     1     -11.953  10.781  70.569  1.00  0.00    -0.361 A  
HETATM    6  C   UNL     1     -10.681   7.576  71.782  1.00  0.00    -0.211 C  
HETATM    7  O   UNL     1     -13.016  11.524  70.987  1.00  0.00    -0.290 OA 
HETATM    8  C   UNL     1      -8.505   8.322  69.672  1.00  0.00    -0.125 C  
HETATM    9  C   UNL     1     -11.742   9.562  71.199  1.00  0.00    -0.438 A  
HETATM   10  C   UNL     1     -12.566   8.878  72.200  1.00  0.00    -0.399 C  
HETATM   11  C   UNL     1      -9.720   9.159  69.957  1.00  0.00    -0.217 A  
HETATM   12  H   UNL     1     -13.617  11.231  71.662  1.00  0.00     0.000 HD 
HETATM   13  O   UNL     1     -13.641   9.212  72.654  1.00  0.00    -0.465 OA 
HETATM   14  C   UNL     1     -10.646   8.773  70.917  1.00  0.00    -0.276 A  
HETATM   15  O   UNL     1     -11.908   7.718  72.515  1.00  0.00    -0.335 OA 
BRANCH   4  16
HETATM   16  C   UNL     1     -11.176  12.560  68.883  1.00  0.00    -0.330 C  
BRANCH  16  17
HETATM   17  C   UNL     1     -11.806  12.685  67.532  1.00  0.00    -0.396 C  
HETATM   18  C   UNL     1     -11.928  13.814  66.810  1.00  0.00    -0.465 C  
HETATM   19  C   UNL     1     -11.258  15.116  67.169  1.00  0.00    -0.320 C  
BRANCH  18  20
HETATM   20  C   UNL     1     -12.829  13.885  65.580  1.00  0.00    -0.471 C  
BRANCH  20  21
HETATM   21  C   UNL     1     -12.126  14.018  64.224  1.00  0.00    -0.476 C  
HETATM   22  O   UNL     1     -10.682  12.296  63.338  1.00  0.00    -0.446 OA 
HETATM   23  O   UNL     1     -12.909  11.981  63.220  1.00  0.00    -0.732 OA 
HETATM   24  C   UNL     1     -11.815  12.692  63.569  1.00  0.00    -0.541 C  
ENDBRANCH  20  21
ENDBRANCH  18  20
ENDBRANCH  16  17
ENDBRANCH   4  16
ENDBRANCH   2   3
TORSDOF 5
ENDMDL
MODEL       27
REMARK 921   NORMALIZED FREE ENERGY PREDICTED BY IDOCK:   -6.36 KCAL/MOL
REMARK 922        TOTAL FREE ENERGY PREDICTED BY IDOCK:   -8.49 KCAL/MOL
REMARK 923 INTER-LIGAND FREE ENERGY PREDICTED BY IDOCK:   -7.99 KCAL/MOL
REMARK 924 INTRA-LIGAND FREE ENERGY PREDICTED BY IDOCK:   -0.49 KCAL/MOL
REMARK 927      BINDING AFFINITY PREDICTED BY RF-SCORE:    0.00 PKD
ROOT
HETATM    1  C   UNL     1     -11.582  12.064  66.888  1.00  0.00    -0.318 C  
HETATM    2  O   UNL     1     -10.883  12.125  68.126  1.00  0.00    -0.203 OA 
ENDROOT
BRANCH   2   3
HETATM    3  C   UNL     1     -11.494  12.733  69.201  1.00  0.00    -0.306 A  
HETATM    4  C   UNL     1     -12.230  12.038  70.213  1.00  0.00    -0.348 A  
HETATM    5  C   UNL     1     -12.663  12.781  71.334  1.00  0.00    -0.255 A  
HETATM    6  C   UNL     1     -11.486  16.206  70.838  1.00  0.00    -0.386 C  
HETATM    7  O   UNL     1     -13.435  12.247  72.322  1.00  0.00    -0.573 OA 
HETATM    8  C   UNL     1     -10.471  14.841  68.221  1.00  0.00    -0.241 C  
HETATM    9  C   UNL     1     -12.333  14.125  71.441  1.00  0.00    -0.425 A  
HETATM   10  C   UNL     1     -12.601  15.064  72.534  1.00  0.00    -0.357 C  
HETATM   11  C   UNL     1     -11.202  14.117  69.316  1.00  0.00    -0.308 A  
HETATM   12  H   UNL     1     -13.726  12.746  73.076  1.00  0.00     0.000 HD 
HETATM   13  O   UNL     1     -13.128  14.849  73.607  1.00  0.00    -0.518 OA 
HETATM   14  C   UNL     1     -11.634  14.787  70.453  1.00  0.00    -0.333 A  
HETATM   15  O   UNL     1     -12.089  16.272  72.141  1.00  0.00    -0.496 OA 
BRANCH   4  16
HETATM   16  C   UNL     1     -12.606  10.593  69.984  1.00  0.00    -0.232 C  
BRANCH  16  17
HETATM   17  C   UNL     1     -11.955   9.495  70.763  1.00  0.00    -0.326 C  
HETATM   18  C   UNL     1     -12.557   8.675  71.643  1.00  0.00    -0.381 C  
HETATM   19  C   UNL     1     -14.051   8.601  71.835  1.00  0.00    -0.512 C  
BRANCH  18  20
HETATM   20  C   UNL     1     -11.754   7.781  72.585  1.00  0.00    -0.364 C  
BRANCH  20  21
HETATM   21  C   UNL     1     -11.598   6.314  72.169  1.00  0.00    -0.367 C  
HETATM   22  O   UNL     1     -11.156   5.654  69.887  1.00  0.00    -0.321 OA 
HETATM   23  O   UNL     1      -9.450   6.475  71.107  1.00  0.00    -0.166 OA 
HETATM   24  C   UNL     1     -10.742   6.119  70.939  1.00  0.00    -0.258 C  
ENDBRANCH  20  21
ENDBRANCH  18  20
ENDBRANCH  16  17
ENDBRANCH   4  16
ENDBRANCH   2   3
TORSDOF 5
ENDMDL
MODEL       28
REMARK 921   NORMALIZED FREE ENERGY PREDICTED BY IDOCK:   -6.36 KCAL/MOL
REMARK 922        TOTAL FREE ENERGY PREDICTED BY IDOCK:   -8.48 KCAL/MOL
REMARK 923 INTER-LIGAND FREE ENERGY PREDICTED BY IDOCK:   -7.83 KCAL/MOL
REMARK 924 INTRA-LIGAND FREE ENERGY PREDICTED BY IDOCK:   -0.66 KCAL/MOL
REMARK 927      BINDING AFFINITY PREDICTED BY RF-SCORE:    0.00 PKD
ROOT
HETATM    1  C   UNL     1      -7.578  10.605  67.202  1.00  0.00    -0.099 C  
HETATM    2  O   UNL     1      -8.875  10.022  67.135  1.00  0.00    -0.134 OA 
ENDROOT
BRANCH   2   3
HETATM    3  C   UNL     1      -9.940  10.820  66.778  1.00  0.00    -0.206 A  
HETATM    4  C   UNL     1     -10.640  11.685  67.679  1.00  0.00    -0.237 A  
HETATM    5  C   UNL     1     -11.607  12.557  67.130  1.00  0.00    -0.368 A  
HETATM    6  C   UNL     1     -11.623  11.966  63.523  1.00  0.00    -0.441 C  
HETATM    7  O   UNL     1     -12.388  13.370  67.895  1.00  0.00    -0.218 OA 
HETATM    8  C   UNL     1      -9.492   9.886  64.459  1.00  0.00    -0.328 C  
HETATM    9  C   UNL     1     -11.816  12.580  65.759  1.00  0.00    -0.494 A  
HETATM   10  C   UNL     1     -12.698  13.443  64.967  1.00  0.00    -0.360 C  
HETATM   11  C   UNL     1     -10.200  10.836  65.383  1.00  0.00    -0.341 A  
HETATM   12  H   UNL     1     -13.038  13.957  67.527  1.00  0.00     0.000 HD 
HETATM   13  O   UNL     1     -13.397  14.362  65.343  1.00  0.00    -0.568 OA 
HETATM   14  C   UNL     1     -11.145  11.732  64.902  1.00  0.00    -0.345 A  
HETATM   15  O   UNL     1     -12.555  13.051  63.662  1.00  0.00    -0.697 OA 
BRANCH   4  16
HETATM   16  C   UNL     1     -10.401  11.546  69.164  1.00  0.00    -0.086 C  
BRANCH  16  17
HETATM   17  C   UNL     1     -10.992  10.410  69.936  1.00  0.00    -0.364 C  
HETATM   18  C   UNL     1     -10.318   9.383  70.486  1.00  0.00    -0.341 C  
HETATM   19  C   UNL     1      -8.814   9.321  70.583  1.00  0.00    -0.287 C  
BRANCH  18  20
HETATM   20  C   UNL     1     -11.036   8.140  71.006  1.00  0.00    -0.273 C  
BRANCH  20  21
HETATM   21  C   UNL     1     -11.823   8.301  72.311  1.00  0.00    -0.451 C  
HETATM   22  O   UNL     1     -13.899   9.532  72.429  1.00  0.00    -0.424 OA 
HETATM   23  O   UNL     1     -13.940   7.458  71.552  1.00  0.00    -0.410 OA 
HETATM   24  C   UNL     1     -13.305   8.514  72.104  1.00  0.00    -0.351 C  
ENDBRANCH  20  21
ENDBRANCH  18  20
ENDBRANCH  16  17
ENDBRANCH   4  16
ENDBRANCH   2   3
TORSDOF 5
ENDMDL
MODEL       29
REMARK 921   NORMALIZED FREE ENERGY PREDICTED BY IDOCK:   -6.33 KCAL/MOL
REMARK 922        TOTAL FREE ENERGY PREDICTED BY IDOCK:   -8.45 KCAL/MOL
REMARK 923 INTER-LIGAND FREE ENERGY PREDICTED BY IDOCK:   -7.86 KCAL/MOL
REMARK 924 INTRA-LIGAND FREE ENERGY PREDICTED BY IDOCK:   -0.59 KCAL/MOL
REMARK 927      BINDING AFFINITY PREDICTED BY RF-SCORE:    0.00 PKD
ROOT
HETATM    1  C   UNL     1     -12.639  12.549  64.724  1.00  0.00    -0.413 C  
HETATM    2  O   UNL     1     -11.401  12.758  65.396  1.00  0.00    -0.288 OA 
ENDROOT
BRANCH   2   3
HETATM    3  C   UNL     1     -11.237  12.231  66.658  1.00  0.00    -0.316 A  
HETATM    4  C   UNL     1     -11.711  12.847  67.860  1.00  0.00    -0.405 A  
HETATM    5  C   UNL     1     -11.606  12.109  69.060  1.00  0.00    -0.319 A  
HETATM    6  C   UNL     1     -10.110   8.892  68.182  1.00  0.00    -0.189 C  
HETATM    7  O   UNL     1     -11.953  12.619  70.275  1.00  0.00    -0.433 OA 
HETATM    8  C   UNL     1     -10.145  10.312  65.402  1.00  0.00    -0.354 C  
HETATM    9  C   UNL     1     -11.096  10.819  69.034  1.00  0.00    -0.308 A  
HETATM   10  C   UNL     1     -10.966   9.848  70.125  1.00  0.00    -0.301 C  
HETATM   11  C   UNL     1     -10.685  10.924  66.665  1.00  0.00    -0.289 A  
HETATM   12  H   UNL     1     -11.883  12.123  71.082  1.00  0.00     0.000 HD 
HETATM   13  O   UNL     1     -11.327   9.952  71.279  1.00  0.00    -0.368 OA 
HETATM   14  C   UNL     1     -10.630  10.239  67.872  1.00  0.00    -0.282 A  
HETATM   15  O   UNL     1     -10.383   8.733  69.583  1.00  0.00    -0.203 OA 
BRANCH   4  16
HETATM   16  C   UNL     1     -12.187  14.280  67.811  1.00  0.00    -0.199 C  
BRANCH  16  17
HETATM   17  C   UNL     1     -11.216  15.410  67.681  1.00  0.00    -0.311 C  
HETATM   18  C   UNL     1     -10.888  16.295  68.640  1.00  0.00    -0.322 C  
HETATM   19  C   UNL     1     -11.305  16.161  70.084  1.00  0.00    -0.347 C  
BRANCH  18  20
HETATM   20  C   UNL     1     -10.106  17.568  68.324  1.00  0.00    -0.346 C  
BRANCH  20  21
HETATM   21  C   UNL     1      -9.500  17.667  66.919  1.00  0.00    -0.278 C  
HETATM   22  O   UNL     1     -10.859  17.807  64.927  1.00  0.00    -0.815 OA 
HETATM   23  O   UNL     1     -10.625  19.659  66.189  1.00  0.00    -0.472 OA 
HETATM   24  C   UNL     1     -10.397  18.356  65.917  1.00  0.00    -0.301 C  
ENDBRANCH  20  21
ENDBRANCH  18  20
ENDBRANCH  16  17
ENDBRANCH   4  16
ENDBRANCH   2   3
TORSDOF 5
ENDMDL
MODEL       30
REMARK 921   NORMALIZED FREE ENERGY PREDICTED BY IDOCK:   -6.29 KCAL/MOL
REMARK 922        TOTAL FREE ENERGY PREDICTED BY IDOCK:   -8.39 KCAL/MOL
REMARK 923 INTER-LIGAND FREE ENERGY PREDICTED BY IDOCK:   -7.92 KCAL/MOL
REMARK 924 INTRA-LIGAND FREE ENERGY PREDICTED BY IDOCK:   -0.47 KCAL/MOL
REMARK 927      BINDING AFFINITY PREDICTED BY RF-SCORE:    0.00 PKD
ROOT
HETATM    1  C   UNL     1     -10.743   9.858  68.335  1.00  0.00    -0.232 C  
HETATM    2  O   UNL     1     -11.919  10.630  68.113  1.00  0.00    -0.460 OA 
ENDROOT
BRANCH   2   3
HETATM    3  C   UNL     1     -12.029  11.858  68.727  1.00  0.00    -0.249 A  
HETATM    4  C   UNL     1     -12.393  12.047  70.099  1.00  0.00    -0.230 A  
HETATM    5  C   UNL     1     -12.309  13.356  70.623  1.00  0.00    -0.348 A  
HETATM    6  C   UNL     1     -11.107  15.496  67.914  1.00  0.00    -0.321 C  
HETATM    7  O   UNL     1     -12.700  13.671  71.890  1.00  0.00    -0.299 OA 
HETATM    8  C   UNL     1     -11.267  12.734  66.468  1.00  0.00    -0.349 C  
HETATM    9  C   UNL     1     -11.847  14.392  69.824  1.00  0.00    -0.375 A  
HETATM   10  C   UNL     1     -11.605  15.796  70.169  1.00  0.00    -0.357 C  
HETATM   11  C   UNL     1     -11.596  12.941  67.920  1.00  0.00    -0.391 A  
HETATM   12  H   UNL     1     -12.644  14.551  72.244  1.00  0.00     0.000 HD 
HETATM   13  O   UNL     1     -11.710  16.340  71.250  1.00  0.00    -0.435 OA 
HETATM   14  C   UNL     1     -11.512  14.201  68.500  1.00  0.00    -0.333 A  
HETATM   15  O   UNL     1     -11.173  16.408  69.023  1.00  0.00    -0.325 OA 
BRANCH   4  16
HETATM   16  C   UNL     1     -12.951  10.879  70.877  1.00  0.00    -0.347 C  
BRANCH  16  17
HETATM   17  C   UNL     1     -12.051   9.823  71.433  1.00  0.00    -0.486 C  
HETATM   18  C   UNL     1     -12.424   8.608  71.876  1.00  0.00    -0.412 C  
HETATM   19  C   UNL     1     -13.806   8.034  71.689  1.00  0.00    -0.444 C  
BRANCH  18  20
HETATM   20  C   UNL     1     -11.475   7.720  72.677  1.00  0.00    -0.430 C  
BRANCH  20  21
HETATM   21  C   UNL     1     -11.152   6.347  72.078  1.00  0.00    -0.306 C  
HETATM   22  O   UNL     1     -11.252   5.912  69.704  1.00  0.00    -0.395 OA 
HETATM   23  O   UNL     1      -9.471   7.033  70.507  1.00  0.00    -0.165 OA 
HETATM   24  C   UNL     1     -10.659   6.407  70.651  1.00  0.00    -0.237 C  
ENDBRANCH  20  21
ENDBRANCH  18  20
ENDBRANCH  16  17
ENDBRANCH   4  16
ENDBRANCH   2   3
TORSDOF 5
ENDMDL
MODEL       31
REMARK 921   NORMALIZED FREE ENERGY PREDICTED BY IDOCK:   -6.27 KCAL/MOL
REMARK 922        TOTAL FREE ENERGY PREDICTED BY IDOCK:   -8.37 KCAL/MOL
REMARK 923 INTER-LIGAND FREE ENERGY PREDICTED BY IDOCK:   -7.74 KCAL/MOL
REMARK 924 INTRA-LIGAND FREE ENERGY PREDICTED BY IDOCK:   -0.63 KCAL/MOL
REMARK 927      BINDING AFFINITY PREDICTED BY RF-SCORE:    0.00 PKD
ROOT
HETATM    1  C   UNL     1     -12.148   9.828  70.890  1.00  0.00    -0.321 C  
HETATM    2  O   UNL     1     -12.829  10.902  70.249  1.00  0.00    -0.267 OA 
ENDROOT
BRANCH   2   3
HETATM    3  C   UNL     1     -12.164  12.095  70.073  1.00  0.00    -0.198 A  
HETATM    4  C   UNL     1     -11.300  12.385  68.969  1.00  0.00    -0.336 A  
HETATM    5  C   UNL     1     -10.816  13.706  68.846  1.00  0.00    -0.235 A  
HETATM    6  C   UNL     1     -12.239  15.606  71.626  1.00  0.00    -0.426 C  
HETATM    7  O   UNL     1      -9.929  14.082  67.882  1.00  0.00    -0.227 OA 
HETATM    8  C   UNL     1     -13.395  12.763  72.192  1.00  0.00    -0.593 C  
HETATM    9  C   UNL     1     -11.217  14.676  69.754  1.00  0.00    -0.296 A  
HETATM   10  C   UNL     1     -10.910  16.110  69.780  1.00  0.00    -0.333 C  
HETATM   11  C   UNL     1     -12.528  13.096  71.011  1.00  0.00    -0.406 A  
HETATM   12  H   UNL     1      -9.604  14.971  67.798  1.00  0.00     0.000 HD 
HETATM   13  O   UNL     1     -10.279  16.765  68.976  1.00  0.00    -0.274 OA 
HETATM   14  C   UNL     1     -12.039  14.382  70.822  1.00  0.00    -0.408 A  
HETATM   15  O   UNL     1     -11.528  16.617  70.893  1.00  0.00    -0.214 OA 
BRANCH   4  16
HETATM   16  C   UNL     1     -10.858  11.256  68.067  1.00  0.00    -0.266 C  
BRANCH  16  17
HETATM   17  C   UNL     1     -11.258  11.220  66.627  1.00  0.00    -0.247 C  
HETATM   18  C   UNL     1     -10.432  11.289  65.567  1.00  0.00    -0.323 C  
HETATM   19  C   UNL     1      -8.929  11.211  65.668  1.00  0.00    -0.195 C  
BRANCH  18  20
HETATM   20  C   UNL     1     -10.958  11.525  64.154  1.00  0.00    -0.434 C  
BRANCH  20  21
HETATM   21  C   UNL     1     -11.895  12.723  63.964  1.00  0.00    -0.506 C  
HETATM   22  O   UNL     1     -12.434  14.246  65.761  1.00  0.00    -0.441 OA 
HETATM   23  O   UNL     1     -10.427  14.449  64.759  1.00  0.00    -0.430 OA 
HETATM   24  C   UNL     1     -11.630  13.860  64.924  1.00  0.00    -0.359 C  
ENDBRANCH  20  21
ENDBRANCH  18  20
ENDBRANCH  16  17
ENDBRANCH   4  16
ENDBRANCH   2   3
TORSDOF 5
ENDMDL
MODEL       32
REMARK 921   NORMALIZED FREE ENERGY PREDICTED BY IDOCK:   -6.25 KCAL/MOL
REMARK 922        TOTAL FREE ENERGY PREDICTED BY IDOCK:   -8.34 KCAL/MOL
REMARK 923 INTER-LIGAND FREE ENERGY PREDICTED BY IDOCK:   -7.90 KCAL/MOL
REMARK 924 INTRA-LIGAND FREE ENERGY PREDICTED BY IDOCK:   -0.45 KCAL/MOL
REMARK 927      BINDING AFFINITY PREDICTED BY RF-SCORE:    0.00 PKD
ROOT
HETATM    1  C   UNL     1     -11.980  13.509  68.508  1.00  0.00    -0.344 C  
HETATM    2  O   UNL     1     -10.771  13.783  67.806  1.00  0.00    -0.242 OA 
ENDROOT
BRANCH   2   3
HETATM    3  C   UNL     1     -10.640  14.995  67.165  1.00  0.00    -0.295 A  
HETATM    4  C   UNL     1     -11.077  15.254  65.827  1.00  0.00    -0.301 A  
HETATM    5  C   UNL     1     -11.016  16.588  65.366  1.00  0.00    -0.131 A  
HETATM    6  C   UNL     1      -9.712  18.594  68.129  1.00  0.00    -0.336 C  
HETATM    7  O   UNL     1     -11.333  16.944  64.089  1.00  0.00    -1.389 OA 
HETATM    8  C   UNL     1      -9.662  15.738  69.389  1.00  0.00    -0.286 C  
HETATM    9  C   UNL     1     -10.583  17.594  66.218  1.00  0.00    -0.215 A  
HETATM   10  C   UNL     1     -10.511  19.040  65.988  1.00  0.00    -0.458 C  
HETATM   11  C   UNL     1     -10.165  16.036  68.004  1.00  0.00    -0.245 A  
HETATM   12  H   UNL     1     -11.293  17.841  63.778  1.00  0.00     0.000 HD 
HETATM   13  O   UNL     1     -10.866  19.672  65.014  1.00  0.00    -0.304 OA 
HETATM   14  C   UNL     1     -10.151  17.331  67.501  1.00  0.00    -0.315 A  
HETATM   15  O   UNL     1      -9.995  19.589  67.132  1.00  0.00    -0.332 OA 
BRANCH   4  16
HETATM   16  C   UNL     1     -11.467  14.092  64.945  1.00  0.00    -0.366 C  
BRANCH  16  17
HETATM   17  C   UNL     1     -10.532  12.948  64.720  1.00  0.00    -0.371 C  
HETATM   18  C   UNL     1     -10.802  11.817  64.041  1.00  0.00    -0.446 C  
HETATM   19  C   UNL     1     -12.047  11.611  63.216  1.00  0.00    -0.255 C  
BRANCH  18  20
HETATM   20  C   UNL     1      -9.881  10.602  64.109  1.00  0.00    -0.396 C  
BRANCH  20  21
HETATM   21  C   UNL     1      -9.086  10.417  65.407  1.00  0.00    -0.221 C  
HETATM   22  O   UNL     1     -10.132  10.455  67.584  1.00  0.00    -0.175 OA 
HETATM   23  O   UNL     1     -10.342   8.593  66.334  1.00  0.00    -0.262 OA 
HETATM   24  C   UNL     1      -9.904   9.852  66.545  1.00  0.00    -0.215 C  
ENDBRANCH  20  21
ENDBRANCH  18  20
ENDBRANCH  16  17
ENDBRANCH   4  16
ENDBRANCH   2   3
TORSDOF 5
ENDMDL
MODEL       33
REMARK 921   NORMALIZED FREE ENERGY PREDICTED BY IDOCK:   -6.25 KCAL/MOL
REMARK 922        TOTAL FREE ENERGY PREDICTED BY IDOCK:   -8.34 KCAL/MOL
REMARK 923 INTER-LIGAND FREE ENERGY PREDICTED BY IDOCK:   -7.57 KCAL/MOL
REMARK 924 INTRA-LIGAND FREE ENERGY PREDICTED BY IDOCK:   -0.76 KCAL/MOL
REMARK 927      BINDING AFFINITY PREDICTED BY RF-SCORE:    0.00 PKD
ROOT
HETATM    1  C   UNL     1     -12.954  14.688  71.101  1.00  0.00    -0.350 C  
HETATM    2  O   UNL     1     -11.699  14.253  70.588  1.00  0.00    -0.285 OA 
ENDROOT
BRANCH   2   3
HETATM    3  C   UNL     1     -11.574  14.052  69.231  1.00  0.00    -0.309 A  
HETATM    4  C   UNL     1     -11.345  15.094  68.276  1.00  0.00    -0.338 A  
HETATM    5  C   UNL     1     -11.082  14.713  66.942  1.00  0.00    -0.333 A  
HETATM    6  C   UNL     1     -11.149  11.059  66.864  1.00  0.00    -0.213 C  
HETATM    7  O   UNL     1     -10.924  15.615  65.932  1.00  0.00    -0.308 OA 
HETATM    8  C   UNL     1     -11.828  11.604  69.861  1.00  0.00    -0.434 C  
HETATM    9  C   UNL     1     -11.012  13.367  66.609  1.00  0.00    -0.297 A  
HETATM   10  C   UNL     1     -10.681  12.743  65.325  1.00  0.00    -0.294 C  
HETATM   11  C   UNL     1     -11.535  12.683  68.857  1.00  0.00    -0.354 A  
HETATM   12  H   UNL     1     -10.747  15.359  65.035  1.00  0.00     0.000 HD 
HETATM   13  O   UNL     1     -10.344  13.276  64.287  1.00  0.00    -0.427 OA 
HETATM   14  C   UNL     1     -11.248  12.372  67.534  1.00  0.00    -0.348 A  
HETATM   15  O   UNL     1     -10.773  11.390  65.517  1.00  0.00    -0.276 OA 
BRANCH   4  16
HETATM   16  C   UNL     1     -11.508  16.532  68.708  1.00  0.00    -0.143 C  
BRANCH  16  17
HETATM   17  C   UNL     1     -10.317  17.392  68.988  1.00  0.00    -0.319 C  
HETATM   18  C   UNL     1      -9.926  18.469  68.282  1.00  0.00    -0.409 C  
HETATM   19  C   UNL     1     -10.757  19.109  67.198  1.00  0.00    -0.567 C  
BRANCH  18  20
HETATM   20  C   UNL     1      -8.552  19.103  68.482  1.00  0.00    -0.398 C  
BRANCH  20  21
HETATM   21  C   UNL     1      -7.340  18.235  68.125  1.00  0.00    -0.266 C  
HETATM   22  O   UNL     1      -7.439  16.493  66.455  1.00  0.00    -0.262 OA 
HETATM   23  O   UNL     1      -7.307  18.630  65.757  1.00  0.00    -0.435 OA 
HETATM   24  C   UNL     1      -7.379  17.685  66.718  1.00  0.00    -0.210 C  
ENDBRANCH  20  21
ENDBRANCH  18  20
ENDBRANCH  16  17
ENDBRANCH   4  16
ENDBRANCH   2   3
TORSDOF 5
ENDMDL
MODEL       34
REMARK 921   NORMALIZED FREE ENERGY PREDICTED BY IDOCK:   -6.23 KCAL/MOL
REMARK 922        TOTAL FREE ENERGY PREDICTED BY IDOCK:   -8.31 KCAL/MOL
REMARK 923 INTER-LIGAND FREE ENERGY PREDICTED BY IDOCK:   -7.73 KCAL/MOL
REMARK 924 INTRA-LIGAND FREE ENERGY PREDICTED BY IDOCK:   -0.58 KCAL/MOL
REMARK 927      BINDING AFFINITY PREDICTED BY RF-SCORE:    0.00 PKD
ROOT
HETATM    1  C   UNL     1     -11.890  14.265  68.925  1.00  0.00    -0.336 C  
HETATM    2  O   UNL     1     -12.399  13.142  68.213  1.00  0.00    -0.130 OA 
ENDROOT
BRANCH   2   3
HETATM    3  C   UNL     1     -11.548  12.443  67.385  1.00  0.00    -0.365 A  
HETATM    4  C   UNL     1     -10.679  11.392  67.819  1.00  0.00    -0.254 A  
HETATM    5  C   UNL     1      -9.984  10.666  66.827  1.00  0.00    -0.209 A  
HETATM    6  C   UNL     1     -10.988  12.070  63.605  1.00  0.00    -0.448 C  
HETATM    7  O   UNL     1      -9.073   9.695  67.122  1.00  0.00    -0.133 OA 
HETATM    8  C   UNL     1     -12.589  13.888  65.574  1.00  0.00    -0.560 C  
HETATM    9  C   UNL     1     -10.190  10.958  65.486  1.00  0.00    -0.332 A  
HETATM   10  C   UNL     1      -9.646  10.296  64.296  1.00  0.00    -0.313 C  
HETATM   11  C   UNL     1     -11.712  12.747  66.009  1.00  0.00    -0.470 A  
HETATM   12  H   UNL     1      -8.606   9.206  66.455  1.00  0.00     0.000 HD 
HETATM   13  O   UNL     1      -8.937   9.313  64.232  1.00  0.00    -0.193 OA 
HETATM   14  C   UNL     1     -11.019  11.982  65.079  1.00  0.00    -0.355 A  
HETATM   15  O   UNL     1     -10.138  10.979  63.215  1.00  0.00    -0.333 OA 
BRANCH   4  16
HETATM   16  C   UNL     1     -10.459  11.186  69.299  1.00  0.00    -0.183 C  
BRANCH  16  17
HETATM   17  C   UNL     1     -11.164  10.094  70.038  1.00  0.00    -0.361 C  
HETATM   18  C   UNL     1     -12.117  10.250  70.976  1.00  0.00    -0.487 C  
HETATM   19  C   UNL     1     -12.777  11.570  71.290  1.00  0.00    -0.469 C  
BRANCH  18  20
HETATM   20  C   UNL     1     -12.567   9.092  71.863  1.00  0.00    -0.463 C  
BRANCH  20  21
HETATM   21  C   UNL     1     -11.508   8.036  72.199  1.00  0.00    -0.393 C  
HETATM   22  O   UNL     1     -12.040   5.689  72.410  1.00  0.00    -0.204 OA 
HETATM   23  O   UNL     1     -11.877   6.561  70.340  1.00  0.00    -0.400 OA 
HETATM   24  C   UNL     1     -11.844   6.655  71.687  1.00  0.00    -0.336 C  
ENDBRANCH  20  21
ENDBRANCH  18  20
ENDBRANCH  16  17
ENDBRANCH   4  16
ENDBRANCH   2   3
TORSDOF 5
ENDMDL
MODEL       35
REMARK 921   NORMALIZED FREE ENERGY PREDICTED BY IDOCK:   -6.22 KCAL/MOL
REMARK 922        TOTAL FREE ENERGY PREDICTED BY IDOCK:   -8.30 KCAL/MOL
REMARK 923 INTER-LIGAND FREE ENERGY PREDICTED BY IDOCK:   -7.87 KCAL/MOL
REMARK 924 INTRA-LIGAND FREE ENERGY PREDICTED BY IDOCK:   -0.43 KCAL/MOL
REMARK 927      BINDING AFFINITY PREDICTED BY RF-SCORE:    0.00 PKD
ROOT
HETATM    1  C   UNL     1      -9.345  11.566  68.197  1.00  0.00    -0.185 C  
HETATM    2  O   UNL     1     -10.727  11.871  68.036  1.00  0.00    -0.195 OA 
ENDROOT
BRANCH   2   3
HETATM    3  C   UNL     1     -11.346  12.656  68.983  1.00  0.00    -0.292 A  
HETATM    4  C   UNL     1     -11.550  14.067  68.857  1.00  0.00    -0.351 A  
HETATM    5  C   UNL     1     -12.339  14.705  69.840  1.00  0.00    -0.294 A  
HETATM    6  C   UNL     1     -13.408  12.103  72.175  1.00  0.00    -0.333 C  
HETATM    7  O   UNL     1     -12.540  16.053  69.867  1.00  0.00    -0.505 OA 
HETATM    8  C   UNL     1     -11.650  10.446  70.198  1.00  0.00    -0.392 C  
HETATM    9  C   UNL     1     -12.917  13.955  70.855  1.00  0.00    -0.316 A  
HETATM   10  C   UNL     1     -13.824  14.381  71.925  1.00  0.00    -0.462 C  
HETATM   11  C   UNL     1     -11.917  11.918  70.052  1.00  0.00    -0.409 A  
HETATM   12  H   UNL     1     -13.071  16.482  70.527  1.00  0.00     0.000 HD 
HETATM   13  O   UNL     1     -14.306  15.479  72.118  1.00  0.00    -0.548 OA 
HETATM   14  C   UNL     1     -12.703  12.598  70.974  1.00  0.00    -0.316 A  
HETATM   15  O   UNL     1     -14.087  13.266  72.675  1.00  0.00    -0.744 OA 
BRANCH   4  16
HETATM   16  C   UNL     1     -10.828  14.818  67.763  1.00  0.00    -0.278 C  
BRANCH  16  17
HETATM   17  C   UNL     1      -9.615  15.639  68.063  1.00  0.00    -0.203 C  
HETATM   18  C   UNL     1      -9.506  16.975  67.943  1.00  0.00    -0.245 C  
HETATM   19  C   UNL     1     -10.674  17.892  67.675  1.00  0.00    -0.343 C  
BRANCH  18  20
HETATM   20  C   UNL     1      -8.152  17.678  68.005  1.00  0.00    -0.243 C  
BRANCH  20  21
HETATM   21  C   UNL     1      -8.099  18.993  68.791  1.00  0.00    -0.372 C  
HETATM   22  O   UNL     1      -6.433  20.690  68.366  1.00  0.00    -0.304 OA 
HETATM   23  O   UNL     1      -8.165  20.516  66.935  1.00  0.00    -0.284 OA 
HETATM   24  C   UNL     1      -7.467  20.133  68.026  1.00  0.00    -0.261 C  
ENDBRANCH  20  21
ENDBRANCH  18  20
ENDBRANCH  16  17
ENDBRANCH   4  16
ENDBRANCH   2   3
TORSDOF 5
ENDMDL
MODEL       36
REMARK 921   NORMALIZED FREE ENERGY PREDICTED BY IDOCK:   -6.21 KCAL/MOL
REMARK 922        TOTAL FREE ENERGY PREDICTED BY IDOCK:   -8.29 KCAL/MOL
REMARK 923 INTER-LIGAND FREE ENERGY PREDICTED BY IDOCK:   -7.78 KCAL/MOL
REMARK 924 INTRA-LIGAND FREE ENERGY PREDICTED BY IDOCK:   -0.52 KCAL/MOL
REMARK 927      BINDING AFFINITY PREDICTED BY RF-SCORE:    0.00 PKD
ROOT
HETATM    1  C   UNL     1      -9.186  10.325  67.115  1.00  0.00    -0.145 C  
HETATM    2  O   UNL     1      -8.930  10.794  68.434  1.00  0.00    -0.140 OA 
ENDROOT
BRANCH   2   3
HETATM    3  C   UNL     1      -9.833  10.495  69.430  1.00  0.00    -0.182 A  
HETATM    4  C   UNL     1     -11.133  11.084  69.548  1.00  0.00    -0.322 A  
HETATM    5  C   UNL     1     -12.003  10.559  70.529  1.00  0.00    -0.342 A  
HETATM    6  C   UNL     1     -10.200   7.843  72.182  1.00  0.00    -0.227 C  
HETATM    7  O   UNL     1     -13.233  11.087  70.785  1.00  0.00    -0.153 OA 
HETATM    8  C   UNL     1      -8.045   8.845  70.159  1.00  0.00    -0.122 C  
HETATM    9  C   UNL     1     -11.599   9.482  71.305  1.00  0.00    -0.445 A  
HETATM   10  C   UNL     1     -12.349   8.732  72.317  1.00  0.00    -0.378 C  
HETATM   11  C   UNL     1      -9.430   9.418  70.262  1.00  0.00    -0.294 A  
HETATM   12  H   UNL     1     -13.819  10.734  71.444  1.00  0.00     0.000 HD 
HETATM   13  O   UNL     1     -13.508   8.862  72.653  1.00  0.00    -0.435 OA 
HETATM   14  C   UNL     1     -10.339   8.931  71.192  1.00  0.00    -0.338 A  
HETATM   15  O   UNL     1     -11.493   7.780  72.806  1.00  0.00    -0.374 OA 
BRANCH   4  16
HETATM   16  C   UNL     1     -11.466  12.297  68.711  1.00  0.00    -0.360 C  
BRANCH  16  17
HETATM   17  C   UNL     1     -12.122  13.495  69.320  1.00  0.00    -0.335 C  
HETATM   18  C   UNL     1     -11.514  14.637  69.690  1.00  0.00    -0.329 C  
HETATM   19  C   UNL     1     -10.080  14.970  69.357  1.00  0.00    -0.208 C  
BRANCH  18  20
HETATM   20  C   UNL     1     -12.221  15.680  70.552  1.00  0.00    -0.437 C  
BRANCH  20  21
HETATM   21  C   UNL     1     -13.644  15.339  71.008  1.00  0.00    -0.486 C  
HETATM   22  O   UNL     1     -14.110  13.579  72.595  1.00  0.00    -0.762 OA 
HETATM   23  O   UNL     1     -13.310  15.534  73.378  1.00  0.00    -0.490 OA 
HETATM   24  C   UNL     1     -13.708  14.714  72.382  1.00  0.00    -0.471 C  
ENDBRANCH  20  21
ENDBRANCH  18  20
ENDBRANCH  16  17
ENDBRANCH   4  16
ENDBRANCH   2   3
TORSDOF 5
ENDMDL
MODEL       37
REMARK 921   NORMALIZED FREE ENERGY PREDICTED BY IDOCK:   -6.21 KCAL/MOL
REMARK 922        TOTAL FREE ENERGY PREDICTED BY IDOCK:   -8.29 KCAL/MOL
REMARK 923 INTER-LIGAND FREE ENERGY PREDICTED BY IDOCK:   -7.48 KCAL/MOL
REMARK 924 INTRA-LIGAND FREE ENERGY PREDICTED BY IDOCK:   -0.81 KCAL/MOL
REMARK 927      BINDING AFFINITY PREDICTED BY RF-SCORE:    0.00 PKD
ROOT
HETATM    1  C   UNL     1      -8.659  17.054  66.121  1.00  0.00    -0.217 C  
HETATM    2  O   UNL     1     -10.079  17.070  66.238  1.00  0.00    -0.296 OA 
ENDROOT
BRANCH   2   3
HETATM    3  C   UNL     1     -10.685  16.133  67.046  1.00  0.00    -0.254 A  
HETATM    4  C   UNL     1     -11.113  14.840  66.606  1.00  0.00    -0.333 A  
HETATM    5  C   UNL     1     -11.574  13.934  67.586  1.00  0.00    -0.348 A  
HETATM    6  C   UNL     1     -11.306  15.648  70.804  1.00  0.00    -0.371 C  
HETATM    7  O   UNL     1     -12.076  12.705  67.280  1.00  0.00    -0.448 OA 
HETATM    8  C   UNL     1     -10.313  17.876  68.856  1.00  0.00    -0.272 C  
HETATM    9  C   UNL     1     -11.561  14.300  68.925  1.00  0.00    -0.340 A  
HETATM   10  C   UNL     1     -11.913  13.510  70.109  1.00  0.00    -0.329 C  
HETATM   11  C   UNL     1     -10.717  16.496  68.417  1.00  0.00    -0.339 A  
HETATM   12  H   UNL     1     -12.386  12.095  67.939  1.00  0.00     0.000 HD 
HETATM   13  O   UNL     1     -12.244  12.344  70.171  1.00  0.00    -0.296 OA 
HETATM   14  C   UNL     1     -11.159  15.554  69.337  1.00  0.00    -0.291 A  
HETATM   15  O   UNL     1     -11.751  14.337  71.188  1.00  0.00    -0.266 OA 
BRANCH   4  16
HETATM   16  C   UNL     1     -11.161  14.548  65.124  1.00  0.00    -0.374 C  
BRANCH  16  17
HETATM   17  C   UNL     1     -10.368  13.426  64.534  1.00  0.00    -0.394 C  
HETATM   18  C   UNL     1     -10.863  12.304  63.980  1.00  0.00    -0.439 C  
HETATM   19  C   UNL     1     -12.326  12.090  63.681  1.00  0.00    -0.648 C  
BRANCH  18  20
HETATM   20  C   UNL     1      -9.972  11.105  63.665  1.00  0.00    -0.411 C  
BRANCH  20  21
HETATM   21  C   UNL     1      -8.912  10.746  64.713  1.00  0.00    -0.194 C  
HETATM   22  O   UNL     1      -9.301  10.984  67.085  1.00  0.00    -0.162 OA 
HETATM   23  O   UNL     1     -10.219   9.220  66.028  1.00  0.00    -0.269 OA 
HETATM   24  C   UNL     1      -9.491  10.356  66.053  1.00  0.00    -0.185 C  
ENDBRANCH  20  21
ENDBRANCH  18  20
ENDBRANCH  16  17
ENDBRANCH   4  16
ENDBRANCH   2   3
TORSDOF 5
ENDMDL
MODEL       38
REMARK 921   NORMALIZED FREE ENERGY PREDICTED BY IDOCK:   -6.20 KCAL/MOL
REMARK 922        TOTAL FREE ENERGY PREDICTED BY IDOCK:   -8.27 KCAL/MOL
REMARK 923 INTER-LIGAND FREE ENERGY PREDICTED BY IDOCK:   -7.68 KCAL/MOL
REMARK 924 INTRA-LIGAND FREE ENERGY PREDICTED BY IDOCK:   -0.59 KCAL/MOL
REMARK 927      BINDING AFFINITY PREDICTED BY RF-SCORE:    0.00 PKD
ROOT
HETATM    1  C   UNL     1     -12.404  12.532  63.351  1.00  0.00    -0.477 C  
HETATM    2  O   UNL     1     -11.132  12.596  63.986  1.00  0.00    -0.349 OA 
ENDROOT
BRANCH   2   3
HETATM    3  C   UNL     1     -10.943  11.898  65.159  1.00  0.00    -0.312 A  
HETATM    4  C   UNL     1     -11.544  12.244  66.412  1.00  0.00    -0.445 A  
HETATM    5  C   UNL     1     -11.381  11.342  67.487  1.00  0.00    -0.292 A  
HETATM    6  C   UNL     1      -9.418   8.535  66.211  1.00  0.00    -0.231 C  
HETATM    7  O   UNL     1     -11.842  11.599  68.744  1.00  0.00    -0.309 OA 
HETATM    8  C   UNL     1      -9.548  10.369  63.688  1.00  0.00    -0.364 C  
HETATM    9  C   UNL     1     -10.695  10.152  67.292  1.00  0.00    -0.316 A  
HETATM   10  C   UNL     1     -10.471   9.043  68.225  1.00  0.00    -0.200 C  
HETATM   11  C   UNL     1     -10.214  10.692  64.996  1.00  0.00    -0.380 A  
HETATM   12  H   UNL     1     -11.733  10.992  69.467  1.00  0.00     0.000 HD 
HETATM   13  O   UNL     1     -10.887   8.910  69.358  1.00  0.00    -0.208 OA 
HETATM   14  C   UNL     1     -10.110   9.835  66.083  1.00  0.00    -0.315 A  
HETATM   15  O   UNL     1      -9.719   8.117  67.552  1.00  0.00    -0.147 OA 
BRANCH   4  16
HETATM   16  C   UNL     1     -12.213  13.591  66.558  1.00  0.00    -0.433 C  
BRANCH  16  17
HETATM   17  C   UNL     1     -11.522  14.723  67.248  1.00  0.00    -0.378 C  
HETATM   18  C   UNL     1     -10.644  15.579  66.695  1.00  0.00    -0.307 C  
HETATM   19  C   UNL     1     -10.366  15.656  65.214  1.00  0.00    -0.405 C  
BRANCH  18  20
HETATM   20  C   UNL     1      -9.791  16.515  67.547  1.00  0.00    -0.248 C  
BRANCH  20  21
HETATM   21  C   UNL     1     -10.546  17.532  68.412  1.00  0.00    -0.339 C  
HETATM   22  O   UNL     1      -9.819  19.823  68.650  1.00  0.00    -0.397 OA 
HETATM   23  O   UNL     1     -10.873  19.234  66.749  1.00  0.00    -0.438 OA 
HETATM   24  C   UNL     1     -10.358  18.964  67.968  1.00  0.00    -0.389 C  
ENDBRANCH  20  21
ENDBRANCH  18  20
ENDBRANCH  16  17
ENDBRANCH   4  16
ENDBRANCH   2   3
TORSDOF 5
ENDMDL
MODEL       39
REMARK 921   NORMALIZED FREE ENERGY PREDICTED BY IDOCK:   -6.15 KCAL/MOL
REMARK 922        TOTAL FREE ENERGY PREDICTED BY IDOCK:   -8.21 KCAL/MOL
REMARK 923 INTER-LIGAND FREE ENERGY PREDICTED BY IDOCK:   -7.78 KCAL/MOL
REMARK 924 INTRA-LIGAND FREE ENERGY PREDICTED BY IDOCK:   -0.43 KCAL/MOL
REMARK 927      BINDING AFFINITY PREDICTED BY RF-SCORE:    0.00 PKD
ROOT
HETATM    1  C   UNL     1     -13.048  12.651  72.093  1.00  0.00    -0.333 C  
HETATM    2  O   UNL     1     -13.383  11.714  71.075  1.00  0.00     0.056 OA 
ENDROOT
BRANCH   2   3
HETATM    3  C   UNL     1     -12.492  10.704  70.788  1.00  0.00    -0.385 A  
HETATM    4  C   UNL     1     -11.309  10.868  69.999  1.00  0.00    -0.386 A  
HETATM    5  C   UNL     1     -10.414   9.777  69.925  1.00  0.00    -0.261 A  
HETATM    6  C   UNL     1     -11.843   7.111  71.977  1.00  0.00    -0.295 C  
HETATM    7  O   UNL     1      -9.296   9.789  69.146  1.00  0.00    -0.163 OA 
HETATM    8  C   UNL     1     -14.031   9.319  72.260  1.00  0.00    -0.439 C  
HETATM    9  C   UNL     1     -10.680   8.617  70.638  1.00  0.00    -0.259 A  
HETATM   10  C   UNL     1      -9.870   7.402  70.774  1.00  0.00    -0.178 C  
HETATM   11  C   UNL     1     -12.759   9.492  71.477  1.00  0.00    -0.461 A  
HETATM   12  H   UNL     1      -8.694   9.056  69.096  1.00  0.00     0.000 HD 
HETATM   13  O   UNL     1      -8.764   7.175  70.330  1.00  0.00    -0.147 OA 
HETATM   14  C   UNL     1     -11.830   8.464  71.385  1.00  0.00    -0.339 A  
HETATM   15  O   UNL     1     -10.588   6.545  71.567  1.00  0.00    -0.222 OA 
BRANCH   4  16
HETATM   16  C   UNL     1     -11.131  12.137  69.199  1.00  0.00    -0.263 C  
BRANCH  16  17
HETATM   17  C   UNL     1     -11.721  12.276  67.833  1.00  0.00    -0.410 C  
HETATM   18  C   UNL     1     -11.877  13.421  67.143  1.00  0.00    -0.429 C  
HETATM   19  C   UNL     1     -11.285  14.742  67.565  1.00  0.00    -0.339 C  
BRANCH  18  20
HETATM   20  C   UNL     1     -12.740  13.488  65.885  1.00  0.00    -0.382 C  
BRANCH  20  21
HETATM   21  C   UNL     1     -12.014  13.813  64.574  1.00  0.00    -0.458 C  
HETATM   22  O   UNL     1     -10.671  12.186  63.399  1.00  0.00    -0.430 OA 
HETATM   23  O   UNL     1     -12.912  12.039  63.226  1.00  0.00    -0.736 OA 
HETATM   24  C   UNL     1     -11.779  12.607  63.695  1.00  0.00    -0.522 C  
ENDBRANCH  20  21
ENDBRANCH  18  20
ENDBRANCH  16  17
ENDBRANCH   4  16
ENDBRANCH   2   3
TORSDOF 5
ENDMDL
MODEL       40
REMARK 921   NORMALIZED FREE ENERGY PREDICTED BY IDOCK:   -6.14 KCAL/MOL
REMARK 922        TOTAL FREE ENERGY PREDICTED BY IDOCK:   -8.20 KCAL/MOL
REMARK 923 INTER-LIGAND FREE ENERGY PREDICTED BY IDOCK:   -7.71 KCAL/MOL
REMARK 924 INTRA-LIGAND FREE ENERGY PREDICTED BY IDOCK:   -0.49 KCAL/MOL
REMARK 927      BINDING AFFINITY PREDICTED BY RF-SCORE:    0.00 PKD
ROOT
HETATM    1  C   UNL     1     -13.826   8.520  71.616  1.00  0.00    -0.389 C  
HETATM    2  O   UNL     1     -12.730   9.207  72.211  1.00  0.00    -0.383 OA 
ENDROOT
BRANCH   2   3
HETATM    3  C   UNL     1     -11.526   9.237  71.541  1.00  0.00    -0.384 A  
HETATM    4  C   UNL     1     -11.183  10.196  70.535  1.00  0.00    -0.411 A  
HETATM    5  C   UNL     1      -9.856  10.194  70.054  1.00  0.00    -0.128 A  
HETATM    6  C   UNL     1      -8.088   7.561  71.872  1.00  0.00    -0.094 C  
HETATM    7  O   UNL     1      -9.433  11.007  69.045  1.00  0.00    -0.307 OA 
HETATM    8  C   UNL     1     -10.959   7.285  73.063  1.00  0.00    -0.388 C  
HETATM    9  C   UNL     1      -8.929   9.310  70.588  1.00  0.00    -0.296 A  
HETATM   10  C   UNL     1      -7.497   9.179  70.305  1.00  0.00    -0.099 C  
HETATM   11  C   UNL     1     -10.569   8.318  72.044  1.00  0.00    -0.365 A  
HETATM   12  H   UNL     1      -8.540  11.006  68.721  1.00  0.00     0.000 HD 
HETATM   13  O   UNL     1      -6.803   9.859  69.575  1.00  0.00    -0.053 OA 
HETATM   14  C   UNL     1      -9.274   8.381  71.548  1.00  0.00    -0.257 A  
HETATM   15  O   UNL     1      -7.042   8.144  71.077  1.00  0.00    -0.051 OA 
BRANCH   4  16
HETATM   16  C   UNL     1     -12.269  11.075  69.959  1.00  0.00    -0.418 C  
BRANCH  16  17
HETATM   17  C   UNL     1     -12.270  12.552  70.193  1.00  0.00    -0.307 C  
HETATM   18  C   UNL     1     -12.902  13.202  71.187  1.00  0.00    -0.349 C  
HETATM   19  C   UNL     1     -13.556  12.513  72.359  1.00  0.00    -0.353 C  
BRANCH  18  20
HETATM   20  C   UNL     1     -13.070  14.719  71.173  1.00  0.00    -0.443 C  
BRANCH  20  21
HETATM   21  C   UNL     1     -13.643  15.356  72.445  1.00  0.00    -0.618 C  
HETATM   22  O   UNL     1     -12.441  15.375  74.540  1.00  0.00    -0.609 OA 
HETATM   23  O   UNL     1     -11.824  16.842  72.945  1.00  0.00    -0.460 OA 
HETATM   24  C   UNL     1     -12.587  15.831  73.415  1.00  0.00    -0.545 C  
ENDBRANCH  20  21
ENDBRANCH  18  20
ENDBRANCH  16  17
ENDBRANCH   4  16
ENDBRANCH   2   3
TORSDOF 5
ENDMDL
MODEL       41
REMARK 921   NORMALIZED FREE ENERGY PREDICTED BY IDOCK:   -6.12 KCAL/MOL
REMARK 922        TOTAL FREE ENERGY PREDICTED BY IDOCK:   -8.17 KCAL/MOL
REMARK 923 INTER-LIGAND FREE ENERGY PREDICTED BY IDOCK:   -7.91 KCAL/MOL
REMARK 924 INTRA-LIGAND FREE ENERGY PREDICTED BY IDOCK:   -0.27 KCAL/MOL
REMARK 927      BINDING AFFINITY PREDICTED BY RF-SCORE:    0.00 PKD
ROOT
HETATM    1  C   UNL     1      -7.544   9.093  65.844  1.00  0.00    -0.095 C  
HETATM    2  O   UNL     1      -8.880   8.805  65.444  1.00  0.00    -0.186 OA 
ENDROOT
BRANCH   2   3
HETATM    3  C   UNL     1      -9.830   9.796  65.551  1.00  0.00    -0.308 A  
HETATM    4  C   UNL     1     -10.473  10.172  66.774  1.00  0.00    -0.270 A  
HETATM    5  C   UNL     1     -11.308  11.311  66.751  1.00  0.00    -0.111 A  
HETATM    6  C   UNL     1     -11.213  12.610  63.335  1.00  0.00    -0.344 C  
HETATM    7  O   UNL     1     -12.031  11.721  67.832  1.00  0.00    -0.575 OA 
HETATM    8  C   UNL     1      -9.376  10.100  63.071  1.00  0.00    -0.330 C  
HETATM    9  C   UNL     1     -11.446  12.043  65.579  1.00  0.00    -0.368 A  
HETATM   10  C   UNL     1     -12.186  13.285  65.341  1.00  0.00    -0.456 C  
HETATM   11  C   UNL     1     -10.018  10.539  64.357  1.00  0.00    -0.410 A  
HETATM   12  H   UNL     1     -12.592  12.487  67.816  1.00  0.00     0.000 HD 
HETATM   13  O   UNL     1     -12.796  13.970  66.137  1.00  0.00    -0.394 OA 
HETATM   14  C   UNL     1     -10.833  11.663  64.404  1.00  0.00    -0.399 A  
HETATM   15  O   UNL     1     -12.024  13.583  64.014  1.00  0.00    -0.431 OA 
BRANCH   4  16
HETATM   16  C   UNL     1     -10.324   9.282  67.985  1.00  0.00    -0.270 C  
BRANCH  16  17
HETATM   17  C   UNL     1     -10.710   9.763  69.347  1.00  0.00    -0.250 C  
HETATM   18  C   UNL     1     -11.198   9.011  70.351  1.00  0.00    -0.275 C  
HETATM   19  C   UNL     1     -11.243   7.503  70.325  1.00  0.00    -0.253 C  
BRANCH  18  20
HETATM   20  C   UNL     1     -11.819   9.640  71.595  1.00  0.00    -0.457 C  
BRANCH  20  21
HETATM   21  C   UNL     1     -13.142  10.388  71.396  1.00  0.00    -0.512 C  
HETATM   22  O   UNL     1     -13.598  12.517  72.443  1.00  0.00    -0.521 OA 
HETATM   23  O   UNL     1     -12.251  12.485  70.638  1.00  0.00    -0.369 OA 
HETATM   24  C   UNL     1     -13.025  11.885  71.567  1.00  0.00    -0.323 C  
ENDBRANCH  20  21
ENDBRANCH  18  20
ENDBRANCH  16  17
ENDBRANCH   4  16
ENDBRANCH   2   3
TORSDOF 5
ENDMDL
MODEL       42
REMARK 921   NORMALIZED FREE ENERGY PREDICTED BY IDOCK:   -6.09 KCAL/MOL
REMARK 922        TOTAL FREE ENERGY PREDICTED BY IDOCK:   -8.13 KCAL/MOL
REMARK 923 INTER-LIGAND FREE ENERGY PREDICTED BY IDOCK:   -7.65 KCAL/MOL
REMARK 924 INTRA-LIGAND FREE ENERGY PREDICTED BY IDOCK:   -0.48 KCAL/MOL
REMARK 927      BINDING AFFINITY PREDICTED BY RF-SCORE:    0.00 PKD
ROOT
HETATM    1  C   UNL     1     -11.891  12.547  69.795  1.00  0.00    -0.310 C  
HETATM    2  O   UNL     1     -12.531  13.733  69.336  1.00  0.00    -0.255 OA 
ENDROOT
BRANCH   2   3
HETATM    3  C   UNL     1     -11.800  14.634  68.594  1.00  0.00    -0.311 A  
HETATM    4  C   UNL     1     -11.632  14.567  67.174  1.00  0.00    -0.406 A  
HETATM    5  C   UNL     1     -10.986  15.651  66.539  1.00  0.00    -0.206 A  
HETATM    6  C   UNL     1     -10.160  18.059  69.162  1.00  0.00    -0.196 C  
HETATM    7  O   UNL     1     -10.702  15.665  65.206  1.00  0.00    -0.376 OA 
HETATM    8  C   UNL     1     -11.479  15.780  70.838  1.00  0.00    -0.438 C  
HETATM    9  C   UNL     1     -10.579  16.746  67.288  1.00  0.00    -0.275 A  
HETATM   10  C   UNL     1      -9.967  18.002  66.842  1.00  0.00    -0.340 C  
HETATM   11  C   UNL     1     -11.340  15.749  69.342  1.00  0.00    -0.348 A  
HETATM   12  H   UNL     1     -10.268  16.394  64.779  1.00  0.00     0.000 HD 
HETATM   13  O   UNL     1      -9.735  18.372  65.709  1.00  0.00    -0.483 OA 
HETATM   14  C   UNL     1     -10.734  16.795  68.658  1.00  0.00    -0.352 A  
HETATM   15  O   UNL     1      -9.738  18.743  67.971  1.00  0.00    -0.299 OA 
BRANCH   4  16
HETATM   16  C   UNL     1     -12.041  13.308  66.446  1.00  0.00    -0.454 C  
BRANCH  16  17
HETATM   17  C   UNL     1     -11.097  12.156  66.309  1.00  0.00    -0.353 C  
HETATM   18  C   UNL     1     -10.705  11.578  65.159  1.00  0.00    -0.348 C  
HETATM   19  C   UNL     1     -11.004  12.141  63.792  1.00  0.00    -0.494 C  
BRANCH  18  20
HETATM   20  C   UNL     1      -9.967  10.242  65.144  1.00  0.00    -0.395 C  
BRANCH  20  21
HETATM   21  C   UNL     1      -9.343   9.790  66.470  1.00  0.00    -0.207 C  
HETATM   22  O   UNL     1     -10.672   9.289  68.424  1.00  0.00    -0.211 OA 
HETATM   23  O   UNL     1     -10.590   7.760  66.772  1.00  0.00    -0.331 OA 
HETATM   24  C   UNL     1     -10.267   8.951  67.321  1.00  0.00    -0.258 C  
ENDBRANCH  20  21
ENDBRANCH  18  20
ENDBRANCH  16  17
ENDBRANCH   4  16
ENDBRANCH   2   3
TORSDOF 5
ENDMDL
MODEL       43
REMARK 921   NORMALIZED FREE ENERGY PREDICTED BY IDOCK:   -6.05 KCAL/MOL
REMARK 922        TOTAL FREE ENERGY PREDICTED BY IDOCK:   -8.08 KCAL/MOL
REMARK 923 INTER-LIGAND FREE ENERGY PREDICTED BY IDOCK:   -7.95 KCAL/MOL
REMARK 924 INTRA-LIGAND FREE ENERGY PREDICTED BY IDOCK:   -0.13 KCAL/MOL
REMARK 927      BINDING AFFINITY PREDICTED BY RF-SCORE:    0.00 PKD
ROOT
HETATM    1  C   UNL     1     -10.906  10.112  67.702  1.00  0.00    -0.290 C  
HETATM    2  O   UNL     1     -12.064  10.920  67.891  1.00  0.00    -0.527 OA 
ENDROOT
BRANCH   2   3
HETATM    3  C   UNL     1     -11.902  12.216  68.327  1.00  0.00    -0.301 A  
HETATM    4  C   UNL     1     -11.966  12.624  69.697  1.00  0.00    -0.352 A  
HETATM    5  C   UNL     1     -11.622  13.960  70.000  1.00  0.00    -0.212 A  
HETATM    6  C   UNL     1     -10.716  15.550  66.835  1.00  0.00    -0.317 C  
HETATM    7  O   UNL     1     -11.718  14.483  71.255  1.00  0.00    -0.440 OA 
HETATM    8  C   UNL     1     -11.490  12.686  65.865  1.00  0.00    -0.407 C  
HETATM    9  C   UNL     1     -11.200  14.811  68.987  1.00  0.00    -0.286 A  
HETATM   10  C   UNL     1     -10.725  16.195  69.073  1.00  0.00    -0.287 C  
HETATM   11  C   UNL     1     -11.503  13.116  67.304  1.00  0.00    -0.375 A  
HETATM   12  H   UNL     1     -11.487  15.382  71.458  1.00  0.00     0.000 HD 
HETATM   13  O   UNL     1     -10.551  16.877  70.062  1.00  0.00    -0.170 OA 
HETATM   14  C   UNL     1     -11.155  14.411  67.668  1.00  0.00    -0.311 A  
HETATM   15  O   UNL     1     -10.452  16.590  67.790  1.00  0.00    -0.289 OA 
BRANCH   4  16
HETATM   16  C   UNL     1     -12.502  11.656  70.726  1.00  0.00    -0.425 C  
BRANCH  16  17
HETATM   17  C   UNL     1     -11.743  10.420  71.089  1.00  0.00    -0.387 C  
HETATM   18  C   UNL     1     -12.222   9.358  71.764  1.00  0.00    -0.465 C  
HETATM   19  C   UNL     1     -13.682   9.159  72.088  1.00  0.00    -0.531 C  
BRANCH  18  20
HETATM   20  C   UNL     1     -11.298   8.280  72.323  1.00  0.00    -0.446 C  
BRANCH  20  21
HETATM   21  C   UNL     1      -9.793   8.514  72.154  1.00  0.00    -0.388 C  
HETATM   22  O   UNL     1      -8.269   8.558  74.028  1.00  0.00    -0.353 OA 
HETATM   23  O   UNL     1      -9.001   6.556  73.298  1.00  0.00    -0.128 OA 
HETATM   24  C   UNL     1      -8.956   7.905  73.255  1.00  0.00    -0.264 C  
ENDBRANCH  20  21
ENDBRANCH  18  20
ENDBRANCH  16  17
ENDBRANCH   4  16
ENDBRANCH   2   3
TORSDOF 5
ENDMDL
MODEL       44
REMARK 921   NORMALIZED FREE ENERGY PREDICTED BY IDOCK:   -6.04 KCAL/MOL
REMARK 922        TOTAL FREE ENERGY PREDICTED BY IDOCK:   -8.07 KCAL/MOL
REMARK 923 INTER-LIGAND FREE ENERGY PREDICTED BY IDOCK:   -7.11 KCAL/MOL
REMARK 924 INTRA-LIGAND FREE ENERGY PREDICTED BY IDOCK:   -0.97 KCAL/MOL
REMARK 927      BINDING AFFINITY PREDICTED BY RF-SCORE:    0.00 PKD
ROOT
HETATM    1  C   UNL     1      -9.940  15.562  68.541  1.00  0.00    -0.208 C  
HETATM    2  O   UNL     1     -11.321  15.241  68.406  1.00  0.00    -0.297 OA 
ENDROOT
BRANCH   2   3
HETATM    3  C   UNL     1     -11.768  14.031  68.888  1.00  0.00    -0.340 A  
HETATM    4  C   UNL     1     -11.548  12.772  68.245  1.00  0.00    -0.375 A  
HETATM    5  C   UNL     1     -11.931  11.604  68.942  1.00  0.00    -0.292 A  
HETATM    6  C   UNL     1     -13.292  12.701  72.152  1.00  0.00    -0.466 C  
HETATM    7  O   UNL     1     -11.840  10.357  68.401  1.00  0.00    -0.723 OA 
HETATM    8  C   UNL     1     -12.617  15.443  70.822  1.00  0.00    -0.497 C  
HETATM    9  C   UNL     1     -12.459  11.706  70.221  1.00  0.00    -0.261 A  
HETATM   10  C   UNL     1     -12.850  10.644  71.153  1.00  0.00    -0.420 C  
HETATM   11  C   UNL     1     -12.346  14.110  70.182  1.00  0.00    -0.413 A  
HETATM   12  H   UNL     1     -12.097   9.571  68.870  1.00  0.00     0.000 HD 
HETATM   13  O   UNL     1     -12.743   9.442  71.021  1.00  0.00    -0.287 OA 
HETATM   14  C   UNL     1     -12.679  12.926  70.826  1.00  0.00    -0.229 A  
HETATM   15  O   UNL     1     -13.333  11.270  72.272  1.00  0.00    -0.394 OA 
BRANCH   4  16
HETATM   16  C   UNL     1     -11.033  12.754  66.825  1.00  0.00    -0.301 C  
BRANCH  16  17
HETATM   17  C   UNL     1      -9.717  12.128  66.490  1.00  0.00    -0.234 C  
HETATM   18  C   UNL     1      -9.484  11.231  65.514  1.00  0.00    -0.255 C  
HETATM   19  C   UNL     1     -10.493  10.864  64.454  1.00  0.00    -0.403 C  
BRANCH  18  20
HETATM   20  C   UNL     1      -8.176  10.449  65.438  1.00  0.00    -0.159 C  
BRANCH  20  21
HETATM   21  C   UNL     1      -7.811   9.605  66.665  1.00  0.00    -0.105 C  
HETATM   22  O   UNL     1      -9.476   8.752  68.192  1.00  0.00    -0.139 OA 
HETATM   23  O   UNL     1      -9.210   7.706  66.215  1.00  0.00    -0.174 OA 
HETATM   24  C   UNL     1      -8.913   8.673  67.110  1.00  0.00    -0.132 C  
ENDBRANCH  20  21
ENDBRANCH  18  20
ENDBRANCH  16  17
ENDBRANCH   4  16
ENDBRANCH   2   3
TORSDOF 5
ENDMDL
MODEL       45
REMARK 921   NORMALIZED FREE ENERGY PREDICTED BY IDOCK:   -6.03 KCAL/MOL
REMARK 922        TOTAL FREE ENERGY PREDICTED BY IDOCK:   -8.06 KCAL/MOL
REMARK 923 INTER-LIGAND FREE ENERGY PREDICTED BY IDOCK:   -7.23 KCAL/MOL
REMARK 924 INTRA-LIGAND FREE ENERGY PREDICTED BY IDOCK:   -0.83 KCAL/MOL
REMARK 927      BINDING AFFINITY PREDICTED BY RF-SCORE:    0.00 PKD
ROOT
HETATM    1  C   UNL     1     -11.852  16.035  72.026  1.00  0.00    -0.533 C  
HETATM    2  O   UNL     1     -12.858  15.398  71.246  1.00  0.00    -0.382 OA 
ENDROOT
BRANCH   2   3
HETATM    3  C   UNL     1     -12.520  14.279  70.518  1.00  0.00    -0.361 A  
HETATM    4  C   UNL     1     -11.869  14.308  69.243  1.00  0.00    -0.372 A  
HETATM    5  C   UNL     1     -11.447  13.076  68.695  1.00  0.00    -0.307 A  
HETATM    6  C   UNL     1     -12.360  10.488  71.111  1.00  0.00    -0.405 C  
HETATM    7  O   UNL     1     -10.885  12.971  67.458  1.00  0.00    -0.240 OA 
HETATM    8  C   UNL     1     -13.465  13.042  72.525  1.00  0.00    -0.522 C  
HETATM    9  C   UNL     1     -11.634  11.902  69.411  1.00  0.00    -0.388 A  
HETATM   10  C   UNL     1     -11.214  10.536  69.084  1.00  0.00    -0.256 C  
HETATM   11  C   UNL     1     -12.734  13.060  71.212  1.00  0.00    -0.385 A  
HETATM   12  H   UNL     1     -10.601  12.143  67.090  1.00  0.00     0.000 HD 
HETATM   13  O   UNL     1     -10.564  10.150  68.134  1.00  0.00    -0.193 OA 
HETATM   14  C   UNL     1     -12.275  11.884  70.633  1.00  0.00    -0.424 A  
HETATM   15  O   UNL     1     -11.659   9.739  70.105  1.00  0.00    -0.243 OA 
BRANCH   4  16
HETATM   16  C   UNL     1     -11.768  15.620  68.501  1.00  0.00    -0.339 C  
BRANCH  16  17
HETATM   17  C   UNL     1     -10.535  16.461  68.588  1.00  0.00    -0.293 C  
HETATM   18  C   UNL     1      -9.656  16.693  67.596  1.00  0.00    -0.239 C  
HETATM   19  C   UNL     1      -9.888  16.298  66.159  1.00  0.00    -0.358 C  
BRANCH  18  20
HETATM   20  C   UNL     1      -8.295  17.330  67.864  1.00  0.00    -0.220 C  
BRANCH  20  21
HETATM   21  C   UNL     1      -7.399  16.625  68.888  1.00  0.00    -0.225 C  
HETATM   22  O   UNL     1      -7.252  14.218  69.042  1.00  0.00    -0.115 OA 
HETATM   23  O   UNL     1      -6.146  15.247  67.371  1.00  0.00    -0.315 OA 
HETATM   24  C   UNL     1      -6.950  15.248  68.456  1.00  0.00    -0.113 C  
ENDBRANCH  20  21
ENDBRANCH  18  20
ENDBRANCH  16  17
ENDBRANCH   4  16
ENDBRANCH   2   3
TORSDOF 5
ENDMDL
MODEL       46
REMARK 921   NORMALIZED FREE ENERGY PREDICTED BY IDOCK:   -6.02 KCAL/MOL
REMARK 922        TOTAL FREE ENERGY PREDICTED BY IDOCK:   -8.04 KCAL/MOL
REMARK 923 INTER-LIGAND FREE ENERGY PREDICTED BY IDOCK:   -7.57 KCAL/MOL
REMARK 924 INTRA-LIGAND FREE ENERGY PREDICTED BY IDOCK:   -0.47 KCAL/MOL
REMARK 927      BINDING AFFINITY PREDICTED BY RF-SCORE:    0.00 PKD
ROOT
HETATM    1  C   UNL     1     -10.313  16.569  69.398  1.00  0.00    -0.298 C  
HETATM    2  O   UNL     1     -11.411  16.244  68.553  1.00  0.00    -0.371 OA 
ENDROOT
BRANCH   2   3
HETATM    3  C   UNL     1     -11.313  15.139  67.737  1.00  0.00    -0.328 A  
HETATM    4  C   UNL     1     -10.812  15.163  66.396  1.00  0.00    -0.326 A  
HETATM    5  C   UNL     1     -10.626  13.925  65.744  1.00  0.00    -0.297 A  
HETATM    6  C   UNL     1     -11.604  11.330  68.126  1.00  0.00    -0.289 C  
HETATM    7  O   UNL     1     -10.227  13.826  64.445  1.00  0.00    -0.644 OA 
HETATM    8  C   UNL     1     -12.184  13.910  69.783  1.00  0.00    -0.388 C  
HETATM    9  C   UNL     1     -10.889  12.742  66.420  1.00  0.00    -0.294 A  
HETATM   10  C   UNL     1     -10.698  11.356  65.980  1.00  0.00    -0.263 C  
HETATM   11  C   UNL     1     -11.610  13.916  68.394  1.00  0.00    -0.368 A  
HETATM   12  H   UNL     1     -10.101  12.993  64.005  1.00  0.00     0.000 HD 
HETATM   13  O   UNL     1     -10.218  10.950  64.942  1.00  0.00    -0.281 OA 
HETATM   14  C   UNL     1     -11.384  12.730  67.708  1.00  0.00    -0.342 A  
HETATM   15  O   UNL     1     -11.130  10.561  67.008  1.00  0.00    -0.236 OA 
BRANCH   4  16
HETATM   16  C   UNL     1     -10.618  16.496  65.711  1.00  0.00    -0.307 C  
BRANCH  16  17
HETATM   17  C   UNL     1      -9.417  17.340  65.993  1.00  0.00    -0.143 C  
HETATM   18  C   UNL     1      -9.419  18.640  66.343  1.00  0.00    -0.319 C  
HETATM   19  C   UNL     1     -10.665  19.409  66.707  1.00  0.00    -0.550 C  
BRANCH  18  20
HETATM   20  C   UNL     1      -8.142  19.474  66.334  1.00  0.00    -0.331 C  
BRANCH  20  21
HETATM   21  C   UNL     1      -6.887  18.800  65.767  1.00  0.00    -0.305 C  
HETATM   22  O   UNL     1      -5.985  19.356  63.597  1.00  0.00    -0.424 OA 
HETATM   23  O   UNL     1      -5.603  20.776  65.303  1.00  0.00    -0.195 OA 
HETATM   24  C   UNL     1      -6.135  19.653  64.773  1.00  0.00    -0.274 C  
ENDBRANCH  20  21
ENDBRANCH  18  20
ENDBRANCH  16  17
ENDBRANCH   4  16
ENDBRANCH   2   3
TORSDOF 5
ENDMDL
MODEL       47
REMARK 921   NORMALIZED FREE ENERGY PREDICTED BY IDOCK:   -6.00 KCAL/MOL
REMARK 922        TOTAL FREE ENERGY PREDICTED BY IDOCK:   -8.02 KCAL/MOL
REMARK 923 INTER-LIGAND FREE ENERGY PREDICTED BY IDOCK:   -7.91 KCAL/MOL
REMARK 924 INTRA-LIGAND FREE ENERGY PREDICTED BY IDOCK:   -0.11 KCAL/MOL
REMARK 927      BINDING AFFINITY PREDICTED BY RF-SCORE:    0.00 PKD
ROOT
HETATM    1  C   UNL     1     -12.388  14.267  65.738  1.00  0.00    -0.405 C  
HETATM    2  O   UNL     1     -12.650  12.875  65.588  1.00  0.00    -0.555 OA 
ENDROOT
BRANCH   2   3
HETATM    3  C   UNL     1     -11.597  11.992  65.682  1.00  0.00    -0.296 A  
HETATM    4  C   UNL     1     -11.247  11.274  66.871  1.00  0.00    -0.300 A  
HETATM    5  C   UNL     1     -10.242  10.287  66.768  1.00  0.00    -0.228 A  
HETATM    6  C   UNL     1      -9.181  10.235  63.270  1.00  0.00    -0.294 C  
HETATM    7  O   UNL     1      -9.772   9.595  67.843  1.00  0.00    -0.142 OA 
HETATM    8  C   UNL     1     -11.308  12.519  63.215  1.00  0.00    -0.362 C  
HETATM    9  C   UNL     1      -9.664  10.017  65.535  1.00  0.00    -0.355 A  
HETATM   10  C   UNL     1      -8.672   8.998  65.176  1.00  0.00    -0.189 C  
HETATM   11  C   UNL     1     -10.964  11.722  64.441  1.00  0.00    -0.397 A  
HETATM   12  H   UNL     1      -9.096   8.931  67.774  1.00  0.00     0.000 HD 
HETATM   13  O   UNL     1      -8.183   8.137  65.877  1.00  0.00    -0.108 OA 
HETATM   14  C   UNL     1     -10.000  10.723  64.399  1.00  0.00    -0.400 A  
HETATM   15  O   UNL     1      -8.417   9.161  63.840  1.00  0.00    -0.178 OA 
BRANCH   4  16
HETATM   16  C   UNL     1     -11.875  11.680  68.184  1.00  0.00    -0.315 C  
BRANCH  16  17
HETATM   17  C   UNL     1     -11.543  12.990  68.824  1.00  0.00    -0.350 C  
HETATM   18  C   UNL     1     -12.003  13.440  70.006  1.00  0.00    -0.407 C  
HETATM   19  C   UNL     1     -12.781  12.592  70.981  1.00  0.00    -0.316 C  
BRANCH  18  20
HETATM   20  C   UNL     1     -11.828  14.895  70.433  1.00  0.00    -0.352 C  
BRANCH  20  21
HETATM   21  C   UNL     1     -13.020  15.549  71.140  1.00  0.00    -0.560 C  
HETATM   22  O   UNL     1     -13.505  15.178  73.477  1.00  0.00    -0.423 OA 
HETATM   23  O   UNL     1     -11.831  16.589  72.949  1.00  0.00    -0.519 OA 
HETATM   24  C   UNL     1     -12.821  15.729  72.627  1.00  0.00    -0.461 C  
ENDBRANCH  20  21
ENDBRANCH  18  20
ENDBRANCH  16  17
ENDBRANCH   4  16
ENDBRANCH   2   3
TORSDOF 5
ENDMDL
MODEL       48
REMARK 921   NORMALIZED FREE ENERGY PREDICTED BY IDOCK:   -5.97 KCAL/MOL
REMARK 922        TOTAL FREE ENERGY PREDICTED BY IDOCK:   -7.98 KCAL/MOL
REMARK 923 INTER-LIGAND FREE ENERGY PREDICTED BY IDOCK:   -7.39 KCAL/MOL
REMARK 924 INTRA-LIGAND FREE ENERGY PREDICTED BY IDOCK:   -0.60 KCAL/MOL
REMARK 927      BINDING AFFINITY PREDICTED BY RF-SCORE:    0.00 PKD
ROOT
HETATM    1  C   UNL     1     -10.249  12.740  66.422  1.00  0.00    -0.253 C  
HETATM    2  O   UNL     1      -9.913  13.100  67.758  1.00  0.00    -0.216 OA 
ENDROOT
BRANCH   2   3
HETATM    3  C   UNL     1     -10.903  13.084  68.715  1.00  0.00    -0.244 A  
HETATM    4  C   UNL     1     -11.337  11.910  69.411  1.00  0.00    -0.327 A  
HETATM    5  C   UNL     1     -12.250  12.080  70.476  1.00  0.00    -0.325 A  
HETATM    6  C   UNL     1     -12.888  15.670  70.744  1.00  0.00    -0.404 C  
HETATM    7  O   UNL     1     -12.791  11.034  71.160  1.00  0.00    -0.377 OA 
HETATM    8  C   UNL     1     -10.939  15.590  68.307  1.00  0.00    -0.305 C  
HETATM    9  C   UNL     1     -12.658  13.356  70.837  1.00  0.00    -0.406 A  
HETATM   10  C   UNL     1     -13.526  13.777  71.942  1.00  0.00    -0.429 C  
HETATM   11  C   UNL     1     -11.365  14.375  69.081  1.00  0.00    -0.308 A  
HETATM   12  H   UNL     1     -13.405  11.148  71.877  1.00  0.00     0.000 HD 
HETATM   13  O   UNL     1     -14.030  13.096  72.811  1.00  0.00    -0.657 OA 
HETATM   14  C   UNL     1     -12.244  14.479  70.151  1.00  0.00    -0.399 A  
HETATM   15  O   UNL     1     -13.634  15.140  71.851  1.00  0.00    -0.368 OA 
BRANCH   4  16
HETATM   16  C   UNL     1     -10.898  10.555  68.908  1.00  0.00    -0.275 C  
BRANCH  16  17
HETATM   17  C   UNL     1     -10.231   9.575  69.819  1.00  0.00    -0.249 C  
HETATM   18  C   UNL     1     -10.166   8.241  69.648  1.00  0.00    -0.209 C  
HETATM   19  C   UNL     1     -10.592   7.536  68.384  1.00  0.00    -0.177 C  
BRANCH  18  20
HETATM   20  C   UNL     1      -9.710   7.310  70.768  1.00  0.00    -0.171 C  
BRANCH  20  21
HETATM   21  C   UNL     1     -10.313   7.562  72.155  1.00  0.00    -0.252 C  
HETATM   22  O   UNL     1     -12.479   8.588  72.460  1.00  0.00    -0.383 OA 
HETATM   23  O   UNL     1     -12.404   6.423  71.842  1.00  0.00    -0.345 OA 
HETATM   24  C   UNL     1     -11.824   7.599  72.163  1.00  0.00    -0.309 C  
ENDBRANCH  20  21
ENDBRANCH  18  20
ENDBRANCH  16  17
ENDBRANCH   4  16
ENDBRANCH   2   3
TORSDOF 5
ENDMDL
MODEL       49
REMARK 921   NORMALIZED FREE ENERGY PREDICTED BY IDOCK:   -5.97 KCAL/MOL
REMARK 922        TOTAL FREE ENERGY PREDICTED BY IDOCK:   -7.98 KCAL/MOL
REMARK 923 INTER-LIGAND FREE ENERGY PREDICTED BY IDOCK:   -7.48 KCAL/MOL
REMARK 924 INTRA-LIGAND FREE ENERGY PREDICTED BY IDOCK:   -0.50 KCAL/MOL
REMARK 927      BINDING AFFINITY PREDICTED BY RF-SCORE:    0.00 PKD
ROOT
HETATM    1  C   UNL     1      -9.733  10.508  64.354  1.00  0.00    -0.328 C  
HETATM    2  O   UNL     1     -10.786  11.017  65.167  1.00  0.00    -0.263 OA 
ENDROOT
BRANCH   2   3
HETATM    3  C   UNL     1     -10.768  12.349  65.514  1.00  0.00    -0.280 A  
HETATM    4  C   UNL     1     -10.099  12.877  66.664  1.00  0.00    -0.247 A  
HETATM    5  C   UNL     1     -10.038  14.282  66.799  1.00  0.00    -0.264 A  
HETATM    6  C   UNL     1     -11.736  15.688  63.883  1.00  0.00     0.281 C  
HETATM    7  O   UNL     1      -9.495  14.898  67.887  1.00  0.00    -0.196 OA 
HETATM    8  C   UNL     1     -12.090  12.631  63.363  1.00  0.00    -0.614 C  
HETATM    9  C   UNL     1     -10.580  15.094  65.813  1.00  0.00    -0.364 A  
HETATM   10  C   UNL     1     -10.567  16.556  65.701  1.00  0.00    -0.304 C  
HETATM   11  C   UNL     1     -11.347  13.202  64.538  1.00  0.00    -0.383 A  
HETATM   12  H   UNL     1      -9.454  15.842  67.978  1.00  0.00     0.000 HD 
HETATM   13  O   UNL     1     -10.030  17.367  66.427  1.00  0.00    -0.291 OA 
HETATM   14  C   UNL     1     -11.234  14.575  64.715  1.00  0.00    -0.395 A  
HETATM   15  O   UNL     1     -11.255  16.863  64.557  1.00  0.00    -1.057 OA 
BRANCH   4  16
HETATM   16  C   UNL     1      -9.599  11.923  67.723  1.00  0.00    -0.190 C  
BRANCH  16  17
HETATM   17  C   UNL     1     -10.544  11.041  68.474  1.00  0.00    -0.218 C  
HETATM   18  C   UNL     1     -11.391  11.423  69.448  1.00  0.00    -0.365 C  
HETATM   19  C   UNL     1     -11.667  12.863  69.802  1.00  0.00    -0.351 C  
BRANCH  18  20
HETATM   20  C   UNL     1     -12.104  10.406  70.335  1.00  0.00    -0.402 C  
BRANCH  20  21
HETATM   21  C   UNL     1     -11.219   9.576  71.272  1.00  0.00    -0.452 C  
HETATM   22  O   UNL     1     -11.773   7.314  71.912  1.00  0.00    -0.270 OA 
HETATM   23  O   UNL     1     -10.912   7.658  69.860  1.00  0.00    -0.250 OA 
HETATM   24  C   UNL     1     -11.346   8.085  71.065  1.00  0.00    -0.273 C  
ENDBRANCH  20  21
ENDBRANCH  18  20
ENDBRANCH  16  17
ENDBRANCH   4  16
ENDBRANCH   2   3
TORSDOF 5
ENDMDL
MODEL       50
REMARK 921   NORMALIZED FREE ENERGY PREDICTED BY IDOCK:   -5.96 KCAL/MOL
REMARK 922        TOTAL FREE ENERGY PREDICTED BY IDOCK:   -7.96 KCAL/MOL
REMARK 923 INTER-LIGAND FREE ENERGY PREDICTED BY IDOCK:   -7.37 KCAL/MOL
REMARK 924 INTRA-LIGAND FREE ENERGY PREDICTED BY IDOCK:   -0.59 KCAL/MOL
REMARK 927      BINDING AFFINITY PREDICTED BY RF-SCORE:    0.00 PKD
ROOT
HETATM    1  C   UNL     1     -10.374  10.583  66.727  1.00  0.00    -0.245 C  
HETATM    2  O   UNL     1     -11.612  11.283  66.802  1.00  0.00    -0.433 OA 
ENDROOT
BRANCH   2   3
HETATM    3  C   UNL     1     -11.712  12.362  67.651  1.00  0.00    -0.346 A  
HETATM    4  C   UNL     1     -11.898  12.263  69.067  1.00  0.00    -0.358 A  
HETATM    5  C   UNL     1     -11.822  13.454  69.823  1.00  0.00    -0.326 A  
HETATM    6  C   UNL     1     -11.126  16.152  67.456  1.00  0.00    -0.175 C  
HETATM    7  O   UNL     1     -12.057  13.495  71.165  1.00  0.00    -0.427 OA 
HETATM    8  C   UNL     1     -11.314  13.702  65.531  1.00  0.00    -0.308 C  
HETATM    9  C   UNL     1     -11.534  14.656  69.190  1.00  0.00    -0.320 A  
HETATM   10  C   UNL     1     -11.332  15.987  69.770  1.00  0.00    -0.331 C  
HETATM   11  C   UNL     1     -11.456  13.609  67.024  1.00  0.00    -0.368 A  
HETATM   12  H   UNL     1     -12.006  14.296  71.673  1.00  0.00     0.000 HD 
HETATM   13  O   UNL     1     -11.322  16.311  70.940  1.00  0.00    -0.389 OA 
HETATM   14  C   UNL     1     -11.370  14.742  67.823  1.00  0.00    -0.344 A  
HETATM   15  O   UNL     1     -11.096  16.834  68.720  1.00  0.00    -0.306 OA 
BRANCH   4  16
HETATM   16  C   UNL     1     -12.276  10.928  69.666  1.00  0.00    -0.354 C  
BRANCH  16  17
HETATM   17  C   UNL     1     -11.246  10.050  70.301  1.00  0.00    -0.379 C  
HETATM   18  C   UNL     1     -11.367   9.396  71.471  1.00  0.00    -0.464 C  
HETATM   19  C   UNL     1     -12.660   9.283  72.240  1.00  0.00    -0.402 C  
BRANCH  18  20
HETATM   20  C   UNL     1     -10.164   8.758  72.162  1.00  0.00    -0.371 C  
BRANCH  20  21
HETATM   21  C   UNL     1      -9.070   8.194  71.248  1.00  0.00    -0.185 C  
HETATM   22  O   UNL     1      -7.289   9.564  70.362  1.00  0.00    -0.109 OA 
HETATM   23  O   UNL     1      -7.155   8.905  72.511  1.00  0.00    -0.320 OA 
HETATM   24  C   UNL     1      -7.771   8.963  71.311  1.00  0.00    -0.111 C  
ENDBRANCH  20  21
ENDBRANCH  18  20
ENDBRANCH  16  17
ENDBRANCH   4  16
ENDBRANCH   2   3
TORSDOF 5
ENDMDL
MODEL       51
REMARK 921   NORMALIZED FREE ENERGY PREDICTED BY IDOCK:   -5.95 KCAL/MOL
REMARK 922        TOTAL FREE ENERGY PREDICTED BY IDOCK:   -7.95 KCAL/MOL
REMARK 923 INTER-LIGAND FREE ENERGY PREDICTED BY IDOCK:   -7.08 KCAL/MOL
REMARK 924 INTRA-LIGAND FREE ENERGY PREDICTED BY IDOCK:   -0.87 KCAL/MOL
REMARK 927      BINDING AFFINITY PREDICTED BY RF-SCORE:    0.00 PKD
ROOT
HETATM    1  C   UNL     1     -10.125   7.390  67.278  1.00  0.00    -0.228 C  
HETATM    2  O   UNL     1      -9.609   7.636  68.582  1.00  0.00    -0.150 OA 
ENDROOT
BRANCH   2   3
HETATM    3  C   UNL     1     -10.308   8.472  69.424  1.00  0.00    -0.215 A  
HETATM    4  C   UNL     1     -10.339   9.898  69.306  1.00  0.00    -0.235 A  
HETATM    5  C   UNL     1     -11.228  10.606  70.146  1.00  0.00    -0.302 A  
HETATM    6  C   UNL     1     -12.974   8.107  72.164  1.00  0.00    -0.261 C  
HETATM    7  O   UNL     1     -11.290  11.967  70.177  1.00  0.00    -0.505 OA 
HETATM    8  C   UNL     1     -11.059   6.294  70.494  1.00  0.00    -0.399 C  
HETATM    9  C   UNL     1     -12.058   9.911  71.014  1.00  0.00    -0.450 A  
HETATM   10  C   UNL     1     -13.100  10.419  71.911  1.00  0.00    -0.458 C  
HETATM   11  C   UNL     1     -11.141   7.788  70.347  1.00  0.00    -0.259 A  
HETATM   12  H   UNL     1     -11.888  12.443  70.742  1.00  0.00     0.000 HD 
HETATM   13  O   UNL     1     -13.494  11.560  72.047  1.00  0.00    -0.405 OA 
HETATM   14  C   UNL     1     -12.011   8.537  71.129  1.00  0.00    -0.306 A  
HETATM   15  O   UNL     1     -13.611   9.330  72.566  1.00  0.00    -0.467 OA 
BRANCH   4  16
HETATM   16  C   UNL     1      -9.353  10.580  68.386  1.00  0.00    -0.158 C  
BRANCH  16  17
HETATM   17  C   UNL     1      -9.820  11.467  67.278  1.00  0.00    -0.208 C  
HETATM   18  C   UNL     1      -9.418  12.730  67.043  1.00  0.00    -0.233 C  
HETATM   19  C   UNL     1      -8.263  13.389  67.755  1.00  0.00    -0.172 C  
BRANCH  18  20
HETATM   20  C   UNL     1     -10.157  13.638  66.063  1.00  0.00    -0.320 C  
BRANCH  20  21
HETATM   21  C   UNL     1     -11.555  14.106  66.485  1.00  0.00    -0.389 C  
HETATM   22  O   UNL     1     -12.126  14.572  68.785  1.00  0.00    -0.293 OA 
HETATM   23  O   UNL     1     -10.919  16.103  67.658  1.00  0.00    -0.324 OA 
HETATM   24  C   UNL     1     -11.564  14.921  67.757  1.00  0.00    -0.339 C  
ENDBRANCH  20  21
ENDBRANCH  18  20
ENDBRANCH  16  17
ENDBRANCH   4  16
ENDBRANCH   2   3
TORSDOF 5
ENDMDL
MODEL       52
REMARK 921   NORMALIZED FREE ENERGY PREDICTED BY IDOCK:   -5.94 KCAL/MOL
REMARK 922        TOTAL FREE ENERGY PREDICTED BY IDOCK:   -7.94 KCAL/MOL
REMARK 923 INTER-LIGAND FREE ENERGY PREDICTED BY IDOCK:   -7.35 KCAL/MOL
REMARK 924 INTRA-LIGAND FREE ENERGY PREDICTED BY IDOCK:   -0.59 KCAL/MOL
REMARK 927      BINDING AFFINITY PREDICTED BY RF-SCORE:    0.00 PKD
ROOT
HETATM    1  C   UNL     1      -7.785  14.543  68.304  1.00  0.00    -0.126 C  
HETATM    2  O   UNL     1      -9.165  14.192  68.283  1.00  0.00    -0.188 OA 
ENDROOT
BRANCH   2   3
HETATM    3  C   UNL     1      -9.711  13.730  67.106  1.00  0.00    -0.244 A  
HETATM    4  C   UNL     1      -9.680  12.363  66.681  1.00  0.00    -0.229 A  
HETATM    5  C   UNL     1     -10.420  12.019  65.528  1.00  0.00    -0.269 A  
HETATM    6  C   UNL     1     -12.038  15.086  64.369  1.00  0.00    -0.359 C  
HETATM    7  O   UNL     1     -10.406  10.769  64.985  1.00  0.00    -0.302 OA 
HETATM    8  C   UNL     1     -10.441  16.147  66.832  1.00  0.00    -0.300 C  
HETATM    9  C   UNL     1     -11.174  12.986  64.878  1.00  0.00    -0.329 A  
HETATM   10  C   UNL     1     -12.070  12.848  63.725  1.00  0.00    -0.508 C  
HETATM   11  C   UNL     1     -10.460  14.708  66.401  1.00  0.00    -0.296 A  
HETATM   12  H   UNL     1     -10.904  10.538  64.210  1.00  0.00     0.000 HD 
HETATM   13  O   UNL     1     -12.383  11.840  63.125  1.00  0.00    -0.465 OA 
HETATM   14  C   UNL     1     -11.186  14.303  65.288  1.00  0.00    -0.337 A  
HETATM   15  O   UNL     1     -12.555  14.101  63.460  1.00  0.00    -0.834 OA 
BRANCH   4  16
HETATM   16  C   UNL     1      -8.778  11.391  67.404  1.00  0.00    -0.145 C  
BRANCH  16  17
HETATM   17  C   UNL     1      -9.129  10.883  68.766  1.00  0.00    -0.174 C  
HETATM   18  C   UNL     1     -10.001   9.899  69.051  1.00  0.00    -0.193 C  
HETATM   19  C   UNL     1     -10.624   9.002  68.011  1.00  0.00    -0.242 C  
BRANCH  18  20
HETATM   20  C   UNL     1     -10.493   9.651  70.475  1.00  0.00    -0.367 C  
BRANCH  20  21
HETATM   21  C   UNL     1     -12.002   9.778  70.710  1.00  0.00    -0.382 C  
HETATM   22  O   UNL     1     -12.956  11.510  72.097  1.00  0.00    -0.385 OA 
HETATM   23  O   UNL     1     -12.275  12.063  70.023  1.00  0.00    -0.271 OA 
HETATM   24  C   UNL     1     -12.450  11.184  71.033  1.00  0.00    -0.403 C  
ENDBRANCH  20  21
ENDBRANCH  18  20
ENDBRANCH  16  17
ENDBRANCH   4  16
ENDBRANCH   2   3
TORSDOF 5
ENDMDL
MODEL       53
REMARK 921   NORMALIZED FREE ENERGY PREDICTED BY IDOCK:   -5.93 KCAL/MOL
REMARK 922        TOTAL FREE ENERGY PREDICTED BY IDOCK:   -7.92 KCAL/MOL
REMARK 923 INTER-LIGAND FREE ENERGY PREDICTED BY IDOCK:   -7.76 KCAL/MOL
REMARK 924 INTRA-LIGAND FREE ENERGY PREDICTED BY IDOCK:   -0.16 KCAL/MOL
REMARK 927      BINDING AFFINITY PREDICTED BY RF-SCORE:    0.00 PKD
ROOT
HETATM    1  C   UNL     1     -12.187   8.468  72.314  1.00  0.00    -0.389 C  
HETATM    2  O   UNL     1     -11.065   9.117  71.724  1.00  0.00    -0.351 OA 
ENDROOT
BRANCH   2   3
HETATM    3  C   UNL     1     -11.062   9.323  70.362  1.00  0.00    -0.255 A  
HETATM    4  C   UNL     1     -11.546  10.508  69.721  1.00  0.00    -0.368 A  
HETATM    5  C   UNL     1     -11.330  10.635  68.331  1.00  0.00    -0.283 A  
HETATM    6  C   UNL     1      -9.530   7.635  67.272  1.00  0.00    -0.148 C  
HETATM    7  O   UNL     1     -11.810  11.681  67.600  1.00  0.00    -0.575 OA 
HETATM    8  C   UNL     1      -9.930   7.050  70.312  1.00  0.00    -0.186 C  
HETATM    9  C   UNL     1     -10.633   9.649  67.647  1.00  0.00    -0.334 A  
HETATM   10  C   UNL     1     -10.228   9.602  66.239  1.00  0.00    -0.216 C  
HETATM   11  C   UNL     1     -10.386   8.310  69.633  1.00  0.00    -0.218 A  
HETATM   12  H   UNL     1     -11.665  11.767  66.665  1.00  0.00     0.000 HD 
HETATM   13  O   UNL     1     -10.372  10.448  65.380  1.00  0.00    -0.275 OA 
HETATM   14  C   UNL     1     -10.183   8.504  68.272  1.00  0.00    -0.244 A  
HETATM   15  O   UNL     1      -9.584   8.406  66.061  1.00  0.00    -0.207 OA 
BRANCH   4  16
HETATM   16  C   UNL     1     -12.354  11.499  70.525  1.00  0.00    -0.432 C  
BRANCH  16  17
HETATM   17  C   UNL     1     -12.178  12.971  70.335  1.00  0.00    -0.386 C  
HETATM   18  C   UNL     1     -12.724  13.945  71.087  1.00  0.00    -0.441 C  
HETATM   19  C   UNL     1     -13.449  13.695  72.386  1.00  0.00    -0.685 C  
BRANCH  18  20
HETATM   20  C   UNL     1     -12.710  15.405  70.642  1.00  0.00    -0.490 C  
BRANCH  20  21
HETATM   21  C   UNL     1     -12.033  15.705  69.301  1.00  0.00    -0.338 C  
HETATM   22  O   UNL     1     -10.406  17.472  69.037  1.00  0.00    -0.356 OA 
HETATM   23  O   UNL     1      -9.746  15.556  70.019  1.00  0.00    -0.260 OA 
HETATM   24  C   UNL     1     -10.672  16.348  69.438  1.00  0.00    -0.324 C  
ENDBRANCH  20  21
ENDBRANCH  18  20
ENDBRANCH  16  17
ENDBRANCH   4  16
ENDBRANCH   2   3
TORSDOF 5
ENDMDL
MODEL       54
REMARK 921   NORMALIZED FREE ENERGY PREDICTED BY IDOCK:   -5.90 KCAL/MOL
REMARK 922        TOTAL FREE ENERGY PREDICTED BY IDOCK:   -7.89 KCAL/MOL
REMARK 923 INTER-LIGAND FREE ENERGY PREDICTED BY IDOCK:   -7.43 KCAL/MOL
REMARK 924 INTRA-LIGAND FREE ENERGY PREDICTED BY IDOCK:   -0.47 KCAL/MOL
REMARK 927      BINDING AFFINITY PREDICTED BY RF-SCORE:    0.00 PKD
ROOT
HETATM    1  C   UNL     1      -8.188  14.627  68.365  1.00  0.00    -0.154 C  
HETATM    2  O   UNL     1      -9.183  13.636  68.601  1.00  0.00    -0.154 OA 
ENDROOT
BRANCH   2   3
HETATM    3  C   UNL     1     -10.024  13.284  67.569  1.00  0.00    -0.223 A  
HETATM    4  C   UNL     1     -11.186  14.026  67.182  1.00  0.00    -0.327 A  
HETATM    5  C   UNL     1     -11.857  13.626  66.005  1.00  0.00    -0.385 A  
HETATM    6  C   UNL     1      -9.999  10.780  64.658  1.00  0.00    -0.324 C  
HETATM    7  O   UNL     1     -13.014  14.206  65.580  1.00  0.00    -0.657 OA 
HETATM    8  C   UNL     1      -8.364  11.388  67.246  1.00  0.00    -0.149 C  
HETATM    9  C   UNL     1     -11.357  12.574  65.250  1.00  0.00    -0.363 A  
HETATM   10  C   UNL     1     -11.833  12.040  63.970  1.00  0.00    -0.408 C  
HETATM   11  C   UNL     1      -9.556  12.188  66.798  1.00  0.00    -0.216 A  
HETATM   12  H   UNL     1     -13.465  13.938  64.788  1.00  0.00     0.000 HD 
HETATM   13  O   UNL     1     -12.740  12.443  63.271  1.00  0.00    -0.688 OA 
HETATM   14  C   UNL     1     -10.245  11.857  65.639  1.00  0.00    -0.280 A  
HETATM   15  O   UNL     1     -11.011  10.990  63.659  1.00  0.00    -0.277 OA 
BRANCH   4  16
HETATM   16  C   UNL     1     -11.701  15.111  68.098  1.00  0.00    -0.323 C  
BRANCH  16  17
HETATM   17  C   UNL     1     -12.758  14.823  69.115  1.00  0.00     0.325 C  
HETATM   18  C   UNL     1     -12.678  15.055  70.438  1.00  0.00    -0.371 C  
HETATM   19  C   UNL     1     -11.566  15.842  71.086  1.00  0.00    -0.469 C  
BRANCH  18  20
HETATM   20  C   UNL     1     -13.693  14.471  71.418  1.00  0.00    -0.448 C  
BRANCH  20  21
HETATM   21  C   UNL     1     -13.176  13.390  72.374  1.00  0.00    -0.564 C  
HETATM   22  O   UNL     1     -13.656  11.044  72.060  1.00  0.00    -0.281 OA 
HETATM   23  O   UNL     1     -12.075  11.990  70.764  1.00  0.00    -0.349 OA 
HETATM   24  C   UNL     1     -13.019  12.033  71.729  1.00  0.00    -0.340 C  
ENDBRANCH  20  21
ENDBRANCH  18  20
ENDBRANCH  16  17
ENDBRANCH   4  16
ENDBRANCH   2   3
TORSDOF 5
ENDMDL
MODEL       55
REMARK 921   NORMALIZED FREE ENERGY PREDICTED BY IDOCK:   -5.89 KCAL/MOL
REMARK 922        TOTAL FREE ENERGY PREDICTED BY IDOCK:   -7.88 KCAL/MOL
REMARK 923 INTER-LIGAND FREE ENERGY PREDICTED BY IDOCK:   -7.94 KCAL/MOL
REMARK 924 INTRA-LIGAND FREE ENERGY PREDICTED BY IDOCK:    0.06 KCAL/MOL
REMARK 927      BINDING AFFINITY PREDICTED BY RF-SCORE:    0.00 PKD
ROOT
HETATM    1  C   UNL     1      -7.335   8.875  68.306  1.00  0.00    -0.083 C  
HETATM    2  O   UNL     1      -7.709   9.952  69.160  1.00  0.00    -0.083 OA 
ENDROOT
BRANCH   2   3
HETATM    3  C   UNL     1      -8.985   9.973  69.676  1.00  0.00    -0.202 A  
HETATM    4  C   UNL     1     -10.117  10.550  69.015  1.00  0.00    -0.230 A  
HETATM    5  C   UNL     1     -11.387  10.353  69.600  1.00  0.00    -0.272 A  
HETATM    6  C   UNL     1     -10.856   8.338  72.604  1.00  0.00    -0.311 C  
HETATM    7  O   UNL     1     -12.525  10.916  69.104  1.00  0.00    -0.668 OA 
HETATM    8  C   UNL     1      -7.925   8.673  71.583  1.00  0.00    -0.166 C  
HETATM    9  C   UNL     1     -11.506   9.589  70.752  1.00  0.00    -0.378 A  
HETATM   10  C   UNL     1     -12.712   9.190  71.484  1.00  0.00    -0.341 C  
HETATM   11  C   UNL     1      -9.129   9.227  70.875  1.00  0.00    -0.288 A  
HETATM   12  H   UNL     1     -13.379  10.784  69.497  1.00  0.00     0.000 HD 
HETATM   13  O   UNL     1     -13.874   9.404  71.204  1.00  0.00    -0.269 OA 
HETATM   14  C   UNL     1     -10.407   9.049  71.389  1.00  0.00    -0.396 A  
HETATM   15  O   UNL     1     -12.287   8.459  72.561  1.00  0.00    -0.376 OA 
BRANCH   4  16
HETATM   16  C   UNL     1      -9.891  11.425  67.805  1.00  0.00    -0.186 C  
BRANCH  16  17
HETATM   17  C   UNL     1     -10.872  12.489  67.430  1.00  0.00    -0.272 C  
HETATM   18  C   UNL     1     -11.406  12.690  66.211  1.00  0.00    -0.376 C  
HETATM   19  C   UNL     1     -11.249  11.730  65.058  1.00  0.00    -0.318 C  
BRANCH  18  20
HETATM   20  C   UNL     1     -12.175  13.964  65.872  1.00  0.00    -0.497 C  
BRANCH  20  21
HETATM   21  C   UNL     1     -11.754  14.697  64.593  1.00  0.00    -0.431 C  
HETATM   22  O   UNL     1     -11.222  17.053  64.564  1.00  0.00    -1.091 OA 
HETATM   23  O   UNL     1      -9.684  15.624  65.381  1.00  0.00    -0.303 OA 
HETATM   24  C   UNL     1     -10.889  15.910  64.844  1.00  0.00    -0.400 C  
ENDBRANCH  20  21
ENDBRANCH  18  20
ENDBRANCH  16  17
ENDBRANCH   4  16
ENDBRANCH   2   3
TORSDOF 5
ENDMDL
MODEL       56
REMARK 921   NORMALIZED FREE ENERGY PREDICTED BY IDOCK:   -5.89 KCAL/MOL
REMARK 922        TOTAL FREE ENERGY PREDICTED BY IDOCK:   -7.88 KCAL/MOL
REMARK 923 INTER-LIGAND FREE ENERGY PREDICTED BY IDOCK:   -7.41 KCAL/MOL
REMARK 924 INTRA-LIGAND FREE ENERGY PREDICTED BY IDOCK:   -0.47 KCAL/MOL
REMARK 927      BINDING AFFINITY PREDICTED BY RF-SCORE:    0.00 PKD
ROOT
HETATM    1  C   UNL     1      -7.262  14.622  67.683  1.00  0.00    -0.186 C  
HETATM    2  O   UNL     1      -8.635  14.309  67.898  1.00  0.00    -0.153 OA 
ENDROOT
BRANCH   2   3
HETATM    3  C   UNL     1      -9.381  13.846  66.837  1.00  0.00    -0.258 A  
HETATM    4  C   UNL     1      -9.542  12.463  66.503  1.00  0.00    -0.242 A  
HETATM    5  C   UNL     1     -10.464  12.139  65.483  1.00  0.00    -0.265 A  
HETATM    6  C   UNL     1     -11.921  15.294  64.347  1.00  0.00    -0.277 C  
HETATM    7  O   UNL     1     -10.647  10.868  65.028  1.00  0.00    -0.286 OA 
HETATM    8  C   UNL     1      -9.903  16.309  66.501  1.00  0.00    -0.287 C  
HETATM    9  C   UNL     1     -11.204  13.144  64.876  1.00  0.00    -0.333 A  
HETATM   10  C   UNL     1     -12.259  13.041  63.864  1.00  0.00    -0.437 C  
HETATM   11  C   UNL     1     -10.122  14.859  66.174  1.00  0.00    -0.316 A  
HETATM   12  H   UNL     1     -11.267  10.649  64.343  1.00  0.00     0.000 HD 
HETATM   13  O   UNL     1     -12.749  12.041  63.379  1.00  0.00    -0.706 OA 
HETATM   14  C   UNL     1     -11.031  14.475  65.196  1.00  0.00    -0.387 A  
HETATM   15  O   UNL     1     -12.652  14.322  63.582  1.00  0.00    -0.831 OA 
BRANCH   4  16
HETATM   16  C   UNL     1      -8.648  11.440  67.164  1.00  0.00    -0.151 C  
BRANCH  16  17
HETATM   17  C   UNL     1      -8.909  10.978  68.562  1.00  0.00    -0.159 C  
HETATM   18  C   UNL     1      -9.726   9.975  68.932  1.00  0.00    -0.181 C  
HETATM   19  C   UNL     1     -10.364   9.011  67.962  1.00  0.00    -0.275 C  
BRANCH  18  20
HETATM   20  C   UNL     1     -10.135   9.769  70.388  1.00  0.00    -0.313 C  
BRANCH  20  21
HETATM   21  C   UNL     1     -11.620   9.496  70.650  1.00  0.00    -0.350 C  
HETATM   22  O   UNL     1     -12.491   7.266  70.971  1.00  0.00    -0.334 OA 
HETATM   23  O   UNL     1     -11.394   8.236  72.682  1.00  0.00    -0.390 OA 
HETATM   24  C   UNL     1     -11.877   8.222  71.421  1.00  0.00    -0.293 C  
ENDBRANCH  20  21
ENDBRANCH  18  20
ENDBRANCH  16  17
ENDBRANCH   4  16
ENDBRANCH   2   3
TORSDOF 5
ENDMDL
MODEL       57
REMARK 921   NORMALIZED FREE ENERGY PREDICTED BY IDOCK:   -5.87 KCAL/MOL
REMARK 922        TOTAL FREE ENERGY PREDICTED BY IDOCK:   -7.85 KCAL/MOL
REMARK 923 INTER-LIGAND FREE ENERGY PREDICTED BY IDOCK:   -7.40 KCAL/MOL
REMARK 924 INTRA-LIGAND FREE ENERGY PREDICTED BY IDOCK:   -0.46 KCAL/MOL
REMARK 927      BINDING AFFINITY PREDICTED BY RF-SCORE:    0.00 PKD
ROOT
HETATM    1  C   UNL     1     -11.034  11.629  69.098  1.00  0.00    -0.219 C  
HETATM    2  O   UNL     1     -11.739  10.993  68.036  1.00  0.00    -0.532 OA 
ENDROOT
BRANCH   2   3
HETATM    3  C   UNL     1     -11.119  10.870  66.812  1.00  0.00    -0.126 A  
HETATM    4  C   UNL     1     -11.080  11.899  65.817  1.00  0.00    -0.367 A  
HETATM    5  C   UNL     1     -10.272  11.679  64.679  1.00  0.00    -0.281 A  
HETATM    6  C   UNL     1      -8.708   8.405  65.122  1.00  0.00    -0.083 C  
HETATM    7  O   UNL     1     -10.216  12.551  63.633  1.00  0.00    -0.432 OA 
HETATM    8  C   UNL     1     -10.461   8.582  67.698  1.00  0.00    -0.308 C  
HETATM    9  C   UNL     1      -9.521  10.517  64.580  1.00  0.00    -0.329 A  
HETATM   10  C   UNL     1      -8.565  10.113  63.545  1.00  0.00    -0.200 C  
HETATM   11  C   UNL     1     -10.370   9.673  66.669  1.00  0.00    -0.279 A  
HETATM   12  H   UNL     1      -9.672  12.404  62.868  1.00  0.00     0.000 HD 
HETATM   13  O   UNL     1      -8.187  10.739  62.576  1.00  0.00    -0.183 OA 
HETATM   14  C   UNL     1      -9.576   9.526  65.539  1.00  0.00    -0.349 A  
HETATM   15  O   UNL     1      -8.111   8.870  63.900  1.00  0.00    -0.147 OA 
BRANCH   4  16
HETATM   16  C   UNL     1     -11.982  13.101  65.970  1.00  0.00    -0.488 C  
BRANCH  16  17
HETATM   17  C   UNL     1     -11.558  14.284  66.781  1.00  0.00    -0.407 C  
HETATM   18  C   UNL     1     -10.945  15.390  66.320  1.00  0.00    -0.278 C  
HETATM   19  C   UNL     1     -10.769  15.702  64.855  1.00  0.00    -0.406 C  
BRANCH  18  20
HETATM   20  C   UNL     1     -10.307  16.406  67.263  1.00  0.00    -0.287 C  
BRANCH  20  21
HETATM   21  C   UNL     1      -9.617  17.608  66.609  1.00  0.00    -0.301 C  
HETATM   22  O   UNL     1     -10.828  19.257  65.325  1.00  0.00    -0.503 OA 
HETATM   23  O   UNL     1     -10.958  19.352  67.572  1.00  0.00    -0.464 OA 
HETATM   24  C   UNL     1     -10.525  18.800  66.418  1.00  0.00    -0.429 C  
ENDBRANCH  20  21
ENDBRANCH  18  20
ENDBRANCH  16  17
ENDBRANCH   4  16
ENDBRANCH   2   3
TORSDOF 5
ENDMDL
MODEL       58
REMARK 921   NORMALIZED FREE ENERGY PREDICTED BY IDOCK:   -5.85 KCAL/MOL
REMARK 922        TOTAL FREE ENERGY PREDICTED BY IDOCK:   -7.82 KCAL/MOL
REMARK 923 INTER-LIGAND FREE ENERGY PREDICTED BY IDOCK:   -7.66 KCAL/MOL
REMARK 924 INTRA-LIGAND FREE ENERGY PREDICTED BY IDOCK:   -0.16 KCAL/MOL
REMARK 927      BINDING AFFINITY PREDICTED BY RF-SCORE:    0.00 PKD
ROOT
HETATM    1  C   UNL     1      -9.402  15.390  69.368  1.00  0.00    -0.266 C  
HETATM    2  O   UNL     1      -8.840  14.917  68.148  1.00  0.00    -0.165 OA 
ENDROOT
BRANCH   2   3
HETATM    3  C   UNL     1      -9.668  14.306  67.232  1.00  0.00    -0.234 A  
HETATM    4  C   UNL     1     -10.219  12.994  67.388  1.00  0.00    -0.231 A  
HETATM    5  C   UNL     1     -11.175  12.568  66.439  1.00  0.00    -0.306 A  
HETATM    6  C   UNL     1     -11.624  15.334  64.092  1.00  0.00    -0.067 C  
HETATM    7  O   UNL     1     -11.712  11.316  66.441  1.00  0.00    -0.268 OA 
HETATM    8  C   UNL     1      -9.441  16.509  65.989  1.00  0.00    -0.317 C  
HETATM    9  C   UNL     1     -11.576  13.431  65.429  1.00  0.00    -0.335 A  
HETATM   10  C   UNL     1     -12.595  13.239  64.393  1.00  0.00    -0.214 C  
HETATM   11  C   UNL     1     -10.067  15.155  66.167  1.00  0.00    -0.314 A  
HETATM   12  H   UNL     1     -12.355  11.029  65.803  1.00  0.00     0.000 HD 
HETATM   13  O   UNL     1     -13.346  12.299  64.232  1.00  0.00    -0.777 OA 
HETATM   14  C   UNL     1     -11.028  14.688  65.280  1.00  0.00    -0.374 A  
HETATM   15  O   UNL     1     -12.591  14.378  63.631  1.00  0.00    -0.817 OA 
BRANCH   4  16
HETATM   16  C   UNL     1      -9.676  12.095  68.474  1.00  0.00    -0.153 C  
BRANCH  16  17
HETATM   17  C   UNL     1     -10.587  11.232  69.286  1.00  0.00    -0.187 C  
HETATM   18  C   UNL     1     -11.607  11.651  70.058  1.00  0.00    -0.338 C  
HETATM   19  C   UNL     1     -12.127  13.068  70.064  1.00  0.00    -0.367 C  
BRANCH  18  20
HETATM   20  C   UNL     1     -12.292  10.723  71.057  1.00  0.00    -0.509 C  
BRANCH  20  21
HETATM   21  C   UNL     1     -11.932   9.235  70.967  1.00  0.00    -0.369 C  
HETATM   22  O   UNL     1     -11.765   7.822  72.918  1.00  0.00    -0.315 OA 
HETATM   23  O   UNL     1     -13.819   8.344  72.156  1.00  0.00    -0.364 OA 
HETATM   24  C   UNL     1     -12.471   8.410  72.112  1.00  0.00    -0.370 C  
ENDBRANCH  20  21
ENDBRANCH  18  20
ENDBRANCH  16  17
ENDBRANCH   4  16
ENDBRANCH   2   3
TORSDOF 5
ENDMDL
MODEL       59
REMARK 921   NORMALIZED FREE ENERGY PREDICTED BY IDOCK:   -5.84 KCAL/MOL
REMARK 922        TOTAL FREE ENERGY PREDICTED BY IDOCK:   -7.81 KCAL/MOL
REMARK 923 INTER-LIGAND FREE ENERGY PREDICTED BY IDOCK:   -7.36 KCAL/MOL
REMARK 924 INTRA-LIGAND FREE ENERGY PREDICTED BY IDOCK:   -0.45 KCAL/MOL
REMARK 927      BINDING AFFINITY PREDICTED BY RF-SCORE:    0.00 PKD
ROOT
HETATM    1  C   UNL     1     -11.318  12.171  68.751  1.00  0.00    -0.288 C  
HETATM    2  O   UNL     1     -10.240  11.276  69.006  1.00  0.00    -0.205 OA 
ENDROOT
BRANCH   2   3
HETATM    3  C   UNL     1     -10.402   9.943  68.700  1.00  0.00    -0.195 A  
HETATM    4  C   UNL     1     -10.021   9.346  67.456  1.00  0.00    -0.250 A  
HETATM    5  C   UNL     1     -10.105   7.940  67.351  1.00  0.00    -0.226 A  
HETATM    6  C   UNL     1     -11.300   6.719  70.583  1.00  0.00    -0.334 C  
HETATM    7  O   UNL     1      -9.842   7.268  66.195  1.00  0.00    -0.430 OA 
HETATM    8  C   UNL     1     -11.289   9.802  71.076  1.00  0.00    -0.460 C  
HETATM    9  C   UNL     1     -10.505   7.189  68.447  1.00  0.00    -0.228 A  
HETATM   10  C   UNL     1     -10.591   5.733  68.595  1.00  0.00    -0.235 C  
HETATM   11  C   UNL     1     -10.844   9.155  69.794  1.00  0.00    -0.224 A  
HETATM   12  H   UNL     1      -9.898   6.322  66.125  1.00  0.00     0.000 HD 
HETATM   13  O   UNL     1     -10.278   4.870  67.801  1.00  0.00    -0.135 OA 
HETATM   14  C   UNL     1     -10.883   7.776  69.637  1.00  0.00    -0.185 A  
HETATM   15  O   UNL     1     -11.061   5.500  69.861  1.00  0.00    -0.260 OA 
BRANCH   4  16
HETATM   16  C   UNL     1      -9.664  10.241  66.292  1.00  0.00    -0.263 C  
BRANCH  16  17
HETATM   17  C   UNL     1     -10.727  10.875  65.453  1.00  0.00    -0.189 C  
HETATM   18  C   UNL     1     -10.655  11.134  64.134  1.00  0.00    -0.436 C  
HETATM   19  C   UNL     1      -9.547  10.634  63.240  1.00  0.00    -0.382 C  
BRANCH  18  20
HETATM   20  C   UNL     1     -11.674  12.030  63.436  1.00  0.00    -0.519 C  
BRANCH  20  21
HETATM   21  C   UNL     1     -12.784  12.619  64.316  1.00  0.00    -0.394 C  
HETATM   22  O   UNL     1     -12.379  14.405  65.891  1.00  0.00    -0.395 OA 
HETATM   23  O   UNL     1     -12.530  14.928  63.705  1.00  0.00    -0.768 OA 
HETATM   24  C   UNL     1     -12.534  14.050  64.732  1.00  0.00    -0.365 C  
ENDBRANCH  20  21
ENDBRANCH  18  20
ENDBRANCH  16  17
ENDBRANCH   4  16
ENDBRANCH   2   3
TORSDOF 5
ENDMDL
MODEL       60
REMARK 921   NORMALIZED FREE ENERGY PREDICTED BY IDOCK:   -5.80 KCAL/MOL
REMARK 922        TOTAL FREE ENERGY PREDICTED BY IDOCK:   -7.76 KCAL/MOL
REMARK 923 INTER-LIGAND FREE ENERGY PREDICTED BY IDOCK:   -7.21 KCAL/MOL
REMARK 924 INTRA-LIGAND FREE ENERGY PREDICTED BY IDOCK:   -0.55 KCAL/MOL
REMARK 927      BINDING AFFINITY PREDICTED BY RF-SCORE:    0.00 PKD
ROOT
HETATM    1  C   UNL     1     -11.813  14.802  70.480  1.00  0.00    -0.302 C  
HETATM    2  O   UNL     1     -10.728  14.554  69.592  1.00  0.00    -0.204 OA 
ENDROOT
BRANCH   2   3
HETATM    3  C   UNL     1     -10.990  14.439  68.245  1.00  0.00    -0.247 A  
HETATM    4  C   UNL     1     -11.673  13.334  67.644  1.00  0.00    -0.408 A  
HETATM    5  C   UNL     1     -12.005  13.435  66.274  1.00  0.00    -0.411 A  
HETATM    6  C   UNL     1     -10.822  16.706  65.150  1.00  0.00    -0.186 C  
HETATM    7  O   UNL     1     -12.586  12.419  65.577  1.00  0.00    -0.616 OA 
HETATM    8  C   UNL     1      -9.897  16.729  68.131  1.00  0.00    -0.264 C  
HETATM    9  C   UNL     1     -11.704  14.596  65.575  1.00  0.00    -0.316 A  
HETATM   10  C   UNL     1     -12.017  14.954  64.188  1.00  0.00    -0.235 C  
HETATM   11  C   UNL     1     -10.659  15.600  67.498  1.00  0.00    -0.297 A  
HETATM   12  H   UNL     1     -12.810  12.487  64.656  1.00  0.00     0.000 HD 
HETATM   13  O   UNL     1     -12.656  14.326  63.369  1.00  0.00    -0.777 OA 
HETATM   14  C   UNL     1     -11.034  15.650  66.161  1.00  0.00    -0.206 A  
HETATM   15  O   UNL     1     -11.482  16.198  63.980  1.00  0.00    -0.746 OA 
BRANCH   4  16
HETATM   16  C   UNL     1     -11.900  12.082  68.458  1.00  0.00    -0.369 C  
BRANCH  16  17
HETATM   17  C   UNL     1     -10.749  11.250  68.929  1.00  0.00    -0.246 C  
HETATM   18  C   UNL     1     -10.277  10.135  68.343  1.00  0.00    -0.192 C  
HETATM   19  C   UNL     1     -10.714   9.653  66.982  1.00  0.00    -0.225 C  
BRANCH  18  20
HETATM   20  C   UNL     1      -9.289   9.213  69.052  1.00  0.00    -0.151 C  
BRANCH  20  21
HETATM   21  C   UNL     1      -9.362   9.179  70.583  1.00  0.00    -0.312 C  
HETATM   22  O   UNL     1      -7.741   8.001  71.932  1.00  0.00    -0.082 OA 
HETATM   23  O   UNL     1      -7.153   9.992  71.059  1.00  0.00    -0.325 OA 
HETATM   24  C   UNL     1      -8.022   8.976  71.250  1.00  0.00    -0.091 C  
ENDBRANCH  20  21
ENDBRANCH  18  20
ENDBRANCH  16  17
ENDBRANCH   4  16
ENDBRANCH   2   3
TORSDOF 5
ENDMDL
MODEL       61
REMARK 921   NORMALIZED FREE ENERGY PREDICTED BY IDOCK:   -5.77 KCAL/MOL
REMARK 922        TOTAL FREE ENERGY PREDICTED BY IDOCK:   -7.72 KCAL/MOL
REMARK 923 INTER-LIGAND FREE ENERGY PREDICTED BY IDOCK:   -7.25 KCAL/MOL
REMARK 924 INTRA-LIGAND FREE ENERGY PREDICTED BY IDOCK:   -0.47 KCAL/MOL
REMARK 927      BINDING AFFINITY PREDICTED BY RF-SCORE:    0.00 PKD
ROOT
HETATM    1  C   UNL     1     -11.264  15.227  64.872  1.00  0.00    -0.415 C  
HETATM    2  O   UNL     1     -10.465  14.750  65.951  1.00  0.00    -0.284 OA 
ENDROOT
BRANCH   2   3
HETATM    3  C   UNL     1     -11.088  14.126  67.008  1.00  0.00    -0.307 A  
HETATM    4  C   UNL     1     -11.414  12.732  67.048  1.00  0.00    -0.397 A  
HETATM    5  C   UNL     1     -11.908  12.209  68.264  1.00  0.00    -0.301 A  
HETATM    6  C   UNL     1     -11.988  14.985  70.641  1.00  0.00    -0.318 C  
HETATM    7  O   UNL     1     -12.321  10.918  68.400  1.00  0.00    -0.803 OA 
HETATM    8  C   UNL     1     -10.952  16.427  68.074  1.00  0.00    -0.327 C  
HETATM    9  C   UNL     1     -12.021  13.034  69.374  1.00  0.00    -0.338 A  
HETATM   10  C   UNL     1     -12.430  12.700  70.742  1.00  0.00    -0.270 C  
HETATM   11  C   UNL     1     -11.250  14.956  68.148  1.00  0.00    -0.310 A  
HETATM   12  H   UNL     1     -12.653  10.566  69.217  1.00  0.00     0.000 HD 
HETATM   13  O   UNL     1     -12.706  11.614  71.207  1.00  0.00    -0.393 OA 
HETATM   14  C   UNL     1     -11.718  14.378  69.321  1.00  0.00    -0.358 A  
HETATM   15  O   UNL     1     -12.397  13.871  71.452  1.00  0.00    -0.348 OA 
BRANCH   4  16
HETATM   16  C   UNL     1     -11.326  11.922  65.776  1.00  0.00    -0.354 C  
BRANCH  16  17
HETATM   17  C   UNL     1     -10.277  10.871  65.602  1.00  0.00    -0.323 C  
HETATM   18  C   UNL     1      -9.672  10.529  64.450  1.00  0.00    -0.388 C  
HETATM   19  C   UNL     1      -9.815  11.306  63.165  1.00  0.00    -0.403 C  
BRANCH  18  20
HETATM   20  C   UNL     1      -8.828   9.263  64.333  1.00  0.00    -0.197 C  
BRANCH  20  21
HETATM   21  C   UNL     1      -8.671   8.424  65.606  1.00  0.00    -0.204 C  
HETATM   22  O   UNL     1      -6.528   7.609  66.366  1.00  0.00    -0.047 OA 
HETATM   23  O   UNL     1      -7.029   9.777  66.720  1.00  0.00    -0.083 OA 
HETATM   24  C   UNL     1      -7.308   8.543  66.248  1.00  0.00    -0.079 C  
ENDBRANCH  20  21
ENDBRANCH  18  20
ENDBRANCH  16  17
ENDBRANCH   4  16
ENDBRANCH   2   3
TORSDOF 5
ENDMDL
MODEL       62
REMARK 921   NORMALIZED FREE ENERGY PREDICTED BY IDOCK:   -5.73 KCAL/MOL
REMARK 922        TOTAL FREE ENERGY PREDICTED BY IDOCK:   -7.66 KCAL/MOL
REMARK 923 INTER-LIGAND FREE ENERGY PREDICTED BY IDOCK:   -7.16 KCAL/MOL
REMARK 924 INTRA-LIGAND FREE ENERGY PREDICTED BY IDOCK:   -0.51 KCAL/MOL
REMARK 927      BINDING AFFINITY PREDICTED BY RF-SCORE:    0.00 PKD
ROOT
HETATM    1  C   UNL     1      -8.718  11.685  66.989  1.00  0.00    -0.173 C  
HETATM    2  O   UNL     1     -10.127  11.516  67.116  1.00  0.00    -0.194 OA 
ENDROOT
BRANCH   2   3
HETATM    3  C   UNL     1     -10.729  11.863  68.306  1.00  0.00    -0.223 A  
HETATM    4  C   UNL     1     -11.117  13.195  68.658  1.00  0.00    -0.304 A  
HETATM    5  C   UNL     1     -11.865  13.367  69.843  1.00  0.00    -0.315 A  
HETATM    6  C   UNL     1     -12.345  10.037  71.271  1.00  0.00    -0.398 C  
HETATM    7  O   UNL     1     -12.225  14.593  70.320  1.00  0.00    -0.293 OA 
HETATM    8  C   UNL     1     -10.626   9.365  68.754  1.00  0.00    -0.234 C  
HETATM    9  C   UNL     1     -12.232  12.260  70.595  1.00  0.00    -0.378 A  
HETATM   10  C   UNL     1     -13.062  12.188  71.802  1.00  0.00    -0.352 C  
HETATM   11  C   UNL     1     -11.085  10.751  69.112  1.00  0.00    -0.304 A  
HETATM   12  H   UNL     1     -12.729  14.709  71.117  1.00  0.00     0.000 HD 
HETATM   13  O   UNL     1     -13.650  13.084  72.372  1.00  0.00    -0.578 OA 
HETATM   14  C   UNL     1     -11.842  10.982  70.253  1.00  0.00    -0.456 A  
HETATM   15  O   UNL     1     -13.103  10.868  72.165  1.00  0.00    -0.463 OA 
BRANCH   4  16
HETATM   16  C   UNL     1     -10.616  14.350  67.822  1.00  0.00    -0.246 C  
BRANCH  16  17
HETATM   17  C   UNL     1      -9.372  15.090  68.197  1.00  0.00    -0.187 C  
HETATM   18  C   UNL     1      -9.299  16.366  68.618  1.00  0.00    -0.233 C  
HETATM   19  C   UNL     1     -10.502  17.202  68.977  1.00  0.00    -0.321 C  
BRANCH  18  20
HETATM   20  C   UNL     1      -7.967  17.107  68.705  1.00  0.00    -0.265 C  
BRANCH  20  21
HETATM   21  C   UNL     1      -7.934  18.525  68.125  1.00  0.00    -0.308 C  
HETATM   22  O   UNL     1      -6.370  19.187  66.406  1.00  0.00    -0.184 OA 
HETATM   23  O   UNL     1      -8.161  17.963  65.801  1.00  0.00    -0.530 OA 
HETATM   24  C   UNL     1      -7.393  18.593  66.716  1.00  0.00    -0.217 C  
ENDBRANCH  20  21
ENDBRANCH  18  20
ENDBRANCH  16  17
ENDBRANCH   4  16
ENDBRANCH   2   3
TORSDOF 5
ENDMDL
MODEL       63
REMARK 921   NORMALIZED FREE ENERGY PREDICTED BY IDOCK:   -5.72 KCAL/MOL
REMARK 922        TOTAL FREE ENERGY PREDICTED BY IDOCK:   -7.65 KCAL/MOL
REMARK 923 INTER-LIGAND FREE ENERGY PREDICTED BY IDOCK:   -7.25 KCAL/MOL
REMARK 924 INTRA-LIGAND FREE ENERGY PREDICTED BY IDOCK:   -0.41 KCAL/MOL
REMARK 927      BINDING AFFINITY PREDICTED BY RF-SCORE:    0.00 PKD
ROOT
HETATM    1  C   UNL     1     -12.408  11.791  70.525  1.00  0.00    -0.299 C  
HETATM    2  O   UNL     1     -11.195  12.064  69.830  1.00  0.00    -0.120 OA 
ENDROOT
BRANCH   2   3
HETATM    3  C   UNL     1     -11.210  12.077  68.453  1.00  0.00    -0.262 A  
HETATM    4  C   UNL     1     -11.535  13.222  67.658  1.00  0.00    -0.360 A  
HETATM    5  C   UNL     1     -11.353  13.122  66.261  1.00  0.00    -0.315 A  
HETATM    6  C   UNL     1     -10.059   9.765  65.612  1.00  0.00    -0.212 C  
HETATM    7  O   UNL     1     -11.699  14.117  65.396  1.00  0.00    -0.327 OA 
HETATM    8  C   UNL     1     -10.431   9.673  68.709  1.00  0.00    -0.238 C  
HETATM    9  C   UNL     1     -10.836  11.956  65.713  1.00  0.00    -0.341 A  
HETATM   10  C   UNL     1     -10.494  11.654  64.320  1.00  0.00    -0.331 C  
HETATM   11  C   UNL     1     -10.719  10.882  67.865  1.00  0.00    -0.274 A  
HETATM   12  H   UNL     1     -11.576  14.050  64.457  1.00  0.00     0.000 HD 
HETATM   13  O   UNL     1     -10.541  12.385  63.353  1.00  0.00    -0.436 OA 
HETATM   14  C   UNL     1     -10.539  10.853  66.488  1.00  0.00    -0.295 A  
HETATM   15  O   UNL     1     -10.042  10.361  64.304  1.00  0.00    -0.334 OA 
BRANCH   4  16
HETATM   16  C   UNL     1     -12.157  14.426  68.325  1.00  0.00    -0.260 C  
BRANCH  16  17
HETATM   17  C   UNL     1     -11.583  15.794  68.137  1.00  0.00    -0.259 C  
HETATM   18  C   UNL     1     -10.470  16.279  68.717  1.00  0.00    -0.282 C  
HETATM   19  C   UNL     1      -9.499  15.437  69.505  1.00  0.00    -0.250 C  
BRANCH  18  20
HETATM   20  C   UNL     1     -10.129  17.767  68.678  1.00  0.00    -0.384 C  
BRANCH  20  21
HETATM   21  C   UNL     1     -10.721  18.574  67.517  1.00  0.00    -0.419 C  
HETATM   22  O   UNL     1      -9.352  19.897  66.029  1.00  0.00    -0.386 OA 
HETATM   23  O   UNL     1      -9.387  17.664  65.739  1.00  0.00    -0.511 OA 
HETATM   24  C   UNL     1      -9.754  18.796  66.377  1.00  0.00    -0.353 C  
ENDBRANCH  20  21
ENDBRANCH  18  20
ENDBRANCH  16  17
ENDBRANCH   4  16
ENDBRANCH   2   3
TORSDOF 5
ENDMDL
MODEL       64
REMARK 921   NORMALIZED FREE ENERGY PREDICTED BY IDOCK:   -5.72 KCAL/MOL
REMARK 922        TOTAL FREE ENERGY PREDICTED BY IDOCK:   -7.65 KCAL/MOL
REMARK 923 INTER-LIGAND FREE ENERGY PREDICTED BY IDOCK:   -7.31 KCAL/MOL
REMARK 924 INTRA-LIGAND FREE ENERGY PREDICTED BY IDOCK:   -0.34 KCAL/MOL
REMARK 927      BINDING AFFINITY PREDICTED BY RF-SCORE:    0.00 PKD
ROOT
HETATM    1  C   UNL     1     -13.563   9.965  71.534  1.00  0.00    -0.241 C  
HETATM    2  O   UNL     1     -12.232  10.471  71.517  1.00  0.00    -0.355 OA 
ENDROOT
BRANCH   2   3
HETATM    3  C   UNL     1     -11.349   9.979  70.581  1.00  0.00    -0.348 A  
HETATM    4  C   UNL     1     -11.101  10.581  69.307  1.00  0.00    -0.298 A  
HETATM    5  C   UNL     1     -10.054  10.049  68.523  1.00  0.00    -0.169 A  
HETATM    6  C   UNL     1      -8.585   7.316  70.458  1.00  0.00    -0.143 C  
HETATM    7  O   UNL     1      -9.773  10.489  67.264  1.00  0.00    -0.164 OA 
HETATM    8  C   UNL     1     -10.879   8.234  72.366  1.00  0.00    -0.421 C  
HETATM    9  C   UNL     1      -9.283   9.005  69.018  1.00  0.00    -0.140 A  
HETATM   10  C   UNL     1      -8.112   8.351  68.426  1.00  0.00    -0.123 C  
HETATM   11  C   UNL     1     -10.571   8.887  71.048  1.00  0.00    -0.315 A  
HETATM   12  H   UNL     1      -9.069  10.131  66.737  1.00  0.00     0.000 HD 
HETATM   13  O   UNL     1      -7.534   8.623  67.393  1.00  0.00    -0.088 OA 
HETATM   14  C   UNL     1      -9.540   8.423  70.242  1.00  0.00    -0.170 A  
HETATM   15  O   UNL     1      -7.734   7.368  69.301  1.00  0.00    -0.102 OA 
BRANCH   4  16
HETATM   16  C   UNL     1     -12.030  11.667  68.815  1.00  0.00    -0.326 C  
BRANCH  16  17
HETATM   17  C   UNL     1     -11.516  13.032  68.490  1.00  0.00    -0.340 C  
HETATM   18  C   UNL     1     -11.461  13.595  67.269  1.00  0.00    -0.370 C  
HETATM   19  C   UNL     1     -12.108  13.002  66.042  1.00  0.00    -0.493 C  
BRANCH  18  20
HETATM   20  C   UNL     1     -10.666  14.872  67.010  1.00  0.00    -0.307 C  
BRANCH  20  21
HETATM   21  C   UNL     1     -10.215  15.116  65.565  1.00  0.00    -0.405 C  
HETATM   22  O   UNL     1     -11.473  16.496  64.031  1.00  0.00    -1.137 OA 
HETATM   23  O   UNL     1     -10.216  17.517  65.596  1.00  0.00    -0.595 OA 
HETATM   24  C   UNL     1     -10.713  16.420  64.986  1.00  0.00    -0.259 C  
ENDBRANCH  20  21
ENDBRANCH  18  20
ENDBRANCH  16  17
ENDBRANCH   4  16
ENDBRANCH   2   3
TORSDOF 5
ENDMDL
MODEL       65
REMARK 921   NORMALIZED FREE ENERGY PREDICTED BY IDOCK:   -5.71 KCAL/MOL
REMARK 922        TOTAL FREE ENERGY PREDICTED BY IDOCK:   -7.64 KCAL/MOL
REMARK 923 INTER-LIGAND FREE ENERGY PREDICTED BY IDOCK:   -7.30 KCAL/MOL
REMARK 924 INTRA-LIGAND FREE ENERGY PREDICTED BY IDOCK:   -0.34 KCAL/MOL
REMARK 927      BINDING AFFINITY PREDICTED BY RF-SCORE:    0.00 PKD
ROOT
HETATM    1  C   UNL     1     -11.495  15.427  70.606  1.00  0.00    -0.332 C  
HETATM    2  O   UNL     1     -10.448  14.953  69.766  1.00  0.00    -0.212 OA 
ENDROOT
BRANCH   2   3
HETATM    3  C   UNL     1     -10.714  14.744  68.431  1.00  0.00    -0.243 A  
HETATM    4  C   UNL     1     -11.334  13.567  67.903  1.00  0.00    -0.320 A  
HETATM    5  C   UNL     1     -11.685  13.568  66.535  1.00  0.00    -0.371 A  
HETATM    6  C   UNL     1     -10.714  16.833  65.208  1.00  0.00    -0.169 C  
HETATM    7  O   UNL     1     -12.210  12.479  65.905  1.00  0.00    -0.593 OA 
HETATM    8  C   UNL     1      -9.765  17.086  68.171  1.00  0.00    -0.268 C  
HETATM    9  C   UNL     1     -11.462  14.701  65.766  1.00  0.00    -0.338 A  
HETATM   10  C   UNL     1     -11.809  14.958  64.365  1.00  0.00    -0.360 C  
HETATM   11  C   UNL     1     -10.462  15.877  67.614  1.00  0.00    -0.289 A  
HETATM   12  H   UNL     1     -12.446  12.480  64.985  1.00  0.00     0.000 HD 
HETATM   13  O   UNL     1     -12.416  14.246  63.592  1.00  0.00    -0.816 OA 
HETATM   14  C   UNL     1     -10.851  15.826  66.281  1.00  0.00    -0.232 A  
HETATM   15  O   UNL     1     -11.353  16.218  64.078  1.00  0.00    -0.822 OA 
BRANCH   4  16
HETATM   16  C   UNL     1     -11.477  12.353  68.792  1.00  0.00    -0.350 C  
BRANCH  16  17
HETATM   17  C   UNL     1     -11.085  10.994  68.307  1.00  0.00    -0.316 C  
HETATM   18  C   UNL     1      -9.870  10.624  67.863  1.00  0.00    -0.181 C  
HETATM   19  C   UNL     1      -8.637  11.487  67.975  1.00  0.00    -0.150 C  
BRANCH  18  20
HETATM   20  C   UNL     1      -9.650   9.301  67.134  1.00  0.00    -0.208 C  
BRANCH  20  21
HETATM   21  C   UNL     1      -9.754   9.337  65.605  1.00  0.00    -0.302 C  
HETATM   22  O   UNL     1      -7.819   9.582  64.180  1.00  0.00    -0.114 OA 
HETATM   23  O   UNL     1      -8.211   7.566  65.105  1.00  0.00    -0.134 OA 
HETATM   24  C   UNL     1      -8.502   8.869  64.900  1.00  0.00    -0.178 C  
ENDBRANCH  20  21
ENDBRANCH  18  20
ENDBRANCH  16  17
ENDBRANCH   4  16
ENDBRANCH   2   3
TORSDOF 5
ENDMDL
MODEL       66
REMARK 921   NORMALIZED FREE ENERGY PREDICTED BY IDOCK:   -5.70 KCAL/MOL
REMARK 922        TOTAL FREE ENERGY PREDICTED BY IDOCK:   -7.64 KCAL/MOL
REMARK 923 INTER-LIGAND FREE ENERGY PREDICTED BY IDOCK:   -7.21 KCAL/MOL
REMARK 924 INTRA-LIGAND FREE ENERGY PREDICTED BY IDOCK:   -0.42 KCAL/MOL
REMARK 927      BINDING AFFINITY PREDICTED BY RF-SCORE:    0.00 PKD
ROOT
HETATM    1  C   UNL     1      -6.385  14.694  68.051  1.00  0.00    -0.156 C  
HETATM    2  O   UNL     1      -7.509  15.393  68.575  1.00  0.00    -0.111 OA 
ENDROOT
BRANCH   2   3
HETATM    3  C   UNL     1      -8.177  16.278  67.758  1.00  0.00    -0.149 A  
HETATM    4  C   UNL     1      -9.159  15.900  66.786  1.00  0.00    -0.275 A  
HETATM    5  C   UNL     1      -9.869  16.934  66.137  1.00  0.00    -0.297 A  
HETATM    6  C   UNL     1      -8.628  20.084  67.515  1.00  0.00    -0.340 C  
HETATM    7  O   UNL     1     -10.771  16.699  65.142  1.00  0.00    -0.621 OA 
HETATM    8  C   UNL     1      -6.857  18.021  69.049  1.00  0.00    -0.250 C  
HETATM    9  C   UNL     1      -9.631  18.257  66.481  1.00  0.00    -0.320 A  
HETATM   10  C   UNL     1     -10.293  19.475  66.004  1.00  0.00    -0.511 C  
HETATM   11  C   UNL     1      -7.926  17.641  68.064  1.00  0.00    -0.241 A  
HETATM   12  H   UNL     1     -11.249  17.394  64.706  1.00  0.00     0.000 HD 
HETATM   13  O   UNL     1     -11.231  19.580  65.241  1.00  0.00    -0.331 OA 
HETATM   14  C   UNL     1      -8.674  18.611  67.409  1.00  0.00    -0.281 A  
HETATM   15  O   UNL     1      -9.675  20.523  66.635  1.00  0.00    -0.386 OA 
BRANCH   4  16
HETATM   16  C   UNL     1      -9.306  14.441  66.422  1.00  0.00    -0.284 C  
BRANCH  16  17
HETATM   17  C   UNL     1      -9.960  13.476  67.357  1.00  0.00    -0.234 C  
HETATM   18  C   UNL     1     -11.278  13.219  67.447  1.00  0.00    -0.316 C  
HETATM   19  C   UNL     1     -12.301  13.727  66.461  1.00  0.00    -0.432 C  
BRANCH  18  20
HETATM   20  C   UNL     1     -11.865  12.432  68.616  1.00  0.00    -0.348 C  
BRANCH  20  21
HETATM   21  C   UNL     1     -11.532  10.937  68.669  1.00  0.00    -0.380 C  
HETATM   22  O   UNL     1     -10.593   9.888  70.633  1.00  0.00    -0.296 OA 
HETATM   23  O   UNL     1     -12.794  10.365  70.631  1.00  0.00    -0.353 OA 
HETATM   24  C   UNL     1     -11.568  10.356  70.064  1.00  0.00    -0.301 C  
ENDBRANCH  20  21
ENDBRANCH  18  20
ENDBRANCH  16  17
ENDBRANCH   4  16
ENDBRANCH   2   3
TORSDOF 5
ENDMDL
MODEL       67
REMARK 921   NORMALIZED FREE ENERGY PREDICTED BY IDOCK:   -5.67 KCAL/MOL
REMARK 922        TOTAL FREE ENERGY PREDICTED BY IDOCK:   -7.59 KCAL/MOL
REMARK 923 INTER-LIGAND FREE ENERGY PREDICTED BY IDOCK:   -7.53 KCAL/MOL
REMARK 924 INTRA-LIGAND FREE ENERGY PREDICTED BY IDOCK:   -0.06 KCAL/MOL
REMARK 927      BINDING AFFINITY PREDICTED BY RF-SCORE:    0.00 PKD
ROOT
HETATM    1  C   UNL     1     -13.260   9.341  72.276  1.00  0.00    -0.460 C  
HETATM    2  O   UNL     1     -11.881   9.167  71.967  1.00  0.00    -0.365 OA 
ENDROOT
BRANCH   2   3
HETATM    3  C   UNL     1     -11.523   8.903  70.664  1.00  0.00    -0.242 A  
HETATM    4  C   UNL     1     -11.279   9.906  69.672  1.00  0.00    -0.251 A  
HETATM    5  C   UNL     1     -10.768   9.484  68.425  1.00  0.00    -0.186 A  
HETATM    6  C   UNL     1     -10.372   5.856  68.631  1.00  0.00    -0.215 C  
HETATM    7  O   UNL     1     -10.567  10.336  67.381  1.00  0.00    -0.233 OA 
HETATM    8  C   UNL     1     -11.569   6.486  71.444  1.00  0.00    -0.371 C  
HETATM    9  C   UNL     1     -10.482   8.142  68.215  1.00  0.00    -0.210 A  
HETATM   10  C   UNL     1      -9.882   7.491  67.047  1.00  0.00    -0.214 C  
HETATM   11  C   UNL     1     -11.259   7.532  70.410  1.00  0.00    -0.270 A  
HETATM   12  H   UNL     1     -10.223  10.053  66.542  1.00  0.00     0.000 HD 
HETATM   13  O   UNL     1      -9.456   8.001  66.030  1.00  0.00    -0.155 OA 
HETATM   14  C   UNL     1     -10.734   7.182  69.173  1.00  0.00    -0.216 A  
HETATM   15  O   UNL     1      -9.835   6.152  67.331  1.00  0.00    -0.121 OA 
BRANCH   4  16
HETATM   16  C   UNL     1     -11.683  11.334  69.959  1.00  0.00    -0.428 C  
BRANCH  16  17
HETATM   17  C   UNL     1     -11.410  12.424  68.972  1.00  0.00    -0.336 C  
HETATM   18  C   UNL     1     -11.883  13.683  69.023  1.00  0.00    -0.393 C  
HETATM   19  C   UNL     1     -12.612  14.259  70.212  1.00  0.00    -0.378 C  
BRANCH  18  20
HETATM   20  C   UNL     1     -11.776  14.629  67.830  1.00  0.00    -0.386 C  
BRANCH  20  21
HETATM   21  C   UNL     1     -11.242  14.026  66.525  1.00  0.00    -0.326 C  
HETATM   22  O   UNL     1     -12.251  12.094  65.482  1.00  0.00    -0.549 OA 
HETATM   23  O   UNL     1     -13.277  14.086  65.251  1.00  0.00    -0.782 OA 
HETATM   24  C   UNL     1     -12.291  13.292  65.722  1.00  0.00    -0.447 C  
ENDBRANCH  20  21
ENDBRANCH  18  20
ENDBRANCH  16  17
ENDBRANCH   4  16
ENDBRANCH   2   3
TORSDOF 5
ENDMDL
MODEL       68
REMARK 921   NORMALIZED FREE ENERGY PREDICTED BY IDOCK:   -5.67 KCAL/MOL
REMARK 922        TOTAL FREE ENERGY PREDICTED BY IDOCK:   -7.59 KCAL/MOL
REMARK 923 INTER-LIGAND FREE ENERGY PREDICTED BY IDOCK:   -7.43 KCAL/MOL
REMARK 924 INTRA-LIGAND FREE ENERGY PREDICTED BY IDOCK:   -0.16 KCAL/MOL
REMARK 927      BINDING AFFINITY PREDICTED BY RF-SCORE:    0.00 PKD
ROOT
HETATM    1  C   UNL     1     -11.824  16.081  71.470  1.00  0.00    -0.486 C  
HETATM    2  O   UNL     1     -12.739  15.424  70.598  1.00  0.00    -0.407 OA 
ENDROOT
BRANCH   2   3
HETATM    3  C   UNL     1     -12.453  14.141  70.186  1.00  0.00    -0.331 A  
HETATM    4  C   UNL     1     -11.698  13.817  69.013  1.00  0.00    -0.372 A  
HETATM    5  C   UNL     1     -11.354  12.462  68.810  1.00  0.00    -0.293 A  
HETATM    6  C   UNL     1     -12.713  10.600  71.647  1.00  0.00    -0.426 C  
HETATM    7  O   UNL     1     -10.705  12.023  67.695  1.00  0.00    -0.207 OA 
HETATM    8  C   UNL     1     -13.677  13.493  72.315  1.00  0.00    -0.700 C  
HETATM    9  C   UNL     1     -11.714  11.509  69.753  1.00  0.00    -0.426 A  
HETATM   10  C   UNL     1     -11.404  10.077  69.793  1.00  0.00    -0.228 C  
HETATM   11  C   UNL     1     -12.841  13.142  71.116  1.00  0.00    -0.349 A  
HETATM   12  H   UNL     1     -10.473  11.112  67.558  1.00  0.00     0.000 HD 
HETATM   13  O   UNL     1     -10.718   9.428  69.030  1.00  0.00    -0.223 OA 
HETATM   14  C   UNL     1     -12.453  11.831  70.873  1.00  0.00    -0.416 A  
HETATM   15  O   UNL     1     -12.008   9.582  70.918  1.00  0.00    -0.286 OA 
BRANCH   4  16
HETATM   16  C   UNL     1     -11.408  14.903  68.004  1.00  0.00    -0.337 C  
BRANCH  16  17
HETATM   17  C   UNL     1     -10.077  14.993  67.330  1.00  0.00    -0.228 C  
HETATM   18  C   UNL     1      -8.946  15.496  67.859  1.00  0.00    -0.173 C  
HETATM   19  C   UNL     1      -8.794  15.871  69.313  1.00  0.00    -0.249 C  
BRANCH  18  20
HETATM   20  C   UNL     1      -7.722  15.797  66.999  1.00  0.00    -0.267 C  
BRANCH  20  21
HETATM   21  C   UNL     1      -7.691  17.164  66.307  1.00  0.00    -0.350 C  
HETATM   22  O   UNL     1      -6.192  18.930  66.993  1.00  0.00    -0.183 OA 
HETATM   23  O   UNL     1      -5.351  17.235  65.770  1.00  0.00    -0.274 OA 
HETATM   24  C   UNL     1      -6.358  17.868  66.411  1.00  0.00    -0.214 C  
ENDBRANCH  20  21
ENDBRANCH  18  20
ENDBRANCH  16  17
ENDBRANCH   4  16
ENDBRANCH   2   3
TORSDOF 5
ENDMDL
MODEL       69
REMARK 921   NORMALIZED FREE ENERGY PREDICTED BY IDOCK:   -5.66 KCAL/MOL
REMARK 922        TOTAL FREE ENERGY PREDICTED BY IDOCK:   -7.57 KCAL/MOL
REMARK 923 INTER-LIGAND FREE ENERGY PREDICTED BY IDOCK:   -7.51 KCAL/MOL
REMARK 924 INTRA-LIGAND FREE ENERGY PREDICTED BY IDOCK:   -0.07 KCAL/MOL
REMARK 927      BINDING AFFINITY PREDICTED BY RF-SCORE:    0.00 PKD
ROOT
HETATM    1  C   UNL     1     -12.267   9.577  71.825  1.00  0.00    -0.387 C  
HETATM    2  O   UNL     1     -13.021  10.453  70.992  1.00  0.00    -0.368 OA 
ENDROOT
BRANCH   2   3
HETATM    3  C   UNL     1     -12.399  11.565  70.468  1.00  0.00    -0.342 A  
HETATM    4  C   UNL     1     -11.559  11.552  69.309  1.00  0.00    -0.388 A  
HETATM    5  C   UNL     1     -11.122  12.796  68.803  1.00  0.00    -0.260 A  
HETATM    6  C   UNL     1     -12.574  15.370  70.956  1.00  0.00    -0.431 C  
HETATM    7  O   UNL     1     -10.261  12.906  67.753  1.00  0.00    -0.215 OA 
HETATM    8  C   UNL     1     -13.625  12.774  72.335  1.00  0.00    -0.507 C  
HETATM    9  C   UNL     1     -11.544  13.973  69.406  1.00  0.00    -0.349 A  
HETATM   10  C   UNL     1     -11.287  15.362  69.015  1.00  0.00    -0.316 C  
HETATM   11  C   UNL     1     -12.786  12.781  71.089  1.00  0.00    -0.355 A  
HETATM   12  H   UNL     1      -9.967  13.743  67.412  1.00  0.00     0.000 HD 
HETATM   13  O   UNL     1     -10.689  15.778  68.044  1.00  0.00    -0.276 OA 
HETATM   14  C   UNL     1     -12.343  13.973  70.531  1.00  0.00    -0.437 A  
HETATM   15  O   UNL     1     -11.908  16.149  69.949  1.00  0.00    -0.274 OA 
BRANCH   4  16
HETATM   16  C   UNL     1     -11.091  10.226  68.758  1.00  0.00    -0.276 C  
BRANCH  16  17
HETATM   17  C   UNL     1     -10.768  10.066  67.307  1.00  0.00    -0.309 C  
HETATM   18  C   UNL     1      -9.968   9.129  66.765  1.00  0.00    -0.322 C  
HETATM   19  C   UNL     1      -9.422   7.948  67.529  1.00  0.00    -0.175 C  
BRANCH  18  20
HETATM   20  C   UNL     1      -9.485   9.224  65.321  1.00  0.00    -0.234 C  
BRANCH  20  21
HETATM   21  C   UNL     1      -9.041  10.610  64.838  1.00  0.00    -0.231 C  
HETATM   22  O   UNL     1      -9.132  11.263  62.514  1.00  0.00    -0.339 OA 
HETATM   23  O   UNL     1     -11.052  11.244  63.690  1.00  0.00    -0.376 OA 
HETATM   24  C   UNL     1      -9.721  11.056  63.564  1.00  0.00    -0.337 C  
ENDBRANCH  20  21
ENDBRANCH  18  20
ENDBRANCH  16  17
ENDBRANCH   4  16
ENDBRANCH   2   3
TORSDOF 5
ENDMDL
MODEL       70
REMARK 921   NORMALIZED FREE ENERGY PREDICTED BY IDOCK:   -5.65 KCAL/MOL
REMARK 922        TOTAL FREE ENERGY PREDICTED BY IDOCK:   -7.56 KCAL/MOL
REMARK 923 INTER-LIGAND FREE ENERGY PREDICTED BY IDOCK:   -7.03 KCAL/MOL
REMARK 924 INTRA-LIGAND FREE ENERGY PREDICTED BY IDOCK:   -0.54 KCAL/MOL
REMARK 927      BINDING AFFINITY PREDICTED BY RF-SCORE:    0.00 PKD
ROOT
HETATM    1  C   UNL     1      -7.162  14.969  67.452  1.00  0.00    -0.194 C  
HETATM    2  O   UNL     1      -8.444  14.546  67.907  1.00  0.00    -0.146 OA 
ENDROOT
BRANCH   2   3
HETATM    3  C   UNL     1      -9.423  14.283  66.975  1.00  0.00    -0.254 A  
HETATM    4  C   UNL     1     -10.244  15.281  66.360  1.00  0.00    -0.287 A  
HETATM    5  C   UNL     1     -11.093  14.873  65.308  1.00  0.00    -0.378 A  
HETATM    6  C   UNL     1     -10.536  11.290  64.842  1.00  0.00    -0.300 C  
HETATM    7  O   UNL     1     -11.974  15.716  64.698  1.00  0.00    -0.200 OA 
HETATM    8  C   UNL     1      -8.623  11.886  67.235  1.00  0.00    -0.170 C  
HETATM    9  C   UNL     1     -11.078  13.552  64.881  1.00  0.00    -0.356 A  
HETATM   10  C   UNL     1     -11.805  12.925  63.773  1.00  0.00    -0.504 C  
HETATM   11  C   UNL     1      -9.453  12.931  66.544  1.00  0.00    -0.251 A  
HETATM   12  H   UNL     1     -12.545  15.442  63.991  1.00  0.00     0.000 HD 
HETATM   13  O   UNL     1     -12.539  13.444  62.957  1.00  0.00    -0.669 OA 
HETATM   14  C   UNL     1     -10.292  12.596  65.490  1.00  0.00    -0.305 A  
HETATM   15  O   UNL     1     -11.459  11.599  63.785  1.00  0.00    -0.403 OA 
BRANCH   4  16
HETATM   16  C   UNL     1     -10.251  16.679  66.932  1.00  0.00    -0.291 C  
BRANCH  16  17
HETATM   17  C   UNL     1      -9.250  17.698  66.487  1.00  0.00    -0.286 C  
HETATM   18  C   UNL     1      -9.177  18.977  66.898  1.00  0.00    -0.332 C  
HETATM   19  C   UNL     1      -9.983  19.538  68.043  1.00  0.00    -0.513 C  
BRANCH  18  20
HETATM   20  C   UNL     1      -8.303  20.002  66.180  1.00  0.00    -0.304 C  
BRANCH  20  21
HETATM   21  C   UNL     1      -7.083  20.521  66.950  1.00  0.00    -0.344 C  
HETATM   22  O   UNL     1      -5.885  19.162  68.549  1.00  0.00    -0.208 OA 
HETATM   23  O   UNL     1      -5.528  18.790  66.356  1.00  0.00    -0.147 OA 
HETATM   24  C   UNL     1      -6.129  19.432  67.381  1.00  0.00    -0.190 C  
ENDBRANCH  20  21
ENDBRANCH  18  20
ENDBRANCH  16  17
ENDBRANCH   4  16
ENDBRANCH   2   3
TORSDOF 5
ENDMDL
MODEL       71
REMARK 921   NORMALIZED FREE ENERGY PREDICTED BY IDOCK:   -5.63 KCAL/MOL
REMARK 922        TOTAL FREE ENERGY PREDICTED BY IDOCK:   -7.54 KCAL/MOL
REMARK 923 INTER-LIGAND FREE ENERGY PREDICTED BY IDOCK:   -6.87 KCAL/MOL
REMARK 924 INTRA-LIGAND FREE ENERGY PREDICTED BY IDOCK:   -0.68 KCAL/MOL
REMARK 927      BINDING AFFINITY PREDICTED BY RF-SCORE:    0.00 PKD
ROOT
HETATM    1  C   UNL     1     -10.140  10.106  66.906  1.00  0.00    -0.223 C  
HETATM    2  O   UNL     1      -9.615  10.763  68.055  1.00  0.00    -0.157 OA 
ENDROOT
BRANCH   2   3
HETATM    3  C   UNL     1      -9.892  10.241  69.299  1.00  0.00    -0.228 A  
HETATM    4  C   UNL     1     -11.141  10.392  69.981  1.00  0.00    -0.379 A  
HETATM    5  C   UNL     1     -11.326   9.667  71.178  1.00  0.00    -0.386 A  
HETATM    6  C   UNL     1      -8.264   7.745  71.721  1.00  0.00    -0.111 C  
HETATM    7  O   UNL     1     -12.441   9.788  71.952  1.00  0.00    -0.381 OA 
HETATM    8  C   UNL     1      -7.549   9.281  69.100  1.00  0.00    -0.073 C  
HETATM    9  C   UNL     1     -10.330   8.812  71.629  1.00  0.00    -0.391 A  
HETATM   10  C   UNL     1     -10.329   7.912  72.786  1.00  0.00    -0.333 C  
HETATM   11  C   UNL     1      -8.873   9.389  69.801  1.00  0.00    -0.193 A  
HETATM   12  H   UNL     1     -12.566   9.300  72.758  1.00  0.00     0.000 HD 
HETATM   13  O   UNL     1     -11.227   7.684  73.570  1.00  0.00    -0.283 OA 
HETATM   14  C   UNL     1      -9.124   8.684  70.970  1.00  0.00    -0.248 A  
HETATM   15  O   UNL     1      -9.101   7.306  72.804  1.00  0.00    -0.131 OA 
BRANCH   4  16
HETATM   16  C   UNL     1     -12.144  11.395  69.460  1.00  0.00    -0.370 C  
BRANCH  16  17
HETATM   17  C   UNL     1     -11.872  12.864  69.530  1.00  0.00    -0.383 C  
HETATM   18  C   UNL     1     -12.325  13.716  70.468  1.00  0.00    -0.425 C  
HETATM   19  C   UNL     1     -13.024  13.278  71.731  1.00  0.00    -0.430 C  
BRANCH  18  20
HETATM   20  C   UNL     1     -12.224  15.229  70.294  1.00  0.00    -0.403 C  
BRANCH  20  21
HETATM   21  C   UNL     1     -11.659  15.727  68.959  1.00  0.00    -0.406 C  
HETATM   22  O   UNL     1     -10.323  17.733  68.785  1.00  0.00    -0.367 OA 
HETATM   23  O   UNL     1      -9.345  15.868  69.585  1.00  0.00    -0.249 OA 
HETATM   24  C   UNL     1     -10.403  16.555  69.102  1.00  0.00    -0.316 C  
ENDBRANCH  20  21
ENDBRANCH  18  20
ENDBRANCH  16  17
ENDBRANCH   4  16
ENDBRANCH   2   3
TORSDOF 5
ENDMDL
MODEL       72
REMARK 921   NORMALIZED FREE ENERGY PREDICTED BY IDOCK:   -5.63 KCAL/MOL
REMARK 922        TOTAL FREE ENERGY PREDICTED BY IDOCK:   -7.54 KCAL/MOL
REMARK 923 INTER-LIGAND FREE ENERGY PREDICTED BY IDOCK:   -7.17 KCAL/MOL
REMARK 924 INTRA-LIGAND FREE ENERGY PREDICTED BY IDOCK:   -0.37 KCAL/MOL
REMARK 927      BINDING AFFINITY PREDICTED BY RF-SCORE:    0.00 PKD
ROOT
HETATM    1  C   UNL     1     -12.456  14.086  65.553  1.00  0.00    -0.509 C  
HETATM    2  O   UNL     1     -12.661  12.683  65.683  1.00  0.00    -0.611 OA 
ENDROOT
BRANCH   2   3
HETATM    3  C   UNL     1     -11.566  11.871  65.883  1.00  0.00    -0.224 A  
HETATM    4  C   UNL     1     -11.145  11.381  67.161  1.00  0.00    -0.366 A  
HETATM    5  C   UNL     1     -10.099  10.432  67.186  1.00  0.00    -0.208 A  
HETATM    6  C   UNL     1      -9.150   9.828  63.707  1.00  0.00    -0.230 C  
HETATM    7  O   UNL     1      -9.564   9.952  68.343  1.00  0.00    -0.145 OA 
HETATM    8  C   UNL     1     -11.381  11.983  63.353  1.00  0.00    -0.484 C  
HETATM    9  C   UNL     1      -9.549   9.979  65.994  1.00  0.00    -0.279 A  
HETATM   10  C   UNL     1      -8.524   8.955  65.773  1.00  0.00    -0.145 C  
HETATM   11  C   UNL     1     -10.962  11.420  64.681  1.00  0.00    -0.324 A  
HETATM   12  H   UNL     1      -8.860   9.313  68.360  1.00  0.00     0.000 HD 
HETATM   13  O   UNL     1      -7.973   8.245  66.590  1.00  0.00    -0.096 OA 
HETATM   14  C   UNL     1      -9.954  10.468  64.769  1.00  0.00    -0.412 A  
HETATM   15  O   UNL     1      -8.319   8.898  64.420  1.00  0.00    -0.161 OA 
BRANCH   4  16
HETATM   16  C   UNL     1     -11.748  11.978  68.410  1.00  0.00    -0.390 C  
BRANCH  16  17
HETATM   17  C   UNL     1     -11.368  13.349  68.870  1.00  0.00    -0.331 C  
HETATM   18  C   UNL     1     -11.868  14.002  69.936  1.00  0.00    -0.393 C  
HETATM   19  C   UNL     1     -12.760  13.360  70.969  1.00  0.00    -0.387 C  
BRANCH  18  20
HETATM   20  C   UNL     1     -11.621  15.492  70.152  1.00  0.00    -0.355 C  
BRANCH  20  21
HETATM   21  C   UNL     1     -11.531  16.361  68.892  1.00  0.00    -0.216 C  
HETATM   22  O   UNL     1     -10.376  18.482  68.860  1.00  0.00    -0.317 OA 
HETATM   23  O   UNL     1      -9.143  16.598  68.797  1.00  0.00    -0.241 OA 
HETATM   24  C   UNL     1     -10.318  17.261  68.861  1.00  0.00    -0.352 C  
ENDBRANCH  20  21
ENDBRANCH  18  20
ENDBRANCH  16  17
ENDBRANCH   4  16
ENDBRANCH   2   3
TORSDOF 5
ENDMDL
MODEL       73
REMARK 921   NORMALIZED FREE ENERGY PREDICTED BY IDOCK:   -5.60 KCAL/MOL
REMARK 922        TOTAL FREE ENERGY PREDICTED BY IDOCK:   -7.49 KCAL/MOL
REMARK 923 INTER-LIGAND FREE ENERGY PREDICTED BY IDOCK:   -7.33 KCAL/MOL
REMARK 924 INTRA-LIGAND FREE ENERGY PREDICTED BY IDOCK:   -0.16 KCAL/MOL
REMARK 927      BINDING AFFINITY PREDICTED BY RF-SCORE:    0.00 PKD
ROOT
HETATM    1  C   UNL     1      -7.874   8.410  65.651  1.00  0.00    -0.106 C  
HETATM    2  O   UNL     1      -7.952   9.666  66.318  1.00  0.00    -0.107 OA 
ENDROOT
BRANCH   2   3
HETATM    3  C   UNL     1      -8.743   9.770  67.441  1.00  0.00    -0.132 A  
HETATM    4  C   UNL     1     -10.130  10.124  67.424  1.00  0.00    -0.251 A  
HETATM    5  C   UNL     1     -10.843  10.035  68.640  1.00  0.00    -0.229 A  
HETATM    6  C   UNL     1      -8.475   8.846  71.158  1.00  0.00    -0.198 C  
HETATM    7  O   UNL     1     -12.145  10.417  68.763  1.00  0.00    -0.723 OA 
HETATM    8  C   UNL     1      -6.635   9.019  68.643  1.00  0.00    -0.054 C  
HETATM    9  C   UNL     1     -10.204   9.575  69.783  1.00  0.00    -0.249 A  
HETATM   10  C   UNL     1     -10.753   9.329  71.120  1.00  0.00    -0.333 C  
HETATM   11  C   UNL     1      -8.103   9.339  68.632  1.00  0.00    -0.105 A  
HETATM   12  H   UNL     1     -12.626  10.357  69.580  1.00  0.00     0.000 HD 
HETATM   13  O   UNL     1     -11.903   9.425  71.497  1.00  0.00    -0.333 OA 
HETATM   14  C   UNL     1      -8.864   9.249  69.791  1.00  0.00    -0.174 A  
HETATM   15  O   UNL     1      -9.707   8.902  71.895  1.00  0.00    -0.307 OA 
BRANCH   4  16
HETATM   16  C   UNL     1     -10.729  10.680  66.153  1.00  0.00    -0.146 C  
BRANCH  16  17
HETATM   17  C   UNL     1     -11.533  11.941  66.169  1.00  0.00    -0.352 C  
HETATM   18  C   UNL     1     -11.919  12.655  65.095  1.00  0.00    -0.474 C  
HETATM   19  C   UNL     1     -11.770  12.177  63.672  1.00  0.00    -0.588 C  
BRANCH  18  20
HETATM   20  C   UNL     1     -12.490  14.064  65.232  1.00  0.00    -0.495 C  
BRANCH  20  21
HETATM   21  C   UNL     1     -11.692  15.044  66.098  1.00  0.00    -0.091 C  
HETATM   22  O   UNL     1      -9.504  15.850  65.464  1.00  0.00    -0.369 OA 
HETATM   23  O   UNL     1     -11.304  16.741  64.444  1.00  0.00    -1.089 OA 
HETATM   24  C   UNL     1     -10.717  15.892  65.315  1.00  0.00    -0.424 C  
ENDBRANCH  20  21
ENDBRANCH  18  20
ENDBRANCH  16  17
ENDBRANCH   4  16
ENDBRANCH   2   3
TORSDOF 5
ENDMDL
MODEL       74
REMARK 921   NORMALIZED FREE ENERGY PREDICTED BY IDOCK:   -5.58 KCAL/MOL
REMARK 922        TOTAL FREE ENERGY PREDICTED BY IDOCK:   -7.47 KCAL/MOL
REMARK 923 INTER-LIGAND FREE ENERGY PREDICTED BY IDOCK:   -6.80 KCAL/MOL
REMARK 924 INTRA-LIGAND FREE ENERGY PREDICTED BY IDOCK:   -0.68 KCAL/MOL
REMARK 927      BINDING AFFINITY PREDICTED BY RF-SCORE:    0.00 PKD
ROOT
HETATM    1  C   UNL     1     -10.548   5.840  68.752  1.00  0.00    -0.251 C  
HETATM    2  O   UNL     1      -9.892   6.555  69.794  1.00  0.00    -0.163 OA 
ENDROOT
BRANCH   2   3
HETATM    3  C   UNL     1     -10.380   7.791  70.156  1.00  0.00    -0.218 A  
HETATM    4  C   UNL     1      -9.982   9.027  69.554  1.00  0.00    -0.193 A  
HETATM    5  C   UNL     1     -10.687  10.194  69.924  1.00  0.00    -0.295 A  
HETATM    6  C   UNL     1     -13.245   9.154  72.320  1.00  0.00    -0.461 C  
HETATM    7  O   UNL     1     -10.350  11.436  69.475  1.00  0.00    -0.441 OA 
HETATM    8  C   UNL     1     -11.820   6.436  71.750  1.00  0.00    -0.374 C  
HETATM    9  C   UNL     1     -11.751  10.105  70.810  1.00  0.00    -0.446 A  
HETATM   10  C   UNL     1     -12.666  11.153  71.273  1.00  0.00    -0.426 C  
HETATM   11  C   UNL     1     -11.448   7.733  71.089  1.00  0.00    -0.295 A  
HETATM   12  H   UNL     1     -10.824  12.220  69.724  1.00  0.00     0.000 HD 
HETATM   13  O   UNL     1     -12.717  12.318  70.936  1.00  0.00    -0.289 OA 
HETATM   14  C   UNL     1     -12.118   8.911  71.395  1.00  0.00    -0.381 A  
HETATM   15  O   UNL     1     -13.525  10.554  72.156  1.00  0.00    -0.382 OA 
BRANCH   4  16
HETATM   16  C   UNL     1      -8.769   9.046  68.653  1.00  0.00    -0.133 C  
BRANCH  16  17
HETATM   17  C   UNL     1      -8.906   9.278  67.182  1.00  0.00    -0.137 C  
HETATM   18  C   UNL     1      -8.599  10.409  66.520  1.00  0.00    -0.134 C  
HETATM   19  C   UNL     1      -7.866  11.572  67.141  1.00  0.00    -0.160 C  
BRANCH  18  20
HETATM   20  C   UNL     1      -9.036  10.636  65.075  1.00  0.00    -0.218 C  
BRANCH  20  21
HETATM   21  C   UNL     1     -10.507  11.007  64.856  1.00  0.00    -0.371 C  
HETATM   22  O   UNL     1     -11.582  12.807  66.055  1.00  0.00    -0.340 OA 
HETATM   23  O   UNL     1     -10.211  13.336  64.348  1.00  0.00    -0.392 OA 
HETATM   24  C   UNL     1     -10.822  12.452  65.167  1.00  0.00    -0.297 C  
ENDBRANCH  20  21
ENDBRANCH  18  20
ENDBRANCH  16  17
ENDBRANCH   4  16
ENDBRANCH   2   3
TORSDOF 5
ENDMDL
MODEL       75
REMARK 921   NORMALIZED FREE ENERGY PREDICTED BY IDOCK:   -5.57 KCAL/MOL
REMARK 922        TOTAL FREE ENERGY PREDICTED BY IDOCK:   -7.46 KCAL/MOL
REMARK 923 INTER-LIGAND FREE ENERGY PREDICTED BY IDOCK:   -6.80 KCAL/MOL
REMARK 924 INTRA-LIGAND FREE ENERGY PREDICTED BY IDOCK:   -0.65 KCAL/MOL
REMARK 927      BINDING AFFINITY PREDICTED BY RF-SCORE:    0.00 PKD
ROOT
HETATM    1  C   UNL     1     -11.151  14.840  66.549  1.00  0.00    -0.334 C  
HETATM    2  O   UNL     1     -10.533  14.419  67.761  1.00  0.00    -0.243 OA 
ENDROOT
BRANCH   2   3
HETATM    3  C   UNL     1     -11.229  13.574  68.598  1.00  0.00    -0.278 A  
HETATM    4  C   UNL     1     -11.253  12.148  68.472  1.00  0.00    -0.307 A  
HETATM    5  C   UNL     1     -11.881  11.411  69.499  1.00  0.00    -0.357 A  
HETATM    6  C   UNL     1     -13.068  13.842  71.958  1.00  0.00    -0.396 C  
HETATM    7  O   UNL     1     -12.033  10.057  69.451  1.00  0.00    -0.479 OA 
HETATM    8  C   UNL     1     -11.819  15.728  69.808  1.00  0.00    -0.352 C  
HETATM    9  C   UNL     1     -12.409  12.071  70.600  1.00  0.00    -0.394 A  
HETATM   10  C   UNL     1     -13.029  11.518  71.808  1.00  0.00    -0.394 C  
HETATM   11  C   UNL     1     -11.809  14.228  69.716  1.00  0.00    -0.380 A  
HETATM   12  H   UNL     1     -12.455   9.561  70.143  1.00  0.00     0.000 HD 
HETATM   13  O   UNL     1     -13.166  10.354  72.125  1.00  0.00    -0.452 OA 
HETATM   14  C   UNL     1     -12.391  13.447  70.705  1.00  0.00    -0.433 A  
HETATM   15  O   UNL     1     -13.401  12.588  72.577  1.00  0.00    -0.413 OA 
BRANCH   4  16
HETATM   16  C   UNL     1     -10.718  11.515  67.209  1.00  0.00    -0.286 C  
BRANCH  16  17
HETATM   17  C   UNL     1      -9.414  10.783  67.207  1.00  0.00    -0.177 C  
HETATM   18  C   UNL     1      -9.241   9.461  67.023  1.00  0.00    -0.171 C  
HETATM   19  C   UNL     1     -10.338   8.525  66.581  1.00  0.00    -0.303 C  
BRANCH  18  20
HETATM   20  C   UNL     1      -7.908   8.779  67.317  1.00  0.00    -0.097 C  
BRANCH  20  21
HETATM   21  C   UNL     1      -7.571   8.543  68.794  1.00  0.00    -0.097 C  
HETATM   22  O   UNL     1      -9.192   8.853  70.558  1.00  0.00    -0.170 OA 
HETATM   23  O   UNL     1      -9.322   6.982  69.310  1.00  0.00    -0.146 OA 
HETATM   24  C   UNL     1      -8.768   8.170  69.638  1.00  0.00    -0.142 C  
ENDBRANCH  20  21
ENDBRANCH  18  20
ENDBRANCH  16  17
ENDBRANCH   4  16
ENDBRANCH   2   3
TORSDOF 5
ENDMDL
MODEL       76
REMARK 921   NORMALIZED FREE ENERGY PREDICTED BY IDOCK:   -5.56 KCAL/MOL
REMARK 922        TOTAL FREE ENERGY PREDICTED BY IDOCK:   -7.45 KCAL/MOL
REMARK 923 INTER-LIGAND FREE ENERGY PREDICTED BY IDOCK:   -7.33 KCAL/MOL
REMARK 924 INTRA-LIGAND FREE ENERGY PREDICTED BY IDOCK:   -0.12 KCAL/MOL
REMARK 927      BINDING AFFINITY PREDICTED BY RF-SCORE:    0.00 PKD
ROOT
HETATM    1  C   UNL     1     -14.402   8.666  72.106  1.00  0.00    -0.427 C  
HETATM    2  O   UNL     1     -13.108   9.037  72.571  1.00  0.00    -0.433 OA 
ENDROOT
BRANCH   2   3
HETATM    3  C   UNL     1     -12.097   9.201  71.650  1.00  0.00    -0.362 A  
HETATM    4  C   UNL     1     -11.841  10.415  70.936  1.00  0.00    -0.475 A  
HETATM    5  C   UNL     1     -10.673  10.475  70.144  1.00  0.00    -0.171 A  
HETATM    6  C   UNL     1      -8.984   7.256  70.524  1.00  0.00    -0.154 C  
HETATM    7  O   UNL     1     -10.364  11.548  69.362  1.00  0.00    -0.426 OA 
HETATM    8  C   UNL     1     -11.521   6.811  72.287  1.00  0.00    -0.314 C  
HETATM    9  C   UNL     1      -9.803   9.395  70.114  1.00  0.00    -0.272 A  
HETATM   10  C   UNL     1      -8.511   9.260  69.436  1.00  0.00    -0.137 C  
HETATM   11  C   UNL     1     -11.211   8.096  71.572  1.00  0.00    -0.307 A  
HETATM   12  H   UNL     1      -9.579  11.589  68.830  1.00  0.00     0.000 HD 
HETATM   13  O   UNL     1      -7.900  10.091  68.795  1.00  0.00    -0.086 OA 
HETATM   14  C   UNL     1     -10.067   8.224  70.795  1.00  0.00    -0.218 A  
HETATM   15  O   UNL     1      -8.065   7.992  69.701  1.00  0.00    -0.114 OA 
BRANCH   4  16
HETATM   16  C   UNL     1     -12.875  11.517  70.969  1.00  0.00    -0.358 C  
BRANCH  16  17
HETATM   17  C   UNL     1     -12.467  12.955  70.971  1.00  0.00    -0.374 C  
HETATM   18  C   UNL     1     -13.170  13.984  71.482  1.00  0.00    -0.431 C  
HETATM   19  C   UNL     1     -14.409  13.816  72.325  1.00  0.00    -0.462 C  
BRANCH  18  20
HETATM   20  C   UNL     1     -12.799  15.434  71.185  1.00  0.00    -0.520 C  
BRANCH  20  21
HETATM   21  C   UNL     1     -11.321  15.716  70.889  1.00  0.00    -0.417 C  
HETATM   22  O   UNL     1     -10.118  14.597  69.117  1.00  0.00    -0.225 OA 
HETATM   23  O   UNL     1     -11.527  16.264  68.560  1.00  0.00    -0.371 OA 
HETATM   24  C   UNL     1     -10.928  15.449  69.455  1.00  0.00    -0.276 C  
ENDBRANCH  20  21
ENDBRANCH  18  20
ENDBRANCH  16  17
ENDBRANCH   4  16
ENDBRANCH   2   3
TORSDOF 5
ENDMDL
MODEL       77
REMARK 921   NORMALIZED FREE ENERGY PREDICTED BY IDOCK:   -5.56 KCAL/MOL
REMARK 922        TOTAL FREE ENERGY PREDICTED BY IDOCK:   -7.45 KCAL/MOL
REMARK 923 INTER-LIGAND FREE ENERGY PREDICTED BY IDOCK:   -7.52 KCAL/MOL
REMARK 924 INTRA-LIGAND FREE ENERGY PREDICTED BY IDOCK:    0.07 KCAL/MOL
REMARK 927      BINDING AFFINITY PREDICTED BY RF-SCORE:    0.00 PKD
ROOT
HETATM    1  C   UNL     1     -14.111   8.479  71.545  1.00  0.00    -0.362 C  
HETATM    2  O   UNL     1     -12.917   8.673  72.296  1.00  0.00    -0.363 OA 
ENDROOT
BRANCH   2   3
HETATM    3  C   UNL     1     -11.708   8.624  71.638  1.00  0.00    -0.313 A  
HETATM    4  C   UNL     1     -11.109   9.733  70.959  1.00  0.00    -0.431 A  
HETATM    5  C   UNL     1      -9.795   9.569  70.469  1.00  0.00    -0.269 A  
HETATM    6  C   UNL     1      -8.756   6.182  71.371  1.00  0.00    -0.135 C  
HETATM    7  O   UNL     1      -9.152  10.525  69.742  1.00  0.00    -0.409 OA 
HETATM    8  C   UNL     1     -11.670   6.231  72.490  1.00  0.00    -0.245 C  
HETATM    9  C   UNL     1      -9.119   8.377  70.691  1.00  0.00    -0.174 A  
HETATM   10  C   UNL     1      -7.741   8.012  70.349  1.00  0.00    -0.085 C  
HETATM   11  C   UNL     1     -11.008   7.402  71.820  1.00  0.00    -0.264 A  
HETATM   12  H   UNL     1      -8.268  10.415  69.412  1.00  0.00     0.000 HD 
HETATM   13  O   UNL     1      -6.878   8.699  69.841  1.00  0.00    -0.041 OA 
HETATM   14  C   UNL     1      -9.710   7.310  71.336  1.00  0.00    -0.170 A  
HETATM   15  O   UNL     1      -7.569   6.718  70.764  1.00  0.00    -0.088 OA 
BRANCH   4  16
HETATM   16  C   UNL     1     -11.940  10.968  70.699  1.00  0.00    -0.464 C  
BRANCH  16  17
HETATM   17  C   UNL     1     -11.743  11.781  69.459  1.00  0.00    -0.408 C  
HETATM   18  C   UNL     1     -11.988  13.097  69.321  1.00  0.00    -0.344 C  
HETATM   19  C   UNL     1     -12.312  14.016  70.472  1.00  0.00    -0.437 C  
BRANCH  18  20
HETATM   20  C   UNL     1     -12.021  13.767  67.950  1.00  0.00    -0.391 C  
BRANCH  20  21
HETATM   21  C   UNL     1     -11.737  12.867  66.742  1.00  0.00    -0.445 C  
HETATM   22  O   UNL     1     -13.250  12.699  64.866  1.00  0.00    -0.819 OA 
HETATM   23  O   UNL     1     -11.937  14.523  65.014  1.00  0.00    -0.382 OA 
HETATM   24  C   UNL     1     -12.397  13.336  65.466  1.00  0.00    -0.480 C  
ENDBRANCH  20  21
ENDBRANCH  18  20
ENDBRANCH  16  17
ENDBRANCH   4  16
ENDBRANCH   2   3
TORSDOF 5
ENDMDL
MODEL       78
REMARK 921   NORMALIZED FREE ENERGY PREDICTED BY IDOCK:   -5.56 KCAL/MOL
REMARK 922        TOTAL FREE ENERGY PREDICTED BY IDOCK:   -7.45 KCAL/MOL
REMARK 923 INTER-LIGAND FREE ENERGY PREDICTED BY IDOCK:   -6.82 KCAL/MOL
REMARK 924 INTRA-LIGAND FREE ENERGY PREDICTED BY IDOCK:   -0.63 KCAL/MOL
REMARK 927      BINDING AFFINITY PREDICTED BY RF-SCORE:    0.00 PKD
ROOT
HETATM    1  C   UNL     1      -9.409  11.956  67.602  1.00  0.00    -0.183 C  
HETATM    2  O   UNL     1     -10.816  12.154  67.504  1.00  0.00    -0.227 OA 
ENDROOT
BRANCH   2   3
HETATM    3  C   UNL     1     -11.510  12.536  68.631  1.00  0.00    -0.306 A  
HETATM    4  C   UNL     1     -11.950  11.637  69.654  1.00  0.00    -0.390 A  
HETATM    5  C   UNL     1     -12.510  12.199  70.823  1.00  0.00    -0.271 A  
HETATM    6  C   UNL     1     -12.407  15.828  70.393  1.00  0.00    -0.333 C  
HETATM    7  O   UNL     1     -13.032  11.444  71.830  1.00  0.00    -0.459 OA 
HETATM    8  C   UNL     1     -11.203  14.870  67.676  1.00  0.00    -0.330 C  
HETATM    9  C   UNL     1     -12.577  13.579  70.962  1.00  0.00    -0.438 A  
HETATM   10  C   UNL     1     -13.038  14.377  72.101  1.00  0.00    -0.366 C  
HETATM   11  C   UNL     1     -11.624  13.943  68.782  1.00  0.00    -0.370 A  
HETATM   12  H   UNL     1     -13.408  11.822  72.616  1.00  0.00     0.000 HD 
HETATM   13  O   UNL     1     -13.413  13.997  73.192  1.00  0.00    -0.593 OA 
HETATM   14  C   UNL     1     -12.161  14.436  69.964  1.00  0.00    -0.408 A  
HETATM   15  O   UNL     1     -12.922  15.690  71.727  1.00  0.00    -0.422 OA 
BRANCH   4  16
HETATM   16  C   UNL     1     -11.905  10.150  69.392  1.00  0.00    -0.028 C  
BRANCH  16  17
HETATM   17  C   UNL     1     -10.861   9.288  70.026  1.00  0.00    -0.264 C  
HETATM   18  C   UNL     1     -10.172   8.299  69.429  1.00  0.00    -0.204 C  
HETATM   19  C   UNL     1     -10.201   8.034  67.944  1.00  0.00    -0.267 C  
BRANCH  18  20
HETATM   20  C   UNL     1      -9.339   7.303  70.232  1.00  0.00    -0.158 C  
BRANCH  20  21
HETATM   21  C   UNL     1      -9.841   6.971  71.642  1.00  0.00    -0.169 C  
HETATM   22  O   UNL     1      -8.340   6.592  73.497  1.00  0.00    -0.117 OA 
HETATM   23  O   UNL     1      -8.706   8.716  72.840  1.00  0.00    -0.384 OA 
HETATM   24  C   UNL     1      -8.886   7.381  72.739  1.00  0.00    -0.131 C  
ENDBRANCH  20  21
ENDBRANCH  18  20
ENDBRANCH  16  17
ENDBRANCH   4  16
ENDBRANCH   2   3
TORSDOF 5
ENDMDL
MODEL       79
REMARK 921   NORMALIZED FREE ENERGY PREDICTED BY IDOCK:   -5.56 KCAL/MOL
REMARK 922        TOTAL FREE ENERGY PREDICTED BY IDOCK:   -7.44 KCAL/MOL
REMARK 923 INTER-LIGAND FREE ENERGY PREDICTED BY IDOCK:   -6.92 KCAL/MOL
REMARK 924 INTRA-LIGAND FREE ENERGY PREDICTED BY IDOCK:   -0.53 KCAL/MOL
REMARK 927      BINDING AFFINITY PREDICTED BY RF-SCORE:    0.00 PKD
ROOT
HETATM    1  C   UNL     1     -14.029   9.965  71.487  1.00  0.00     0.087 C  
HETATM    2  O   UNL     1     -12.923  10.749  71.921  1.00  0.00    -0.462 OA 
ENDROOT
BRANCH   2   3
HETATM    3  C   UNL     1     -12.350  11.632  71.033  1.00  0.00    -0.301 A  
HETATM    4  C   UNL     1     -11.621  11.246  69.863  1.00  0.00    -0.413 A  
HETATM    5  C   UNL     1     -11.231  12.266  68.968  1.00  0.00    -0.265 A  
HETATM    6  C   UNL     1     -12.473  15.410  70.358  1.00  0.00    -0.404 C  
HETATM    7  O   UNL     1     -10.469  12.029  67.862  1.00  0.00    -0.193 OA 
HETATM    8  C   UNL     1     -13.397  13.384  72.545  1.00  0.00    -0.588 C  
HETATM    9  C   UNL     1     -11.593  13.582  69.220  1.00  0.00    -0.369 A  
HETATM   10  C   UNL     1     -11.371  14.781  68.406  1.00  0.00    -0.299 C  
HETATM   11  C   UNL     1     -12.676  12.990  71.287  1.00  0.00    -0.385 A  
HETATM   12  H   UNL     1     -10.207  12.715  67.260  1.00  0.00     0.000 HD 
HETATM   13  O   UNL     1     -10.864  14.867  67.306  1.00  0.00    -0.291 OA 
HETATM   14  C   UNL     1     -12.284  13.945  70.358  1.00  0.00    -0.438 A  
HETATM   15  O   UNL     1     -11.901  15.830  69.109  1.00  0.00    -0.381 OA 
BRANCH   4  16
HETATM   16  C   UNL     1     -11.208   9.802  69.700  1.00  0.00    -0.216 C  
BRANCH  16  17
HETATM   17  C   UNL     1     -10.361   9.123  70.729  1.00  0.00    -0.323 C  
HETATM   18  C   UNL     1     -10.640   7.964  71.354  1.00  0.00    -0.246 C  
HETATM   19  C   UNL     1     -11.774   7.050  70.961  1.00  0.00    -0.375 C  
BRANCH  18  20
HETATM   20  C   UNL     1      -9.855   7.505  72.580  1.00  0.00    -0.226 C  
BRANCH  20  21
HETATM   21  C   UNL     1      -8.361   7.228  72.371  1.00  0.00    -0.122 C  
HETATM   22  O   UNL     1      -6.775   8.982  71.878  1.00  0.00    -0.229 OA 
HETATM   23  O   UNL     1      -7.488   8.760  74.003  1.00  0.00    -0.404 OA 
HETATM   24  C   UNL     1      -7.474   8.407  72.699  1.00  0.00    -0.074 C  
ENDBRANCH  20  21
ENDBRANCH  18  20
ENDBRANCH  16  17
ENDBRANCH   4  16
ENDBRANCH   2   3
TORSDOF 5
ENDMDL
MODEL       80
REMARK 921   NORMALIZED FREE ENERGY PREDICTED BY IDOCK:   -5.56 KCAL/MOL
REMARK 922        TOTAL FREE ENERGY PREDICTED BY IDOCK:   -7.44 KCAL/MOL
REMARK 923 INTER-LIGAND FREE ENERGY PREDICTED BY IDOCK:   -7.48 KCAL/MOL
REMARK 924 INTRA-LIGAND FREE ENERGY PREDICTED BY IDOCK:    0.04 KCAL/MOL
REMARK 927      BINDING AFFINITY PREDICTED BY RF-SCORE:    0.00 PKD
ROOT
HETATM    1  C   UNL     1     -10.457  16.633  69.307  1.00  0.00    -0.333 C  
HETATM    2  O   UNL     1     -11.762  16.082  69.165  1.00  0.00    -0.358 OA 
ENDROOT
BRANCH   2   3
HETATM    3  C   UNL     1     -11.939  14.735  69.387  1.00  0.00    -0.303 A  
HETATM    4  C   UNL     1     -11.323  13.699  68.615  1.00  0.00    -0.321 A  
HETATM    5  C   UNL     1     -11.476  12.368  69.063  1.00  0.00    -0.300 A  
HETATM    6  C   UNL     1     -13.464  12.519  72.127  1.00  0.00    -0.422 C  
HETATM    7  O   UNL     1     -11.000  11.295  68.372  1.00  0.00    -0.188 OA 
HETATM    8  C   UNL     1     -13.358  15.536  71.335  1.00  0.00    -0.592 C  
HETATM    9  C   UNL     1     -12.168  12.111  70.239  1.00  0.00    -0.344 A  
HETATM   10  C   UNL     1     -12.385  10.837  70.931  1.00  0.00    -0.396 C  
HETATM   11  C   UNL     1     -12.675  14.442  70.565  1.00  0.00    -0.401 A  
HETATM   12  H   UNL     1     -11.102  10.400  68.673  1.00  0.00     0.000 HD 
HETATM   13  O   UNL     1     -11.957   9.738  70.646  1.00  0.00    -0.277 OA 
HETATM   14  C   UNL     1     -12.770  13.116  70.968  1.00  0.00    -0.361 A  
HETATM   15  O   UNL     1     -13.149  11.120  72.032  1.00  0.00    -0.492 OA 
BRANCH   4  16
HETATM   16  C   UNL     1     -10.647  14.059  67.312  1.00  0.00    -0.273 C  
BRANCH  16  17
HETATM   17  C   UNL     1     -10.614  13.095  66.170  1.00  0.00    -0.288 C  
HETATM   18  C   UNL     1     -11.579  12.914  65.249  1.00  0.00    -0.376 C  
HETATM   19  C   UNL     1     -12.780  13.815  65.105  1.00  0.00    -0.439 C  
BRANCH  18  20
HETATM   20  C   UNL     1     -11.567  11.719  64.299  1.00  0.00    -0.361 C  
BRANCH  20  21
HETATM   21  C   UNL     1     -10.267  11.473  63.525  1.00  0.00    -0.462 C  
HETATM   22  O   UNL     1      -8.161  11.048  64.630  1.00  0.00     0.086 OA 
HETATM   23  O   UNL     1      -9.660   9.371  64.516  1.00  0.00    -0.051 OA 
HETATM   24  C   UNL     1      -9.259  10.639  64.281  1.00  0.00    -0.233 C  
ENDBRANCH  20  21
ENDBRANCH  18  20
ENDBRANCH  16  17
ENDBRANCH   4  16
ENDBRANCH   2   3
TORSDOF 5
ENDMDL
MODEL       81
REMARK 921   NORMALIZED FREE ENERGY PREDICTED BY IDOCK:   -5.52 KCAL/MOL
REMARK 922        TOTAL FREE ENERGY PREDICTED BY IDOCK:   -7.40 KCAL/MOL
REMARK 923 INTER-LIGAND FREE ENERGY PREDICTED BY IDOCK:   -6.69 KCAL/MOL
REMARK 924 INTRA-LIGAND FREE ENERGY PREDICTED BY IDOCK:   -0.70 KCAL/MOL
REMARK 927      BINDING AFFINITY PREDICTED BY RF-SCORE:    0.00 PKD
ROOT
HETATM    1  C   UNL     1     -11.290  14.721  66.093  1.00  0.00    -0.330 C  
HETATM    2  O   UNL     1     -10.592  14.271  67.250  1.00  0.00    -0.274 OA 
ENDROOT
BRANCH   2   3
HETATM    3  C   UNL     1     -11.287  13.568  68.209  1.00  0.00    -0.294 A  
HETATM    4  C   UNL     1     -11.518  12.156  68.169  1.00  0.00    -0.375 A  
HETATM    5  C   UNL     1     -12.110  11.557  69.303  1.00  0.00    -0.278 A  
HETATM    6  C   UNL     1     -12.653  14.230  71.736  1.00  0.00    -0.337 C  
HETATM    7  O   UNL     1     -12.446  10.237  69.351  1.00  0.00    -0.605 OA 
HETATM    8  C   UNL     1     -11.433  15.832  69.351  1.00  0.00    -0.357 C  
HETATM    9  C   UNL     1     -12.406  12.330  70.417  1.00  0.00    -0.309 A  
HETATM   10  C   UNL     1     -12.944  11.919  71.717  1.00  0.00    -0.350 C  
HETATM   11  C   UNL     1     -11.635  14.343  69.346  1.00  0.00    -0.349 A  
HETATM   12  H   UNL     1     -12.844   9.833  70.114  1.00  0.00     0.000 HD 
HETATM   13  O   UNL     1     -13.196  10.800  72.115  1.00  0.00    -0.473 OA 
HETATM   14  C   UNL     1     -12.192  13.692  70.439  1.00  0.00    -0.434 A  
HETATM   15  O   UNL     1     -13.073  13.063  72.461  1.00  0.00    -0.367 OA 
BRANCH   4  16
HETATM   16  C   UNL     1     -11.230  11.402  66.892  1.00  0.00    -0.331 C  
BRANCH  16  17
HETATM   17  C   UNL     1      -9.861  10.877  66.600  1.00  0.00    -0.237 C  
HETATM   18  C   UNL     1      -9.437   9.611  66.775  1.00  0.00    -0.209 C  
HETATM   19  C   UNL     1     -10.351   8.459  67.109  1.00  0.00    -0.381 C  
BRANCH  18  20
HETATM   20  C   UNL     1      -7.956   9.246  66.713  1.00  0.00    -0.108 C  
BRANCH  20  21
HETATM   21  C   UNL     1      -6.964  10.333  67.141  1.00  0.00    -0.088 C  
HETATM   22  O   UNL     1      -7.192  11.551  69.215  1.00  0.00    -0.110 OA 
HETATM   23  O   UNL     1      -6.382   9.451  69.297  1.00  0.00    -0.044 OA 
HETATM   24  C   UNL     1      -6.877  10.520  68.638  1.00  0.00    -0.054 C  
ENDBRANCH  20  21
ENDBRANCH  18  20
ENDBRANCH  16  17
ENDBRANCH   4  16
ENDBRANCH   2   3
TORSDOF 5
ENDMDL
MODEL       82
REMARK 921   NORMALIZED FREE ENERGY PREDICTED BY IDOCK:   -5.52 KCAL/MOL
REMARK 922        TOTAL FREE ENERGY PREDICTED BY IDOCK:   -7.40 KCAL/MOL
REMARK 923 INTER-LIGAND FREE ENERGY PREDICTED BY IDOCK:   -6.90 KCAL/MOL
REMARK 924 INTRA-LIGAND FREE ENERGY PREDICTED BY IDOCK:   -0.49 KCAL/MOL
REMARK 927      BINDING AFFINITY PREDICTED BY RF-SCORE:    0.00 PKD
ROOT
HETATM    1  C   UNL     1      -9.230  10.281  66.750  1.00  0.00    -0.157 C  
HETATM    2  O   UNL     1      -9.022  11.016  67.951  1.00  0.00    -0.138 OA 
ENDROOT
BRANCH   2   3
HETATM    3  C   UNL     1      -9.749  10.675  69.069  1.00  0.00    -0.202 A  
HETATM    4  C   UNL     1     -11.129  11.000  69.268  1.00  0.00    -0.312 A  
HETATM    5  C   UNL     1     -11.778  10.445  70.393  1.00  0.00    -0.331 A  
HETATM    6  C   UNL     1      -9.297   8.393  72.124  1.00  0.00    -0.269 C  
HETATM    7  O   UNL     1     -13.065  10.743  70.727  1.00  0.00    -0.308 OA 
HETATM    8  C   UNL     1      -7.592   9.533  69.771  1.00  0.00    -0.110 C  
HETATM    9  C   UNL     1     -11.086   9.585  71.234  1.00  0.00    -0.449 A  
HETATM   10  C   UNL     1     -11.566   8.839  72.401  1.00  0.00    -0.250 C  
HETATM   11  C   UNL     1      -9.054   9.823  69.966  1.00  0.00    -0.258 A  
HETATM   12  H   UNL     1     -13.502  10.369  71.483  1.00  0.00     0.000 HD 
HETATM   13  O   UNL     1     -12.692   8.776  72.850  1.00  0.00    -0.306 OA 
HETATM   14  C   UNL     1      -9.752   9.289  71.041  1.00  0.00    -0.341 A  
HETATM   15  O   UNL     1     -10.487   8.154  72.893  1.00  0.00    -0.340 OA 
BRANCH   4  16
HETATM   16  C   UNL     1     -11.787  11.999  68.345  1.00  0.00    -0.360 C  
BRANCH  16  17
HETATM   17  C   UNL     1     -11.701  13.468  68.612  1.00  0.00    -0.389 C  
HETATM   18  C   UNL     1     -11.883  14.454  67.715  1.00  0.00    -0.402 C  
HETATM   19  C   UNL     1     -12.411  14.233  66.319  1.00  0.00    -0.399 C  
BRANCH  18  20
HETATM   20  C   UNL     1     -11.499  15.899  68.023  1.00  0.00    -0.236 C  
BRANCH  20  21
HETATM   21  C   UNL     1     -10.026  16.274  67.819  1.00  0.00    -0.246 C  
HETATM   22  O   UNL     1      -8.715  15.423  65.978  1.00  0.00    -0.224 OA 
HETATM   23  O   UNL     1     -10.177  17.085  65.564  1.00  0.00    -0.589 OA 
HETATM   24  C   UNL     1      -9.573  16.195  66.380  1.00  0.00    -0.287 C  
ENDBRANCH  20  21
ENDBRANCH  18  20
ENDBRANCH  16  17
ENDBRANCH   4  16
ENDBRANCH   2   3
TORSDOF 5
ENDMDL
MODEL       83
REMARK 921   NORMALIZED FREE ENERGY PREDICTED BY IDOCK:   -5.50 KCAL/MOL
REMARK 922        TOTAL FREE ENERGY PREDICTED BY IDOCK:   -7.37 KCAL/MOL
REMARK 923 INTER-LIGAND FREE ENERGY PREDICTED BY IDOCK:   -6.93 KCAL/MOL
REMARK 924 INTRA-LIGAND FREE ENERGY PREDICTED BY IDOCK:   -0.43 KCAL/MOL
REMARK 927      BINDING AFFINITY PREDICTED BY RF-SCORE:    0.00 PKD
ROOT
HETATM    1  C   UNL     1      -7.471  11.657  67.313  1.00  0.00    -0.143 C  
HETATM    2  O   UNL     1      -8.853  11.478  67.603  1.00  0.00    -0.146 OA 
ENDROOT
BRANCH   2   3
HETATM    3  C   UNL     1      -9.776  12.234  66.915  1.00  0.00    -0.212 A  
HETATM    4  C   UNL     1     -10.114  13.588  67.233  1.00  0.00    -0.235 A  
HETATM    5  C   UNL     1     -10.961  14.279  66.339  1.00  0.00    -0.311 A  
HETATM    6  C   UNL     1     -11.731  11.960  63.621  1.00  0.00    -0.474 C  
HETATM    7  O   UNL     1     -11.411  15.544  66.575  1.00  0.00    -0.185 OA 
HETATM    8  C   UNL     1      -9.945  10.167  65.448  1.00  0.00    -0.377 C  
HETATM    9  C   UNL     1     -11.398  13.655  65.180  1.00  0.00    -0.319 A  
HETATM   10  C   UNL     1     -12.208  14.192  64.082  1.00  0.00    -0.390 C  
HETATM   11  C   UNL     1     -10.268  11.605  65.741  1.00  0.00    -0.281 A  
HETATM   12  H   UNL     1     -11.980  16.010  65.974  1.00  0.00     0.000 HD 
HETATM   13  O   UNL     1     -12.625  15.322  63.931  1.00  0.00    -0.765 OA 
HETATM   14  C   UNL     1     -11.077  12.345  64.889  1.00  0.00    -0.344 A  
HETATM   15  O   UNL     1     -12.379  13.167  63.190  1.00  0.00    -0.677 OA 
BRANCH   4  16
HETATM   16  C   UNL     1      -9.652  14.168  68.549  1.00  0.00    -0.214 C  
BRANCH  16  17
HETATM   17  C   UNL     1      -8.738  15.351  68.591  1.00  0.00    -0.191 C  
HETATM   18  C   UNL     1      -7.493  15.380  69.103  1.00  0.00    -0.189 C  
HETATM   19  C   UNL     1      -6.736  14.151  69.540  1.00  0.00    -0.112 C  
BRANCH  18  20
HETATM   20  C   UNL     1      -6.758  16.695  69.348  1.00  0.00    -0.218 C  
BRANCH  20  21
HETATM   21  C   UNL     1      -6.765  17.708  68.197  1.00  0.00    -0.205 C  
HETATM   22  O   UNL     1      -8.676  19.104  67.711  1.00  0.00    -0.290 OA 
HETATM   23  O   UNL     1      -7.364  19.665  69.453  1.00  0.00    -0.337 OA 
HETATM   24  C   UNL     1      -7.706  18.870  68.417  1.00  0.00    -0.319 C  
ENDBRANCH  20  21
ENDBRANCH  18  20
ENDBRANCH  16  17
ENDBRANCH   4  16
ENDBRANCH   2   3
TORSDOF 5
ENDMDL
MODEL       84
REMARK 921   NORMALIZED FREE ENERGY PREDICTED BY IDOCK:   -5.48 KCAL/MOL
REMARK 922        TOTAL FREE ENERGY PREDICTED BY IDOCK:   -7.35 KCAL/MOL
REMARK 923 INTER-LIGAND FREE ENERGY PREDICTED BY IDOCK:   -7.12 KCAL/MOL
REMARK 924 INTRA-LIGAND FREE ENERGY PREDICTED BY IDOCK:   -0.23 KCAL/MOL
REMARK 927      BINDING AFFINITY PREDICTED BY RF-SCORE:    0.00 PKD
ROOT
HETATM    1  C   UNL     1      -8.744   9.421  70.046  1.00  0.00    -0.210 C  
HETATM    2  O   UNL     1     -10.046   9.361  69.472  1.00  0.00    -0.186 OA 
ENDROOT
BRANCH   2   3
HETATM    3  C   UNL     1     -11.040  10.153  70.005  1.00  0.00    -0.308 A  
HETATM    4  C   UNL     1     -11.906   9.756  71.073  1.00  0.00    -0.442 A  
HETATM    5  C   UNL     1     -12.769  10.734  71.615  1.00  0.00    -0.414 A  
HETATM    6  C   UNL     1     -12.114  13.833  69.790  1.00  0.00    -0.340 C  
HETATM    7  O   UNL     1     -13.690  10.456  72.580  1.00  0.00    -0.544 OA 
HETATM    8  C   UNL     1     -10.160  11.869  68.352  1.00  0.00    -0.206 C  
HETATM    9  C   UNL     1     -12.724  12.036  71.136  1.00  0.00    -0.365 A  
HETATM   10  C   UNL     1     -13.458  13.220  71.590  1.00  0.00    -0.269 C  
HETATM   11  C   UNL     1     -11.040  11.482  69.507  1.00  0.00    -0.256 A  
HETATM   12  H   UNL     1     -14.270  11.114  72.945  1.00  0.00     0.000 HD 
HETATM   13  O   UNL     1     -14.228  13.323  72.523  1.00  0.00    -0.697 OA 
HETATM   14  C   UNL     1     -11.894  12.405  70.097  1.00  0.00    -0.341 A  
HETATM   15  O   UNL     1     -13.072  14.252  70.775  1.00  0.00    -0.343 OA 
BRANCH   4  16
HETATM   16  C   UNL     1     -11.942   8.303  71.486  1.00  0.00    -0.335 C  
BRANCH  16  17
HETATM   17  C   UNL     1     -11.745   7.212  70.483  1.00  0.00    -0.314 C  
HETATM   18  C   UNL     1     -10.813   6.242  70.530  1.00  0.00    -0.348 C  
HETATM   19  C   UNL     1      -9.933   5.982  71.727  1.00  0.00    -0.199 C  
BRANCH  18  20
HETATM   20  C   UNL     1     -10.520   5.353  69.325  1.00  0.00    -0.309 C  
BRANCH  20  21
HETATM   21  C   UNL     1     -10.985   5.874  67.961  1.00  0.00    -0.252 C  
HETATM   22  O   UNL     1      -9.602   7.285  66.571  1.00  0.00    -0.180 OA 
HETATM   23  O   UNL     1      -9.147   5.080  66.634  1.00  0.00    -0.117 OA 
HETATM   24  C   UNL     1      -9.853   6.170  67.005  1.00  0.00    -0.149 C  
ENDBRANCH  20  21
ENDBRANCH  18  20
ENDBRANCH  16  17
ENDBRANCH   4  16
ENDBRANCH   2   3
TORSDOF 5
ENDMDL
MODEL       85
REMARK 921   NORMALIZED FREE ENERGY PREDICTED BY IDOCK:   -5.47 KCAL/MOL
REMARK 922        TOTAL FREE ENERGY PREDICTED BY IDOCK:   -7.34 KCAL/MOL
REMARK 923 INTER-LIGAND FREE ENERGY PREDICTED BY IDOCK:   -6.76 KCAL/MOL
REMARK 924 INTRA-LIGAND FREE ENERGY PREDICTED BY IDOCK:   -0.57 KCAL/MOL
REMARK 927      BINDING AFFINITY PREDICTED BY RF-SCORE:    0.00 PKD
ROOT
HETATM    1  C   UNL     1     -10.085  15.515  68.442  1.00  0.00    -0.214 C  
HETATM    2  O   UNL     1     -11.462  15.168  68.336  1.00  0.00    -0.304 OA 
ENDROOT
BRANCH   2   3
HETATM    3  C   UNL     1     -11.875  13.948  68.825  1.00  0.00    -0.361 A  
HETATM    4  C   UNL     1     -11.621  12.692  68.186  1.00  0.00    -0.386 A  
HETATM    5  C   UNL     1     -11.970  11.518  68.888  1.00  0.00    -0.299 A  
HETATM    6  C   UNL     1     -13.357  12.590  72.096  1.00  0.00    -0.435 C  
HETATM    7  O   UNL     1     -11.846  10.271  68.352  1.00  0.00    -0.709 OA 
HETATM    8  C   UNL     1     -12.760  15.344  70.754  1.00  0.00    -0.516 C  
HETATM    9  C   UNL     1     -12.500  11.610  70.168  1.00  0.00    -0.209 A  
HETATM   10  C   UNL     1     -12.860  10.542  71.105  1.00  0.00    -0.416 C  
HETATM   11  C   UNL     1     -12.453  14.016  70.119  1.00  0.00    -0.380 A  
HETATM   12  H   UNL     1     -12.081   9.481  68.825  1.00  0.00     0.000 HD 
HETATM   13  O   UNL     1     -12.720   9.342  70.977  1.00  0.00    -0.287 OA 
HETATM   14  C   UNL     1     -12.753  12.826  70.769  1.00  0.00    -0.217 A  
HETATM   15  O   UNL     1     -13.358  11.158  72.222  1.00  0.00    -0.394 OA 
BRANCH   4  16
HETATM   16  C   UNL     1     -11.107  12.683  66.765  1.00  0.00    -0.318 C  
BRANCH  16  17
HETATM   17  C   UNL     1      -9.665  12.421  66.469  1.00  0.00    -0.245 C  
HETATM   18  C   UNL     1      -9.155  11.308  65.910  1.00  0.00    -0.217 C  
HETATM   19  C   UNL     1      -9.995  10.214  65.299  1.00  0.00    -0.381 C  
BRANCH  18  20
HETATM   20  C   UNL     1      -7.654  11.027  65.910  1.00  0.00     0.007 C  
BRANCH  20  21
HETATM   21  C   UNL     1      -7.180   9.844  65.059  1.00  0.00    -0.135 C  
HETATM   22  O   UNL     1      -6.833  10.019  62.674  1.00  0.00    -0.114 OA 
HETATM   23  O   UNL     1      -5.267  10.883  64.044  1.00  0.00    -0.144 OA 
HETATM   24  C   UNL     1      -6.439  10.254  63.807  1.00  0.00    -0.090 C  
ENDBRANCH  20  21
ENDBRANCH  18  20
ENDBRANCH  16  17
ENDBRANCH   4  16
ENDBRANCH   2   3
TORSDOF 5
ENDMDL
MODEL       86
REMARK 921   NORMALIZED FREE ENERGY PREDICTED BY IDOCK:   -5.47 KCAL/MOL
REMARK 922        TOTAL FREE ENERGY PREDICTED BY IDOCK:   -7.34 KCAL/MOL
REMARK 923 INTER-LIGAND FREE ENERGY PREDICTED BY IDOCK:   -6.74 KCAL/MOL
REMARK 924 INTRA-LIGAND FREE ENERGY PREDICTED BY IDOCK:   -0.59 KCAL/MOL
REMARK 927      BINDING AFFINITY PREDICTED BY RF-SCORE:    0.00 PKD
ROOT
HETATM    1  C   UNL     1      -9.468  11.316  65.180  1.00  0.00    -0.215 C  
HETATM    2  O   UNL     1      -9.119  11.712  66.502  1.00  0.00    -0.187 OA 
ENDROOT
BRANCH   2   3
HETATM    3  C   UNL     1      -9.681  11.039  67.564  1.00  0.00    -0.172 A  
HETATM    4  C   UNL     1     -11.012  11.251  68.044  1.00  0.00    -0.302 A  
HETATM    5  C   UNL     1     -11.498  10.374  69.039  1.00  0.00    -0.193 A  
HETATM    6  C   UNL     1      -8.820   7.981  69.721  1.00  0.00    -0.144 C  
HETATM    7  O   UNL     1     -12.719  10.523  69.626  1.00  0.00    -0.604 OA 
HETATM    8  C   UNL     1      -7.460   9.806  67.585  1.00  0.00    -0.091 C  
HETATM    9  C   UNL     1     -10.702   9.327  69.484  1.00  0.00    -0.236 A  
HETATM   10  C   UNL     1     -11.018   8.260  70.439  1.00  0.00    -0.239 C  
HETATM   11  C   UNL     1      -8.873   9.984  68.063  1.00  0.00    -0.125 A  
HETATM   12  H   UNL     1     -13.046   9.933  70.294  1.00  0.00     0.000 HD 
HETATM   13  O   UNL     1     -12.067   8.036  71.006  1.00  0.00    -0.292 OA 
HETATM   14  C   UNL     1      -9.415   9.140  69.024  1.00  0.00    -0.152 A  
HETATM   15  O   UNL     1      -9.888   7.493  70.549  1.00  0.00    -0.183 OA 
BRANCH   4  16
HETATM   16  C   UNL     1     -11.784  12.455  67.557  1.00  0.00    -0.425 C  
BRANCH  16  17
HETATM   17  C   UNL     1     -12.009  13.637  68.446  1.00  0.00    -0.391 C  
HETATM   18  C   UNL     1     -11.394  14.830  68.359  1.00  0.00    -0.317 C  
HETATM   19  C   UNL     1     -10.510  15.237  67.206  1.00  0.00    -0.275 C  
BRANCH  18  20
HETATM   20  C   UNL     1     -11.489  15.865  69.477  1.00  0.00    -0.342 C  
BRANCH  20  21
HETATM   21  C   UNL     1     -11.266  15.353  70.905  1.00  0.00    -0.397 C  
HETATM   22  O   UNL     1     -11.932  16.615  72.853  1.00  0.00    -0.512 OA 
HETATM   23  O   UNL     1     -13.527  15.523  71.697  1.00  0.00    -0.467 OA 
HETATM   24  C   UNL     1     -12.250  15.907  71.909  1.00  0.00    -0.483 C  
ENDBRANCH  20  21
ENDBRANCH  18  20
ENDBRANCH  16  17
ENDBRANCH   4  16
ENDBRANCH   2   3
TORSDOF 5
ENDMDL
MODEL       87
REMARK 921   NORMALIZED FREE ENERGY PREDICTED BY IDOCK:   -5.46 KCAL/MOL
REMARK 922        TOTAL FREE ENERGY PREDICTED BY IDOCK:   -7.32 KCAL/MOL
REMARK 923 INTER-LIGAND FREE ENERGY PREDICTED BY IDOCK:   -6.80 KCAL/MOL
REMARK 924 INTRA-LIGAND FREE ENERGY PREDICTED BY IDOCK:   -0.51 KCAL/MOL
REMARK 927      BINDING AFFINITY PREDICTED BY RF-SCORE:    0.00 PKD
ROOT
HETATM    1  C   UNL     1     -12.225  13.743  66.547  1.00  0.00    -0.430 C  
HETATM    2  O   UNL     1     -12.169  12.339  66.315  1.00  0.00    -0.628 OA 
ENDROOT
BRANCH   2   3
HETATM    3  C   UNL     1     -11.045  11.648  66.711  1.00  0.00    -0.309 A  
HETATM    4  C   UNL     1     -10.829  11.142  68.033  1.00  0.00    -0.274 A  
HETATM    5  C   UNL     1      -9.701  10.319  68.243  1.00  0.00    -0.142 A  
HETATM    6  C   UNL     1      -8.014  10.011  65.014  1.00  0.00    -0.143 C  
HETATM    7  O   UNL     1      -9.350   9.843  69.470  1.00  0.00    -0.193 OA 
HETATM    8  C   UNL     1     -10.377  11.912  64.275  1.00  0.00    -0.362 C  
HETATM    9  C   UNL     1      -8.874   9.995  67.175  1.00  0.00    -0.142 A  
HETATM   10  C   UNL     1      -7.708   9.108  67.138  1.00  0.00    -0.098 C  
HETATM   11  C   UNL     1     -10.164  11.332  65.644  1.00  0.00    -0.304 A  
HETATM   12  H   UNL     1      -8.592   9.289  69.612  1.00  0.00     0.000 HD 
HETATM   13  O   UNL     1      -7.247   8.424  68.029  1.00  0.00    -0.087 OA 
HETATM   14  C   UNL     1      -9.085  10.498  65.908  1.00  0.00    -0.192 A  
HETATM   15  O   UNL     1      -7.234   9.146  65.854  1.00  0.00    -0.090 OA 
BRANCH   4  16
HETATM   16  C   UNL     1     -11.736  11.600  69.150  1.00  0.00    -0.390 C  
BRANCH  16  17
HETATM   17  C   UNL     1     -12.451  10.613  70.016  1.00  0.00    -0.294 C  
HETATM   18  C   UNL     1     -12.915  10.830  71.261  1.00  0.00    -0.502 C  
HETATM   19  C   UNL     1     -12.966  12.190  71.911  1.00  0.00    -0.419 C  
BRANCH  18  20
HETATM   20  C   UNL     1     -13.374   9.684  72.157  1.00  0.00    -0.545 C  
BRANCH  20  21
HETATM   21  C   UNL     1     -12.987   8.269  71.712  1.00  0.00    -0.367 C  
HETATM   22  O   UNL     1     -10.763   7.715  70.946  1.00  0.00    -0.229 OA 
HETATM   23  O   UNL     1     -11.099   7.948  73.161  1.00  0.00    -0.382 OA 
HETATM   24  C   UNL     1     -11.516   7.962  71.877  1.00  0.00    -0.280 C  
ENDBRANCH  20  21
ENDBRANCH  18  20
ENDBRANCH  16  17
ENDBRANCH   4  16
ENDBRANCH   2   3
TORSDOF 5
ENDMDL
MODEL       88
REMARK 921   NORMALIZED FREE ENERGY PREDICTED BY IDOCK:   -5.45 KCAL/MOL
REMARK 922        TOTAL FREE ENERGY PREDICTED BY IDOCK:   -7.30 KCAL/MOL
REMARK 923 INTER-LIGAND FREE ENERGY PREDICTED BY IDOCK:   -6.98 KCAL/MOL
REMARK 924 INTRA-LIGAND FREE ENERGY PREDICTED BY IDOCK:   -0.32 KCAL/MOL
REMARK 927      BINDING AFFINITY PREDICTED BY RF-SCORE:    0.00 PKD
ROOT
HETATM    1  C   UNL     1     -11.303   4.718  73.256  1.00  0.00    -0.322 C  
HETATM    2  O   UNL     1     -10.292   5.319  72.455  1.00  0.00    -0.187 OA 
ENDROOT
BRANCH   2   3
HETATM    3  C   UNL     1     -10.356   5.171  71.087  1.00  0.00    -0.206 A  
HETATM    4  C   UNL     1     -11.026   6.078  70.205  1.00  0.00    -0.412 A  
HETATM    5  C   UNL     1     -10.870   5.876  68.816  1.00  0.00    -0.283 A  
HETATM    6  C   UNL     1      -8.680   2.977  68.419  1.00  0.00    -0.102 C  
HETATM    7  O   UNL     1     -11.519   6.628  67.882  1.00  0.00    -0.614 OA 
HETATM    8  C   UNL     1      -8.905   3.134  71.529  1.00  0.00    -0.130 C  
HETATM    9  C   UNL     1     -10.056   4.852  68.355  1.00  0.00    -0.148 A  
HETATM   10  C   UNL     1      -9.687   4.504  66.979  1.00  0.00    -0.202 C  
HETATM   11  C   UNL     1      -9.560   4.108  70.589  1.00  0.00    -0.264 A  
HETATM   12  H   UNL     1     -11.414   6.492  66.948  1.00  0.00     0.000 HD 
HETATM   13  O   UNL     1      -9.978   5.077  65.949  1.00  0.00    -0.179 OA 
HETATM   14  C   UNL     1      -9.426   3.975  69.213  1.00  0.00    -0.260 A  
HETATM   15  O   UNL     1      -8.881   3.400  67.061  1.00  0.00    -0.115 OA 
BRANCH   4  16
HETATM   16  C   UNL     1     -11.948   7.123  70.790  1.00  0.00    -0.352 C  
BRANCH  16  17
HETATM   17  C   UNL     1     -11.623   8.579  70.692  1.00  0.00    -0.214 C  
HETATM   18  C   UNL     1     -12.329   9.592  71.226  1.00  0.00    -0.449 C  
HETATM   19  C   UNL     1     -13.468   9.401  72.196  1.00  0.00    -0.543 C  
BRANCH  18  20
HETATM   20  C   UNL     1     -12.070  11.044  70.834  1.00  0.00    -0.444 C  
BRANCH  20  21
HETATM   21  C   UNL     1     -11.130  11.275  69.645  1.00  0.00    -0.273 C  
HETATM   22  O   UNL     1     -11.944  11.672  67.406  1.00  0.00    -0.621 OA 
HETATM   23  O   UNL     1     -12.029  13.368  68.885  1.00  0.00    -0.330 OA 
HETATM   24  C   UNL     1     -11.744  12.096  68.535  1.00  0.00    -0.330 C  
ENDBRANCH  20  21
ENDBRANCH  18  20
ENDBRANCH  16  17
ENDBRANCH   4  16
ENDBRANCH   2   3
TORSDOF 5
ENDMDL
MODEL       89
REMARK 921   NORMALIZED FREE ENERGY PREDICTED BY IDOCK:   -5.43 KCAL/MOL
REMARK 922        TOTAL FREE ENERGY PREDICTED BY IDOCK:   -7.28 KCAL/MOL
REMARK 923 INTER-LIGAND FREE ENERGY PREDICTED BY IDOCK:   -6.98 KCAL/MOL
REMARK 924 INTRA-LIGAND FREE ENERGY PREDICTED BY IDOCK:   -0.30 KCAL/MOL
REMARK 927      BINDING AFFINITY PREDICTED BY RF-SCORE:    0.00 PKD
ROOT
HETATM    1  C   UNL     1     -12.526  13.743  65.598  1.00  0.00    -0.503 C  
HETATM    2  O   UNL     1     -11.106  13.740  65.499  1.00  0.00    -0.293 OA 
ENDROOT
BRANCH   2   3
HETATM    3  C   UNL     1     -10.379  14.484  66.402  1.00  0.00    -0.293 A  
HETATM    4  C   UNL     1      -9.757  13.950  67.576  1.00  0.00    -0.232 A  
HETATM    5  C   UNL     1      -8.914  14.806  68.318  1.00  0.00    -0.181 A  
HETATM    6  C   UNL     1      -8.890  18.019  66.574  1.00  0.00    -0.258 C  
HETATM    7  O   UNL     1      -8.329  14.434  69.491  1.00  0.00    -0.363 OA 
HETATM    8  C   UNL     1     -10.857  16.384  64.786  1.00  0.00    -0.197 C  
HETATM    9  C   UNL     1      -8.684  16.102  67.875  1.00  0.00    -0.174 A  
HETATM   10  C   UNL     1      -7.800  17.131  68.430  1.00  0.00    -0.244 C  
HETATM   11  C   UNL     1     -10.157  15.824  65.991  1.00  0.00    -0.359 A  
HETATM   12  H   UNL     1      -7.762  15.010  69.990  1.00  0.00     0.000 HD 
HETATM   13  O   UNL     1      -7.037  17.048  69.372  1.00  0.00    -0.225 OA 
HETATM   14  C   UNL     1      -9.299  16.610  66.750  1.00  0.00    -0.262 A  
HETATM   15  O   UNL     1      -7.951  18.238  67.639  1.00  0.00    -0.236 OA 
BRANCH   4  16
HETATM   16  C   UNL     1     -10.116  12.553  68.024  1.00  0.00    -0.220 C  
BRANCH  16  17
HETATM   17  C   UNL     1     -11.233  12.318  68.991  1.00  0.00    -0.319 C  
HETATM   18  C   UNL     1     -11.468  11.185  69.678  1.00  0.00    -0.383 C  
HETATM   19  C   UNL     1     -10.509  10.022  69.734  1.00  0.00    -0.291 C  
BRANCH  18  20
HETATM   20  C   UNL     1     -12.784  10.955  70.418  1.00  0.00    -0.326 C  
BRANCH  20  21
HETATM   21  C   UNL     1     -12.678  10.585  71.902  1.00  0.00    -0.436 C  
HETATM   22  O   UNL     1     -14.371   9.288  73.038  1.00  0.00    -0.382 OA 
HETATM   23  O   UNL     1     -12.926   8.205  71.691  1.00  0.00    -0.324 OA 
HETATM   24  C   UNL     1     -13.422   9.321  72.267  1.00  0.00    -0.482 C  
ENDBRANCH  20  21
ENDBRANCH  18  20
ENDBRANCH  16  17
ENDBRANCH   4  16
ENDBRANCH   2   3
TORSDOF 5
ENDMDL
MODEL       90
REMARK 921   NORMALIZED FREE ENERGY PREDICTED BY IDOCK:   -5.43 KCAL/MOL
REMARK 922        TOTAL FREE ENERGY PREDICTED BY IDOCK:   -7.28 KCAL/MOL
REMARK 923 INTER-LIGAND FREE ENERGY PREDICTED BY IDOCK:   -7.04 KCAL/MOL
REMARK 924 INTRA-LIGAND FREE ENERGY PREDICTED BY IDOCK:   -0.24 KCAL/MOL
REMARK 927      BINDING AFFINITY PREDICTED BY RF-SCORE:    0.00 PKD
ROOT
HETATM    1  C   UNL     1     -11.671  14.378  70.507  1.00  0.00    -0.264 C  
HETATM    2  O   UNL     1     -12.512  13.318  70.065  1.00  0.00    -0.220 OA 
ENDROOT
BRANCH   2   3
HETATM    3  C   UNL     1     -12.003  12.396  69.177  1.00  0.00    -0.240 A  
HETATM    4  C   UNL     1     -11.614  12.696  67.832  1.00  0.00    -0.401 A  
HETATM    5  C   UNL     1     -10.963  11.682  67.097  1.00  0.00    -0.280 A  
HETATM    6  C   UNL     1     -10.681   8.794  69.320  1.00  0.00    -0.151 C  
HETATM    7  O   UNL     1     -10.615  11.825  65.787  1.00  0.00    -0.251 OA 
HETATM    8  C   UNL     1     -12.201  10.812  71.153  1.00  0.00    -0.457 C  
HETATM    9  C   UNL     1     -10.686  10.462  67.699  1.00  0.00    -0.335 A  
HETATM   10  C   UNL     1      -9.961   9.305  67.165  1.00  0.00    -0.216 C  
HETATM   11  C   UNL     1     -11.741  11.128  69.758  1.00  0.00    -0.419 A  
HETATM   12  H   UNL     1     -10.177  11.142  65.292  1.00  0.00     0.000 HD 
HETATM   13  O   UNL     1      -9.402   9.189  66.094  1.00  0.00    -0.190 OA 
HETATM   14  C   UNL     1     -11.076  10.179  68.992  1.00  0.00    -0.249 A  
HETATM   15  O   UNL     1      -9.981   8.350  68.147  1.00  0.00    -0.177 OA 
BRANCH   4  16
HETATM   16  C   UNL     1     -12.017  14.023  67.232  1.00  0.00    -0.448 C  
BRANCH  16  17
HETATM   17  C   UNL     1     -11.120  15.216  67.330  1.00  0.00    -0.325 C  
HETATM   18  C   UNL     1     -10.568  15.886  66.302  1.00  0.00    -0.301 C  
HETATM   19  C   UNL     1     -10.936  15.658  64.857  1.00  0.00    -0.447 C  
BRANCH  18  20
HETATM   20  C   UNL     1      -9.453  16.907  66.516  1.00  0.00    -0.296 C  
BRANCH  20  21
HETATM   21  C   UNL     1      -9.845  18.384  66.395  1.00  0.00    -0.369 C  
HETATM   22  O   UNL     1     -10.277  19.773  68.324  1.00  0.00    -0.425 OA 
HETATM   23  O   UNL     1      -8.134  19.319  67.797  1.00  0.00    -0.273 OA 
HETATM   24  C   UNL     1      -9.466  19.214  67.599  1.00  0.00    -0.304 C  
ENDBRANCH  20  21
ENDBRANCH  18  20
ENDBRANCH  16  17
ENDBRANCH   4  16
ENDBRANCH   2   3
TORSDOF 5
ENDMDL
MODEL       91
REMARK 921   NORMALIZED FREE ENERGY PREDICTED BY IDOCK:   -5.42 KCAL/MOL
REMARK 922        TOTAL FREE ENERGY PREDICTED BY IDOCK:   -7.27 KCAL/MOL
REMARK 923 INTER-LIGAND FREE ENERGY PREDICTED BY IDOCK:   -6.68 KCAL/MOL
REMARK 924 INTRA-LIGAND FREE ENERGY PREDICTED BY IDOCK:   -0.59 KCAL/MOL
REMARK 927      BINDING AFFINITY PREDICTED BY RF-SCORE:    0.00 PKD
ROOT
HETATM    1  C   UNL     1      -5.979  15.109  68.800  1.00  0.00    -0.088 C  
HETATM    2  O   UNL     1      -7.169  15.745  69.255  1.00  0.00    -0.183 OA 
ENDROOT
BRANCH   2   3
HETATM    3  C   UNL     1      -7.882  16.524  68.370  1.00  0.00    -0.187 A  
HETATM    4  C   UNL     1      -8.959  16.046  67.557  1.00  0.00    -0.201 A  
HETATM    5  C   UNL     1      -9.694  16.999  66.818  1.00  0.00    -0.269 A  
HETATM    6  C   UNL     1      -8.235  20.264  67.577  1.00  0.00    -0.310 C  
HETATM    7  O   UNL     1     -10.690  16.657  65.953  1.00  0.00    -0.278 OA 
HETATM    8  C   UNL     1      -6.395  18.383  69.255  1.00  0.00    -0.269 C  
HETATM    9  C   UNL     1      -9.385  18.348  66.930  1.00  0.00    -0.290 A  
HETATM   10  C   UNL     1     -10.049  19.507  66.327  1.00  0.00    -0.468 C  
HETATM   11  C   UNL     1      -7.561  17.905  68.438  1.00  0.00    -0.282 A  
HETATM   12  H   UNL     1     -11.185  17.298  65.456  1.00  0.00     0.000 HD 
HETATM   13  O   UNL     1     -11.049  19.536  65.640  1.00  0.00    -0.318 OA 
HETATM   14  C   UNL     1      -8.335  18.796  67.706  1.00  0.00    -0.293 A  
HETATM   15  O   UNL     1      -9.344  20.610  66.731  1.00  0.00    -0.279 OA 
BRANCH   4  16
HETATM   16  C   UNL     1      -9.184  14.557  67.439  1.00  0.00    -0.202 C  
BRANCH  16  17
HETATM   17  C   UNL     1     -10.071  13.833  68.400  1.00  0.00    -0.241 C  
HETATM   18  C   UNL     1     -11.415  13.767  68.352  1.00  0.00    -0.351 C  
HETATM   19  C   UNL     1     -12.237  14.255  67.185  1.00  0.00    -0.312 C  
BRANCH  18  20
HETATM   20  C   UNL     1     -12.234  13.244  69.528  1.00  0.00    -0.233 C  
BRANCH  20  21
HETATM   21  C   UNL     1     -11.996  13.919  70.883  1.00  0.00    -0.310 C  
HETATM   22  O   UNL     1     -11.570  16.288  71.093  1.00  0.00    -0.427 OA 
HETATM   23  O   UNL     1     -13.690  15.616  70.733  1.00  0.00    -0.490 OA 
HETATM   24  C   UNL     1     -12.371  15.383  70.906  1.00  0.00    -0.398 C  
ENDBRANCH  20  21
ENDBRANCH  18  20
ENDBRANCH  16  17
ENDBRANCH   4  16
ENDBRANCH   2   3
TORSDOF 5
ENDMDL
MODEL       92
REMARK 921   NORMALIZED FREE ENERGY PREDICTED BY IDOCK:   -5.41 KCAL/MOL
REMARK 922        TOTAL FREE ENERGY PREDICTED BY IDOCK:   -7.26 KCAL/MOL
REMARK 923 INTER-LIGAND FREE ENERGY PREDICTED BY IDOCK:   -6.51 KCAL/MOL
REMARK 924 INTRA-LIGAND FREE ENERGY PREDICTED BY IDOCK:   -0.75 KCAL/MOL
REMARK 927      BINDING AFFINITY PREDICTED BY RF-SCORE:    0.00 PKD
ROOT
HETATM    1  C   UNL     1     -12.850  10.541  70.868  1.00  0.00    -0.394 C  
HETATM    2  O   UNL     1     -11.678  11.257  70.490  1.00  0.00    -0.329 OA 
ENDROOT
BRANCH   2   3
HETATM    3  C   UNL     1     -11.417  11.437  69.149  1.00  0.00    -0.299 A  
HETATM    4  C   UNL     1     -10.948  10.408  68.271  1.00  0.00    -0.321 A  
HETATM    5  C   UNL     1     -10.879  10.706  66.892  1.00  0.00    -0.205 A  
HETATM    6  C   UNL     1     -12.060  14.144  66.503  1.00  0.00    -0.454 C  
HETATM    7  O   UNL     1     -10.378   9.835  65.971  1.00  0.00    -0.221 OA 
HETATM    8  C   UNL     1     -12.246  13.795  69.599  1.00  0.00    -0.359 C  
HETATM    9  C   UNL     1     -11.298  11.947  66.431  1.00  0.00    -0.400 A  
HETATM   10  C   UNL     1     -11.389  12.446  65.056  1.00  0.00    -0.320 C  
HETATM   11  C   UNL     1     -11.804  12.711  68.657  1.00  0.00    -0.342 A  
HETATM   12  H   UNL     1     -10.331  10.035  65.044  1.00  0.00     0.000 HD 
HETATM   13  O   UNL     1     -11.165  11.857  64.019  1.00  0.00    -0.343 OA 
HETATM   14  C   UNL     1     -11.736  12.935  67.288  1.00  0.00    -0.431 A  
HETATM   15  O   UNL     1     -11.839  13.737  65.142  1.00  0.00    -0.326 OA 
BRANCH   4  16
HETATM   16  C   UNL     1     -10.447   9.112  68.862  1.00  0.00    -0.239 C  
BRANCH  16  17
HETATM   17  C   UNL     1      -9.070   9.009  69.437  1.00  0.00    -0.146 C  
HETATM   18  C   UNL     1      -8.757   8.885  70.740  1.00  0.00    -0.245 C  
HETATM   19  C   UNL     1      -9.770   8.622  71.826  1.00  0.00    -0.361 C  
BRANCH  18  20
HETATM   20  C   UNL     1      -7.327   9.070  71.242  1.00  0.00    -0.093 C  
BRANCH  20  21
HETATM   21  C   UNL     1      -6.309   9.603  70.227  1.00  0.00    -0.076 C  
HETATM   22  O   UNL     1      -6.573  11.737  69.125  1.00  0.00    -0.086 OA 
HETATM   23  O   UNL     1      -5.858  11.723  71.261  1.00  0.00    -0.368 OA 
HETATM   24  C   UNL     1      -6.278  11.111  70.133  1.00  0.00    -0.147 C  
ENDBRANCH  20  21
ENDBRANCH  18  20
ENDBRANCH  16  17
ENDBRANCH   4  16
ENDBRANCH   2   3
TORSDOF 5
ENDMDL
MODEL       93
REMARK 921   NORMALIZED FREE ENERGY PREDICTED BY IDOCK:   -5.41 KCAL/MOL
REMARK 922        TOTAL FREE ENERGY PREDICTED BY IDOCK:   -7.25 KCAL/MOL
REMARK 923 INTER-LIGAND FREE ENERGY PREDICTED BY IDOCK:   -6.92 KCAL/MOL
REMARK 924 INTRA-LIGAND FREE ENERGY PREDICTED BY IDOCK:   -0.33 KCAL/MOL
REMARK 927      BINDING AFFINITY PREDICTED BY RF-SCORE:    0.00 PKD
ROOT
HETATM    1  C   UNL     1     -10.895  16.048  70.437  1.00  0.00    -0.286 C  
HETATM    2  O   UNL     1     -11.790  15.833  69.351  1.00  0.00    -0.360 OA 
ENDROOT
BRANCH   2   3
HETATM    3  C   UNL     1     -11.451  14.908  68.388  1.00  0.00    -0.318 A  
HETATM    4  C   UNL     1     -10.796  15.226  67.156  1.00  0.00    -0.322 A  
HETATM    5  C   UNL     1     -10.373  14.151  66.343  1.00  0.00    -0.287 A  
HETATM    6  C   UNL     1     -11.296  11.082  68.102  1.00  0.00    -0.307 C  
HETATM    7  O   UNL     1      -9.808  14.329  65.116  1.00  0.00    -0.554 OA 
HETATM    8  C   UNL     1     -12.403  13.248  70.059  1.00  0.00    -0.269 C  
HETATM    9  C   UNL     1     -10.563  12.845  66.772  1.00  0.00    -0.268 A  
HETATM   10  C   UNL     1     -10.144  11.589  66.143  1.00  0.00    -0.229 C  
HETATM   11  C   UNL     1     -11.668  13.563  68.786  1.00  0.00    -0.373 A  
HETATM   12  H   UNL     1      -9.523  13.606  64.569  1.00  0.00     0.000 HD 
HETATM   13  O   UNL     1      -9.492  11.428  65.132  1.00  0.00    -0.227 OA 
HETATM   14  C   UNL     1     -11.208  12.550  67.955  1.00  0.00    -0.316 A  
HETATM   15  O   UNL     1     -10.593  10.581  66.954  1.00  0.00    -0.248 OA 
BRANCH   4  16
HETATM   16  C   UNL     1     -10.692  16.672  66.732  1.00  0.00    -0.133 C  
BRANCH  16  17
HETATM   17  C   UNL     1      -9.649  17.572  67.314  1.00  0.00    -0.273 C  
HETATM   18  C   UNL     1      -9.506  18.889  67.074  1.00  0.00    -0.341 C  
HETATM   19  C   UNL     1     -10.517  19.719  66.324  1.00  0.00    -0.614 C  
BRANCH  18  20
HETATM   20  C   UNL     1      -8.250  19.648  67.493  1.00  0.00    -0.332 C  
BRANCH  20  21
HETATM   21  C   UNL     1      -7.808  19.488  68.952  1.00  0.00    -0.349 C  
HETATM   22  O   UNL     1      -6.853  17.437  69.799  1.00  0.00    -0.061 OA 
HETATM   23  O   UNL     1      -5.544  18.788  68.560  1.00  0.00    -0.189 OA 
HETATM   24  C   UNL     1      -6.716  18.462  69.147  1.00  0.00    -0.260 C  
ENDBRANCH  20  21
ENDBRANCH  18  20
ENDBRANCH  16  17
ENDBRANCH   4  16
ENDBRANCH   2   3
TORSDOF 5
ENDMDL
MODEL       94
REMARK 921   NORMALIZED FREE ENERGY PREDICTED BY IDOCK:   -5.36 KCAL/MOL
REMARK 922        TOTAL FREE ENERGY PREDICTED BY IDOCK:   -7.20 KCAL/MOL
REMARK 923 INTER-LIGAND FREE ENERGY PREDICTED BY IDOCK:   -6.84 KCAL/MOL
REMARK 924 INTRA-LIGAND FREE ENERGY PREDICTED BY IDOCK:   -0.35 KCAL/MOL
REMARK 927      BINDING AFFINITY PREDICTED BY RF-SCORE:    0.00 PKD
ROOT
HETATM    1  C   UNL     1     -11.108  12.125  68.855  1.00  0.00    -0.243 C  
HETATM    2  O   UNL     1     -11.825  11.250  67.991  1.00  0.00    -0.578 OA 
ENDROOT
BRANCH   2   3
HETATM    3  C   UNL     1     -11.275  10.930  66.769  1.00  0.00    -0.033 A  
HETATM    4  C   UNL     1     -11.411  11.726  65.587  1.00  0.00    -0.293 A  
HETATM    5  C   UNL     1     -10.658  11.347  64.453  1.00  0.00    -0.341 A  
HETATM    6  C   UNL     1      -8.729   8.395  65.415  1.00  0.00    -0.141 C  
HETATM    7  O   UNL     1     -10.762  11.981  63.251  1.00  0.00    -0.575 OA 
HETATM    8  C   UNL     1     -10.323   8.948  68.041  1.00  0.00    -0.271 C  
HETATM    9  C   UNL     1      -9.796  10.262  64.527  1.00  0.00    -0.384 A  
HETATM   10  C   UNL     1      -8.870   9.739  63.518  1.00  0.00    -0.241 C  
HETATM   11  C   UNL     1     -10.414   9.802  66.808  1.00  0.00    -0.259 A  
HETATM   12  H   UNL     1     -10.256  11.727  62.488  1.00  0.00     0.000 HD 
HETATM   13  O   UNL     1      -8.624  10.180  62.414  1.00  0.00    -0.156 OA 
HETATM   14  C   UNL     1      -9.683   9.494  65.668  1.00  0.00    -0.361 A  
HETATM   15  O   UNL     1      -8.265   8.645  64.078  1.00  0.00    -0.159 OA 
BRANCH   4  16
HETATM   16  C   UNL     1     -12.423  12.846  65.569  1.00  0.00    -0.462 C  
BRANCH  16  17
HETATM   17  C   UNL     1     -12.258  14.047  66.445  1.00  0.00    -0.492 C  
HETATM   18  C   UNL     1     -11.253  14.941  66.393  1.00  0.00    -0.331 C  
HETATM   19  C   UNL     1     -10.223  14.982  65.292  1.00  0.00    -0.409 C  
BRANCH  18  20
HETATM   20  C   UNL     1     -11.031  15.963  67.505  1.00  0.00    -0.280 C  
BRANCH  20  21
HETATM   21  C   UNL     1      -9.892  15.668  68.488  1.00  0.00    -0.205 C  
HETATM   22  O   UNL     1      -7.586  16.190  67.995  1.00  0.00    -0.129 OA 
HETATM   23  O   UNL     1      -8.950  17.874  68.609  1.00  0.00    -0.291 OA 
HETATM   24  C   UNL     1      -8.697  16.578  68.325  1.00  0.00    -0.209 C  
ENDBRANCH  20  21
ENDBRANCH  18  20
ENDBRANCH  16  17
ENDBRANCH   4  16
ENDBRANCH   2   3
TORSDOF 5
ENDMDL
MODEL       95
REMARK 921   NORMALIZED FREE ENERGY PREDICTED BY IDOCK:   -5.36 KCAL/MOL
REMARK 922        TOTAL FREE ENERGY PREDICTED BY IDOCK:   -7.19 KCAL/MOL
REMARK 923 INTER-LIGAND FREE ENERGY PREDICTED BY IDOCK:   -7.31 KCAL/MOL
REMARK 924 INTRA-LIGAND FREE ENERGY PREDICTED BY IDOCK:    0.12 KCAL/MOL
REMARK 927      BINDING AFFINITY PREDICTED BY RF-SCORE:    0.00 PKD
ROOT
HETATM    1  C   UNL     1      -9.248  10.503  65.512  1.00  0.00    -0.188 C  
HETATM    2  O   UNL     1     -10.605  10.449  65.942  1.00  0.00    -0.159 OA 
ENDROOT
BRANCH   2   3
HETATM    3  C   UNL     1     -10.986  11.216  67.021  1.00  0.00    -0.289 A  
HETATM    4  C   UNL     1     -11.457  12.565  66.930  1.00  0.00    -0.416 A  
HETATM    5  C   UNL     1     -11.959  13.164  68.106  1.00  0.00    -0.294 A  
HETATM    6  C   UNL     1     -11.712  10.650  70.749  1.00  0.00    -0.335 C  
HETATM    7  O   UNL     1     -12.363  14.464  68.159  1.00  0.00    -0.601 OA 
HETATM    8  C   UNL     1     -10.480   9.102  68.335  1.00  0.00    -0.241 C  
HETATM    9  C   UNL     1     -12.021  12.430  69.282  1.00  0.00    -0.308 A  
HETATM   10  C   UNL     1     -12.567  12.811  70.589  1.00  0.00    -0.168 C  
HETATM   11  C   UNL     1     -11.025  10.499  68.245  1.00  0.00    -0.314 A  
HETATM   12  H   UNL     1     -12.702  14.867  68.950  1.00  0.00     0.000 HD 
HETATM   13  O   UNL     1     -13.132  13.838  70.904  1.00  0.00    -0.256 OA 
HETATM   14  C   UNL     1     -11.553  11.135  69.362  1.00  0.00    -0.388 A  
HETATM   15  O   UNL     1     -12.366  11.740  71.419  1.00  0.00    -0.214 OA 
BRANCH   4  16
HETATM   16  C   UNL     1     -11.289  13.313  65.628  1.00  0.00    -0.325 C  
BRANCH  16  17
HETATM   17  C   UNL     1     -11.220  14.807  65.602  1.00  0.00    -0.343 C  
HETATM   18  C   UNL     1     -10.202  15.567  66.048  1.00  0.00    -0.349 C  
HETATM   19  C   UNL     1      -8.863  15.014  66.466  1.00  0.00    -0.286 C  
BRANCH  18  20
HETATM   20  C   UNL     1     -10.349  17.075  66.232  1.00  0.00    -0.309 C  
BRANCH  20  21
HETATM   21  C   UNL     1     -10.659  17.564  67.651  1.00  0.00    -0.355 C  
HETATM   22  O   UNL     1      -9.387  19.314  68.726  1.00  0.00    -0.367 OA 
HETATM   23  O   UNL     1     -10.907  19.904  67.172  1.00  0.00    -0.409 OA 
HETATM   24  C   UNL     1     -10.236  18.992  67.908  1.00  0.00    -0.401 C  
ENDBRANCH  20  21
ENDBRANCH  18  20
ENDBRANCH  16  17
ENDBRANCH   4  16
ENDBRANCH   2   3
TORSDOF 5
ENDMDL
MODEL       96
REMARK 921   NORMALIZED FREE ENERGY PREDICTED BY IDOCK:   -5.36 KCAL/MOL
REMARK 922        TOTAL FREE ENERGY PREDICTED BY IDOCK:   -7.19 KCAL/MOL
REMARK 923 INTER-LIGAND FREE ENERGY PREDICTED BY IDOCK:   -6.81 KCAL/MOL
REMARK 924 INTRA-LIGAND FREE ENERGY PREDICTED BY IDOCK:   -0.37 KCAL/MOL
REMARK 927      BINDING AFFINITY PREDICTED BY RF-SCORE:    0.00 PKD
ROOT
HETATM    1  C   UNL     1      -6.639  13.595  68.288  1.00  0.00    -0.108 C  
HETATM    2  O   UNL     1      -7.941  14.128  68.508  1.00  0.00    -0.137 OA 
ENDROOT
BRANCH   2   3
HETATM    3  C   UNL     1      -8.692  14.510  67.418  1.00  0.00    -0.199 A  
HETATM    4  C   UNL     1      -9.458  13.613  66.608  1.00  0.00    -0.285 A  
HETATM    5  C   UNL     1     -10.300  14.176  65.623  1.00  0.00    -0.333 A  
HETATM    6  C   UNL     1      -9.924  17.804  65.875  1.00  0.00    -0.120 C  
HETATM    7  O   UNL     1     -11.017  13.422  64.744  1.00  0.00    -0.323 OA 
HETATM    8  C   UNL     1      -7.926  16.842  68.072  1.00  0.00    -0.185 C  
HETATM    9  C   UNL     1     -10.392  15.555  65.500  1.00  0.00    -0.419 A  
HETATM   10  C   UNL     1     -11.245  16.356  64.616  1.00  0.00    -0.192 C  
HETATM   11  C   UNL     1      -8.775  15.917  67.247  1.00  0.00    -0.206 A  
HETATM   12  H   UNL     1     -11.584  13.800  64.082  1.00  0.00     0.000 HD 
HETATM   13  O   UNL     1     -12.095  15.977  63.837  1.00  0.00    -0.880 OA 
HETATM   14  C   UNL     1      -9.639  16.411  66.278  1.00  0.00    -0.338 A  
HETATM   15  O   UNL     1     -10.940  17.667  64.868  1.00  0.00    -0.886 OA 
BRANCH   4  16
HETATM   16  C   UNL     1      -9.246  12.125  66.760  1.00  0.00    -0.207 C  
BRANCH  16  17
HETATM   17  C   UNL     1      -9.994  11.342  67.791  1.00  0.00    -0.192 C  
HETATM   18  C   UNL     1      -9.511  10.324  68.527  1.00  0.00    -0.158 C  
HETATM   19  C   UNL     1      -8.054   9.939  68.571  1.00  0.00    -0.101 C  
BRANCH  18  20
HETATM   20  C   UNL     1     -10.429   9.417  69.342  1.00  0.00    -0.231 C  
BRANCH  20  21
HETATM   21  C   UNL     1     -10.787   9.896  70.754  1.00  0.00    -0.387 C  
HETATM   22  O   UNL     1     -12.941   9.468  71.761  1.00  0.00    -0.352 OA 
HETATM   23  O   UNL     1     -11.447   7.783  71.686  1.00  0.00    -0.250 OA 
HETATM   24  C   UNL     1     -11.839   9.051  71.433  1.00  0.00    -0.325 C  
ENDBRANCH  20  21
ENDBRANCH  18  20
ENDBRANCH  16  17
ENDBRANCH   4  16
ENDBRANCH   2   3
TORSDOF 5
ENDMDL
MODEL       97
REMARK 921   NORMALIZED FREE ENERGY PREDICTED BY IDOCK:   -5.35 KCAL/MOL
REMARK 922        TOTAL FREE ENERGY PREDICTED BY IDOCK:   -7.18 KCAL/MOL
REMARK 923 INTER-LIGAND FREE ENERGY PREDICTED BY IDOCK:   -6.67 KCAL/MOL
REMARK 924 INTRA-LIGAND FREE ENERGY PREDICTED BY IDOCK:   -0.52 KCAL/MOL
REMARK 927      BINDING AFFINITY PREDICTED BY RF-SCORE:    0.00 PKD
ROOT
HETATM    1  C   UNL     1     -10.104  10.350  65.231  1.00  0.00    -0.300 C  
HETATM    2  O   UNL     1      -9.417  10.950  66.325  1.00  0.00    -0.183 OA 
ENDROOT
BRANCH   2   3
HETATM    3  C   UNL     1      -9.970  10.858  67.583  1.00  0.00    -0.173 A  
HETATM    4  C   UNL     1     -10.988  11.730  68.085  1.00  0.00    -0.275 A  
HETATM    5  C   UNL     1     -11.565  11.411  69.335  1.00  0.00    -0.323 A  
HETATM    6  C   UNL     1      -9.950   8.338  70.480  1.00  0.00    -0.184 C  
HETATM    7  O   UNL     1     -12.487  12.206  69.948  1.00  0.00    -0.085 OA 
HETATM    8  C   UNL     1      -8.448   8.835  67.789  1.00  0.00    -0.125 C  
HETATM    9  C   UNL     1     -11.167  10.263  70.006  1.00  0.00    -0.376 A  
HETATM   10  C   UNL     1     -11.673   9.697  71.260  1.00  0.00    -0.382 C  
HETATM   11  C   UNL     1      -9.554   9.711  68.307  1.00  0.00    -0.153 A  
HETATM   12  H   UNL     1     -12.875  11.992  70.788  1.00  0.00     0.000 HD 
HETATM   13  O   UNL     1     -12.590  10.088  71.953  1.00  0.00    -0.389 OA 
HETATM   14  C   UNL     1     -10.176   9.437  69.519  1.00  0.00    -0.219 A  
HETATM   15  O   UNL     1     -10.934   8.570  71.502  1.00  0.00    -0.237 OA 
BRANCH   4  16
HETATM   16  C   UNL     1     -11.311  12.994  67.325  1.00  0.00    -0.348 C  
BRANCH  16  17
HETATM   17  C   UNL     1     -10.396  14.176  67.370  1.00  0.00    -0.256 C  
HETATM   18  C   UNL     1     -10.669  15.377  67.912  1.00  0.00    -0.286 C  
HETATM   19  C   UNL     1     -11.889  15.661  68.753  1.00  0.00    -0.336 C  
BRANCH  18  20
HETATM   20  C   UNL     1      -9.780  16.592  67.659  1.00  0.00    -0.239 C  
BRANCH  20  21
HETATM   21  C   UNL     1     -10.494  17.937  67.479  1.00  0.00    -0.398 C  
HETATM   22  O   UNL     1      -9.674  19.649  65.985  1.00  0.00    -0.387 OA 
HETATM   23  O   UNL     1     -10.749  17.883  65.091  1.00  0.00    -0.615 OA 
HETATM   24  C   UNL     1     -10.247  18.580  66.134  1.00  0.00    -0.398 C  
ENDBRANCH  20  21
ENDBRANCH  18  20
ENDBRANCH  16  17
ENDBRANCH   4  16
ENDBRANCH   2   3
TORSDOF 5
ENDMDL
MODEL       98
REMARK 921   NORMALIZED FREE ENERGY PREDICTED BY IDOCK:   -5.32 KCAL/MOL
REMARK 922        TOTAL FREE ENERGY PREDICTED BY IDOCK:   -7.14 KCAL/MOL
REMARK 923 INTER-LIGAND FREE ENERGY PREDICTED BY IDOCK:   -7.24 KCAL/MOL
REMARK 924 INTRA-LIGAND FREE ENERGY PREDICTED BY IDOCK:    0.10 KCAL/MOL
REMARK 927      BINDING AFFINITY PREDICTED BY RF-SCORE:    0.00 PKD
ROOT
HETATM    1  C   UNL     1      -9.280  16.083  69.611  1.00  0.00    -0.002 C  
HETATM    2  O   UNL     1     -10.663  15.999  69.283  1.00  0.00    -0.234 OA 
ENDROOT
BRANCH   2   3
HETATM    3  C   UNL     1     -11.330  14.818  69.525  1.00  0.00    -0.283 A  
HETATM    4  C   UNL     1     -11.256  13.660  68.686  1.00  0.00    -0.308 A  
HETATM    5  C   UNL     1     -11.870  12.476  69.150  1.00  0.00    -0.296 A  
HETATM    6  C   UNL     1     -13.297  13.250  72.425  1.00  0.00    -0.516 C  
HETATM    7  O   UNL     1     -11.930  11.334  68.408  1.00  0.00    -0.555 OA 
HETATM    8  C   UNL     1     -12.102  16.020  71.625  1.00  0.00    -0.537 C  
HETATM    9  C   UNL     1     -12.477  12.456  70.398  1.00  0.00    -0.214 A  
HETATM   10  C   UNL     1     -13.100  11.337  71.111  1.00  0.00    -0.151 C  
HETATM   11  C   UNL     1     -11.990  14.782  70.781  1.00  0.00    -0.371 A  
HETATM   12  H   UNL     1     -12.342  10.537  68.720  1.00  0.00     0.000 HD 
HETATM   13  O   UNL     1     -13.171  10.171  70.779  1.00  0.00    -0.379 OA 
HETATM   14  C   UNL     1     -12.553  13.581  71.192  1.00  0.00    -0.438 A  
HETATM   15  O   UNL     1     -13.568  11.845  72.294  1.00  0.00    -0.364 OA 
BRANCH   4  16
HETATM   16  C   UNL     1     -10.638  13.787  67.314  1.00  0.00    -0.275 C  
BRANCH  16  17
HETATM   17  C   UNL     1     -10.771  15.049  66.523  1.00  0.00    -0.312 C  
HETATM   18  C   UNL     1      -9.774  15.887  66.182  1.00  0.00    -0.351 C  
HETATM   19  C   UNL     1      -8.311  15.573  66.376  1.00  0.00    -0.153 C  
BRANCH  18  20
HETATM   20  C   UNL     1     -10.052  17.279  65.621  1.00  0.00    -0.069 C  
BRANCH  20  21
HETATM   21  C   UNL     1     -10.647  18.303  66.595  1.00  0.00    -0.324 C  
HETATM   22  O   UNL     1      -9.623  20.452  67.001  1.00  0.00    -0.414 OA 
HETATM   23  O   UNL     1     -10.791  20.173  65.096  1.00  0.00    -0.188 OA 
HETATM   24  C   UNL     1     -10.286  19.733  66.268  1.00  0.00    -0.509 C  
ENDBRANCH  20  21
ENDBRANCH  18  20
ENDBRANCH  16  17
ENDBRANCH   4  16
ENDBRANCH   2   3
TORSDOF 5
ENDMDL
MODEL       99
REMARK 921   NORMALIZED FREE ENERGY PREDICTED BY IDOCK:   -5.30 KCAL/MOL
REMARK 922        TOTAL FREE ENERGY PREDICTED BY IDOCK:   -7.11 KCAL/MOL
REMARK 923 INTER-LIGAND FREE ENERGY PREDICTED BY IDOCK:   -6.74 KCAL/MOL
REMARK 924 INTRA-LIGAND FREE ENERGY PREDICTED BY IDOCK:   -0.38 KCAL/MOL
REMARK 927      BINDING AFFINITY PREDICTED BY RF-SCORE:    0.00 PKD
ROOT
HETATM    1  C   UNL     1     -11.551  11.901  69.569  1.00  0.00    -0.327 C  
HETATM    2  O   UNL     1     -12.156  11.296  68.430  1.00  0.00    -0.598 OA 
ENDROOT
BRANCH   2   3
HETATM    3  C   UNL     1     -11.360  10.972  67.354  1.00  0.00    -0.230 A  
HETATM    4  C   UNL     1     -10.713   9.707  67.177  1.00  0.00    -0.258 A  
HETATM    5  C   UNL     1     -10.060   9.472  65.946  1.00  0.00    -0.214 A  
HETATM    6  C   UNL     1     -10.541  12.473  63.916  1.00  0.00    -0.440 C  
HETATM    7  O   UNL     1      -9.348   8.338  65.692  1.00  0.00    -0.408 OA 
HETATM    8  C   UNL     1     -11.993  13.298  66.553  1.00  0.00    -0.448 C  
HETATM    9  C   UNL     1     -10.100  10.436  64.949  1.00  0.00    -0.382 A  
HETATM   10  C   UNL     1      -9.569  10.383  63.583  1.00  0.00    -0.310 C  
HETATM   11  C   UNL     1     -11.353  11.956  66.331  1.00  0.00    -0.400 A  
HETATM   12  H   UNL     1      -8.909   8.179  64.864  1.00  0.00     0.000 HD 
HETATM   13  O   UNL     1      -9.025   9.458  63.016  1.00  0.00    -0.237 OA 
HETATM   14  C   UNL     1     -10.715  11.657  65.135  1.00  0.00    -0.351 A  
HETATM   15  O   UNL     1      -9.848  11.596  63.012  1.00  0.00    -0.393 OA 
BRANCH   4  16
HETATM   16  C   UNL     1     -10.659   8.743  68.338  1.00  0.00    -0.185 C  
BRANCH  16  17
HETATM   17  C   UNL     1      -9.464   8.685  69.236  1.00  0.00    -0.158 C  
HETATM   18  C   UNL     1      -9.478   8.617  70.580  1.00  0.00    -0.218 C  
HETATM   19  C   UNL     1     -10.725   8.381  71.396  1.00  0.00    -0.298 C  
BRANCH  18  20
HETATM   20  C   UNL     1      -8.216   8.845  71.408  1.00  0.00    -0.175 C  
BRANCH  20  21
HETATM   21  C   UNL     1      -7.761   7.681  72.296  1.00  0.00    -0.106 C  
HETATM   22  O   UNL     1      -5.854   7.845  73.770  1.00  0.00    -0.062 OA 
HETATM   23  O   UNL     1      -7.780   8.822  74.409  1.00  0.00    -0.411 OA 
HETATM   24  C   UNL     1      -7.023   8.120  73.540  1.00  0.00    -0.127 C  
ENDBRANCH  20  21
ENDBRANCH  18  20
ENDBRANCH  16  17
ENDBRANCH   4  16
ENDBRANCH   2   3
TORSDOF 5
ENDMDL
MODEL      100
REMARK 921   NORMALIZED FREE ENERGY PREDICTED BY IDOCK:   -5.24 KCAL/MOL
REMARK 922        TOTAL FREE ENERGY PREDICTED BY IDOCK:   -7.04 KCAL/MOL
REMARK 923 INTER-LIGAND FREE ENERGY PREDICTED BY IDOCK:   -6.52 KCAL/MOL
REMARK 924 INTRA-LIGAND FREE ENERGY PREDICTED BY IDOCK:   -0.52 KCAL/MOL
REMARK 927      BINDING AFFINITY PREDICTED BY RF-SCORE:    0.00 PKD
ROOT
HETATM    1  C   UNL     1      -8.842  15.278  69.153  1.00  0.00    -0.238 C  
HETATM    2  O   UNL     1      -8.317  15.138  67.837  1.00  0.00    -0.141 OA 
ENDROOT
BRANCH   2   3
HETATM    3  C   UNL     1      -9.114  14.577  66.864  1.00  0.00    -0.255 A  
HETATM    4  C   UNL     1      -9.274  13.169  66.661  1.00  0.00    -0.220 A  
HETATM    5  C   UNL     1     -10.247  12.748  65.727  1.00  0.00    -0.289 A  
HETATM    6  C   UNL     1     -11.807  15.777  64.404  1.00  0.00    -0.148 C  
HETATM    7  O   UNL     1     -10.437  11.440  65.396  1.00  0.00    -0.264 OA 
HETATM    8  C   UNL     1      -9.688  16.996  66.345  1.00  0.00    -0.310 C  
HETATM    9  C   UNL     1     -11.032  13.689  65.077  1.00  0.00    -0.350 A  
HETATM   10  C   UNL     1     -12.141  13.488  64.139  1.00  0.00    -0.435 C  
HETATM   11  C   UNL     1      -9.904  15.521  66.158  1.00  0.00    -0.342 A  
HETATM   12  H   UNL     1     -11.091  11.157  64.768  1.00  0.00     0.000 HD 
HETATM   13  O   UNL     1     -12.642  12.445  63.771  1.00  0.00    -0.633 OA 
HETATM   14  C   UNL     1     -10.860  15.045  65.270  1.00  0.00    -0.399 A  
HETATM   15  O   UNL     1     -12.566  14.736  63.769  1.00  0.00    -0.806 OA 
BRANCH   4  16
HETATM   16  C   UNL     1      -8.331  12.216  67.358  1.00  0.00    -0.174 C  
BRANCH  16  17
HETATM   17  C   UNL     1      -8.851  11.083  68.183  1.00  0.00    -0.141 C  
HETATM   18  C   UNL     1      -8.283   9.872  68.325  1.00  0.00    -0.109 C  
HETATM   19  C   UNL     1      -6.901   9.529  67.825  1.00  0.00    -0.078 C  
BRANCH  18  20
HETATM   20  C   UNL     1      -9.033   8.703  68.959  1.00  0.00    -0.142 C  
BRANCH  20  21
HETATM   21  C   UNL     1      -9.184   7.441  68.101  1.00  0.00    -0.133 C  
HETATM   22  O   UNL     1     -11.276   6.823  67.063  1.00  0.00    -0.393 OA 
HETATM   23  O   UNL     1     -10.064   8.468  66.116  1.00  0.00    -0.221 OA 
HETATM   24  C   UNL     1     -10.284   7.537  67.069  1.00  0.00    -0.298 C  
ENDBRANCH  20  21
ENDBRANCH  18  20
ENDBRANCH  16  17
ENDBRANCH   4  16
ENDBRANCH   2   3
TORSDOF 5
ENDMDL
MODEL      101
REMARK 921   NORMALIZED FREE ENERGY PREDICTED BY IDOCK:   -5.23 KCAL/MOL
REMARK 922        TOTAL FREE ENERGY PREDICTED BY IDOCK:   -7.02 KCAL/MOL
REMARK 923 INTER-LIGAND FREE ENERGY PREDICTED BY IDOCK:   -6.76 KCAL/MOL
REMARK 924 INTRA-LIGAND FREE ENERGY PREDICTED BY IDOCK:   -0.26 KCAL/MOL
REMARK 927      BINDING AFFINITY PREDICTED BY RF-SCORE:    0.00 PKD
ROOT
HETATM    1  C   UNL     1     -12.508  11.085  70.726  1.00  0.00    -0.396 C  
HETATM    2  O   UNL     1     -11.426  10.304  71.223  1.00  0.00    -0.318 OA 
ENDROOT
BRANCH   2   3
HETATM    3  C   UNL     1     -10.956   9.261  70.455  1.00  0.00    -0.265 A  
HETATM    4  C   UNL     1     -10.047   9.409  69.359  1.00  0.00    -0.204 A  
HETATM    5  C   UNL     1      -9.534   8.232  68.770  1.00  0.00    -0.148 A  
HETATM    6  C   UNL     1     -10.978   5.425  70.615  1.00  0.00    -0.034 C  
HETATM    7  O   UNL     1      -8.723   8.245  67.676  1.00  0.00    -0.132 OA 
HETATM    8  C   UNL     1     -12.324   7.843  72.057  1.00  0.00    -0.346 C  
HETATM    9  C   UNL     1      -9.886   6.992  69.286  1.00  0.00    -0.159 A  
HETATM   10  C   UNL     1      -9.425   5.657  68.895  1.00  0.00    -0.126 C  
HETATM   11  C   UNL     1     -11.329   7.981  70.940  1.00  0.00    -0.291 A  
HETATM   12  H   UNL     1      -8.378   7.453  67.280  1.00  0.00     0.000 HD 
HETATM   13  O   UNL     1      -8.592   5.356  68.064  1.00  0.00    -0.101 OA 
HETATM   14  C   UNL     1     -10.774   6.861  70.334  1.00  0.00    -0.278 A  
HETATM   15  O   UNL     1     -10.089   4.767  69.697  1.00  0.00    -0.229 OA 
BRANCH   4  16
HETATM   16  C   UNL     1      -9.772  10.791  68.816  1.00  0.00    -0.197 C  
BRANCH  16  17
HETATM   17  C   UNL     1     -10.191  11.172  67.432  1.00  0.00    -0.221 C  
HETATM   18  C   UNL     1     -10.980  12.209  67.094  1.00  0.00    -0.316 C  
HETATM   19  C   UNL     1     -11.407  13.288  68.058  1.00  0.00    -0.325 C  
BRANCH  18  20
HETATM   20  C   UNL     1     -11.571  12.344  65.694  1.00  0.00    -0.441 C  
BRANCH  20  21
HETATM   21  C   UNL     1     -12.586  13.474  65.484  1.00  0.00    -0.531 C  
HETATM   22  O   UNL     1     -12.073  15.453  64.198  1.00  0.00    -0.563 OA 
HETATM   23  O   UNL     1     -12.537  13.551  63.084  1.00  0.00    -0.762 OA 
HETATM   24  C   UNL     1     -12.360  14.265  64.217  1.00  0.00    -0.377 C  
ENDBRANCH  20  21
ENDBRANCH  18  20
ENDBRANCH  16  17
ENDBRANCH   4  16
ENDBRANCH   2   3
TORSDOF 5
ENDMDL
MODEL      102
REMARK 921   NORMALIZED FREE ENERGY PREDICTED BY IDOCK:   -5.23 KCAL/MOL
REMARK 922        TOTAL FREE ENERGY PREDICTED BY IDOCK:   -7.02 KCAL/MOL
REMARK 923 INTER-LIGAND FREE ENERGY PREDICTED BY IDOCK:   -6.37 KCAL/MOL
REMARK 924 INTRA-LIGAND FREE ENERGY PREDICTED BY IDOCK:   -0.65 KCAL/MOL
REMARK 927      BINDING AFFINITY PREDICTED BY RF-SCORE:    0.00 PKD
ROOT
HETATM    1  C   UNL     1     -11.196   8.628  72.079  1.00  0.00    -0.364 C  
HETATM    2  O   UNL     1     -11.968   9.097  70.978  1.00  0.00    -0.287 OA 
ENDROOT
BRANCH   2   3
HETATM    3  C   UNL     1     -11.531  10.207  70.289  1.00  0.00    -0.306 A  
HETATM    4  C   UNL     1     -10.594  10.172  69.208  1.00  0.00    -0.254 A  
HETATM    5  C   UNL     1     -10.366  11.373  68.500  1.00  0.00    -0.205 A  
HETATM    6  C   UNL     1     -12.510  13.911  70.026  1.00  0.00    -0.266 C  
HETATM    7  O   UNL     1      -9.443  11.480  67.503  1.00  0.00    -0.167 OA 
HETATM    8  C   UNL     1     -13.155  11.432  71.811  1.00  0.00    -0.523 C  
HETATM    9  C   UNL     1     -11.072  12.519  68.838  1.00  0.00    -0.309 A  
HETATM   10  C   UNL     1     -11.060  13.841  68.205  1.00  0.00    -0.259 C  
HETATM   11  C   UNL     1     -12.213  11.401  70.640  1.00  0.00    -0.484 A  
HETATM   12  H   UNL     1      -9.290  12.288  67.027  1.00  0.00     0.000 HD 
HETATM   13  O   UNL     1     -10.462  14.199  67.210  1.00  0.00    -0.269 OA 
HETATM   14  C   UNL     1     -11.963  12.544  69.892  1.00  0.00    -0.371 A  
HETATM   15  O   UNL     1     -11.915  14.626  68.931  1.00  0.00    -0.307 OA 
BRANCH   4  16
HETATM   16  C   UNL     1      -9.818   8.902  68.951  1.00  0.00    -0.182 C  
BRANCH  16  17
HETATM   17  C   UNL     1     -10.205   7.973  67.845  1.00  0.00    -0.267 C  
HETATM   18  C   UNL     1     -10.700   6.729  67.984  1.00  0.00    -0.302 C  
HETATM   19  C   UNL     1     -11.138   6.142  69.303  1.00  0.00    -0.463 C  
BRANCH  18  20
HETATM   20  C   UNL     1     -10.797   5.768  66.802  1.00  0.00    -0.327 C  
BRANCH  20  21
HETATM   21  C   UNL     1      -9.475   5.354  66.146  1.00  0.00    -0.171 C  
HETATM   22  O   UNL     1      -7.397   5.245  67.373  1.00  0.00    -0.080 OA 
HETATM   23  O   UNL     1      -8.881   3.572  67.642  1.00  0.00    -0.105 OA 
HETATM   24  C   UNL     1      -8.482   4.747  67.110  1.00  0.00    -0.105 C  
ENDBRANCH  20  21
ENDBRANCH  18  20
ENDBRANCH  16  17
ENDBRANCH   4  16
ENDBRANCH   2   3
TORSDOF 5
ENDMDL
MODEL      103
REMARK 921   NORMALIZED FREE ENERGY PREDICTED BY IDOCK:   -5.22 KCAL/MOL
REMARK 922        TOTAL FREE ENERGY PREDICTED BY IDOCK:   -7.01 KCAL/MOL
REMARK 923 INTER-LIGAND FREE ENERGY PREDICTED BY IDOCK:   -6.33 KCAL/MOL
REMARK 924 INTRA-LIGAND FREE ENERGY PREDICTED BY IDOCK:   -0.68 KCAL/MOL
REMARK 927      BINDING AFFINITY PREDICTED BY RF-SCORE:    0.00 PKD
ROOT
HETATM    1  C   UNL     1      -8.797  10.642  68.969  1.00  0.00    -0.148 C  
HETATM    2  O   UNL     1      -8.449  11.602  67.977  1.00  0.00    -0.137 OA 
ENDROOT
BRANCH   2   3
HETATM    3  C   UNL     1      -9.317  11.812  66.928  1.00  0.00    -0.192 A  
HETATM    4  C   UNL     1      -9.365  11.009  65.744  1.00  0.00    -0.236 A  
HETATM    5  C   UNL     1     -10.414  11.253  64.829  1.00  0.00    -0.323 A  
HETATM    6  C   UNL     1     -12.435  13.948  66.250  1.00  0.00    -0.409 C  
HETATM    7  O   UNL     1     -10.519  10.605  63.635  1.00  0.00    -0.500 OA 
HETATM    8  C   UNL     1     -10.192  13.684  68.405  1.00  0.00    -0.245 C  
HETATM    9  C   UNL     1     -11.372  12.215  65.118  1.00  0.00    -0.379 A  
HETATM   10  C   UNL     1     -12.576  12.582  64.368  1.00  0.00    -0.410 C  
HETATM   11  C   UNL     1     -10.287  12.816  67.182  1.00  0.00    -0.237 A  
HETATM   12  H   UNL     1     -11.225  10.769  63.020  1.00  0.00     0.000 HD 
HETATM   13  O   UNL     1     -13.020  12.082  63.355  1.00  0.00    -0.772 OA 
HETATM   14  C   UNL     1     -11.308  12.992  66.256  1.00  0.00    -0.354 A  
HETATM   15  O   UNL     1     -13.170  13.601  65.065  1.00  0.00    -0.729 OA 
BRANCH   4  16
HETATM   16  C   UNL     1      -8.244  10.033  65.473  1.00  0.00    -0.146 C  
BRANCH  16  17
HETATM   17  C   UNL     1      -8.388   8.583  65.809  1.00  0.00    -0.144 C  
HETATM   18  C   UNL     1      -7.531   7.843  66.537  1.00  0.00    -0.088 C  
HETATM   19  C   UNL     1      -6.372   8.420  67.311  1.00  0.00    -0.057 C  
BRANCH  18  20
HETATM   20  C   UNL     1      -7.626   6.320  66.584  1.00  0.00    -0.095 C  
BRANCH  20  21
HETATM   21  C   UNL     1      -8.544   5.660  65.548  1.00  0.00    -0.151 C  
HETATM   22  O   UNL     1     -10.074   3.880  66.121  1.00  0.00    -0.122 OA 
HETATM   23  O   UNL     1     -10.640   5.989  66.673  1.00  0.00    -0.256 OA 
HETATM   24  C   UNL     1      -9.803   5.072  66.140  1.00  0.00    -0.198 C  
ENDBRANCH  20  21
ENDBRANCH  18  20
ENDBRANCH  16  17
ENDBRANCH   4  16
ENDBRANCH   2   3
TORSDOF 5
ENDMDL
MODEL      104
REMARK 921   NORMALIZED FREE ENERGY PREDICTED BY IDOCK:   -5.21 KCAL/MOL
REMARK 922        TOTAL FREE ENERGY PREDICTED BY IDOCK:   -6.99 KCAL/MOL
REMARK 923 INTER-LIGAND FREE ENERGY PREDICTED BY IDOCK:   -6.57 KCAL/MOL
REMARK 924 INTRA-LIGAND FREE ENERGY PREDICTED BY IDOCK:   -0.42 KCAL/MOL
REMARK 927      BINDING AFFINITY PREDICTED BY RF-SCORE:    0.00 PKD
ROOT
HETATM    1  C   UNL     1      -9.772   9.681  70.137  1.00  0.00    -0.254 C  
HETATM    2  O   UNL     1     -10.902   9.716  69.271  1.00  0.00    -0.224 OA 
ENDROOT
BRANCH   2   3
HETATM    3  C   UNL     1     -10.793  10.375  68.067  1.00  0.00    -0.270 A  
HETATM    4  C   UNL     1     -10.177   9.826  66.897  1.00  0.00    -0.310 A  
HETATM    5  C   UNL     1     -10.283  10.562  65.695  1.00  0.00    -0.246 A  
HETATM    6  C   UNL     1     -12.221  13.563  66.472  1.00  0.00    -0.380 C  
HETATM    7  O   UNL     1      -9.675  10.179  64.537  1.00  0.00    -0.302 OA 
HETATM    8  C   UNL     1     -12.084  12.198  69.276  1.00  0.00    -0.234 C  
HETATM    9  C   UNL     1     -11.000  11.750  65.674  1.00  0.00    -0.348 A  
HETATM   10  C   UNL     1     -11.306  12.632  64.543  1.00  0.00    -0.333 C  
HETATM   11  C   UNL     1     -11.488  11.611  68.027  1.00  0.00    -0.385 A  
HETATM   12  H   UNL     1      -9.746  10.673  63.729  1.00  0.00     0.000 HD 
HETATM   13  O   UNL     1     -11.038  12.479  63.369  1.00  0.00    -0.459 OA 
HETATM   14  C   UNL     1     -11.578  12.276  66.811  1.00  0.00    -0.434 A  
HETATM   15  O   UNL     1     -12.022  13.682  65.054  1.00  0.00    -0.346 OA 
BRANCH   4  16
HETATM   16  C   UNL     1      -9.357   8.564  67.023  1.00  0.00    -0.204 C  
BRANCH  16  17
HETATM   17  C   UNL     1      -9.793   7.294  66.365  1.00  0.00    -0.124 C  
HETATM   18  C   UNL     1     -10.493   6.297  66.938  1.00  0.00    -0.337 C  
HETATM   19  C   UNL     1     -11.132   6.396  68.301  1.00  0.00    -0.359 C  
BRANCH  18  20
HETATM   20  C   UNL     1     -10.642   4.933  66.269  1.00  0.00    -0.307 C  
BRANCH  20  21
HETATM   21  C   UNL     1      -9.465   4.462  65.407  1.00  0.00    -0.175 C  
HETATM   22  O   UNL     1      -9.398   2.271  64.391  1.00  0.00    -0.126 OA 
HETATM   23  O   UNL     1     -10.695   3.847  63.437  1.00  0.00    -0.235 OA 
HETATM   24  C   UNL     1      -9.841   3.411  64.388  1.00  0.00    -0.174 C  
ENDBRANCH  20  21
ENDBRANCH  18  20
ENDBRANCH  16  17
ENDBRANCH   4  16
ENDBRANCH   2   3
TORSDOF 5
ENDMDL
MODEL      105
REMARK 921   NORMALIZED FREE ENERGY PREDICTED BY IDOCK:   -5.16 KCAL/MOL
REMARK 922        TOTAL FREE ENERGY PREDICTED BY IDOCK:   -6.93 KCAL/MOL
REMARK 923 INTER-LIGAND FREE ENERGY PREDICTED BY IDOCK:   -6.55 KCAL/MOL
REMARK 924 INTRA-LIGAND FREE ENERGY PREDICTED BY IDOCK:   -0.39 KCAL/MOL
REMARK 927      BINDING AFFINITY PREDICTED BY RF-SCORE:    0.00 PKD
ROOT
HETATM    1  C   UNL     1     -12.977  14.023  65.424  1.00  0.00    -0.310 C  
HETATM    2  O   UNL     1     -12.608  12.745  65.933  1.00  0.00    -0.518 OA 
ENDROOT
BRANCH   2   3
HETATM    3  C   UNL     1     -11.356  12.253  65.637  1.00  0.00    -0.350 A  
HETATM    4  C   UNL     1     -10.287  12.138  66.582  1.00  0.00    -0.233 A  
HETATM    5  C   UNL     1      -9.114  11.468  66.166  1.00  0.00    -0.209 A  
HETATM    6  C   UNL     1      -9.687  10.396  62.719  1.00  0.00    -0.191 C  
HETATM    7  O   UNL     1      -8.005  11.364  66.951  1.00  0.00    -0.147 OA 
HETATM    8  C   UNL     1     -12.361  11.886  63.333  1.00  0.00    -0.577 C  
HETATM    9  C   UNL     1      -9.049  10.916  64.895  1.00  0.00    -0.201 A  
HETATM   10  C   UNL     1      -7.981  10.121  64.280  1.00  0.00    -0.155 C  
HETATM   11  C   UNL     1     -11.249  11.712  64.329  1.00  0.00    -0.392 A  
HETATM   12  H   UNL     1      -7.217  10.913  66.672  1.00  0.00     0.000 HD 
HETATM   13  O   UNL     1      -6.944   9.731  64.777  1.00  0.00    -0.109 OA 
HETATM   14  C   UNL     1     -10.080  11.044  63.987  1.00  0.00    -0.408 A  
HETATM   15  O   UNL     1      -8.395   9.837  63.006  1.00  0.00    -0.142 OA 
BRANCH   4  16
HETATM   16  C   UNL     1     -10.414  12.828  67.920  1.00  0.00    -0.226 C  
BRANCH  16  17
HETATM   17  C   UNL     1     -10.288  14.314  68.035  1.00  0.00    -0.229 C  
HETATM   18  C   UNL     1      -9.197  14.994  68.433  1.00  0.00    -0.193 C  
HETATM   19  C   UNL     1      -7.842  14.363  68.636  1.00  0.00    -0.140 C  
BRANCH  18  20
HETATM   20  C   UNL     1      -9.261  16.478  68.783  1.00  0.00    -0.252 C  
BRANCH  20  21
HETATM   21  C   UNL     1     -10.614  17.171  68.581  1.00  0.00    -0.352 C  
HETATM   22  O   UNL     1     -10.806  19.395  67.657  1.00  0.00    -0.455 OA 
HETATM   23  O   UNL     1     -10.399  17.688  66.245  1.00  0.00    -0.356 OA 
HETATM   24  C   UNL     1     -10.609  18.202  67.476  1.00  0.00    -0.401 C  
ENDBRANCH  20  21
ENDBRANCH  18  20
ENDBRANCH  16  17
ENDBRANCH   4  16
ENDBRANCH   2   3
TORSDOF 5
ENDMDL
MODEL      106
REMARK 921   NORMALIZED FREE ENERGY PREDICTED BY IDOCK:   -5.13 KCAL/MOL
REMARK 922        TOTAL FREE ENERGY PREDICTED BY IDOCK:   -6.89 KCAL/MOL
REMARK 923 INTER-LIGAND FREE ENERGY PREDICTED BY IDOCK:   -6.56 KCAL/MOL
REMARK 924 INTRA-LIGAND FREE ENERGY PREDICTED BY IDOCK:   -0.34 KCAL/MOL
REMARK 927      BINDING AFFINITY PREDICTED BY RF-SCORE:    0.00 PKD
ROOT
HETATM    1  C   UNL     1     -11.739   9.867  70.987  1.00  0.00    -0.382 C  
HETATM    2  O   UNL     1     -10.593   9.035  70.837  1.00  0.00    -0.213 OA 
ENDROOT
BRANCH   2   3
HETATM    3  C   UNL     1     -10.235   8.625  69.571  1.00  0.00    -0.209 A  
HETATM    4  C   UNL     1      -9.391   9.370  68.687  1.00  0.00    -0.142 A  
HETATM    5  C   UNL     1      -8.988   8.745  67.486  1.00  0.00    -0.134 A  
HETATM    6  C   UNL     1     -10.473   5.405  67.493  1.00  0.00    -0.170 C  
HETATM    7  O   UNL     1      -8.249   9.380  66.534  1.00  0.00    -0.113 OA 
HETATM    8  C   UNL     1     -11.580   6.556  70.175  1.00  0.00    -0.466 C  
HETATM    9  C   UNL     1      -9.378   7.440  67.222  1.00  0.00    -0.159 A  
HETATM   10  C   UNL     1      -9.023   6.573  66.094  1.00  0.00    -0.146 C  
HETATM   11  C   UNL     1     -10.652   7.304  69.260  1.00  0.00    -0.230 A  
HETATM   12  H   UNL     1      -7.977   8.961  65.726  1.00  0.00     0.000 HD 
HETATM   13  O   UNL     1      -8.264   6.798  65.174  1.00  0.00    -0.131 OA 
HETATM   14  C   UNL     1     -10.203   6.736  68.075  1.00  0.00    -0.200 A  
HETATM   15  O   UNL     1      -9.686   5.390  66.292  1.00  0.00    -0.154 OA 
BRANCH   4  16
HETATM   16  C   UNL     1      -9.070  10.808  69.018  1.00  0.00    -0.153 C  
BRANCH  16  17
HETATM   17  C   UNL     1      -9.248  11.890  68.001  1.00  0.00    -0.190 C  
HETATM   18  C   UNL     1     -10.417  12.329  67.498  1.00  0.00    -0.230 C  
HETATM   19  C   UNL     1     -11.767  11.928  68.040  1.00  0.00    -0.382 C  
BRANCH  18  20
HETATM   20  C   UNL     1     -10.472  13.234  66.270  1.00  0.00    -0.289 C  
BRANCH  20  21
HETATM   21  C   UNL     1     -11.718  14.116  66.126  1.00  0.00    -0.402 C  
HETATM   22  O   UNL     1     -12.643  14.710  63.975  1.00  0.00    -0.819 OA 
HETATM   23  O   UNL     1     -13.040  12.640  64.769  1.00  0.00    -0.852 OA 
HETATM   24  C   UNL     1     -12.491  13.871  64.851  1.00  0.00    -0.391 C  
ENDBRANCH  20  21
ENDBRANCH  18  20
ENDBRANCH  16  17
ENDBRANCH   4  16
ENDBRANCH   2   3
TORSDOF 5
ENDMDL
MODEL      107
REMARK 921   NORMALIZED FREE ENERGY PREDICTED BY IDOCK:   -5.11 KCAL/MOL
REMARK 922        TOTAL FREE ENERGY PREDICTED BY IDOCK:   -6.87 KCAL/MOL
REMARK 923 INTER-LIGAND FREE ENERGY PREDICTED BY IDOCK:   -6.30 KCAL/MOL
REMARK 924 INTRA-LIGAND FREE ENERGY PREDICTED BY IDOCK:   -0.57 KCAL/MOL
REMARK 927      BINDING AFFINITY PREDICTED BY RF-SCORE:    0.00 PKD
ROOT
HETATM    1  C   UNL     1      -8.986  13.548  67.166  1.00  0.00    -0.227 C  
HETATM    2  O   UNL     1     -10.388  13.373  66.989  1.00  0.00    -0.245 OA 
ENDROOT
BRANCH   2   3
HETATM    3  C   UNL     1     -11.125  12.851  68.029  1.00  0.00    -0.253 A  
HETATM    4  C   UNL     1     -11.286  11.451  68.285  1.00  0.00    -0.354 A  
HETATM    5  C   UNL     1     -11.939  11.075  69.480  1.00  0.00    -0.342 A  
HETATM    6  C   UNL     1     -12.800  14.171  71.223  1.00  0.00    -0.359 C  
HETATM    7  O   UNL     1     -12.217   9.778  69.794  1.00  0.00    -0.433 OA 
HETATM    8  C   UNL     1     -11.467  15.294  68.633  1.00  0.00    -0.350 C  
HETATM    9  C   UNL     1     -12.360  12.050  70.373  1.00  0.00    -0.317 A  
HETATM   10  C   UNL     1     -12.981  11.897  71.692  1.00  0.00    -0.342 C  
HETATM   11  C   UNL     1     -11.599  13.829  68.942  1.00  0.00    -0.358 A  
HETATM   12  H   UNL     1     -12.656   9.524  70.597  1.00  0.00     0.000 HD 
HETATM   13  O   UNL     1     -13.212  10.876  72.308  1.00  0.00    -0.406 OA 
HETATM   14  C   UNL     1     -12.212  13.396  70.110  1.00  0.00    -0.385 A  
HETATM   15  O   UNL     1     -13.223  13.163  72.155  1.00  0.00    -0.451 OA 
BRANCH   4  16
HETATM   16  C   UNL     1     -10.862  10.459  67.228  1.00  0.00    -0.324 C  
BRANCH  16  17
HETATM   17  C   UNL     1      -9.578   9.702  67.353  1.00  0.00    -0.183 C  
HETATM   18  C   UNL     1      -9.448   8.379  67.560  1.00  0.00    -0.182 C  
HETATM   19  C   UNL     1     -10.597   7.403  67.498  1.00  0.00    -0.340 C  
BRANCH  18  20
HETATM   20  C   UNL     1      -8.111   7.756  67.950  1.00  0.00    -0.126 C  
BRANCH  20  21
HETATM   21  C   UNL     1      -7.959   6.251  67.703  1.00  0.00    -0.113 C  
HETATM   22  O   UNL     1      -7.984   5.293  65.486  1.00  0.00    -0.101 OA 
HETATM   23  O   UNL     1      -6.107   6.330  66.175  1.00  0.00    -0.031 OA 
HETATM   24  C   UNL     1      -7.380   5.913  66.348  1.00  0.00    -0.078 C  
ENDBRANCH  20  21
ENDBRANCH  18  20
ENDBRANCH  16  17
ENDBRANCH   4  16
ENDBRANCH   2   3
TORSDOF 5
ENDMDL
MODEL      108
REMARK 921   NORMALIZED FREE ENERGY PREDICTED BY IDOCK:   -5.10 KCAL/MOL
REMARK 922        TOTAL FREE ENERGY PREDICTED BY IDOCK:   -6.86 KCAL/MOL
REMARK 923 INTER-LIGAND FREE ENERGY PREDICTED BY IDOCK:   -6.51 KCAL/MOL
REMARK 924 INTRA-LIGAND FREE ENERGY PREDICTED BY IDOCK:   -0.35 KCAL/MOL
REMARK 927      BINDING AFFINITY PREDICTED BY RF-SCORE:    0.00 PKD
ROOT
HETATM    1  C   UNL     1     -10.547   7.881  68.874  1.00  0.00    -0.145 C  
HETATM    2  O   UNL     1     -10.470   9.280  69.126  1.00  0.00    -0.210 OA 
ENDROOT
BRANCH   2   3
HETATM    3  C   UNL     1      -9.344   9.963  68.724  1.00  0.00    -0.157 A  
HETATM    4  C   UNL     1      -9.244  10.717  67.511  1.00  0.00    -0.151 A  
HETATM    5  C   UNL     1      -8.079  11.491  67.314  1.00  0.00    -0.153 A  
HETATM    6  C   UNL     1      -5.991  11.010  70.277  1.00  0.00    -0.139 C  
HETATM    7  O   UNL     1      -7.838  12.188  66.168  1.00  0.00    -0.253 OA 
HETATM    8  C   UNL     1      -8.411   9.155  70.944  1.00  0.00    -0.251 C  
HETATM    9  C   UNL     1      -7.103  11.531  68.300  1.00  0.00    -0.080 A  
HETATM   10  C   UNL     1      -5.864  12.313  68.351  1.00  0.00    -0.054 C  
HETATM   11  C   UNL     1      -8.314   9.992  69.700  1.00  0.00    -0.188 A  
HETATM   12  H   UNL     1      -7.055  12.708  66.036  1.00  0.00     0.000 HD 
HETATM   13  O   UNL     1      -5.454  13.136  67.558  1.00  0.00    -0.266 OA 
HETATM   14  C   UNL     1      -7.203  10.791  69.460  1.00  0.00    -0.132 A  
HETATM   15  O   UNL     1      -5.242  11.979  69.525  1.00  0.00    -0.064 OA 
BRANCH   4  16
HETATM   16  C   UNL     1     -10.319  10.561  66.461  1.00  0.00    -0.294 C  
BRANCH  16  17
HETATM   17  C   UNL     1     -11.119  11.736  65.998  1.00  0.00    -0.363 C  
HETATM   18  C   UNL     1     -11.287  12.137  64.724  1.00  0.00    -0.378 C  
HETATM   19  C   UNL     1     -10.850  11.330  63.527  1.00  0.00    -0.373 C  
BRANCH  18  20
HETATM   20  C   UNL     1     -11.885  13.499  64.384  1.00  0.00    -0.455 C  
BRANCH  20  21
HETATM   21  C   UNL     1     -11.714  14.603  65.434  1.00  0.00    -0.330 C  
HETATM   22  O   UNL     1      -9.882  16.176  65.373  1.00  0.00    -0.474 OA 
HETATM   23  O   UNL     1     -11.599  16.487  63.949  1.00  0.00    -1.175 OA 
HETATM   24  C   UNL     1     -10.960  15.811  64.928  1.00  0.00    -0.427 C  
ENDBRANCH  20  21
ENDBRANCH  18  20
ENDBRANCH  16  17
ENDBRANCH   4  16
ENDBRANCH   2   3
TORSDOF 5
ENDMDL
MODEL      109
REMARK 921   NORMALIZED FREE ENERGY PREDICTED BY IDOCK:   -5.08 KCAL/MOL
REMARK 922        TOTAL FREE ENERGY PREDICTED BY IDOCK:   -6.82 KCAL/MOL
REMARK 923 INTER-LIGAND FREE ENERGY PREDICTED BY IDOCK:   -6.49 KCAL/MOL
REMARK 924 INTRA-LIGAND FREE ENERGY PREDICTED BY IDOCK:   -0.33 KCAL/MOL
REMARK 927      BINDING AFFINITY PREDICTED BY RF-SCORE:    0.00 PKD
ROOT
HETATM    1  C   UNL     1     -11.418  14.612  65.175  1.00  0.00    -0.375 C  
HETATM    2  O   UNL     1     -10.209  13.893  64.949  1.00  0.00    -0.395 OA 
ENDROOT
BRANCH   2   3
HETATM    3  C   UNL     1      -9.761  13.031  65.925  1.00  0.00    -0.178 A  
HETATM    4  C   UNL     1      -9.023  13.433  67.084  1.00  0.00    -0.227 A  
HETATM    5  C   UNL     1      -8.770  12.456  68.071  1.00  0.00    -0.186 A  
HETATM    6  C   UNL     1     -10.318   9.358  66.898  1.00  0.00    -0.238 C  
HETATM    7  O   UNL     1      -8.016  12.701  69.179  1.00  0.00    -0.319 OA 
HETATM    8  C   UNL     1     -10.956  11.282  64.524  1.00  0.00    -0.301 C  
HETATM    9  C   UNL     1      -9.270  11.170  67.914  1.00  0.00    -0.154 A  
HETATM   10  C   UNL     1      -9.202  10.027  68.830  1.00  0.00    -0.159 C  
HETATM   11  C   UNL     1     -10.228  11.700  65.770  1.00  0.00    -0.281 A  
HETATM   12  H   UNL     1      -7.846  12.044  69.844  1.00  0.00     0.000 HD 
HETATM   13  O   UNL     1      -8.736   9.980  69.950  1.00  0.00    -0.197 OA 
HETATM   14  C   UNL     1      -9.968  10.790  66.787  1.00  0.00    -0.249 A  
HETATM   15  O   UNL     1      -9.827   8.986  68.196  1.00  0.00    -0.156 OA 
BRANCH   4  16
HETATM   16  C   UNL     1      -8.457  14.833  67.143  1.00  0.00    -0.247 C  
BRANCH  16  17
HETATM   17  C   UNL     1      -9.336  16.008  67.428  1.00  0.00    -0.220 C  
HETATM   18  C   UNL     1      -8.985  17.126  68.090  1.00  0.00    -0.240 C  
HETATM   19  C   UNL     1      -7.566  17.460  68.480  1.00  0.00    -0.254 C  
BRANCH  18  20
HETATM   20  C   UNL     1     -10.025  18.135  68.569  1.00  0.00    -0.408 C  
BRANCH  20  21
HETATM   21  C   UNL     1      -9.927  19.549  67.984  1.00  0.00    -0.513 C  
HETATM   22  O   UNL     1      -8.699  20.032  65.961  1.00  0.00    -0.342 OA 
HETATM   23  O   UNL     1     -10.728  19.072  65.771  1.00  0.00    -0.466 OA 
HETATM   24  C   UNL     1      -9.701  19.574  66.491  1.00  0.00    -0.388 C  
ENDBRANCH  20  21
ENDBRANCH  18  20
ENDBRANCH  16  17
ENDBRANCH   4  16
ENDBRANCH   2   3
TORSDOF 5
ENDMDL
MODEL      110
REMARK 921   NORMALIZED FREE ENERGY PREDICTED BY IDOCK:   -5.07 KCAL/MOL
REMARK 922        TOTAL FREE ENERGY PREDICTED BY IDOCK:   -6.81 KCAL/MOL
REMARK 923 INTER-LIGAND FREE ENERGY PREDICTED BY IDOCK:   -6.16 KCAL/MOL
REMARK 924 INTRA-LIGAND FREE ENERGY PREDICTED BY IDOCK:   -0.65 KCAL/MOL
REMARK 927      BINDING AFFINITY PREDICTED BY RF-SCORE:    0.00 PKD
ROOT
HETATM    1  C   UNL     1      -7.664  11.431  68.491  1.00  0.00    -0.133 C  
HETATM    2  O   UNL     1      -8.708  10.906  69.305  1.00  0.00    -0.099 OA 
ENDROOT
BRANCH   2   3
HETATM    3  C   UNL     1      -9.128   9.612  69.086  1.00  0.00    -0.154 A  
HETATM    4  C   UNL     1     -10.111   9.233  68.117  1.00  0.00    -0.222 A  
HETATM    5  C   UNL     1     -10.320   7.853  67.902  1.00  0.00    -0.221 A  
HETATM    6  C   UNL     1      -8.012   6.087  70.120  1.00  0.00    -0.106 C  
HETATM    7  O   UNL     1     -11.280   7.372  67.062  1.00  0.00    -0.491 OA 
HETATM    8  C   UNL     1      -7.393   9.056  70.856  1.00  0.00    -0.119 C  
HETATM    9  C   UNL     1      -9.554   6.923  68.591  1.00  0.00    -0.133 A  
HETATM   10  C   UNL     1      -9.540   5.461  68.477  1.00  0.00    -0.129 C  
HETATM   11  C   UNL     1      -8.384   8.641  69.806  1.00  0.00    -0.123 A  
HETATM   12  H   UNL     1     -11.420   6.443  66.917  1.00  0.00     0.000 HD 
HETATM   13  O   UNL     1     -10.164   4.755  67.712  1.00  0.00    -0.108 OA 
HETATM   14  C   UNL     1      -8.619   7.299  69.533  1.00  0.00    -0.134 A  
HETATM   15  O   UNL     1      -8.623   5.011  69.390  1.00  0.00    -0.087 OA 
BRANCH   4  16
HETATM   16  C   UNL     1     -10.949  10.307  67.463  1.00  0.00    -0.344 C  
BRANCH  16  17
HETATM   17  C   UNL     1     -10.471  11.016  66.237  1.00  0.00    -0.310 C  
HETATM   18  C   UNL     1     -10.414  12.349  66.057  1.00  0.00    -0.281 C  
HETATM   19  C   UNL     1     -10.639  13.355  67.158  1.00  0.00    -0.259 C  
BRANCH  18  20
HETATM   20  C   UNL     1     -10.179  12.962  64.679  1.00  0.00    -0.321 C  
BRANCH  20  21
HETATM   21  C   UNL     1     -10.939  12.328  63.508  1.00  0.00    -0.521 C  
HETATM   22  O   UNL     1     -13.304  11.846  63.607  1.00  0.00    -0.620 OA 
HETATM   23  O   UNL     1     -12.665  13.980  63.271  1.00  0.00    -0.750 OA 
HETATM   24  C   UNL     1     -12.410  12.671  63.482  1.00  0.00    -0.496 C  
ENDBRANCH  20  21
ENDBRANCH  18  20
ENDBRANCH  16  17
ENDBRANCH   4  16
ENDBRANCH   2   3
TORSDOF 5
ENDMDL
MODEL      111
REMARK 921   NORMALIZED FREE ENERGY PREDICTED BY IDOCK:   -5.04 KCAL/MOL
REMARK 922        TOTAL FREE ENERGY PREDICTED BY IDOCK:   -6.78 KCAL/MOL
REMARK 923 INTER-LIGAND FREE ENERGY PREDICTED BY IDOCK:   -6.58 KCAL/MOL
REMARK 924 INTRA-LIGAND FREE ENERGY PREDICTED BY IDOCK:   -0.19 KCAL/MOL
REMARK 927      BINDING AFFINITY PREDICTED BY RF-SCORE:    0.00 PKD
ROOT
HETATM    1  C   UNL     1     -11.030  15.233  64.758  1.00  0.00    -0.386 C  
HETATM    2  O   UNL     1     -11.269  15.666  66.093  1.00  0.00    -0.200 OA 
ENDROOT
BRANCH   2   3
HETATM    3  C   UNL     1     -10.288  15.466  67.039  1.00  0.00    -0.280 A  
HETATM    4  C   UNL     1      -9.860  14.181  67.502  1.00  0.00    -0.235 A  
HETATM    5  C   UNL     1      -8.736  14.134  68.356  1.00  0.00    -0.178 A  
HETATM    6  C   UNL     1      -7.609  17.584  68.794  1.00  0.00    -0.258 C  
HETATM    7  O   UNL     1      -8.283  12.979  68.920  1.00  0.00    -0.345 OA 
HETATM    8  C   UNL     1     -10.102  17.998  66.963  1.00  0.00    -0.348 C  
HETATM    9  C   UNL     1      -8.066  15.305  68.682  1.00  0.00    -0.156 A  
HETATM   10  C   UNL     1      -6.848  15.491  69.476  1.00  0.00    -0.186 C  
HETATM   11  C   UNL     1      -9.609  16.653  67.417  1.00  0.00    -0.242 A  
HETATM   12  H   UNL     1      -7.527  12.947  69.494  1.00  0.00     0.000 HD 
HETATM   13  O   UNL     1      -6.133  14.646  69.976  1.00  0.00    -0.127 OA 
HETATM   14  C   UNL     1      -8.496  16.540  68.240  1.00  0.00    -0.199 A  
HETATM   15  O   UNL     1      -6.615  16.840  69.517  1.00  0.00    -0.226 OA 
BRANCH   4  16
HETATM   16  C   UNL     1     -10.686  12.964  67.157  1.00  0.00    -0.268 C  
BRANCH  16  17
HETATM   17  C   UNL     1     -11.247  12.085  68.228  1.00  0.00    -0.315 C  
HETATM   18  C   UNL     1     -11.862  12.491  69.354  1.00  0.00    -0.368 C  
HETATM   19  C   UNL     1     -12.269  13.919  69.620  1.00  0.00    -0.374 C  
BRANCH  18  20
HETATM   20  C   UNL     1     -12.144  11.529  70.506  1.00  0.00    -0.472 C  
BRANCH  20  21
HETATM   21  C   UNL     1     -11.667  10.084  70.322  1.00  0.00    -0.327 C  
HETATM   22  O   UNL     1     -10.647   8.819  72.110  1.00  0.00    -0.340 OA 
HETATM   23  O   UNL     1     -12.884   9.079  72.133  1.00  0.00    -0.361 OA 
HETATM   24  C   UNL     1     -11.659   9.280  71.602  1.00  0.00    -0.393 C  
ENDBRANCH  20  21
ENDBRANCH  18  20
ENDBRANCH  16  17
ENDBRANCH   4  16
ENDBRANCH   2   3
TORSDOF 5
ENDMDL
MODEL      112
REMARK 921   NORMALIZED FREE ENERGY PREDICTED BY IDOCK:   -5.01 KCAL/MOL
REMARK 922        TOTAL FREE ENERGY PREDICTED BY IDOCK:   -6.74 KCAL/MOL
REMARK 923 INTER-LIGAND FREE ENERGY PREDICTED BY IDOCK:   -7.09 KCAL/MOL
REMARK 924 INTRA-LIGAND FREE ENERGY PREDICTED BY IDOCK:    0.35 KCAL/MOL
REMARK 927      BINDING AFFINITY PREDICTED BY RF-SCORE:    0.00 PKD
ROOT
HETATM    1  C   UNL     1     -12.180  15.936  64.376  1.00  0.00     0.204 C  
HETATM    2  O   UNL     1     -11.184  16.952  64.435  1.00  0.00    -1.159 OA 
ENDROOT
BRANCH   2   3
HETATM    3  C   UNL     1     -10.301  16.952  65.492  1.00  0.00    -0.177 A  
HETATM    4  C   UNL     1      -9.555  15.809  65.923  1.00  0.00    -0.382 A  
HETATM    5  C   UNL     1      -8.573  16.006  66.919  1.00  0.00    -0.231 A  
HETATM    6  C   UNL     1      -8.612  19.568  67.738  1.00  0.00    -0.315 C  
HETATM    7  O   UNL     1      -7.854  14.983  67.462  1.00  0.00    -0.150 OA 
HETATM    8  C   UNL     1     -10.891  19.420  65.611  1.00  0.00    -0.323 C  
HETATM    9  C   UNL     1      -8.335  17.282  67.412  1.00  0.00    -0.211 A  
HETATM   10  C   UNL     1      -7.328  17.733  68.377  1.00  0.00    -0.257 C  
HETATM   11  C   UNL     1     -10.064  18.240  66.039  1.00  0.00    -0.278 A  
HETATM   12  H   UNL     1      -7.194  15.115  68.132  1.00  0.00     0.000 HD 
HETATM   13  O   UNL     1      -6.450  17.089  68.914  1.00  0.00    -0.168 OA 
HETATM   14  C   UNL     1      -9.069  18.374  66.998  1.00  0.00    -0.274 A  
HETATM   15  O   UNL     1      -7.525  19.079  68.541  1.00  0.00    -0.291 OA 
BRANCH   4  16
HETATM   16  C   UNL     1      -9.925  14.447  65.386  1.00  0.00    -0.344 C  
BRANCH  16  17
HETATM   17  C   UNL     1     -10.097  13.278  66.303  1.00  0.00    -0.294 C  
HETATM   18  C   UNL     1     -11.172  12.472  66.377  1.00  0.00    -0.353 C  
HETATM   19  C   UNL     1     -12.310  12.499  65.387  1.00  0.00    -0.426 C  
BRANCH  18  20
HETATM   20  C   UNL     1     -11.360  11.490  67.530  1.00  0.00    -0.366 C  
BRANCH  20  21
HETATM   21  C   UNL     1     -11.170  12.051  68.944  1.00  0.00    -0.315 C  
HETATM   22  O   UNL     1     -12.464  11.275  70.831  1.00  0.00    -0.365 OA 
HETATM   23  O   UNL     1     -10.776   9.979  70.094  1.00  0.00    -0.268 OA 
HETATM   24  C   UNL     1     -11.554  11.082  70.038  1.00  0.00    -0.344 C  
ENDBRANCH  20  21
ENDBRANCH  18  20
ENDBRANCH  16  17
ENDBRANCH   4  16
ENDBRANCH   2   3
TORSDOF 5
ENDMDL
MODEL      113
REMARK 921   NORMALIZED FREE ENERGY PREDICTED BY IDOCK:   -4.99 KCAL/MOL
REMARK 922        TOTAL FREE ENERGY PREDICTED BY IDOCK:   -6.71 KCAL/MOL
REMARK 923 INTER-LIGAND FREE ENERGY PREDICTED BY IDOCK:   -6.34 KCAL/MOL
REMARK 924 INTRA-LIGAND FREE ENERGY PREDICTED BY IDOCK:   -0.37 KCAL/MOL
REMARK 927      BINDING AFFINITY PREDICTED BY RF-SCORE:    0.00 PKD
ROOT
HETATM    1  C   UNL     1     -10.678  17.458  65.819  1.00  0.00    -0.120 C  
HETATM    2  O   UNL     1      -9.928  16.460  65.134  1.00  0.00    -0.479 OA 
ENDROOT
BRANCH   2   3
HETATM    3  C   UNL     1      -9.790  15.220  65.716  1.00  0.00    -0.361 A  
HETATM    4  C   UNL     1      -8.744  14.865  66.627  1.00  0.00    -0.262 A  
HETATM    5  C   UNL     1      -8.828  13.606  67.262  1.00  0.00    -0.224 A  
HETATM    6  C   UNL     1     -11.902  12.032  66.064  1.00  0.00    -0.148 C  
HETATM    7  O   UNL     1      -7.855  13.128  68.088  1.00  0.00    -0.124 OA 
HETATM    8  C   UNL     1     -11.940  14.711  64.463  1.00  0.00    -0.473 C  
HETATM    9  C   UNL     1      -9.920  12.783  67.023  1.00  0.00    -0.231 A  
HETATM   10  C   UNL     1     -10.255  11.486  67.618  1.00  0.00    -0.184 C  
HETATM   11  C   UNL     1     -10.877  14.344  65.460  1.00  0.00    -0.335 A  
HETATM   12  H   UNL     1      -7.911  12.282  68.515  1.00  0.00     0.000 HD 
HETATM   13  O   UNL     1      -9.670  10.879  68.491  1.00  0.00    -0.168 OA 
HETATM   14  C   UNL     1     -10.915  13.130  66.133  1.00  0.00    -0.299 A  
HETATM   15  O   UNL     1     -11.423  11.081  67.029  1.00  0.00    -0.415 OA 
BRANCH   4  16
HETATM   16  C   UNL     1      -7.558  15.788  66.776  1.00  0.00    -0.177 C  
BRANCH  16  17
HETATM   17  C   UNL     1      -7.686  17.098  67.486  1.00  0.00    -0.190 C  
HETATM   18  C   UNL     1      -7.176  18.277  67.084  1.00  0.00    -0.215 C  
HETATM   19  C   UNL     1      -6.555  18.505  65.728  1.00  0.00    -0.312 C  
BRANCH  18  20
HETATM   20  C   UNL     1      -7.123  19.486  68.014  1.00  0.00    -0.298 C  
BRANCH  20  21
HETATM   21  C   UNL     1      -7.942  20.711  67.590  1.00  0.00    -0.217 C  
HETATM   22  O   UNL     1      -9.880  20.542  66.158  1.00  0.00    -0.273 OA 
HETATM   23  O   UNL     1     -10.103  19.962  68.323  1.00  0.00    -0.423 OA 
HETATM   24  C   UNL     1      -9.383  20.395  67.265  1.00  0.00    -0.413 C  
ENDBRANCH  20  21
ENDBRANCH  18  20
ENDBRANCH  16  17
ENDBRANCH   4  16
ENDBRANCH   2   3
TORSDOF 5
ENDMDL
MODEL      114
REMARK 921   NORMALIZED FREE ENERGY PREDICTED BY IDOCK:   -4.98 KCAL/MOL
REMARK 922        TOTAL FREE ENERGY PREDICTED BY IDOCK:   -6.70 KCAL/MOL
REMARK 923 INTER-LIGAND FREE ENERGY PREDICTED BY IDOCK:   -6.14 KCAL/MOL
REMARK 924 INTRA-LIGAND FREE ENERGY PREDICTED BY IDOCK:   -0.56 KCAL/MOL
REMARK 927      BINDING AFFINITY PREDICTED BY RF-SCORE:    0.00 PKD
ROOT
HETATM    1  C   UNL     1      -7.129  12.557  68.432  1.00  0.00    -0.107 C  
HETATM    2  O   UNL     1      -8.255  11.686  68.388  1.00  0.00    -0.145 OA 
ENDROOT
BRANCH   2   3
HETATM    3  C   UNL     1      -9.159  11.827  67.358  1.00  0.00    -0.175 A  
HETATM    4  C   UNL     1     -10.173  12.835  67.303  1.00  0.00    -0.232 A  
HETATM    5  C   UNL     1     -10.921  12.948  66.110  1.00  0.00    -0.281 A  
HETATM    6  C   UNL     1      -9.623  10.412  63.818  1.00  0.00    -0.310 C  
HETATM    7  O   UNL     1     -11.960  13.818  65.968  1.00  0.00    -0.369 OA 
HETATM    8  C   UNL     1      -7.872   9.884  66.348  1.00  0.00    -0.107 C  
HETATM    9  C   UNL     1     -10.629  12.124  65.032  1.00  0.00    -0.330 A  
HETATM   10  C   UNL     1     -11.210  12.112  63.686  1.00  0.00    -0.464 C  
HETATM   11  C   UNL     1      -8.906  10.971  66.255  1.00  0.00    -0.187 A  
HETATM   12  H   UNL     1     -12.463  13.894  65.165  1.00  0.00     0.000 HD 
HETATM   13  O   UNL     1     -12.039  12.862  63.212  1.00  0.00    -0.561 OA 
HETATM   14  C   UNL     1      -9.658  11.146  65.100  1.00  0.00    -0.273 A  
HETATM   15  O   UNL     1     -10.593  11.095  63.007  1.00  0.00    -0.219 OA 
BRANCH   4  16
HETATM   16  C   UNL     1     -10.473  13.642  68.545  1.00  0.00    -0.249 C  
BRANCH  16  17
HETATM   17  C   UNL     1     -10.212  15.114  68.588  1.00  0.00    -0.227 C  
HETATM   18  C   UNL     1     -10.589  15.964  69.561  1.00  0.00    -0.282 C  
HETATM   19  C   UNL     1     -11.169  15.522  70.882  1.00  0.00    -0.409 C  
BRANCH  18  20
HETATM   20  C   UNL     1     -10.520  17.477  69.376  1.00  0.00    -0.001 C  
BRANCH  20  21
HETATM   21  C   UNL     1     -10.296  17.982  67.946  1.00  0.00    -0.402 C  
HETATM   22  O   UNL     1      -8.775  19.787  67.432  1.00  0.00    -0.304 OA 
HETATM   23  O   UNL     1      -7.907  17.753  67.862  1.00  0.00    -0.221 OA 
HETATM   24  C   UNL     1      -8.940  18.613  67.730  1.00  0.00    -0.282 C  
ENDBRANCH  20  21
ENDBRANCH  18  20
ENDBRANCH  16  17
ENDBRANCH   4  16
ENDBRANCH   2   3
TORSDOF 5
ENDMDL
MODEL      115
REMARK 921   NORMALIZED FREE ENERGY PREDICTED BY IDOCK:   -4.96 KCAL/MOL
REMARK 922        TOTAL FREE ENERGY PREDICTED BY IDOCK:   -6.67 KCAL/MOL
REMARK 923 INTER-LIGAND FREE ENERGY PREDICTED BY IDOCK:   -6.76 KCAL/MOL
REMARK 924 INTRA-LIGAND FREE ENERGY PREDICTED BY IDOCK:    0.09 KCAL/MOL
REMARK 927      BINDING AFFINITY PREDICTED BY RF-SCORE:    0.00 PKD
ROOT
HETATM    1  C   UNL     1     -10.386  12.614  67.134  1.00  0.00    -0.231 C  
HETATM    2  O   UNL     1      -9.864  13.189  68.328  1.00  0.00    -0.223 OA 
ENDROOT
BRANCH   2   3
HETATM    3  C   UNL     1      -9.497  14.516  68.317  1.00  0.00    -0.207 A  
HETATM    4  C   UNL     1     -10.342  15.593  68.737  1.00  0.00    -0.218 A  
HETATM    5  C   UNL     1      -9.769  16.882  68.816  1.00  0.00    -0.265 A  
HETATM    6  C   UNL     1      -6.262  16.531  67.846  1.00  0.00    -0.134 C  
HETATM    7  O   UNL     1     -10.491  17.994  69.130  1.00  0.00    -0.442 OA 
HETATM    8  C   UNL     1      -7.272  13.597  67.506  1.00  0.00    -0.169 C  
HETATM    9  C   UNL     1      -8.422  17.058  68.532  1.00  0.00    -0.257 A  
HETATM   10  C   UNL     1      -7.603  18.270  68.620  1.00  0.00    -0.296 C  
HETATM   11  C   UNL     1      -8.131  14.729  67.995  1.00  0.00    -0.140 A  
HETATM   12  H   UNL     1     -10.107  18.861  69.184  1.00  0.00     0.000 HD 
HETATM   13  O   UNL     1      -7.922  19.373  69.014  1.00  0.00    -0.351 OA 
HETATM   14  C   UNL     1      -7.620  16.015  68.115  1.00  0.00    -0.139 A  
HETATM   15  O   UNL     1      -6.345  17.918  68.210  1.00  0.00    -0.180 OA 
BRANCH   4  16
HETATM   16  C   UNL     1     -11.812  15.327  68.960  1.00  0.00    -0.342 C  
BRANCH  16  17
HETATM   17  C   UNL     1     -12.275  14.074  69.632  1.00  0.00    -0.383 C  
HETATM   18  C   UNL     1     -12.556  13.926  70.940  1.00  0.00    -0.431 C  
HETATM   19  C   UNL     1     -12.644  15.075  71.914  1.00  0.00    -0.403 C  
BRANCH  18  20
HETATM   20  C   UNL     1     -12.748  12.549  71.568  1.00  0.00    -0.325 C  
BRANCH  20  21
HETATM   21  C   UNL     1     -12.455  11.340  70.671  1.00  0.00    -0.439 C  
HETATM   22  O   UNL     1     -11.090   9.485  71.400  1.00  0.00    -0.351 OA 
HETATM   23  O   UNL     1     -13.209   9.609  72.155  1.00  0.00    -0.419 OA 
HETATM   24  C   UNL     1     -12.163  10.072  71.438  1.00  0.00    -0.416 C  
ENDBRANCH  20  21
ENDBRANCH  18  20
ENDBRANCH  16  17
ENDBRANCH   4  16
ENDBRANCH   2   3
TORSDOF 5
ENDMDL
MODEL      116
REMARK 921   NORMALIZED FREE ENERGY PREDICTED BY IDOCK:   -4.95 KCAL/MOL
REMARK 922        TOTAL FREE ENERGY PREDICTED BY IDOCK:   -6.66 KCAL/MOL
REMARK 923 INTER-LIGAND FREE ENERGY PREDICTED BY IDOCK:   -6.81 KCAL/MOL
REMARK 924 INTRA-LIGAND FREE ENERGY PREDICTED BY IDOCK:    0.15 KCAL/MOL
REMARK 927      BINDING AFFINITY PREDICTED BY RF-SCORE:    0.00 PKD
ROOT
HETATM    1  C   UNL     1     -10.649  17.047  65.685  1.00  0.00    -0.197 C  
HETATM    2  O   UNL     1      -9.229  17.148  65.664  1.00  0.00    -0.509 OA 
ENDROOT
BRANCH   2   3
HETATM    3  C   UNL     1      -8.556  17.245  66.862  1.00  0.00    -0.240 A  
HETATM    4  C   UNL     1      -8.229  16.131  67.700  1.00  0.00    -0.161 A  
HETATM    5  C   UNL     1      -7.399  16.374  68.817  1.00  0.00    -0.203 A  
HETATM    6  C   UNL     1      -6.586  19.937  68.764  1.00  0.00    -0.320 C  
HETATM    7  O   UNL     1      -7.083  15.409  69.727  1.00  0.00    -0.185 OA 
HETATM    8  C   UNL     1      -8.457  19.714  66.276  1.00  0.00    -0.383 C  
HETATM    9  C   UNL     1      -6.900  17.649  69.043  1.00  0.00    -0.240 A  
HETATM   10  C   UNL     1      -5.972  18.115  70.078  1.00  0.00    -0.167 C  
HETATM   11  C   UNL     1      -8.063  18.547  67.136  1.00  0.00    -0.248 A  
HETATM   12  H   UNL     1      -6.525  15.572  70.478  1.00  0.00     0.000 HD 
HETATM   13  O   UNL     1      -5.399  17.467  70.930  1.00  0.00    -0.251 OA 
HETATM   14  C   UNL     1      -7.232  18.718  68.236  1.00  0.00    -0.283 A  
HETATM   15  O   UNL     1      -5.814  19.461  69.879  1.00  0.00    -0.241 OA 
BRANCH   4  16
HETATM   16  C   UNL     1      -8.871  14.792  67.423  1.00  0.00    -0.203 C  
BRANCH  16  17
HETATM   17  C   UNL     1      -9.930  14.244  68.326  1.00  0.00    -0.239 C  
HETATM   18  C   UNL     1     -10.815  14.959  69.044  1.00  0.00    -0.248 C  
HETATM   19  C   UNL     1     -11.011  16.447  68.893  1.00  0.00    -0.332 C  
BRANCH  18  20
HETATM   20  C   UNL     1     -11.662  14.318  70.141  1.00  0.00    -0.357 C  
BRANCH  20  21
HETATM   21  C   UNL     1     -12.719  15.212  70.799  1.00  0.00    -0.463 C  
HETATM   22  O   UNL     1     -13.856  14.588  72.838  1.00  0.00    -0.561 OA 
HETATM   23  O   UNL     1     -11.744  15.355  72.990  1.00  0.00    -0.446 OA 
HETATM   24  C   UNL     1     -12.845  15.005  72.291  1.00  0.00    -0.333 C  
ENDBRANCH  20  21
ENDBRANCH  18  20
ENDBRANCH  16  17
ENDBRANCH   4  16
ENDBRANCH   2   3
TORSDOF 5
ENDMDL
MODEL      117
REMARK 921   NORMALIZED FREE ENERGY PREDICTED BY IDOCK:   -4.94 KCAL/MOL
REMARK 922        TOTAL FREE ENERGY PREDICTED BY IDOCK:   -6.64 KCAL/MOL
REMARK 923 INTER-LIGAND FREE ENERGY PREDICTED BY IDOCK:   -6.02 KCAL/MOL
REMARK 924 INTRA-LIGAND FREE ENERGY PREDICTED BY IDOCK:   -0.63 KCAL/MOL
REMARK 927      BINDING AFFINITY PREDICTED BY RF-SCORE:    0.00 PKD
ROOT
HETATM    1  C   UNL     1     -11.674  12.912  69.426  1.00  0.00    -0.321 C  
HETATM    2  O   UNL     1     -12.264  12.060  68.450  1.00  0.00    -0.373 OA 
ENDROOT
BRANCH   2   3
HETATM    3  C   UNL     1     -11.494  11.637  67.389  1.00  0.00    -0.285 A  
HETATM    4  C   UNL     1     -10.839  10.366  67.321  1.00  0.00    -0.324 A  
HETATM    5  C   UNL     1     -10.217  10.014  66.102  1.00  0.00    -0.213 A  
HETATM    6  C   UNL     1     -10.784  12.795  63.798  1.00  0.00    -0.361 C  
HETATM    7  O   UNL     1      -9.499   8.867  65.942  1.00  0.00    -0.237 OA 
HETATM    8  C   UNL     1     -12.174  13.866  66.379  1.00  0.00    -0.487 C  
HETATM    9  C   UNL     1     -10.293  10.874  65.015  1.00  0.00    -0.356 A  
HETATM   10  C   UNL     1      -9.799  10.690  63.647  1.00  0.00    -0.333 C  
HETATM   11  C   UNL     1     -11.525  12.514  66.274  1.00  0.00    -0.421 A  
HETATM   12  H   UNL     1      -9.081   8.630  65.122  1.00  0.00     0.000 HD 
HETATM   13  O   UNL     1      -9.260   9.717  63.160  1.00  0.00    -0.265 OA 
HETATM   14  C   UNL     1     -10.916  12.102  65.096  1.00  0.00    -0.355 A  
HETATM   15  O   UNL     1     -10.107  11.838  62.967  1.00  0.00    -0.384 OA 
BRANCH   4  16
HETATM   16  C   UNL     1     -10.743   9.522  68.570  1.00  0.00    -0.222 C  
BRANCH  16  17
HETATM   17  C   UNL     1      -9.580   9.654  69.501  1.00  0.00    -0.211 C  
HETATM   18  C   UNL     1      -8.699   8.688  69.820  1.00  0.00    -0.132 C  
HETATM   19  C   UNL     1      -8.627   7.353  69.120  1.00  0.00    -0.136 C  
BRANCH  18  20
HETATM   20  C   UNL     1      -7.725   8.843  70.985  1.00  0.00    -0.155 C  
BRANCH  20  21
HETATM   21  C   UNL     1      -6.267   9.147  70.621  1.00  0.00    -0.051 C  
HETATM   22  O   UNL     1      -5.662  10.512  68.722  1.00  0.00    -0.041 OA 
HETATM   23  O   UNL     1      -6.406  11.544  70.581  1.00  0.00    -0.287 OA 
HETATM   24  C   UNL     1      -6.086  10.443  69.867  1.00  0.00    -0.068 C  
ENDBRANCH  20  21
ENDBRANCH  18  20
ENDBRANCH  16  17
ENDBRANCH   4  16
ENDBRANCH   2   3
TORSDOF 5
ENDMDL
MODEL      118
REMARK 921   NORMALIZED FREE ENERGY PREDICTED BY IDOCK:   -4.93 KCAL/MOL
REMARK 922        TOTAL FREE ENERGY PREDICTED BY IDOCK:   -6.63 KCAL/MOL
REMARK 923 INTER-LIGAND FREE ENERGY PREDICTED BY IDOCK:   -6.46 KCAL/MOL
REMARK 924 INTRA-LIGAND FREE ENERGY PREDICTED BY IDOCK:   -0.18 KCAL/MOL
REMARK 927      BINDING AFFINITY PREDICTED BY RF-SCORE:    0.00 PKD
ROOT
HETATM    1  C   UNL     1     -10.677  16.546  69.400  1.00  0.00    -0.330 C  
HETATM    2  O   UNL     1     -11.494  15.906  68.425  1.00  0.00    -0.365 OA 
ENDROOT
BRANCH   2   3
HETATM    3  C   UNL     1     -11.225  14.596  68.095  1.00  0.00    -0.289 A  
HETATM    4  C   UNL     1     -10.405  14.191  66.994  1.00  0.00    -0.267 A  
HETATM    5  C   UNL     1     -10.095  12.817  66.879  1.00  0.00    -0.232 A  
HETATM    6  C   UNL     1     -11.706  11.141  69.699  1.00  0.00    -0.339 C  
HETATM    7  O   UNL     1      -9.387  12.304  65.833  1.00  0.00    -0.367 OA 
HETATM    8  C   UNL     1     -12.613  14.092  70.162  1.00  0.00    -0.310 C  
HETATM    9  C   UNL     1     -10.550  11.924  67.838  1.00  0.00    -0.229 A  
HETATM   10  C   UNL     1     -10.294  10.486  67.967  1.00  0.00    -0.181 C  
HETATM   11  C   UNL     1     -11.710  13.657  69.042  1.00  0.00    -0.375 A  
HETATM   12  H   UNL     1      -9.178  11.381  65.756  1.00  0.00     0.000 HD 
HETATM   13  O   UNL     1      -9.580   9.780  67.285  1.00  0.00    -0.150 OA 
HETATM   14  C   UNL     1     -11.352  12.324  68.888  1.00  0.00    -0.337 A  
HETATM   15  O   UNL     1     -10.989  10.066  69.070  1.00  0.00    -0.223 OA 
BRANCH   4  16
HETATM   16  C   UNL     1     -10.010  15.216  65.957  1.00  0.00    -0.335 C  
BRANCH  16  17
HETATM   17  C   UNL     1      -9.103  16.354  66.305  1.00  0.00    -0.362 C  
HETATM   18  C   UNL     1      -7.916  16.265  66.932  1.00  0.00    -0.278 C  
HETATM   19  C   UNL     1      -7.207  14.962  67.206  1.00  0.00    -0.142 C  
BRANCH  18  20
HETATM   20  C   UNL     1      -7.207  17.498  67.486  1.00  0.00    -0.184 C  
BRANCH  20  21
HETATM   21  C   UNL     1      -7.347  18.791  66.673  1.00  0.00    -0.243 C  
HETATM   22  O   UNL     1      -8.872  20.557  67.299  1.00  0.00    -0.350 OA 
HETATM   23  O   UNL     1      -6.940  20.365  68.441  1.00  0.00    -0.267 OA 
HETATM   24  C   UNL     1      -7.814  19.974  67.489  1.00  0.00    -0.301 C  
ENDBRANCH  20  21
ENDBRANCH  18  20
ENDBRANCH  16  17
ENDBRANCH   4  16
ENDBRANCH   2   3
TORSDOF 5
ENDMDL
MODEL      119
REMARK 921   NORMALIZED FREE ENERGY PREDICTED BY IDOCK:   -4.93 KCAL/MOL
REMARK 922        TOTAL FREE ENERGY PREDICTED BY IDOCK:   -6.63 KCAL/MOL
REMARK 923 INTER-LIGAND FREE ENERGY PREDICTED BY IDOCK:   -6.28 KCAL/MOL
REMARK 924 INTRA-LIGAND FREE ENERGY PREDICTED BY IDOCK:   -0.35 KCAL/MOL
REMARK 927      BINDING AFFINITY PREDICTED BY RF-SCORE:    0.00 PKD
ROOT
HETATM    1  C   UNL     1      -7.300   9.996  67.551  1.00  0.00    -0.090 C  
HETATM    2  O   UNL     1      -7.588   8.886  68.395  1.00  0.00    -0.089 OA 
ENDROOT
BRANCH   2   3
HETATM    3  C   UNL     1      -8.215   7.787  67.850  1.00  0.00    -0.123 A  
HETATM    4  C   UNL     1      -9.618   7.707  67.580  1.00  0.00    -0.178 A  
HETATM    5  C   UNL     1     -10.086   6.576  66.874  1.00  0.00    -0.192 A  
HETATM    6  C   UNL     1      -7.160   4.506  66.157  1.00  0.00    -0.074 C  
HETATM    7  O   UNL     1     -11.407   6.353  66.626  1.00  0.00    -0.726 OA 
HETATM    8  C   UNL     1      -5.857   6.847  67.759  1.00  0.00    -0.021 C  
HETATM    9  C   UNL     1      -9.186   5.615  66.435  1.00  0.00    -0.160 A  
HETATM   10  C   UNL     1      -9.426   4.414  65.630  1.00  0.00    -0.175 C  
HETATM   11  C   UNL     1      -7.320   6.772  67.423  1.00  0.00    -0.095 A  
HETATM   12  H   UNL     1     -11.722   5.592  66.152  1.00  0.00     0.000 HD 
HETATM   13  O   UNL     1     -10.464   4.032  65.130  1.00  0.00    -0.188 OA 
HETATM   14  C   UNL     1      -7.837   5.696  66.713  1.00  0.00    -0.101 A  
HETATM   15  O   UNL     1      -8.213   3.792  65.490  1.00  0.00    -0.100 OA 
BRANCH   4  16
HETATM   16  C   UNL     1     -10.537   8.760  68.153  1.00  0.00    -0.203 C  
BRANCH  16  17
HETATM   17  C   UNL     1     -10.743  10.066  67.454  1.00  0.00    -0.336 C  
HETATM   18  C   UNL     1     -11.262  11.185  67.991  1.00  0.00    -0.359 C  
HETATM   19  C   UNL     1     -11.536  11.361  69.464  1.00  0.00    -0.399 C  
BRANCH  18  20
HETATM   20  C   UNL     1     -11.686  12.368  67.124  1.00  0.00    -0.415 C  
BRANCH  20  21
HETATM   21  C   UNL     1     -11.348  12.278  65.631  1.00  0.00    -0.394 C  
HETATM   22  O   UNL     1     -13.049  12.100  63.926  1.00  0.00    -0.749 OA 
HETATM   23  O   UNL     1     -12.684  14.118  64.856  1.00  0.00    -0.645 OA 
HETATM   24  C   UNL     1     -12.444  12.795  64.729  1.00  0.00    -0.472 C  
ENDBRANCH  20  21
ENDBRANCH  18  20
ENDBRANCH  16  17
ENDBRANCH   4  16
ENDBRANCH   2   3
TORSDOF 5
ENDMDL
MODEL      120
REMARK 921   NORMALIZED FREE ENERGY PREDICTED BY IDOCK:   -4.89 KCAL/MOL
REMARK 922        TOTAL FREE ENERGY PREDICTED BY IDOCK:   -6.58 KCAL/MOL
REMARK 923 INTER-LIGAND FREE ENERGY PREDICTED BY IDOCK:   -6.25 KCAL/MOL
REMARK 924 INTRA-LIGAND FREE ENERGY PREDICTED BY IDOCK:   -0.33 KCAL/MOL
REMARK 927      BINDING AFFINITY PREDICTED BY RF-SCORE:    0.00 PKD
ROOT
HETATM    1  C   UNL     1      -8.511   5.602  67.762  1.00  0.00    -0.102 C  
HETATM    2  O   UNL     1      -9.884   5.975  67.820  1.00  0.00    -0.112 OA 
ENDROOT
BRANCH   2   3
HETATM    3  C   UNL     1     -10.242   7.060  68.589  1.00  0.00    -0.176 A  
HETATM    4  C   UNL     1     -10.330   8.404  68.102  1.00  0.00    -0.255 A  
HETATM    5  C   UNL     1     -10.862   9.382  68.971  1.00  0.00    -0.136 A  
HETATM    6  C   UNL     1     -11.730   7.661  72.078  1.00  0.00    -0.298 C  
HETATM    7  O   UNL     1     -10.926  10.704  68.647  1.00  0.00    -0.212 OA 
HETATM    8  C   UNL     1     -10.528   5.312  70.409  1.00  0.00    -0.322 C  
HETATM    9  C   UNL     1     -11.314   9.014  70.231  1.00  0.00    -0.202 A  
HETATM   10  C   UNL     1     -11.966   9.829  71.260  1.00  0.00    -0.386 C  
HETATM   11  C   UNL     1     -10.676   6.717  69.896  1.00  0.00    -0.297 A  
HETATM   12  H   UNL     1     -11.284  11.362  69.231  1.00  0.00     0.000 HD 
HETATM   13  O   UNL     1     -12.298  10.995  71.206  1.00  0.00    -0.353 OA 
HETATM   14  C   UNL     1     -11.212   7.718  70.695  1.00  0.00    -0.278 A  
HETATM   15  O   UNL     1     -12.193   8.998  72.326  1.00  0.00    -0.361 OA 
BRANCH   4  16
HETATM   16  C   UNL     1      -9.752   8.731  66.745  1.00  0.00    -0.286 C  
BRANCH  16  17
HETATM   17  C   UNL     1     -10.333   9.822  65.904  1.00  0.00    -0.148 C  
HETATM   18  C   UNL     1      -9.670  10.578  65.008  1.00  0.00    -0.351 C  
HETATM   19  C   UNL     1      -8.257  10.303  64.560  1.00  0.00    -0.158 C  
BRANCH  18  20
HETATM   20  C   UNL     1     -10.288  11.841  64.412  1.00  0.00    -0.353 C  
BRANCH  20  21
HETATM   21  C   UNL     1     -11.722  12.169  64.841  1.00  0.00    -0.373 C  
HETATM   22  O   UNL     1     -12.297  12.733  67.119  1.00  0.00    -0.357 OA 
HETATM   23  O   UNL     1     -11.307  14.309  65.850  1.00  0.00    -0.317 OA 
HETATM   24  C   UNL     1     -11.803  13.069  66.053  1.00  0.00    -0.417 C  
ENDBRANCH  20  21
ENDBRANCH  18  20
ENDBRANCH  16  17
ENDBRANCH   4  16
ENDBRANCH   2   3
TORSDOF 5
ENDMDL
MODEL      121
REMARK 921   NORMALIZED FREE ENERGY PREDICTED BY IDOCK:   -4.87 KCAL/MOL
REMARK 922        TOTAL FREE ENERGY PREDICTED BY IDOCK:   -6.56 KCAL/MOL
REMARK 923 INTER-LIGAND FREE ENERGY PREDICTED BY IDOCK:   -6.09 KCAL/MOL
REMARK 924 INTRA-LIGAND FREE ENERGY PREDICTED BY IDOCK:   -0.47 KCAL/MOL
REMARK 927      BINDING AFFINITY PREDICTED BY RF-SCORE:    0.00 PKD
ROOT
HETATM    1  C   UNL     1      -6.134   7.735  68.459  1.00  0.00    -0.036 C  
HETATM    2  O   UNL     1      -6.784   8.800  69.144  1.00  0.00    -0.049 OA 
ENDROOT
BRANCH   2   3
HETATM    3  C   UNL     1      -7.972   8.542  69.791  1.00  0.00    -0.103 A  
HETATM    4  C   UNL     1      -9.203   8.230  69.131  1.00  0.00    -0.151 A  
HETATM    5  C   UNL     1     -10.296   7.835  69.934  1.00  0.00    -0.223 A  
HETATM    6  C   UNL     1      -9.115   7.862  73.394  1.00  0.00    -0.283 C  
HETATM    7  O   UNL     1     -11.536   7.588  69.426  1.00  0.00    -0.440 OA 
HETATM    8  C   UNL     1      -6.562   8.835  71.884  1.00  0.00    -0.064 C  
HETATM    9  C   UNL     1     -10.137   7.722  71.308  1.00  0.00    -0.203 A  
HETATM   10  C   UNL     1     -11.092   7.262  72.320  1.00  0.00    -0.260 C  
HETATM   11  C   UNL     1      -7.846   8.455  71.202  1.00  0.00    -0.117 A  
HETATM   12  H   UNL     1     -12.271   7.322  69.966  1.00  0.00     0.000 HD 
HETATM   13  O   UNL     1     -12.216   6.830  72.161  1.00  0.00    -0.291 OA 
HETATM   14  C   UNL     1      -8.949   8.038  71.936  1.00  0.00    -0.200 A  
HETATM   15  O   UNL     1     -10.454   7.360  73.528  1.00  0.00    -0.355 OA 
BRANCH   4  16
HETATM   16  C   UNL     1      -9.310   8.447  67.639  1.00  0.00    -0.158 C  
BRANCH  16  17
HETATM   17  C   UNL     1     -10.167   9.537  67.079  1.00  0.00    -0.321 C  
HETATM   18  C   UNL     1      -9.857  10.846  67.022  1.00  0.00    -0.214 C  
HETATM   19  C   UNL     1      -8.490  11.399  67.336  1.00  0.00    -0.143 C  
BRANCH  18  20
HETATM   20  C   UNL     1     -10.906  11.904  66.691  1.00  0.00    -0.315 C  
BRANCH  20  21
HETATM   21  C   UNL     1     -11.107  12.229  65.206  1.00  0.00    -0.359 C  
HETATM   22  O   UNL     1     -13.225  11.920  64.087  1.00  0.00    -0.645 OA 
HETATM   23  O   UNL     1     -12.979  13.719  65.421  1.00  0.00    -0.706 OA 
HETATM   24  C   UNL     1     -12.533  12.580  64.849  1.00  0.00    -0.450 C  
ENDBRANCH  20  21
ENDBRANCH  18  20
ENDBRANCH  16  17
ENDBRANCH   4  16
ENDBRANCH   2   3
TORSDOF 5
ENDMDL
MODEL      122
REMARK 921   NORMALIZED FREE ENERGY PREDICTED BY IDOCK:   -4.84 KCAL/MOL
REMARK 922        TOTAL FREE ENERGY PREDICTED BY IDOCK:   -6.52 KCAL/MOL
REMARK 923 INTER-LIGAND FREE ENERGY PREDICTED BY IDOCK:   -6.05 KCAL/MOL
REMARK 924 INTRA-LIGAND FREE ENERGY PREDICTED BY IDOCK:   -0.48 KCAL/MOL
REMARK 927      BINDING AFFINITY PREDICTED BY RF-SCORE:    0.00 PKD
ROOT
HETATM    1  C   UNL     1      -7.740  10.347  69.243  1.00  0.00    -0.140 C  
HETATM    2  O   UNL     1      -8.401  10.777  68.057  1.00  0.00    -0.115 OA 
ENDROOT
BRANCH   2   3
HETATM    3  C   UNL     1      -9.103  11.962  68.085  1.00  0.00    -0.190 A  
HETATM    4  C   UNL     1     -10.500  12.068  68.378  1.00  0.00    -0.231 A  
HETATM    5  C   UNL     1     -11.042  13.364  68.523  1.00  0.00    -0.270 A  
HETATM    6  C   UNL     1      -8.283  15.713  68.040  1.00  0.00    -0.144 C  
HETATM    7  O   UNL     1     -12.370  13.592  68.727  1.00  0.00    -0.350 OA 
HETATM    8  C   UNL     1      -6.832  12.986  67.591  1.00  0.00    -0.155 C  
HETATM    9  C   UNL     1     -10.215  14.474  68.422  1.00  0.00    -0.239 A  
HETATM   10  C   UNL     1     -10.534  15.892  68.611  1.00  0.00    -0.240 C  
HETATM   11  C   UNL     1      -8.286  13.114  67.949  1.00  0.00    -0.162 A  
HETATM   12  H   UNL     1     -12.735  14.464  68.825  1.00  0.00     0.000 HD 
HETATM   13  O   UNL     1     -11.586  16.394  68.949  1.00  0.00    -0.290 OA 
HETATM   14  C   UNL     1      -8.872  14.361  68.127  1.00  0.00    -0.180 A  
HETATM   15  O   UNL     1      -9.375  16.584  68.378  1.00  0.00    -0.208 OA 
BRANCH   4  16
HETATM   16  C   UNL     1     -11.342  10.814  68.402  1.00  0.00    -0.367 C  
BRANCH  16  17
HETATM   17  C   UNL     1     -11.249   9.846  69.538  1.00  0.00    -0.220 C  
HETATM   18  C   UNL     1     -11.790   9.997  70.761  1.00  0.00    -0.435 C  
HETATM   19  C   UNL     1     -12.762  11.094  71.120  1.00  0.00    -0.510 C  
BRANCH  18  20
HETATM   20  C   UNL     1     -11.404   9.090  71.926  1.00  0.00    -0.438 C  
BRANCH  20  21
HETATM   21  C   UNL     1     -10.464   7.923  71.603  1.00  0.00    -0.255 C  
HETATM   22  O   UNL     1     -11.002   5.634  72.155  1.00  0.00    -0.239 OA 
HETATM   23  O   UNL     1     -12.006   6.561  70.365  1.00  0.00    -0.397 OA 
HETATM   24  C   UNL     1     -11.175   6.601  71.428  1.00  0.00    -0.274 C  
ENDBRANCH  20  21
ENDBRANCH  18  20
ENDBRANCH  16  17
ENDBRANCH   4  16
ENDBRANCH   2   3
TORSDOF 5
ENDMDL
MODEL      123
REMARK 921   NORMALIZED FREE ENERGY PREDICTED BY IDOCK:   -4.84 KCAL/MOL
REMARK 922        TOTAL FREE ENERGY PREDICTED BY IDOCK:   -6.52 KCAL/MOL
REMARK 923 INTER-LIGAND FREE ENERGY PREDICTED BY IDOCK:   -6.07 KCAL/MOL
REMARK 924 INTRA-LIGAND FREE ENERGY PREDICTED BY IDOCK:   -0.45 KCAL/MOL
REMARK 927      BINDING AFFINITY PREDICTED BY RF-SCORE:    0.00 PKD
ROOT
HETATM    1  C   UNL     1      -8.267  13.655  68.360  1.00  0.00    -0.146 C  
HETATM    2  O   UNL     1      -8.551  12.262  68.427  1.00  0.00    -0.174 OA 
ENDROOT
BRANCH   2   3
HETATM    3  C   UNL     1      -8.298  11.482  67.320  1.00  0.00    -0.154 A  
HETATM    4  C   UNL     1      -9.303  11.007  66.417  1.00  0.00    -0.204 A  
HETATM    5  C   UNL     1      -8.871  10.351  65.243  1.00  0.00    -0.186 A  
HETATM    6  C   UNL     1      -5.216  10.352  65.327  1.00  0.00    -0.102 C  
HETATM    7  O   UNL     1      -9.733   9.791  64.349  1.00  0.00    -0.414 OA 
HETATM    8  C   UNL     1      -5.876  11.766  68.031  1.00  0.00    -0.046 C  
HETATM    9  C   UNL     1      -7.513  10.226  64.982  1.00  0.00    -0.120 A  
HETATM   10  C   UNL     1      -6.840   9.662  63.808  1.00  0.00    -0.112 C  
HETATM   11  C   UNL     1      -6.916  11.307  67.048  1.00  0.00    -0.126 A  
HETATM   12  H   UNL     1      -9.443   9.350  63.559  1.00  0.00     0.000 HD 
HETATM   13  O   UNL     1      -7.333   9.230  62.786  1.00  0.00    -0.101 OA 
HETATM   14  C   UNL     1      -6.554  10.676  65.865  1.00  0.00    -0.118 A  
HETATM   15  O   UNL     1      -5.496   9.755  64.051  1.00  0.00    -0.070 OA 
BRANCH   4  16
HETATM   16  C   UNL     1     -10.756  11.122  66.812  1.00  0.00    -0.326 C  
BRANCH  16  17
HETATM   17  C   UNL     1     -11.504  12.404  66.629  1.00  0.00    -0.429 C  
HETATM   18  C   UNL     1     -12.196  12.776  65.536  1.00  0.00    -0.519 C  
HETATM   19  C   UNL     1     -12.498  11.854  64.380  1.00  0.00    -0.211 C  
BRANCH  18  20
HETATM   20  C   UNL     1     -12.684  14.210  65.344  1.00  0.00    -0.453 C  
BRANCH  20  21
HETATM   21  C   UNL     1     -11.992  15.027  64.247  1.00  0.00    -0.310 C  
HETATM   22  O   UNL     1     -11.118  17.244  64.640  1.00  0.00    -1.052 OA 
HETATM   23  O   UNL     1      -9.932  15.484  65.394  1.00  0.00    -0.337 OA 
HETATM   24  C   UNL     1     -10.999  16.035  64.776  1.00  0.00    -0.356 C  
ENDBRANCH  20  21
ENDBRANCH  18  20
ENDBRANCH  16  17
ENDBRANCH   4  16
ENDBRANCH   2   3
TORSDOF 5
ENDMDL
MODEL      124
REMARK 921   NORMALIZED FREE ENERGY PREDICTED BY IDOCK:   -4.84 KCAL/MOL
REMARK 922        TOTAL FREE ENERGY PREDICTED BY IDOCK:   -6.52 KCAL/MOL
REMARK 923 INTER-LIGAND FREE ENERGY PREDICTED BY IDOCK:   -6.17 KCAL/MOL
REMARK 924 INTRA-LIGAND FREE ENERGY PREDICTED BY IDOCK:   -0.35 KCAL/MOL
REMARK 927      BINDING AFFINITY PREDICTED BY RF-SCORE:    0.00 PKD
ROOT
HETATM    1  C   UNL     1     -13.188  10.155  71.763  1.00  0.00    -0.438 C  
HETATM    2  O   UNL     1     -11.801  10.245  71.454  1.00  0.00    -0.355 OA 
ENDROOT
BRANCH   2   3
HETATM    3  C   UNL     1     -11.340   9.644  70.303  1.00  0.00    -0.257 A  
HETATM    4  C   UNL     1     -11.251  10.293  69.031  1.00  0.00    -0.260 A  
HETATM    5  C   UNL     1     -10.610   9.595  67.983  1.00  0.00    -0.243 A  
HETATM    6  C   UNL     1      -9.526   6.391  69.369  1.00  0.00    -0.140 C  
HETATM    7  O   UNL     1     -10.532  10.079  66.711  1.00  0.00    -0.232 OA 
HETATM    8  C   UNL     1     -10.950   7.660  71.840  1.00  0.00    -0.282 C  
HETATM    9  C   UNL     1     -10.060   8.344  68.222  1.00  0.00    -0.232 A  
HETATM   10  C   UNL     1      -9.292   7.478  67.323  1.00  0.00    -0.140 C  
HETATM   11  C   UNL     1     -10.802   8.348  70.512  1.00  0.00    -0.250 A  
HETATM   12  H   UNL     1     -10.102   9.610  66.006  1.00  0.00     0.000 HD 
HETATM   13  O   UNL     1      -8.928   7.699  66.186  1.00  0.00    -0.166 OA 
HETATM   14  C   UNL     1     -10.164   7.722  69.449  1.00  0.00    -0.208 A  
HETATM   15  O   UNL     1      -8.999   6.344  68.034  1.00  0.00    -0.117 OA 
BRANCH   4  16
HETATM   16  C   UNL     1     -11.937  11.625  68.837  1.00  0.00    -0.355 C  
BRANCH  16  17
HETATM   17  C   UNL     1     -11.146  12.873  68.604  1.00  0.00    -0.307 C  
HETATM   18  C   UNL     1     -11.200  13.661  67.515  1.00  0.00    -0.316 C  
HETATM   19  C   UNL     1     -12.234  13.517  66.426  1.00  0.00    -0.454 C  
BRANCH  18  20
HETATM   20  C   UNL     1     -10.157  14.745  67.256  1.00  0.00    -0.236 C  
BRANCH  20  21
HETATM   21  C   UNL     1      -9.608  15.474  68.488  1.00  0.00    -0.203 C  
HETATM   22  O   UNL     1     -10.175  17.767  68.996  1.00  0.00    -0.367 OA 
HETATM   23  O   UNL     1     -11.697  16.169  69.447  1.00  0.00    -0.304 OA 
HETATM   24  C   UNL     1     -10.501  16.588  68.982  1.00  0.00    -0.303 C  
ENDBRANCH  20  21
ENDBRANCH  18  20
ENDBRANCH  16  17
ENDBRANCH   4  16
ENDBRANCH   2   3
TORSDOF 5
ENDMDL
MODEL      125
REMARK 921   NORMALIZED FREE ENERGY PREDICTED BY IDOCK:   -4.83 KCAL/MOL
REMARK 922        TOTAL FREE ENERGY PREDICTED BY IDOCK:   -6.51 KCAL/MOL
REMARK 923 INTER-LIGAND FREE ENERGY PREDICTED BY IDOCK:   -5.96 KCAL/MOL
REMARK 924 INTRA-LIGAND FREE ENERGY PREDICTED BY IDOCK:   -0.55 KCAL/MOL
REMARK 927      BINDING AFFINITY PREDICTED BY RF-SCORE:    0.00 PKD
ROOT
HETATM    1  C   UNL     1      -7.858  11.908  67.932  1.00  0.00    -0.138 C  
HETATM    2  O   UNL     1      -8.366  11.009  68.913  1.00  0.00    -0.150 OA 
ENDROOT
BRANCH   2   3
HETATM    3  C   UNL     1      -8.658   9.717  68.537  1.00  0.00    -0.119 A  
HETATM    4  C   UNL     1      -9.886   9.310  67.923  1.00  0.00    -0.200 A  
HETATM    5  C   UNL     1      -9.974   7.981  67.452  1.00  0.00    -0.207 A  
HETATM    6  C   UNL     1      -6.752   6.404  68.158  1.00  0.00    -0.068 C  
HETATM    7  O   UNL     1     -11.115   7.459  66.920  1.00  0.00    -0.535 OA 
HETATM    8  C   UNL     1      -6.300   9.251  69.357  1.00  0.00    -0.044 C  
HETATM    9  C   UNL     1      -8.877   7.138  67.556  1.00  0.00    -0.119 A  
HETATM   10  C   UNL     1      -8.711   5.763  67.074  1.00  0.00    -0.109 C  
HETATM   11  C   UNL     1      -7.563   8.823  68.665  1.00  0.00    -0.097 A  
HETATM   12  H   UNL     1     -11.174   6.566  66.603  1.00  0.00     0.000 HD 
HETATM   13  O   UNL     1      -9.488   5.087  66.430  1.00  0.00    -0.135 OA 
HETATM   14  C   UNL     1      -7.702   7.536  68.161  1.00  0.00    -0.120 A  
HETATM   15  O   UNL     1      -7.453   5.371  67.447  1.00  0.00    -0.082 OA 
BRANCH   4  16
HETATM   16  C   UNL     1     -11.053  10.269  67.914  1.00  0.00    -0.341 C  
BRANCH  16  17
HETATM   17  C   UNL     1     -11.236  11.248  66.798  1.00  0.00    -0.265 C  
HETATM   18  C   UNL     1     -11.554  12.550  66.923  1.00  0.00    -0.436 C  
HETATM   19  C   UNL     1     -11.577  13.286  68.240  1.00  0.00    -0.369 C  
BRANCH  18  20
HETATM   20  C   UNL     1     -11.989  13.387  65.724  1.00  0.00    -0.447 C  
BRANCH  20  21
HETATM   21  C   UNL     1     -10.875  14.082  64.933  1.00  0.00    -0.421 C  
HETATM   22  O   UNL     1     -11.054  16.371  64.181  1.00  0.00    -0.809 OA 
HETATM   23  O   UNL     1     -10.580  15.998  66.351  1.00  0.00    -0.308 OA 
HETATM   24  C   UNL     1     -10.861  15.585  65.097  1.00  0.00    -0.436 C  
ENDBRANCH  20  21
ENDBRANCH  18  20
ENDBRANCH  16  17
ENDBRANCH   4  16
ENDBRANCH   2   3
TORSDOF 5
ENDMDL
MODEL      126
REMARK 921   NORMALIZED FREE ENERGY PREDICTED BY IDOCK:   -4.83 KCAL/MOL
REMARK 922        TOTAL FREE ENERGY PREDICTED BY IDOCK:   -6.50 KCAL/MOL
REMARK 923 INTER-LIGAND FREE ENERGY PREDICTED BY IDOCK:   -6.00 KCAL/MOL
REMARK 924 INTRA-LIGAND FREE ENERGY PREDICTED BY IDOCK:   -0.51 KCAL/MOL
REMARK 927      BINDING AFFINITY PREDICTED BY RF-SCORE:    0.00 PKD
ROOT
HETATM    1  C   UNL     1     -13.636   9.365  72.012  1.00  0.00    -0.433 C  
HETATM    2  O   UNL     1     -12.338   9.947  71.938  1.00  0.00    -0.380 OA 
ENDROOT
BRANCH   2   3
HETATM    3  C   UNL     1     -11.856  10.331  70.706  1.00  0.00    -0.365 A  
HETATM    4  C   UNL     1     -11.285   9.437  69.745  1.00  0.00    -0.139 A  
HETATM    5  C   UNL     1     -10.981   9.956  68.467  1.00  0.00    -0.180 A  
HETATM    6  C   UNL     1     -11.964  13.476  68.506  1.00  0.00    -0.344 C  
HETATM    7  O   UNL     1     -10.367   9.221  67.497  1.00  0.00    -0.228 OA 
HETATM    8  C   UNL     1     -12.665  12.628  71.427  1.00  0.00    -0.347 C  
HETATM    9  C   UNL     1     -11.277  11.279  68.171  1.00  0.00    -0.351 A  
HETATM   10  C   UNL     1     -11.125  12.006  66.907  1.00  0.00    -0.302 C  
HETATM   11  C   UNL     1     -12.113  11.690  70.390  1.00  0.00    -0.462 A  
HETATM   12  H   UNL     1     -10.163   9.570  66.637  1.00  0.00     0.000 HD 
HETATM   13  O   UNL     1     -10.755  11.585  65.830  1.00  0.00    -0.265 OA 
HETATM   14  C   UNL     1     -11.814  12.136  69.109  1.00  0.00    -0.361 A  
HETATM   15  O   UNL     1     -11.539  13.289  67.147  1.00  0.00    -0.319 OA 
BRANCH   4  16
HETATM   16  C   UNL     1     -10.931   8.031  70.171  1.00  0.00    -0.226 C  
BRANCH  16  17
HETATM   17  C   UNL     1      -9.511   7.635  70.418  1.00  0.00    -0.164 C  
HETATM   18  C   UNL     1      -9.055   6.894  71.445  1.00  0.00    -0.148 C  
HETATM   19  C   UNL     1      -9.950   6.164  72.415  1.00  0.00    -0.187 C  
BRANCH  18  20
HETATM   20  C   UNL     1      -7.565   6.785  71.756  1.00  0.00    -0.095 C  
BRANCH  20  21
HETATM   21  C   UNL     1      -6.633   7.724  70.981  1.00  0.00    -0.038 C  
HETATM   22  O   UNL     1      -6.987  10.112  70.886  1.00  0.00    -0.341 OA 
HETATM   23  O   UNL     1      -6.100   9.242  72.764  1.00  0.00    -0.292 OA 
HETATM   24  C   UNL     1      -6.611   9.136  71.518  1.00  0.00    -0.029 C  
ENDBRANCH  20  21
ENDBRANCH  18  20
ENDBRANCH  16  17
ENDBRANCH   4  16
ENDBRANCH   2   3
TORSDOF 5
ENDMDL
MODEL      127
REMARK 921   NORMALIZED FREE ENERGY PREDICTED BY IDOCK:   -4.82 KCAL/MOL
REMARK 922        TOTAL FREE ENERGY PREDICTED BY IDOCK:   -6.49 KCAL/MOL
REMARK 923 INTER-LIGAND FREE ENERGY PREDICTED BY IDOCK:   -6.14 KCAL/MOL
REMARK 924 INTRA-LIGAND FREE ENERGY PREDICTED BY IDOCK:   -0.35 KCAL/MOL
REMARK 927      BINDING AFFINITY PREDICTED BY RF-SCORE:    0.00 PKD
ROOT
HETATM    1  C   UNL     1     -12.187  14.526  71.490  1.00  0.00    -0.347 C  
HETATM    2  O   UNL     1     -12.776  13.710  70.481  1.00  0.00    -0.277 OA 
ENDROOT
BRANCH   2   3
HETATM    3  C   UNL     1     -12.094  12.592  70.054  1.00  0.00    -0.269 A  
HETATM    4  C   UNL     1     -11.211  12.564  68.929  1.00  0.00    -0.330 A  
HETATM    5  C   UNL     1     -10.464  11.384  68.712  1.00  0.00    -0.204 A  
HETATM    6  C   UNL     1     -11.362   9.069  71.394  1.00  0.00    -0.323 C  
HETATM    7  O   UNL     1      -9.650  11.212  67.633  1.00  0.00    -0.167 OA 
HETATM    8  C   UNL     1     -13.188  11.508  72.074  1.00  0.00    -0.443 C  
HETATM    9  C   UNL     1     -10.575  10.324  69.600  1.00  0.00    -0.288 A  
HETATM   10  C   UNL     1      -9.852   9.049  69.622  1.00  0.00    -0.178 C  
HETATM   11  C   UNL     1     -12.218  11.480  70.927  1.00  0.00    -0.425 A  
HETATM   12  H   UNL     1      -9.147  10.419  67.487  1.00  0.00     0.000 HD 
HETATM   13  O   UNL     1      -8.960   8.671  68.890  1.00  0.00    -0.140 OA 
HETATM   14  C   UNL     1     -11.440  10.357  70.675  1.00  0.00    -0.438 A  
HETATM   15  O   UNL     1     -10.343   8.343  70.688  1.00  0.00    -0.192 OA 
BRANCH   4  16
HETATM   16  C   UNL     1     -11.203  13.734  67.973  1.00  0.00    -0.293 C  
BRANCH  16  17
HETATM   17  C   UNL     1     -10.603  15.046  68.366  1.00  0.00    -0.239 C  
HETATM   18  C   UNL     1     -10.054  15.953  67.537  1.00  0.00    -0.247 C  
HETATM   19  C   UNL     1     -10.142  15.877  66.033  1.00  0.00    -0.359 C  
BRANCH  18  20
HETATM   20  C   UNL     1      -9.224  17.121  68.063  1.00  0.00    -0.250 C  
BRANCH  20  21
HETATM   21  C   UNL     1      -7.845  16.778  68.637  1.00  0.00    -0.241 C  
HETATM   22  O   UNL     1      -6.685  14.732  68.084  1.00  0.00    -0.104 OA 
HETATM   23  O   UNL     1      -6.688  16.397  66.567  1.00  0.00    -0.238 OA 
HETATM   24  C   UNL     1      -7.033  15.857  67.755  1.00  0.00    -0.149 C  
ENDBRANCH  20  21
ENDBRANCH  18  20
ENDBRANCH  16  17
ENDBRANCH   4  16
ENDBRANCH   2   3
TORSDOF 5
ENDMDL
MODEL      128
REMARK 921   NORMALIZED FREE ENERGY PREDICTED BY IDOCK:   -4.81 KCAL/MOL
REMARK 922        TOTAL FREE ENERGY PREDICTED BY IDOCK:   -6.48 KCAL/MOL
REMARK 923 INTER-LIGAND FREE ENERGY PREDICTED BY IDOCK:   -5.96 KCAL/MOL
REMARK 924 INTRA-LIGAND FREE ENERGY PREDICTED BY IDOCK:   -0.52 KCAL/MOL
REMARK 927      BINDING AFFINITY PREDICTED BY RF-SCORE:    0.00 PKD
ROOT
HETATM    1  C   UNL     1      -6.145  10.390  68.613  1.00  0.00    -0.043 C  
HETATM    2  O   UNL     1      -7.091  11.327  69.119  1.00  0.00    -0.107 OA 
ENDROOT
BRANCH   2   3
HETATM    3  C   UNL     1      -8.207  11.613  68.363  1.00  0.00    -0.155 A  
HETATM    4  C   UNL     1      -9.416  10.848  68.382  1.00  0.00    -0.178 A  
HETATM    5  C   UNL     1     -10.525  11.358  67.671  1.00  0.00    -0.194 A  
HETATM    6  C   UNL     1      -9.454  14.524  66.191  1.00  0.00    -0.259 C  
HETATM    7  O   UNL     1     -11.703  10.683  67.555  1.00  0.00    -0.580 OA 
HETATM    8  C   UNL     1      -6.827  13.608  67.607  1.00  0.00    -0.185 C  
HETATM    9  C   UNL     1     -10.426  12.581  67.022  1.00  0.00    -0.246 A  
HETATM   10  C   UNL     1     -11.453  13.335  66.297  1.00  0.00    -0.325 C  
HETATM   11  C   UNL     1      -8.120  12.843  67.659  1.00  0.00    -0.167 A  
HETATM   12  H   UNL     1     -12.449  11.026  67.077  1.00  0.00     0.000 HD 
HETATM   13  O   UNL     1     -12.630  13.070  66.155  1.00  0.00    -0.421 OA 
HETATM   14  C   UNL     1      -9.251  13.303  66.998  1.00  0.00    -0.237 A  
HETATM   15  O   UNL     1     -10.842  14.467  65.826  1.00  0.00    -0.292 OA 
BRANCH   4  16
HETATM   16  C   UNL     1      -9.417   9.495  69.054  1.00  0.00    -0.158 C  
BRANCH  16  17
HETATM   17  C   UNL     1      -9.992   9.316  70.423  1.00  0.00    -0.287 C  
HETATM   18  C   UNL     1      -9.341   8.859  71.509  1.00  0.00    -0.335 C  
HETATM   19  C   UNL     1      -7.849   8.643  71.564  1.00  0.00    -0.163 C  
BRANCH  18  20
HETATM   20  C   UNL     1     -10.085   8.451  72.777  1.00  0.00    -0.268 C  
BRANCH  20  21
HETATM   21  C   UNL     1     -11.583   8.159  72.628  1.00  0.00    -0.441 C  
HETATM   22  O   UNL     1     -12.444   6.609  70.988  1.00  0.00    -0.328 OA 
HETATM   23  O   UNL     1     -11.500   5.769  72.853  1.00  0.00    -0.275 OA 
HETATM   24  C   UNL     1     -11.881   6.792  72.058  1.00  0.00    -0.314 C  
ENDBRANCH  20  21
ENDBRANCH  18  20
ENDBRANCH  16  17
ENDBRANCH   4  16
ENDBRANCH   2   3
TORSDOF 5
ENDMDL
MODEL      129
REMARK 921   NORMALIZED FREE ENERGY PREDICTED BY IDOCK:   -4.76 KCAL/MOL
REMARK 922        TOTAL FREE ENERGY PREDICTED BY IDOCK:   -6.42 KCAL/MOL
REMARK 923 INTER-LIGAND FREE ENERGY PREDICTED BY IDOCK:   -6.08 KCAL/MOL
REMARK 924 INTRA-LIGAND FREE ENERGY PREDICTED BY IDOCK:   -0.34 KCAL/MOL
REMARK 927      BINDING AFFINITY PREDICTED BY RF-SCORE:    0.00 PKD
ROOT
HETATM    1  C   UNL     1     -11.518   6.426  69.597  1.00  0.00    -0.378 C  
HETATM    2  O   UNL     1     -11.285   7.687  70.216  1.00  0.00    -0.265 OA 
ENDROOT
BRANCH   2   3
HETATM    3  C   UNL     1     -10.012   8.212  70.190  1.00  0.00    -0.187 A  
HETATM    4  C   UNL     1      -9.506   9.057  69.151  1.00  0.00    -0.153 A  
HETATM    5  C   UNL     1      -8.235   9.643  69.345  1.00  0.00    -0.132 A  
HETATM    6  C   UNL     1      -7.056   8.526  72.620  1.00  0.00    -0.026 C  
HETATM    7  O   UNL     1      -7.619  10.403  68.397  1.00  0.00    -0.088 OA 
HETATM    8  C   UNL     1      -9.794   7.040  72.433  1.00  0.00    -0.172 C  
HETATM    9  C   UNL     1      -7.546   9.422  70.529  1.00  0.00    -0.162 A  
HETATM   10  C   UNL     1      -6.267   9.978  70.979  1.00  0.00    -0.005 C  
HETATM   11  C   UNL     1      -9.270   7.971  71.375  1.00  0.00    -0.180 A  
HETATM   12  H   UNL     1      -6.764  10.798  68.527  1.00  0.00     0.000 HD 
HETATM   13  O   UNL     1      -5.561  10.797  70.428  1.00  0.00    -0.069 OA 
HETATM   14  C   UNL     1      -8.037   8.594  71.518  1.00  0.00    -0.188 A  
HETATM   15  O   UNL     1      -6.016   9.428  72.208  1.00  0.00    -0.253 OA 
BRANCH   4  16
HETATM   16  C   UNL     1     -10.289   9.189  67.866  1.00  0.00    -0.285 C  
BRANCH  16  17
HETATM   17  C   UNL     1     -10.671  10.532  67.332  1.00  0.00    -0.334 C  
HETATM   18  C   UNL     1     -10.262  11.075  66.170  1.00  0.00    -0.298 C  
HETATM   19  C   UNL     1      -9.502  10.316  65.111  1.00  0.00    -0.309 C  
BRANCH  18  20
HETATM   20  C   UNL     1     -10.484  12.552  65.853  1.00  0.00    -0.289 C  
BRANCH  20  21
HETATM   21  C   UNL     1     -11.006  12.879  64.449  1.00  0.00    -0.400 C  
HETATM   22  O   UNL     1     -13.109  12.029  63.618  1.00  0.00    -0.756 OA 
HETATM   23  O   UNL     1     -13.156  13.752  65.068  1.00  0.00    -0.751 OA 
HETATM   24  C   UNL     1     -12.511  12.821  64.332  1.00  0.00    -0.399 C  
ENDBRANCH  20  21
ENDBRANCH  18  20
ENDBRANCH  16  17
ENDBRANCH   4  16
ENDBRANCH   2   3
TORSDOF 5
ENDMDL
MODEL      130
REMARK 921   NORMALIZED FREE ENERGY PREDICTED BY IDOCK:   -4.74 KCAL/MOL
REMARK 922        TOTAL FREE ENERGY PREDICTED BY IDOCK:   -6.40 KCAL/MOL
REMARK 923 INTER-LIGAND FREE ENERGY PREDICTED BY IDOCK:   -5.90 KCAL/MOL
REMARK 924 INTRA-LIGAND FREE ENERGY PREDICTED BY IDOCK:   -0.49 KCAL/MOL
REMARK 927      BINDING AFFINITY PREDICTED BY RF-SCORE:    0.00 PKD
ROOT
HETATM    1  C   UNL     1     -10.259  12.006  63.448  1.00  0.00    -0.426 C  
HETATM    2  O   UNL     1     -11.032  11.130  64.261  1.00  0.00    -0.341 OA 
ENDROOT
BRANCH   2   3
HETATM    3  C   UNL     1     -10.527  10.745  65.483  1.00  0.00    -0.194 A  
HETATM    4  C   UNL     1     -10.982  11.250  66.743  1.00  0.00    -0.339 A  
HETATM    5  C   UNL     1     -10.476  10.643  67.913  1.00  0.00    -0.208 A  
HETATM    6  C   UNL     1      -8.211   7.989  66.821  1.00  0.00    -0.111 C  
HETATM    7  O   UNL     1     -10.777  11.087  69.166  1.00  0.00    -0.214 OA 
HETATM    8  C   UNL     1      -9.098   9.184  64.077  1.00  0.00     0.087 C  
HETATM    9  C   UNL     1      -9.603   9.568  67.812  1.00  0.00    -0.156 A  
HETATM   10  C   UNL     1      -9.018   8.742  68.872  1.00  0.00    -0.134 C  
HETATM   11  C   UNL     1      -9.604   9.669  65.407  1.00  0.00    -0.361 A  
HETATM   12  H   UNL     1     -10.437  10.678  69.954  1.00  0.00     0.000 HD 
HETATM   13  O   UNL     1      -9.217   8.791  70.069  1.00  0.00    -0.157 OA 
HETATM   14  C   UNL     1      -9.161   9.098  66.593  1.00  0.00    -0.207 A  
HETATM   15  O   UNL     1      -8.209   7.829  68.249  1.00  0.00    -0.122 OA 
BRANCH   4  16
HETATM   16  C   UNL     1     -11.877  12.467  66.764  1.00  0.00    -0.385 C  
BRANCH  16  17
HETATM   17  C   UNL     1     -11.303  13.847  66.710  1.00  0.00    -0.347 C  
HETATM   18  C   UNL     1     -11.329  14.762  67.697  1.00  0.00    -0.352 C  
HETATM   19  C   UNL     1     -11.772  14.462  69.108  1.00  0.00    -0.354 C  
BRANCH  18  20
HETATM   20  C   UNL     1     -10.968  16.223  67.445  1.00  0.00    -0.175 C  
BRANCH  20  21
HETATM   21  C   UNL     1     -10.268  16.536  66.118  1.00  0.00    -0.360 C  
HETATM   22  O   UNL     1      -8.237  17.839  66.000  1.00  0.00    -0.492 OA 
HETATM   23  O   UNL     1      -8.087  15.691  66.663  1.00  0.00    -0.250 OA 
HETATM   24  C   UNL     1      -8.782  16.775  66.257  1.00  0.00    -0.307 C  
ENDBRANCH  20  21
ENDBRANCH  18  20
ENDBRANCH  16  17
ENDBRANCH   4  16
ENDBRANCH   2   3
TORSDOF 5
ENDMDL
MODEL      131
REMARK 921   NORMALIZED FREE ENERGY PREDICTED BY IDOCK:   -4.73 KCAL/MOL
REMARK 922        TOTAL FREE ENERGY PREDICTED BY IDOCK:   -6.37 KCAL/MOL
REMARK 923 INTER-LIGAND FREE ENERGY PREDICTED BY IDOCK:   -5.90 KCAL/MOL
REMARK 924 INTRA-LIGAND FREE ENERGY PREDICTED BY IDOCK:   -0.47 KCAL/MOL
REMARK 927      BINDING AFFINITY PREDICTED BY RF-SCORE:    0.00 PKD
ROOT
HETATM    1  C   UNL     1      -8.413  11.402  67.439  1.00  0.00    -0.143 C  
HETATM    2  O   UNL     1      -9.696  10.835  67.191  1.00  0.00    -0.167 OA 
ENDROOT
BRANCH   2   3
HETATM    3  C   UNL     1     -10.402  10.308  68.249  1.00  0.00    -0.181 A  
HETATM    4  C   UNL     1     -10.218   8.986  68.767  1.00  0.00    -0.226 A  
HETATM    5  C   UNL     1     -10.903   8.646  69.954  1.00  0.00    -0.208 A  
HETATM    6  C   UNL     1     -12.786  11.613  70.961  1.00  0.00    -0.298 C  
HETATM    7  O   UNL     1     -10.866   7.397  70.499  1.00  0.00    -0.233 OA 
HETATM    8  C   UNL     1     -11.460  12.615  68.319  1.00  0.00    -0.356 C  
HETATM    9  C   UNL     1     -11.686   9.596  70.595  1.00  0.00    -0.353 A  
HETATM   10  C   UNL     1     -12.418   9.497  71.862  1.00  0.00    -0.384 C  
HETATM   11  C   UNL     1     -11.238  11.249  68.904  1.00  0.00    -0.315 A  
HETATM   12  H   UNL     1     -11.327   7.169  71.297  1.00  0.00     0.000 HD 
HETATM   13  O   UNL     1     -12.450   8.573  72.649  1.00  0.00    -0.370 OA 
HETATM   14  C   UNL     1     -11.867  10.863  70.080  1.00  0.00    -0.438 A  
HETATM   15  O   UNL     1     -13.048  10.700  72.039  1.00  0.00    -0.481 OA 
BRANCH   4  16
HETATM   16  C   UNL     1      -9.405   7.993  67.970  1.00  0.00    -0.146 C  
BRANCH  16  17
HETATM   17  C   UNL     1     -10.068   7.007  67.062  1.00  0.00    -0.298 C  
HETATM   18  C   UNL     1     -10.022   5.666  67.170  1.00  0.00    -0.188 C  
HETATM   19  C   UNL     1      -9.450   4.939  68.362  1.00  0.00    -0.187 C  
BRANCH  18  20
HETATM   20  C   UNL     1     -10.494   4.754  66.041  1.00  0.00    -0.332 C  
BRANCH  20  21
HETATM   21  C   UNL     1      -9.486   3.716  65.532  1.00  0.00    -0.158 C  
HETATM   22  O   UNL     1     -10.014   2.157  63.764  1.00  0.00    -0.134 OA 
HETATM   23  O   UNL     1      -9.541   4.285  63.199  1.00  0.00    -0.146 OA 
HETATM   24  C   UNL     1      -9.720   3.295  64.100  1.00  0.00    -0.157 C  
ENDBRANCH  20  21
ENDBRANCH  18  20
ENDBRANCH  16  17
ENDBRANCH   4  16
ENDBRANCH   2   3
TORSDOF 5
ENDMDL
MODEL      132
REMARK 921   NORMALIZED FREE ENERGY PREDICTED BY IDOCK:   -4.71 KCAL/MOL
REMARK 922        TOTAL FREE ENERGY PREDICTED BY IDOCK:   -6.36 KCAL/MOL
REMARK 923 INTER-LIGAND FREE ENERGY PREDICTED BY IDOCK:   -6.23 KCAL/MOL
REMARK 924 INTRA-LIGAND FREE ENERGY PREDICTED BY IDOCK:   -0.12 KCAL/MOL
REMARK 927      BINDING AFFINITY PREDICTED BY RF-SCORE:    0.00 PKD
ROOT
HETATM    1  C   UNL     1     -12.559  11.800  63.592  1.00  0.00    -0.344 C  
HETATM    2  O   UNL     1     -12.787  12.497  64.813  1.00  0.00    -0.755 OA 
ENDROOT
BRANCH   2   3
HETATM    3  C   UNL     1     -11.711  13.059  65.464  1.00  0.00    -0.368 A  
HETATM    4  C   UNL     1     -10.762  12.323  66.243  1.00  0.00    -0.293 A  
HETATM    5  C   UNL     1      -9.627  13.016  66.718  1.00  0.00    -0.248 A  
HETATM    6  C   UNL     1      -9.918  16.454  65.510  1.00  0.00    -0.141 C  
HETATM    7  O   UNL     1      -8.696  12.441  67.530  1.00  0.00    -0.161 OA 
HETATM    8  C   UNL     1     -12.553  15.204  64.396  1.00  0.00     0.073 C  
HETATM    9  C   UNL     1      -9.445  14.352  66.387  1.00  0.00    -0.309 A  
HETATM   10  C   UNL     1      -8.322  15.242  66.696  1.00  0.00    -0.181 C  
HETATM   11  C   UNL     1     -11.521  14.434  65.172  1.00  0.00    -0.362 A  
HETATM   12  H   UNL     1      -7.932  12.907  67.849  1.00  0.00     0.000 HD 
HETATM   13  O   UNL     1      -7.282  14.981  67.266  1.00  0.00    -0.202 OA 
HETATM   14  C   UNL     1     -10.373  15.055  65.647  1.00  0.00    -0.374 A  
HETATM   15  O   UNL     1      -8.639  16.464  66.165  1.00  0.00    -0.319 OA 
BRANCH   4  16
HETATM   16  C   UNL     1     -11.071  10.891  66.614  1.00  0.00    -0.155 C  
BRANCH  16  17
HETATM   17  C   UNL     1     -10.949  10.419  68.028  1.00  0.00    -0.347 C  
HETATM   18  C   UNL     1     -10.714   9.156  68.430  1.00  0.00    -0.163 C  
HETATM   19  C   UNL     1     -10.330   8.035  67.496  1.00  0.00    -0.330 C  
BRANCH  18  20
HETATM   20  C   UNL     1     -10.887   8.733  69.886  1.00  0.00    -0.211 C  
BRANCH  20  21
HETATM   21  C   UNL     1      -9.754   7.898  70.495  1.00  0.00    -0.174 C  
HETATM   22  O   UNL     1      -8.272   8.768  72.193  1.00  0.00    -0.340 OA 
HETATM   23  O   UNL     1     -10.345   8.139  72.811  1.00  0.00    -0.313 OA 
HETATM   24  C   UNL     1      -9.371   8.324  71.894  1.00  0.00    -0.216 C  
ENDBRANCH  20  21
ENDBRANCH  18  20
ENDBRANCH  16  17
ENDBRANCH   4  16
ENDBRANCH   2   3
TORSDOF 5
ENDMDL
MODEL      133
REMARK 921   NORMALIZED FREE ENERGY PREDICTED BY IDOCK:   -4.71 KCAL/MOL
REMARK 922        TOTAL FREE ENERGY PREDICTED BY IDOCK:   -6.35 KCAL/MOL
REMARK 923 INTER-LIGAND FREE ENERGY PREDICTED BY IDOCK:   -6.09 KCAL/MOL
REMARK 924 INTRA-LIGAND FREE ENERGY PREDICTED BY IDOCK:   -0.26 KCAL/MOL
REMARK 927      BINDING AFFINITY PREDICTED BY RF-SCORE:    0.00 PKD
ROOT
HETATM    1  C   UNL     1     -12.922  13.451  71.101  1.00  0.00    -0.236 C  
HETATM    2  O   UNL     1     -13.281  12.194  70.535  1.00  0.00     0.332 OA 
ENDROOT
BRANCH   2   3
HETATM    3  C   UNL     1     -12.279  11.318  70.181  1.00  0.00    -0.330 A  
HETATM    4  C   UNL     1     -11.481  11.437  68.998  1.00  0.00    -0.366 A  
HETATM    5  C   UNL     1     -10.389  10.553  68.853  1.00  0.00    -0.208 A  
HETATM    6  C   UNL     1     -10.351   8.440  71.836  1.00  0.00    -0.283 C  
HETATM    7  O   UNL     1      -9.606  10.521  67.739  1.00  0.00    -0.154 OA 
HETATM    8  C   UNL     1     -12.865  10.206  72.388  1.00  0.00    -0.068 C  
HETATM    9  C   UNL     1     -10.102   9.641  69.859  1.00  0.00    -0.279 A  
HETATM   10  C   UNL     1      -8.990   8.690  69.963  1.00  0.00    -0.147 C  
HETATM   11  C   UNL     1     -11.986  10.351  71.177  1.00  0.00    -0.460 A  
HETATM   12  H   UNL     1      -8.871   9.927  67.641  1.00  0.00     0.000 HD 
HETATM   13  O   UNL     1      -8.051   8.537  69.208  1.00  0.00    -0.109 OA 
HETATM   14  C   UNL     1     -10.886   9.525  70.988  1.00  0.00    -0.423 A  
HETATM   15  O   UNL     1      -9.174   8.006  71.135  1.00  0.00    -0.143 OA 
BRANCH   4  16
HETATM   16  C   UNL     1     -11.905  12.409  67.922  1.00  0.00    -0.370 C  
BRANCH  16  17
HETATM   17  C   UNL     1     -10.891  13.171  67.129  1.00  0.00    -0.271 C  
HETATM   18  C   UNL     1     -10.769  14.510  67.066  1.00  0.00    -0.291 C  
HETATM   19  C   UNL     1     -11.520  15.464  67.960  1.00  0.00    -0.333 C  
BRANCH  18  20
HETATM   20  C   UNL     1      -9.890  15.185  66.017  1.00  0.00    -0.349 C  
BRANCH  20  21
HETATM   21  C   UNL     1     -10.424  15.196  64.580  1.00  0.00    -0.086 C  
HETATM   22  O   UNL     1     -12.742  15.640  64.063  1.00  0.00    -0.626 OA 
HETATM   23  O   UNL     1     -11.416  17.383  64.590  1.00  0.00    -0.680 OA 
HETATM   24  C   UNL     1     -11.645  16.067  64.393  1.00  0.00    -0.212 C  
ENDBRANCH  20  21
ENDBRANCH  18  20
ENDBRANCH  16  17
ENDBRANCH   4  16
ENDBRANCH   2   3
TORSDOF 5
ENDMDL
MODEL      134
REMARK 921   NORMALIZED FREE ENERGY PREDICTED BY IDOCK:   -4.70 KCAL/MOL
REMARK 922        TOTAL FREE ENERGY PREDICTED BY IDOCK:   -6.34 KCAL/MOL
REMARK 923 INTER-LIGAND FREE ENERGY PREDICTED BY IDOCK:   -5.82 KCAL/MOL
REMARK 924 INTRA-LIGAND FREE ENERGY PREDICTED BY IDOCK:   -0.52 KCAL/MOL
REMARK 927      BINDING AFFINITY PREDICTED BY RF-SCORE:    0.00 PKD
ROOT
HETATM    1  C   UNL     1     -10.438   5.508  69.268  1.00  0.00    -0.266 C  
HETATM    2  O   UNL     1      -9.908   6.266  70.351  1.00  0.00    -0.173 OA 
ENDROOT
BRANCH   2   3
HETATM    3  C   UNL     1     -10.405   7.529  70.580  1.00  0.00    -0.215 A  
HETATM    4  C   UNL     1      -9.966   8.708  69.897  1.00  0.00    -0.189 A  
HETATM    5  C   UNL     1     -10.681   9.904  70.128  1.00  0.00    -0.308 A  
HETATM    6  C   UNL     1     -13.371   9.080  72.463  1.00  0.00    -0.423 C  
HETATM    7  O   UNL     1     -10.311  11.102  69.594  1.00  0.00    -0.440 OA 
HETATM    8  C   UNL     1     -11.938   6.319  72.204  1.00  0.00    -0.338 C  
HETATM    9  C   UNL     1     -11.792   9.894  70.960  1.00  0.00    -0.463 A  
HETATM   10  C   UNL     1     -12.722  10.981  71.283  1.00  0.00    -0.432 C  
HETATM   11  C   UNL     1     -11.522   7.554  71.456  1.00  0.00    -0.293 A  
HETATM   12  H   UNL     1     -10.792  11.907  69.749  1.00  0.00     0.000 HD 
HETATM   13  O   UNL     1     -12.746  12.113  70.845  1.00  0.00    -0.289 OA 
HETATM   14  C   UNL     1     -12.199   8.755  71.624  1.00  0.00    -0.399 A  
HETATM   15  O   UNL     1     -13.631  10.462  72.166  1.00  0.00    -0.324 OA 
BRANCH   4  16
HETATM   16  C   UNL     1      -8.707   8.647  69.064  1.00  0.00    -0.134 C  
BRANCH  16  17
HETATM   17  C   UNL     1      -8.770   8.667  67.570  1.00  0.00    -0.135 C  
HETATM   18  C   UNL     1      -8.327   7.705  66.740  1.00  0.00    -0.125 C  
HETATM   19  C   UNL     1      -7.874   6.342  67.200  1.00  0.00    -0.105 C  
BRANCH  18  20
HETATM   20  C   UNL     1      -8.184   7.944  65.239  1.00  0.00    -0.147 C  
BRANCH  20  21
HETATM   21  C   UNL     1      -7.408   9.198  64.818  1.00  0.00    -0.098 C  
HETATM   22  O   UNL     1      -7.987  10.481  62.854  1.00  0.00    -0.153 OA 
HETATM   23  O   UNL     1      -9.252  10.731  64.701  1.00  0.00    -0.203 OA 
HETATM   24  C   UNL     1      -8.230  10.179  64.014  1.00  0.00    -0.164 C  
ENDBRANCH  20  21
ENDBRANCH  18  20
ENDBRANCH  16  17
ENDBRANCH   4  16
ENDBRANCH   2   3
TORSDOF 5
ENDMDL
MODEL      135
REMARK 921   NORMALIZED FREE ENERGY PREDICTED BY IDOCK:   -4.67 KCAL/MOL
REMARK 922        TOTAL FREE ENERGY PREDICTED BY IDOCK:   -6.30 KCAL/MOL
REMARK 923 INTER-LIGAND FREE ENERGY PREDICTED BY IDOCK:   -6.11 KCAL/MOL
REMARK 924 INTRA-LIGAND FREE ENERGY PREDICTED BY IDOCK:   -0.18 KCAL/MOL
REMARK 927      BINDING AFFINITY PREDICTED BY RF-SCORE:    0.00 PKD
ROOT
HETATM    1  C   UNL     1     -11.365  15.195  67.927  1.00  0.00    -0.338 C  
HETATM    2  O   UNL     1     -10.765  14.304  68.861  1.00  0.00    -0.248 OA 
ENDROOT
BRANCH   2   3
HETATM    3  C   UNL     1      -9.778  13.451  68.421  1.00  0.00    -0.201 A  
HETATM    4  C   UNL     1     -10.018  12.156  67.859  1.00  0.00    -0.200 A  
HETATM    5  C   UNL     1      -8.915  11.466  67.309  1.00  0.00    -0.159 A  
HETATM    6  C   UNL     1      -6.009  13.647  67.710  1.00  0.00    -0.122 C  
HETATM    7  O   UNL     1      -9.006  10.199  66.815  1.00  0.00    -0.132 OA 
HETATM    8  C   UNL     1      -8.237  15.366  69.062  1.00  0.00    -0.217 C  
HETATM    9  C   UNL     1      -7.664  12.067  67.289  1.00  0.00    -0.168 A  
HETATM   10  C   UNL     1      -6.408  11.583  66.710  1.00  0.00    -0.134 C  
HETATM   11  C   UNL     1      -8.481  14.028  68.423  1.00  0.00    -0.166 A  
HETATM   12  H   UNL     1      -8.265   9.735  66.445  1.00  0.00     0.000 HD 
HETATM   13  O   UNL     1      -6.209  10.568  66.073  1.00  0.00    -0.101 OA 
HETATM   14  C   UNL     1      -7.441  13.310  67.845  1.00  0.00    -0.143 A  
HETATM   15  O   UNL     1      -5.464  12.538  66.978  1.00  0.00    -0.326 OA 
BRANCH   4  16
HETATM   16  C   UNL     1     -11.395  11.547  67.984  1.00  0.00    -0.368 C  
BRANCH  16  17
HETATM   17  C   UNL     1     -12.024  11.334  69.323  1.00  0.00    -0.411 C  
HETATM   18  C   UNL     1     -11.581  10.511  70.292  1.00  0.00    -0.417 C  
HETATM   19  C   UNL     1     -10.244   9.814  70.255  1.00  0.00    -0.346 C  
BRANCH  18  20
HETATM   20  C   UNL     1     -12.443  10.158  71.501  1.00  0.00    -0.526 C  
BRANCH  20  21
HETATM   21  C   UNL     1     -13.153   8.799  71.462  1.00  0.00    -0.358 C  
HETATM   22  O   UNL     1     -12.068   6.793  70.665  1.00  0.00    -0.392 OA 
HETATM   23  O   UNL     1     -11.555   7.532  72.730  1.00  0.00    -0.314 OA 
HETATM   24  C   UNL     1     -12.212   7.621  71.554  1.00  0.00    -0.324 C  
ENDBRANCH  20  21
ENDBRANCH  18  20
ENDBRANCH  16  17
ENDBRANCH   4  16
ENDBRANCH   2   3
TORSDOF 5
ENDMDL
MODEL      136
REMARK 921   NORMALIZED FREE ENERGY PREDICTED BY IDOCK:   -4.67 KCAL/MOL
REMARK 922        TOTAL FREE ENERGY PREDICTED BY IDOCK:   -6.29 KCAL/MOL
REMARK 923 INTER-LIGAND FREE ENERGY PREDICTED BY IDOCK:   -5.87 KCAL/MOL
REMARK 924 INTRA-LIGAND FREE ENERGY PREDICTED BY IDOCK:   -0.43 KCAL/MOL
REMARK 927      BINDING AFFINITY PREDICTED BY RF-SCORE:    0.00 PKD
ROOT
HETATM    1  C   UNL     1     -10.411   8.424  69.968  1.00  0.00    -0.224 C  
HETATM    2  O   UNL     1     -10.863   8.808  68.673  1.00  0.00    -0.115 OA 
ENDROOT
BRANCH   2   3
HETATM    3  C   UNL     1      -9.949   8.871  67.645  1.00  0.00    -0.196 A  
HETATM    4  C   UNL     1      -9.096   9.992  67.387  1.00  0.00    -0.146 A  
HETATM    5  C   UNL     1      -8.102   9.844  66.395  1.00  0.00    -0.118 A  
HETATM    6  C   UNL     1      -8.410   6.437  65.105  1.00  0.00    -0.109 C  
HETATM    7  O   UNL     1      -7.283  10.863  66.010  1.00  0.00    -0.223 OA 
HETATM    8  C   UNL     1     -10.738   6.501  67.183  1.00  0.00    -0.438 C  
HETATM    9  C   UNL     1      -7.955   8.628  65.741  1.00  0.00    -0.106 A  
HETATM   10  C   UNL     1      -6.958   8.222  64.746  1.00  0.00    -0.075 C  
HETATM   11  C   UNL     1      -9.802   7.651  66.936  1.00  0.00    -0.304 A  
HETATM   12  H   UNL     1      -6.614  10.763  65.343  1.00  0.00     0.000 HD 
HETATM   13  O   UNL     1      -6.012   8.853  64.319  1.00  0.00    -0.069 OA 
HETATM   14  C   UNL     1      -8.791   7.559  65.988  1.00  0.00    -0.179 A  
HETATM   15  O   UNL     1      -7.261   6.932  64.399  1.00  0.00    -0.058 OA 
BRANCH   4  16
HETATM   16  C   UNL     1      -9.370  11.299  68.094  1.00  0.00    -0.181 C  
BRANCH  16  17
HETATM   17  C   UNL     1      -9.865  12.492  67.341  1.00  0.00    -0.201 C  
HETATM   18  C   UNL     1     -10.999  13.174  67.583  1.00  0.00    -0.282 C  
HETATM   19  C   UNL     1     -11.864  12.960  68.800  1.00  0.00    -0.353 C  
BRANCH  18  20
HETATM   20  C   UNL     1     -11.549  14.194  66.590  1.00  0.00    -0.399 C  
BRANCH  20  21
HETATM   21  C   UNL     1     -11.067  14.066  65.140  1.00  0.00    -0.341 C  
HETATM   22  O   UNL     1     -12.574  13.602  63.310  1.00  0.00    -0.816 OA 
HETATM   23  O   UNL     1     -12.521  15.695  64.140  1.00  0.00    -0.560 OA 
HETATM   24  C   UNL     1     -12.126  14.404  64.116  1.00  0.00    -0.376 C  
ENDBRANCH  20  21
ENDBRANCH  18  20
ENDBRANCH  16  17
ENDBRANCH   4  16
ENDBRANCH   2   3
TORSDOF 5
ENDMDL
MODEL      137
REMARK 921   NORMALIZED FREE ENERGY PREDICTED BY IDOCK:   -4.66 KCAL/MOL
REMARK 922        TOTAL FREE ENERGY PREDICTED BY IDOCK:   -6.29 KCAL/MOL
REMARK 923 INTER-LIGAND FREE ENERGY PREDICTED BY IDOCK:   -6.99 KCAL/MOL
REMARK 924 INTRA-LIGAND FREE ENERGY PREDICTED BY IDOCK:    0.70 KCAL/MOL
REMARK 927      BINDING AFFINITY PREDICTED BY RF-SCORE:    0.00 PKD
ROOT
HETATM    1  C   UNL     1      -9.143  10.985  68.533  1.00  0.00    -0.173 C  
HETATM    2  O   UNL     1     -10.491  11.273  68.176  1.00  0.00    -0.177 OA 
ENDROOT
BRANCH   2   3
HETATM    3  C   UNL     1     -11.179  12.219  68.903  1.00  0.00    -0.273 A  
HETATM    4  C   UNL     1     -11.453  13.549  68.447  1.00  0.00    -0.346 A  
HETATM    5  C   UNL     1     -12.304  14.350  69.239  1.00  0.00    -0.153 A  
HETATM    6  C   UNL     1     -13.310  12.304  72.097  1.00  0.00    -0.368 C  
HETATM    7  O   UNL     1     -12.576  15.654  68.948  1.00  0.00    -0.469 OA 
HETATM    8  C   UNL     1     -11.407  10.338  70.594  1.00  0.00    -0.431 C  
HETATM    9  C   UNL     1     -12.874  13.824  70.390  1.00  0.00    -0.160 A  
HETATM   10  C   UNL     1     -13.835  14.433  71.314  1.00  0.00    -0.266 C  
HETATM   11  C   UNL     1     -11.745  11.718  70.104  1.00  0.00    -0.354 A  
HETATM   12  H   UNL     1     -13.149  16.193  69.480  1.00  0.00     0.000 HD 
HETATM   13  O   UNL     1     -14.379  15.516  71.237  1.00  0.00    -0.536 OA 
HETATM   14  C   UNL     1     -12.593  12.546  70.827  1.00  0.00    -0.299 A  
HETATM   15  O   UNL     1     -14.064  13.510  72.300  1.00  0.00    -0.531 OA 
BRANCH   4  16
HETATM   16  C   UNL     1     -10.736  14.065  67.222  1.00  0.00    -0.278 C  
BRANCH  16  17
HETATM   17  C   UNL     1     -10.058  13.128  66.274  1.00  0.00    -0.285 C  
HETATM   18  C   UNL     1     -10.586  12.609  65.150  1.00  0.00    -0.324 C  
HETATM   19  C   UNL     1     -11.897  13.058  64.553  1.00  0.00    -0.431 C  
BRANCH  18  20
HETATM   20  C   UNL     1      -9.918  11.454  64.410  1.00  0.00    -0.321 C  
BRANCH  20  21
HETATM   21  C   UNL     1      -9.744  10.148  65.194  1.00  0.00    -0.370 C  
HETATM   22  O   UNL     1      -8.376   8.326  64.390  1.00  0.00    -0.151 OA 
HETATM   23  O   UNL     1      -7.345  10.113  65.293  1.00  0.00    -0.132 OA 
HETATM   24  C   UNL     1      -8.445   9.433  64.903  1.00  0.00    -0.163 C  
ENDBRANCH  20  21
ENDBRANCH  18  20
ENDBRANCH  16  17
ENDBRANCH   4  16
ENDBRANCH   2   3
TORSDOF 5
ENDMDL
MODEL      138
REMARK 921   NORMALIZED FREE ENERGY PREDICTED BY IDOCK:   -4.64 KCAL/MOL
REMARK 922        TOTAL FREE ENERGY PREDICTED BY IDOCK:   -6.27 KCAL/MOL
REMARK 923 INTER-LIGAND FREE ENERGY PREDICTED BY IDOCK:   -6.04 KCAL/MOL
REMARK 924 INTRA-LIGAND FREE ENERGY PREDICTED BY IDOCK:   -0.23 KCAL/MOL
REMARK 927      BINDING AFFINITY PREDICTED BY RF-SCORE:    0.00 PKD
ROOT
HETATM    1  C   UNL     1      -6.988  13.358  67.463  1.00  0.00    -0.142 C  
HETATM    2  O   UNL     1      -8.393  13.244  67.666  1.00  0.00    -0.155 OA 
ENDROOT
BRANCH   2   3
HETATM    3  C   UNL     1      -9.206  13.062  66.569  1.00  0.00    -0.181 A  
HETATM    4  C   UNL     1      -9.485  11.793  65.969  1.00  0.00    -0.245 A  
HETATM    5  C   UNL     1     -10.461  11.751  64.949  1.00  0.00    -0.287 A  
HETATM    6  C   UNL     1     -11.704  15.165  64.548  1.00  0.00    -0.328 C  
HETATM    7  O   UNL     1     -10.756  10.616  64.254  1.00  0.00    -0.361 OA 
HETATM    8  C   UNL     1      -9.546  15.572  66.766  1.00  0.00    -0.251 C  
HETATM    9  C   UNL     1     -11.139  12.908  64.594  1.00  0.00    -0.352 A  
HETATM   10  C   UNL     1     -12.231  13.089  63.633  1.00  0.00    -0.491 C  
HETATM   11  C   UNL     1      -9.887  14.239  66.161  1.00  0.00    -0.335 A  
HETATM   12  H   UNL     1     -11.413  10.587  63.569  1.00  0.00     0.000 HD 
HETATM   13  O   UNL     1     -12.812  12.248  62.978  1.00  0.00    -0.522 OA 
HETATM   14  C   UNL     1     -10.853  14.129  65.170  1.00  0.00    -0.380 A  
HETATM   15  O   UNL     1     -12.532  14.425  63.636  1.00  0.00    -0.805 OA 
BRANCH   4  16
HETATM   16  C   UNL     1      -8.652  10.596  66.366  1.00  0.00    -0.151 C  
BRANCH  16  17
HETATM   17  C   UNL     1      -8.794   9.974  67.718  1.00  0.00    -0.125 C  
HETATM   18  C   UNL     1      -7.900   9.171  68.325  1.00  0.00    -0.102 C  
HETATM   19  C   UNL     1      -6.502   8.933  67.811  1.00  0.00    -0.060 C  
BRANCH  18  20
HETATM   20  C   UNL     1      -8.260   8.369  69.572  1.00  0.00    -0.118 C  
BRANCH  20  21
HETATM   21  C   UNL     1      -7.781   8.937  70.913  1.00  0.00    -0.139 C  
HETATM   22  O   UNL     1      -9.141   8.869  72.909  1.00  0.00    -0.235 OA 
HETATM   23  O   UNL     1      -8.104   6.976  72.262  1.00  0.00    -0.096 OA 
HETATM   24  C   UNL     1      -8.422   8.281  72.114  1.00  0.00    -0.179 C  
ENDBRANCH  20  21
ENDBRANCH  18  20
ENDBRANCH  16  17
ENDBRANCH   4  16
ENDBRANCH   2   3
TORSDOF 5
ENDMDL
MODEL      139
REMARK 921   NORMALIZED FREE ENERGY PREDICTED BY IDOCK:   -4.61 KCAL/MOL
REMARK 922        TOTAL FREE ENERGY PREDICTED BY IDOCK:   -6.23 KCAL/MOL
REMARK 923 INTER-LIGAND FREE ENERGY PREDICTED BY IDOCK:   -6.08 KCAL/MOL
REMARK 924 INTRA-LIGAND FREE ENERGY PREDICTED BY IDOCK:   -0.15 KCAL/MOL
REMARK 927      BINDING AFFINITY PREDICTED BY RF-SCORE:    0.00 PKD
ROOT
HETATM    1  C   UNL     1     -12.373  13.024  70.642  1.00  0.00    -0.310 C  
HETATM    2  O   UNL     1     -12.278  12.174  69.503  1.00  0.00    -0.222 OA 
ENDROOT
BRANCH   2   3
HETATM    3  C   UNL     1     -11.085  12.117  68.818  1.00  0.00    -0.250 A  
HETATM    4  C   UNL     1     -10.608  13.139  67.936  1.00  0.00    -0.243 A  
HETATM    5  C   UNL     1      -9.296  13.009  67.431  1.00  0.00    -0.209 A  
HETATM    6  C   UNL     1      -7.925   9.936  68.860  1.00  0.00    -0.096 C  
HETATM    7  O   UNL     1      -8.762  13.877  66.526  1.00  0.00    -0.444 OA 
HETATM    8  C   UNL     1     -10.804   9.922  70.065  1.00  0.00    -0.339 C  
HETATM    9  C   UNL     1      -8.506  11.938  67.828  1.00  0.00    -0.154 A  
HETATM   10  C   UNL     1      -7.109  11.642  67.501  1.00  0.00    -0.111 C  
HETATM   11  C   UNL     1     -10.271  11.012  69.179  1.00  0.00    -0.187 A  
HETATM   12  H   UNL     1      -7.879  13.789  66.187  1.00  0.00     0.000 HD 
HETATM   13  O   UNL     1      -6.325  12.303  66.850  1.00  0.00    -0.141 OA 
HETATM   14  C   UNL     1      -8.980  10.952  68.668  1.00  0.00    -0.162 A  
HETATM   15  O   UNL     1      -6.807  10.460  68.125  1.00  0.00    -0.071 OA 
BRANCH   4  16
HETATM   16  C   UNL     1     -11.556  14.232  67.500  1.00  0.00    -0.390 C  
BRANCH  16  17
HETATM   17  C   UNL     1     -11.056  15.606  67.189  1.00  0.00    -0.218 C  
HETATM   18  C   UNL     1     -10.850  16.600  68.073  1.00  0.00    -0.337 C  
HETATM   19  C   UNL     1     -10.900  16.416  69.569  1.00  0.00    -0.338 C  
BRANCH  18  20
HETATM   20  C   UNL     1     -10.609  18.038  67.621  1.00  0.00    -0.413 C  
BRANCH  20  21
HETATM   21  C   UNL     1      -9.625  18.862  68.458  1.00  0.00    -0.432 C  
HETATM   22  O   UNL     1      -7.643  19.868  67.510  1.00  0.00    -0.264 OA 
HETATM   23  O   UNL     1      -9.627  20.865  67.133  1.00  0.00    -0.414 OA 
HETATM   24  C   UNL     1      -8.856  19.888  67.657  1.00  0.00    -0.334 C  
ENDBRANCH  20  21
ENDBRANCH  18  20
ENDBRANCH  16  17
ENDBRANCH   4  16
ENDBRANCH   2   3
TORSDOF 5
ENDMDL
MODEL      140
REMARK 921   NORMALIZED FREE ENERGY PREDICTED BY IDOCK:   -4.61 KCAL/MOL
REMARK 922        TOTAL FREE ENERGY PREDICTED BY IDOCK:   -6.22 KCAL/MOL
REMARK 923 INTER-LIGAND FREE ENERGY PREDICTED BY IDOCK:   -5.51 KCAL/MOL
REMARK 924 INTRA-LIGAND FREE ENERGY PREDICTED BY IDOCK:   -0.71 KCAL/MOL
REMARK 927      BINDING AFFINITY PREDICTED BY RF-SCORE:    0.00 PKD
ROOT
HETATM    1  C   UNL     1     -10.884   6.058  68.593  1.00  0.00    -0.307 C  
HETATM    2  O   UNL     1     -10.288   6.638  69.749  1.00  0.00    -0.181 OA 
ENDROOT
BRANCH   2   3
HETATM    3  C   UNL     1     -10.647   7.919  70.106  1.00  0.00    -0.237 A  
HETATM    4  C   UNL     1     -10.096   9.105  69.525  1.00  0.00    -0.202 A  
HETATM    5  C   UNL     1     -10.679  10.341  69.883  1.00  0.00    -0.294 A  
HETATM    6  C   UNL     1     -13.405   9.581  72.197  1.00  0.00    -0.461 C  
HETATM    7  O   UNL     1     -10.193  11.540  69.454  1.00  0.00    -0.428 OA 
HETATM    8  C   UNL     1     -12.274   6.724  71.648  1.00  0.00    -0.410 C  
HETATM    9  C   UNL     1     -11.772  10.367  70.738  1.00  0.00    -0.464 A  
HETATM   10  C   UNL     1     -12.578  11.507  71.183  1.00  0.00    -0.359 C  
HETATM   11  C   UNL     1     -11.741   7.975  71.007  1.00  0.00    -0.295 A  
HETATM   12  H   UNL     1     -10.585  12.371  69.695  1.00  0.00     0.000 HD 
HETATM   13  O   UNL     1     -12.491  12.673  70.853  1.00  0.00    -0.369 OA 
HETATM   14  C   UNL     1     -12.286   9.218  71.303  1.00  0.00    -0.403 A  
HETATM   15  O   UNL     1     -13.524  11.004  72.036  1.00  0.00    -0.378 OA 
BRANCH   4  16
HETATM   16  C   UNL     1      -8.863   8.994  68.659  1.00  0.00    -0.137 C  
BRANCH  16  17
HETATM   17  C   UNL     1      -7.554   8.558  69.236  1.00  0.00    -0.095 C  
HETATM   18  C   UNL     1      -6.896   7.419  68.952  1.00  0.00    -0.072 C  
HETATM   19  C   UNL     1      -7.285   6.481  67.836  1.00  0.00    -0.087 C  
BRANCH  18  20
HETATM   20  C   UNL     1      -5.718   6.941  69.797  1.00  0.00    -0.019 C  
BRANCH  20  21
HETATM   21  C   UNL     1      -5.951   6.859  71.311  1.00  0.00    -0.036 C  
HETATM   22  O   UNL     1      -8.143   7.089  72.299  1.00  0.00    -0.096 OA 
HETATM   23  O   UNL     1      -7.618   5.131  71.318  1.00  0.00    -0.089 OA 
HETATM   24  C   UNL     1      -7.340   6.399  71.688  1.00  0.00    -0.088 C  
ENDBRANCH  20  21
ENDBRANCH  18  20
ENDBRANCH  16  17
ENDBRANCH   4  16
ENDBRANCH   2   3
TORSDOF 5
ENDMDL
MODEL      141
REMARK 921   NORMALIZED FREE ENERGY PREDICTED BY IDOCK:   -4.61 KCAL/MOL
REMARK 922        TOTAL FREE ENERGY PREDICTED BY IDOCK:   -6.22 KCAL/MOL
REMARK 923 INTER-LIGAND FREE ENERGY PREDICTED BY IDOCK:   -5.83 KCAL/MOL
REMARK 924 INTRA-LIGAND FREE ENERGY PREDICTED BY IDOCK:   -0.39 KCAL/MOL
REMARK 927      BINDING AFFINITY PREDICTED BY RF-SCORE:    0.00 PKD
ROOT
HETATM    1  C   UNL     1      -7.329  15.457  69.902  1.00  0.00    -0.041 C  
HETATM    2  O   UNL     1      -6.829  15.860  68.632  1.00  0.00    -0.117 OA 
ENDROOT
BRANCH   2   3
HETATM    3  C   UNL     1      -7.625  16.644  67.826  1.00  0.00    -0.159 A  
HETATM    4  C   UNL     1      -8.619  16.136  66.929  1.00  0.00    -0.253 A  
HETATM    5  C   UNL     1      -9.462  17.071  66.289  1.00  0.00    -0.256 A  
HETATM    6  C   UNL     1      -8.458  20.377  67.483  1.00  0.00    -0.278 C  
HETATM    7  O   UNL     1     -10.391  16.713  65.359  1.00  0.00    -0.584 OA 
HETATM    8  C   UNL     1      -6.410  18.555  68.976  1.00  0.00    -0.248 C  
HETATM    9  C   UNL     1      -9.335  18.423  66.573  1.00  0.00    -0.311 A  
HETATM   10  C   UNL     1     -10.138  19.553  66.096  1.00  0.00    -0.469 C  
HETATM   11  C   UNL     1      -7.491  18.035  68.071  1.00  0.00    -0.238 A  
HETATM   12  H   UNL     1     -10.959  17.341  64.928  1.00  0.00     0.000 HD 
HETATM   13  O   UNL     1     -11.123  19.537  65.387  1.00  0.00    -0.415 OA 
HETATM   14  C   UNL     1      -8.365  18.903  67.429  1.00  0.00    -0.294 A  
HETATM   15  O   UNL     1      -9.591  20.679  66.652  1.00  0.00    -0.311 OA 
BRANCH   4  16
HETATM   16  C   UNL     1      -8.643  14.657  66.624  1.00  0.00    -0.129 C  
BRANCH  16  17
HETATM   17  C   UNL     1      -9.182  13.674  67.614  1.00  0.00    -0.213 C  
HETATM   18  C   UNL     1      -8.556  12.572  68.066  1.00  0.00    -0.185 C  
HETATM   19  C   UNL     1      -7.107  12.257  67.791  1.00  0.00    -0.114 C  
BRANCH  18  20
HETATM   20  C   UNL     1      -9.298  11.495  68.854  1.00  0.00    -0.006 C  
BRANCH  20  21
HETATM   21  C   UNL     1     -10.818  11.434  68.664  1.00  0.00    -0.249 C  
HETATM   22  O   UNL     1     -11.866  11.695  66.503  1.00  0.00    -0.500 OA 
HETATM   23  O   UNL     1     -10.895   9.720  66.983  1.00  0.00    -0.203 OA 
HETATM   24  C   UNL     1     -11.240  10.991  67.282  1.00  0.00    -0.258 C  
ENDBRANCH  20  21
ENDBRANCH  18  20
ENDBRANCH  16  17
ENDBRANCH   4  16
ENDBRANCH   2   3
TORSDOF 5
ENDMDL
MODEL      142
REMARK 921   NORMALIZED FREE ENERGY PREDICTED BY IDOCK:   -4.60 KCAL/MOL
REMARK 922        TOTAL FREE ENERGY PREDICTED BY IDOCK:   -6.20 KCAL/MOL
REMARK 923 INTER-LIGAND FREE ENERGY PREDICTED BY IDOCK:   -5.87 KCAL/MOL
REMARK 924 INTRA-LIGAND FREE ENERGY PREDICTED BY IDOCK:   -0.33 KCAL/MOL
REMARK 927      BINDING AFFINITY PREDICTED BY RF-SCORE:    0.00 PKD
ROOT
HETATM    1  C   UNL     1     -12.979  14.027  65.274  1.00  0.00    -0.278 C  
HETATM    2  O   UNL     1     -11.594  14.195  64.988  1.00  0.00    -0.332 OA 
ENDROOT
BRANCH   2   3
HETATM    3  C   UNL     1     -10.677  13.458  65.705  1.00  0.00    -0.277 A  
HETATM    4  C   UNL     1     -10.314  13.719  67.065  1.00  0.00    -0.260 A  
HETATM    5  C   UNL     1      -9.479  12.781  67.711  1.00  0.00    -0.205 A  
HETATM    6  C   UNL     1      -8.803  10.134  65.282  1.00  0.00    -0.178 C  
HETATM    7  O   UNL     1      -9.007  12.960  68.977  1.00  0.00    -0.331 OA 
HETATM    8  C   UNL     1     -10.570  12.066  63.583  1.00  0.00    -0.503 C  
HETATM    9  C   UNL     1      -9.077  11.636  67.038  1.00  0.00    -0.179 A  
HETATM   10  C   UNL     1      -8.285  10.501  67.523  1.00  0.00    -0.114 C  
HETATM   11  C   UNL     1     -10.221  12.298  65.026  1.00  0.00    -0.312 A  
HETATM   12  H   UNL     1      -8.445  12.329  69.412  1.00  0.00     0.000 HD 
HETATM   13  O   UNL     1      -7.857  10.299  68.641  1.00  0.00    -0.091 OA 
HETATM   14  C   UNL     1      -9.422  11.401  65.723  1.00  0.00    -0.256 A  
HETATM   15  O   UNL     1      -8.148   9.644  66.463  1.00  0.00    -0.117 OA 
BRANCH   4  16
HETATM   16  C   UNL     1     -10.738  15.022  67.700  1.00  0.00    -0.274 C  
BRANCH  16  17
HETATM   17  C   UNL     1      -9.745  15.902  68.389  1.00  0.00    -0.214 C  
HETATM   18  C   UNL     1      -8.664  16.477  67.829  1.00  0.00    -0.197 C  
HETATM   19  C   UNL     1      -8.393  16.487  66.346  1.00  0.00    -0.358 C  
BRANCH  18  20
HETATM   20  C   UNL     1      -7.570  17.121  68.676  1.00  0.00    -0.258 C  
BRANCH  20  21
HETATM   21  C   UNL     1      -6.732  18.211  67.998  1.00  0.00    -0.206 C  
HETATM   22  O   UNL     1      -7.584  20.434  67.588  1.00  0.00    -0.301 OA 
HETATM   23  O   UNL     1      -6.937  19.912  69.681  1.00  0.00    -0.322 OA 
HETATM   24  C   UNL     1      -7.139  19.615  68.379  1.00  0.00    -0.309 C  
ENDBRANCH  20  21
ENDBRANCH  18  20
ENDBRANCH  16  17
ENDBRANCH   4  16
ENDBRANCH   2   3
TORSDOF 5
ENDMDL
MODEL      143
REMARK 921   NORMALIZED FREE ENERGY PREDICTED BY IDOCK:   -4.59 KCAL/MOL
REMARK 922        TOTAL FREE ENERGY PREDICTED BY IDOCK:   -6.19 KCAL/MOL
REMARK 923 INTER-LIGAND FREE ENERGY PREDICTED BY IDOCK:   -5.70 KCAL/MOL
REMARK 924 INTRA-LIGAND FREE ENERGY PREDICTED BY IDOCK:   -0.49 KCAL/MOL
REMARK 927      BINDING AFFINITY PREDICTED BY RF-SCORE:    0.00 PKD
ROOT
HETATM    1  C   UNL     1      -8.604  10.216  69.487  1.00  0.00    -0.164 C  
HETATM    2  O   UNL     1      -7.577   9.855  68.569  1.00  0.00    -0.078 OA 
ENDROOT
BRANCH   2   3
HETATM    3  C   UNL     1      -7.874   8.964  67.562  1.00  0.00    -0.101 A  
HETATM    4  C   UNL     1      -8.225   9.339  66.226  1.00  0.00    -0.107 A  
HETATM    5  C   UNL     1      -8.347   8.309  65.267  1.00  0.00    -0.166 A  
HETATM    6  C   UNL     1      -7.601   5.176  66.996  1.00  0.00    -0.088 C  
HETATM    7  O   UNL     1      -8.749   8.536  63.984  1.00  0.00    -0.411 OA 
HETATM    8  C   UNL     1      -7.335   7.226  69.334  1.00  0.00    -0.089 C  
HETATM    9  C   UNL     1      -8.089   6.994  65.629  1.00  0.00    -0.129 A  
HETATM   10  C   UNL     1      -8.076   5.786  64.799  1.00  0.00    -0.132 C  
HETATM   11  C   UNL     1      -7.652   7.607  67.916  1.00  0.00    -0.117 A  
HETATM   12  H   UNL     1      -8.831   7.844  63.339  1.00  0.00     0.000 HD 
HETATM   13  O   UNL     1      -8.239   5.688  63.600  1.00  0.00    -0.119 OA 
HETATM   14  C   UNL     1      -7.765   6.642  66.923  1.00  0.00    -0.106 A  
HETATM   15  O   UNL     1      -7.786   4.743  65.638  1.00  0.00    -0.093 OA 
BRANCH   4  16
HETATM   16  C   UNL     1      -8.557  10.784  65.933  1.00  0.00    -0.182 C  
BRANCH  16  17
HETATM   17  C   UNL     1      -9.933  11.319  66.163  1.00  0.00    -0.268 C  
HETATM   18  C   UNL     1     -10.757  11.831  65.230  1.00  0.00    -0.338 C  
HETATM   19  C   UNL     1     -10.494  11.758  63.747  1.00  0.00    -0.466 C  
BRANCH  18  20
HETATM   20  C   UNL     1     -12.019  12.602  65.611  1.00  0.00    -0.507 C  
BRANCH  20  21
HETATM   21  C   UNL     1     -11.830  14.073  66.001  1.00  0.00    -0.401 C  
HETATM   22  O   UNL     1     -10.557  15.619  64.651  1.00  0.00    -0.425 OA 
HETATM   23  O   UNL     1     -12.638  15.081  63.977  1.00  0.00    -0.817 OA 
HETATM   24  C   UNL     1     -11.590  14.988  64.823  1.00  0.00    -0.395 C  
ENDBRANCH  20  21
ENDBRANCH  18  20
ENDBRANCH  16  17
ENDBRANCH   4  16
ENDBRANCH   2   3
TORSDOF 5
ENDMDL
MODEL      144
REMARK 921   NORMALIZED FREE ENERGY PREDICTED BY IDOCK:   -4.57 KCAL/MOL
REMARK 922        TOTAL FREE ENERGY PREDICTED BY IDOCK:   -6.17 KCAL/MOL
REMARK 923 INTER-LIGAND FREE ENERGY PREDICTED BY IDOCK:   -5.67 KCAL/MOL
REMARK 924 INTRA-LIGAND FREE ENERGY PREDICTED BY IDOCK:   -0.50 KCAL/MOL
REMARK 927      BINDING AFFINITY PREDICTED BY RF-SCORE:    0.00 PKD
ROOT
HETATM    1  C   UNL     1     -12.114  15.101  64.378  1.00  0.00    -0.300 C  
HETATM    2  O   UNL     1     -11.879  15.397  65.751  1.00  0.00     0.055 OA 
ENDROOT
BRANCH   2   3
HETATM    3  C   UNL     1     -10.601  15.263  66.247  1.00  0.00    -0.309 A  
HETATM    4  C   UNL     1      -9.933  14.011  66.435  1.00  0.00    -0.301 A  
HETATM    5  C   UNL     1      -8.569  14.046  66.803  1.00  0.00    -0.055 A  
HETATM    6  C   UNL     1      -7.629  17.572  67.006  1.00  0.00    -0.207 C  
HETATM    7  O   UNL     1      -7.850  12.922  67.082  1.00  0.00    -0.299 OA 
HETATM    8  C   UNL     1     -10.653  17.803  66.268  1.00  0.00    -0.220 C  
HETATM    9  C   UNL     1      -7.919  15.265  66.928  1.00  0.00    -0.194 A  
HETATM   10  C   UNL     1      -6.509  15.541  67.220  1.00  0.00    -0.014 C  
HETATM   11  C   UNL     1      -9.923  16.498  66.419  1.00  0.00    -0.318 A  
HETATM   12  H   UNL     1      -6.933  12.945  67.329  1.00  0.00     0.000 HD 
HETATM   13  O   UNL     1      -5.596  14.754  67.362  1.00  0.00    -0.341 OA 
HETATM   14  C   UNL     1      -8.576  16.466  66.758  1.00  0.00    -0.270 A  
HETATM   15  O   UNL     1      -6.381  16.905  67.257  1.00  0.00    -0.138 OA 
BRANCH   4  16
HETATM   16  C   UNL     1     -10.732  12.733  66.347  1.00  0.00    -0.282 C  
BRANCH  16  17
HETATM   17  C   UNL     1     -11.127  11.985  67.580  1.00  0.00    -0.331 C  
HETATM   18  C   UNL     1     -10.935  10.673  67.814  1.00  0.00    -0.364 C  
HETATM   19  C   UNL     1     -10.095   9.779  66.937  1.00  0.00    -0.287 C  
BRANCH  18  20
HETATM   20  C   UNL     1     -11.621   9.957  68.974  1.00  0.00     0.097 C  
BRANCH  20  21
HETATM   21  C   UNL     1     -11.426  10.568  70.367  1.00  0.00    -0.427 C  
HETATM   22  O   UNL     1     -13.164  11.814  71.490  1.00  0.00    -0.361 OA 
HETATM   23  O   UNL     1     -13.316   9.567  71.458  1.00  0.00    -0.369 OA 
HETATM   24  C   UNL     1     -12.712  10.732  71.143  1.00  0.00    -0.431 C  
ENDBRANCH  20  21
ENDBRANCH  18  20
ENDBRANCH  16  17
ENDBRANCH   4  16
ENDBRANCH   2   3
TORSDOF 5
ENDMDL
MODEL      145
REMARK 921   NORMALIZED FREE ENERGY PREDICTED BY IDOCK:   -4.57 KCAL/MOL
REMARK 922        TOTAL FREE ENERGY PREDICTED BY IDOCK:   -6.16 KCAL/MOL
REMARK 923 INTER-LIGAND FREE ENERGY PREDICTED BY IDOCK:   -5.63 KCAL/MOL
REMARK 924 INTRA-LIGAND FREE ENERGY PREDICTED BY IDOCK:   -0.54 KCAL/MOL
REMARK 927      BINDING AFFINITY PREDICTED BY RF-SCORE:    0.00 PKD
ROOT
HETATM    1  C   UNL     1     -10.975   8.960  69.630  1.00  0.00    -0.123 C  
HETATM    2  O   UNL     1      -9.917   9.663  68.988  1.00  0.00    -0.172 OA 
ENDROOT
BRANCH   2   3
HETATM    3  C   UNL     1      -9.895   9.711  67.612  1.00  0.00    -0.164 A  
HETATM    4  C   UNL     1     -10.700  10.591  66.819  1.00  0.00    -0.252 A  
HETATM    5  C   UNL     1     -10.450  10.634  65.430  1.00  0.00    -0.184 A  
HETATM    6  C   UNL     1      -7.700   8.313  64.788  1.00  0.00    -0.114 C  
HETATM    7  O   UNL     1     -11.200  11.375  64.566  1.00  0.00    -0.283 OA 
HETATM    8  C   UNL     1      -8.077   7.956  67.866  1.00  0.00    -0.129 C  
HETATM    9  C   UNL     1      -9.426   9.870  64.889  1.00  0.00    -0.355 A  
HETATM   10  C   UNL     1      -8.939   9.811  63.507  1.00  0.00    -0.244 C  
HETATM   11  C   UNL     1      -8.878   8.911  67.028  1.00  0.00    -0.138 A  
HETATM   12  H   UNL     1     -11.032  11.404  63.631  1.00  0.00     0.000 HD 
HETATM   13  O   UNL     1      -9.299  10.463  62.548  1.00  0.00    -0.271 OA 
HETATM   14  C   UNL     1      -8.665   9.015  65.659  1.00  0.00    -0.205 A  
HETATM   15  O   UNL     1      -7.928   8.887  63.491  1.00  0.00    -0.141 OA 
BRANCH   4  16
HETATM   16  C   UNL     1     -11.838  11.335  67.477  1.00  0.00    -0.030 C  
BRANCH  16  17
HETATM   17  C   UNL     1     -11.598  12.610  68.220  1.00  0.00    -0.377 C  
HETATM   18  C   UNL     1     -11.660  13.855  67.711  1.00  0.00    -0.381 C  
HETATM   19  C   UNL     1     -12.189  14.173  66.335  1.00  0.00    -0.473 C  
BRANCH  18  20
HETATM   20  C   UNL     1     -11.127  15.062  68.477  1.00  0.00    -0.279 C  
BRANCH  20  21
HETATM   21  C   UNL     1     -12.134  15.816  69.354  1.00  0.00    -0.245 C  
HETATM   22  O   UNL     1     -13.226  14.789  71.248  1.00  0.00    -0.342 OA 
HETATM   23  O   UNL     1     -11.087  15.453  71.485  1.00  0.00    -0.363 OA 
HETATM   24  C   UNL     1     -12.220  15.291  70.768  1.00  0.00    -0.360 C  
ENDBRANCH  20  21
ENDBRANCH  18  20
ENDBRANCH  16  17
ENDBRANCH   4  16
ENDBRANCH   2   3
TORSDOF 5
ENDMDL
MODEL      146
REMARK 921   NORMALIZED FREE ENERGY PREDICTED BY IDOCK:   -4.56 KCAL/MOL
REMARK 922        TOTAL FREE ENERGY PREDICTED BY IDOCK:   -6.15 KCAL/MOL
REMARK 923 INTER-LIGAND FREE ENERGY PREDICTED BY IDOCK:   -6.28 KCAL/MOL
REMARK 924 INTRA-LIGAND FREE ENERGY PREDICTED BY IDOCK:    0.13 KCAL/MOL
REMARK 927      BINDING AFFINITY PREDICTED BY RF-SCORE:    0.00 PKD
ROOT
HETATM    1  C   UNL     1      -7.337   8.172  68.276  1.00  0.00    -0.095 C  
HETATM    2  O   UNL     1      -8.557   7.467  68.480  1.00  0.00    -0.128 OA 
ENDROOT
BRANCH   2   3
HETATM    3  C   UNL     1      -9.524   8.036  69.278  1.00  0.00    -0.155 A  
HETATM    4  C   UNL     1     -10.450   9.036  68.840  1.00  0.00    -0.231 A  
HETATM    5  C   UNL     1     -11.483   9.407  69.730  1.00  0.00     0.039 A  
HETATM    6  C   UNL     1     -11.049   7.380  72.741  1.00  0.00    -0.346 C  
HETATM    7  O   UNL     1     -12.376  10.399  69.454  1.00  0.00    -0.590 OA 
HETATM    8  C   UNL     1      -8.627   6.421  71.021  1.00  0.00    -0.131 C  
HETATM    9  C   UNL     1     -11.594   8.775  70.960  1.00  0.00    -0.337 A  
HETATM   10  C   UNL     1     -12.615   8.936  72.000  1.00  0.00    -0.394 C  
HETATM   11  C   UNL     1      -9.637   7.432  70.558  1.00  0.00    -0.172 A  
HETATM   12  H   UNL     1     -13.071  10.648  70.052  1.00  0.00     0.000 HD 
HETATM   13  O   UNL     1     -13.615   9.624  71.980  1.00  0.00    -0.408 OA 
HETATM   14  C   UNL     1     -10.688   7.822  71.378  1.00  0.00    -0.250 A  
HETATM   15  O   UNL     1     -12.258   8.101  73.026  1.00  0.00    -0.200 OA 
BRANCH   4  16
HETATM   16  C   UNL     1     -10.215   9.722  67.515  1.00  0.00    -0.271 C  
BRANCH  16  17
HETATM   17  C   UNL     1     -11.074  10.865  67.077  1.00  0.00    -0.271 C  
HETATM   18  C   UNL     1     -10.778  12.174  67.185  1.00  0.00    -0.267 C  
HETATM   19  C   UNL     1      -9.421  12.696  67.589  1.00  0.00    -0.189 C  
BRANCH  18  20
HETATM   20  C   UNL     1     -11.832  13.255  66.968  1.00  0.00    -0.442 C  
BRANCH  20  21
HETATM   21  C   UNL     1     -11.583  14.232  65.813  1.00  0.00    -0.346 C  
HETATM   22  O   UNL     1     -10.555  13.548  63.737  1.00  0.00    -0.062 OA 
HETATM   23  O   UNL     1     -12.718  13.021  64.077  1.00  0.00    -0.656 OA 
HETATM   24  C   UNL     1     -11.543  13.569  64.455  1.00  0.00    -0.381 C  
ENDBRANCH  20  21
ENDBRANCH  18  20
ENDBRANCH  16  17
ENDBRANCH   4  16
ENDBRANCH   2   3
TORSDOF 5
ENDMDL
MODEL      147
REMARK 921   NORMALIZED FREE ENERGY PREDICTED BY IDOCK:   -4.54 KCAL/MOL
REMARK 922        TOTAL FREE ENERGY PREDICTED BY IDOCK:   -6.13 KCAL/MOL
REMARK 923 INTER-LIGAND FREE ENERGY PREDICTED BY IDOCK:   -5.69 KCAL/MOL
REMARK 924 INTRA-LIGAND FREE ENERGY PREDICTED BY IDOCK:   -0.44 KCAL/MOL
REMARK 927      BINDING AFFINITY PREDICTED BY RF-SCORE:    0.00 PKD
ROOT
HETATM    1  C   UNL     1     -10.016   5.353  70.784  1.00  0.00    -0.204 C  
HETATM    2  O   UNL     1     -10.966   6.086  70.018  1.00  0.00    -0.324 OA 
ENDROOT
BRANCH   2   3
HETATM    3  C   UNL     1     -11.129   7.429  70.278  1.00  0.00    -0.258 A  
HETATM    4  C   UNL     1     -10.388   8.473  69.638  1.00  0.00    -0.218 A  
HETATM    5  C   UNL     1     -10.779   9.806  69.895  1.00  0.00    -0.268 A  
HETATM    6  C   UNL     1     -13.642   9.638  72.162  1.00  0.00    -0.389 C  
HETATM    7  O   UNL     1     -10.103  10.883  69.405  1.00  0.00    -0.369 OA 
HETATM    8  C   UNL     1     -12.956   6.610  71.840  1.00  0.00    -0.163 C  
HETATM    9  C   UNL     1     -11.874  10.059  70.710  1.00  0.00    -0.435 A  
HETATM   10  C   UNL     1     -12.503  11.339  71.052  1.00  0.00    -0.400 C  
HETATM   11  C   UNL     1     -12.222   7.716  71.137  1.00  0.00    -0.310 A  
HETATM   12  H   UNL     1     -10.366  11.779  69.577  1.00  0.00     0.000 HD 
HETATM   13  O   UNL     1     -12.227  12.451  70.649  1.00  0.00    -0.368 OA 
HETATM   14  C   UNL     1     -12.573   9.046  71.332  1.00  0.00    -0.370 A  
HETATM   15  O   UNL     1     -13.534  11.048  71.905  1.00  0.00    -0.349 OA 
BRANCH   4  16
HETATM   16  C   UNL     1      -9.168   8.113  68.823  1.00  0.00    -0.144 C  
BRANCH  16  17
HETATM   17  C   UNL     1      -9.301   7.492  67.470  1.00  0.00    -0.157 C  
HETATM   18  C   UNL     1      -8.507   6.541  66.946  1.00  0.00    -0.114 C  
HETATM   19  C   UNL     1      -7.459   5.795  67.734  1.00  0.00    -0.078 C  
BRANCH  18  20
HETATM   20  C   UNL     1      -8.558   6.180  65.464  1.00  0.00    -0.133 C  
BRANCH  20  21
HETATM   21  C   UNL     1      -8.376   4.699  65.113  1.00  0.00    -0.126 C  
HETATM   22  O   UNL     1      -9.408   2.928  66.392  1.00  0.00    -0.131 OA 
HETATM   23  O   UNL     1     -10.693   4.087  64.951  1.00  0.00    -0.215 OA 
HETATM   24  C   UNL     1      -9.520   3.822  65.567  1.00  0.00    -0.169 C  
ENDBRANCH  20  21
ENDBRANCH  18  20
ENDBRANCH  16  17
ENDBRANCH   4  16
ENDBRANCH   2   3
TORSDOF 5
ENDMDL
MODEL      148
REMARK 921   NORMALIZED FREE ENERGY PREDICTED BY IDOCK:   -4.54 KCAL/MOL
REMARK 922        TOTAL FREE ENERGY PREDICTED BY IDOCK:   -6.13 KCAL/MOL
REMARK 923 INTER-LIGAND FREE ENERGY PREDICTED BY IDOCK:   -5.69 KCAL/MOL
REMARK 924 INTRA-LIGAND FREE ENERGY PREDICTED BY IDOCK:   -0.44 KCAL/MOL
REMARK 927      BINDING AFFINITY PREDICTED BY RF-SCORE:    0.00 PKD
ROOT
HETATM    1  C   UNL     1      -6.077  11.187  68.253  1.00  0.00    -0.045 C  
HETATM    2  O   UNL     1      -7.148  11.942  68.811  1.00  0.00    -0.099 OA 
ENDROOT
BRANCH   2   3
HETATM    3  C   UNL     1      -8.296  12.110  68.068  1.00  0.00    -0.167 A  
HETATM    4  C   UNL     1      -9.371  11.167  68.014  1.00  0.00    -0.166 A  
HETATM    5  C   UNL     1     -10.547  11.552  67.334  1.00  0.00    -0.214 A  
HETATM    6  C   UNL     1      -9.986  14.954  66.119  1.00  0.00    -0.303 C  
HETATM    7  O   UNL     1     -11.606  10.713  67.152  1.00  0.00    -0.321 OA 
HETATM    8  C   UNL     1      -7.246  14.349  67.486  1.00  0.00    -0.202 C  
HETATM    9  C   UNL     1     -10.642  12.823  66.784  1.00  0.00    -0.266 A  
HETATM   10  C   UNL     1     -11.775  13.463  66.109  1.00  0.00    -0.368 C  
HETATM   11  C   UNL     1      -8.403  13.390  67.464  1.00  0.00    -0.190 A  
HETATM   12  H   UNL     1     -12.397  10.972  66.695  1.00  0.00     0.000 HD 
HETATM   13  O   UNL     1     -12.896  13.030  65.935  1.00  0.00    -0.349 OA 
HETATM   14  C   UNL     1      -9.594  13.719  66.830  1.00  0.00    -0.283 A  
HETATM   15  O   UNL     1     -11.349  14.710  65.735  1.00  0.00    -0.335 OA 
BRANCH   4  16
HETATM   16  C   UNL     1      -9.160   9.781  68.578  1.00  0.00    -0.128 C  
BRANCH  16  17
HETATM   17  C   UNL     1      -9.765   9.380  69.885  1.00  0.00    -0.236 C  
HETATM   18  C   UNL     1     -10.550   8.309  70.107  1.00  0.00    -0.233 C  
HETATM   19  C   UNL     1     -10.779   7.214  69.096  1.00  0.00    -0.216 C  
BRANCH  18  20
HETATM   20  C   UNL     1     -11.339   8.148  71.403  1.00  0.00    -0.299 C  
BRANCH  20  21
HETATM   21  C   UNL     1     -11.825   9.438  72.073  1.00  0.00    -0.310 C  
HETATM   22  O   UNL     1     -12.220  11.474  70.834  1.00  0.00    -0.368 OA 
HETATM   23  O   UNL     1     -13.762   9.836  70.710  1.00  0.00    -0.182 OA 
HETATM   24  C   UNL     1     -12.593  10.352  71.147  1.00  0.00    -0.410 C  
ENDBRANCH  20  21
ENDBRANCH  18  20
ENDBRANCH  16  17
ENDBRANCH   4  16
ENDBRANCH   2   3
TORSDOF 5
ENDMDL
MODEL      149
REMARK 921   NORMALIZED FREE ENERGY PREDICTED BY IDOCK:   -4.53 KCAL/MOL
REMARK 922        TOTAL FREE ENERGY PREDICTED BY IDOCK:   -6.12 KCAL/MOL
REMARK 923 INTER-LIGAND FREE ENERGY PREDICTED BY IDOCK:   -5.78 KCAL/MOL
REMARK 924 INTRA-LIGAND FREE ENERGY PREDICTED BY IDOCK:   -0.34 KCAL/MOL
REMARK 927      BINDING AFFINITY PREDICTED BY RF-SCORE:    0.00 PKD
ROOT
HETATM    1  C   UNL     1     -12.160   6.640  71.229  1.00  0.00    -0.341 C  
HETATM    2  O   UNL     1     -11.342   6.730  70.066  1.00  0.00    -0.318 OA 
ENDROOT
BRANCH   2   3
HETATM    3  C   UNL     1     -10.076   7.256  70.188  1.00  0.00    -0.189 A  
HETATM    4  C   UNL     1      -9.784   8.656  70.264  1.00  0.00    -0.191 A  
HETATM    5  C   UNL     1      -8.453   9.033  70.546  1.00  0.00    -0.200 A  
HETATM    6  C   UNL     1      -6.548   5.938  70.938  1.00  0.00    -0.045 C  
HETATM    7  O   UNL     1      -8.041  10.332  70.569  1.00  0.00    -0.388 OA 
HETATM    8  C   UNL     1      -9.379   4.815  70.257  1.00  0.00    -0.217 C  
HETATM    9  C   UNL     1      -7.493   8.058  70.778  1.00  0.00    -0.072 A  
HETATM   10  C   UNL     1      -6.086   8.210  71.159  1.00  0.00    -0.034 C  
HETATM   11  C   UNL     1      -9.067   6.278  70.391  1.00  0.00    -0.157 A  
HETATM   12  H   UNL     1      -7.146  10.587  70.759  1.00  0.00     0.000 HD 
HETATM   13  O   UNL     1      -5.473   9.229  71.405  1.00  0.00    -0.047 OA 
HETATM   14  C   UNL     1      -7.782   6.712  70.689  1.00  0.00    -0.104 A  
HETATM   15  O   UNL     1      -5.569   6.944  71.243  1.00  0.00    -0.027 OA 
BRANCH   4  16
HETATM   16  C   UNL     1     -10.872   9.650  69.930  1.00  0.00    -0.287 C  
BRANCH  16  17
HETATM   17  C   UNL     1     -10.861  10.397  68.635  1.00  0.00    -0.270 C  
HETATM   18  C   UNL     1     -11.256  11.669  68.443  1.00  0.00    -0.307 C  
HETATM   19  C   UNL     1     -11.586  12.623  69.564  1.00  0.00    -0.348 C  
BRANCH  18  20
HETATM   20  C   UNL     1     -11.468  12.241  67.044  1.00  0.00    -0.419 C  
BRANCH  20  21
HETATM   21  C   UNL     1     -12.033  13.663  66.964  1.00  0.00    -0.448 C  
HETATM   22  O   UNL     1     -11.283  15.266  65.319  1.00  0.00    -0.352 OA 
HETATM   23  O   UNL     1     -12.704  13.648  64.658  1.00  0.00    -0.635 OA 
HETATM   24  C   UNL     1     -11.948  14.274  65.585  1.00  0.00    -0.386 C  
ENDBRANCH  20  21
ENDBRANCH  18  20
ENDBRANCH  16  17
ENDBRANCH   4  16
ENDBRANCH   2   3
TORSDOF 5
ENDMDL
MODEL      150
REMARK 921   NORMALIZED FREE ENERGY PREDICTED BY IDOCK:   -4.52 KCAL/MOL
REMARK 922        TOTAL FREE ENERGY PREDICTED BY IDOCK:   -6.11 KCAL/MOL
REMARK 923 INTER-LIGAND FREE ENERGY PREDICTED BY IDOCK:   -6.27 KCAL/MOL
REMARK 924 INTRA-LIGAND FREE ENERGY PREDICTED BY IDOCK:    0.16 KCAL/MOL
REMARK 927      BINDING AFFINITY PREDICTED BY RF-SCORE:    0.00 PKD
ROOT
HETATM    1  C   UNL     1     -10.402   7.602  66.927  1.00  0.00    -0.318 C  
HETATM    2  O   UNL     1      -9.696   7.950  68.114  1.00  0.00    -0.152 OA 
ENDROOT
BRANCH   2   3
HETATM    3  C   UNL     1     -10.340   8.706  69.068  1.00  0.00    -0.213 A  
HETATM    4  C   UNL     1     -10.428  10.135  69.044  1.00  0.00    -0.239 A  
HETATM    5  C   UNL     1     -11.255  10.757  70.005  1.00  0.00    -0.291 A  
HETATM    6  C   UNL     1     -12.721   8.077  72.014  1.00  0.00    -0.302 C  
HETATM    7  O   UNL     1     -11.358  12.110  70.129  1.00  0.00    -0.503 OA 
HETATM    8  C   UNL     1     -10.915   6.441  70.062  1.00  0.00    -0.397 C  
HETATM    9  C   UNL     1     -11.977   9.979  70.901  1.00  0.00    -0.453 A  
HETATM   10  C   UNL     1     -12.945  10.393  71.921  1.00  0.00    -0.450 C  
HETATM   11  C   UNL     1     -11.059   7.936  70.019  1.00  0.00    -0.165 A  
HETATM   12  H   UNL     1     -11.915  12.528  70.775  1.00  0.00     0.000 HD 
HETATM   13  O   UNL     1     -13.361  11.507  72.164  1.00  0.00    -0.477 OA 
HETATM   14  C   UNL     1     -11.874   8.604  70.924  1.00  0.00    -0.257 A  
HETATM   15  O   UNL     1     -13.356   9.248  72.551  1.00  0.00    -0.457 OA 
BRANCH   4  16
HETATM   16  C   UNL     1      -9.556  10.907  68.082  1.00  0.00    -0.169 C  
BRANCH  16  17
HETATM   17  C   UNL     1      -9.543  12.403  68.084  1.00  0.00    -0.218 C  
HETATM   18  C   UNL     1      -8.487  13.192  68.355  1.00  0.00    -0.126 C  
HETATM   19  C   UNL     1      -7.075  12.682  68.503  1.00  0.00    -0.101 C  
BRANCH  18  20
HETATM   20  C   UNL     1      -8.647  14.689  68.604  1.00  0.00    -0.172 C  
BRANCH  20  21
HETATM   21  C   UNL     1      -7.359  15.484  68.846  1.00  0.00    -0.150 C  
HETATM   22  O   UNL     1      -5.828  16.046  67.064  1.00  0.00    -0.341 OA 
HETATM   23  O   UNL     1      -7.726  17.244  67.253  1.00  0.00    -0.179 OA 
HETATM   24  C   UNL     1      -6.887  16.258  67.637  1.00  0.00    -0.141 C  
ENDBRANCH  20  21
ENDBRANCH  18  20
ENDBRANCH  16  17
ENDBRANCH   4  16
ENDBRANCH   2   3
TORSDOF 5
ENDMDL
MODEL      151
REMARK 921   NORMALIZED FREE ENERGY PREDICTED BY IDOCK:   -4.50 KCAL/MOL
REMARK 922        TOTAL FREE ENERGY PREDICTED BY IDOCK:   -6.08 KCAL/MOL
REMARK 923 INTER-LIGAND FREE ENERGY PREDICTED BY IDOCK:   -5.69 KCAL/MOL
REMARK 924 INTRA-LIGAND FREE ENERGY PREDICTED BY IDOCK:   -0.39 KCAL/MOL
REMARK 927      BINDING AFFINITY PREDICTED BY RF-SCORE:    0.00 PKD
ROOT
HETATM    1  C   UNL     1     -11.021   6.311  67.085  1.00  0.00    -0.370 C  
HETATM    2  O   UNL     1      -9.650   6.259  67.465  1.00  0.00    -0.115 OA 
ENDROOT
BRANCH   2   3
HETATM    3  C   UNL     1      -9.288   6.747  68.701  1.00  0.00    -0.131 A  
HETATM    4  C   UNL     1      -9.171   8.137  69.020  1.00  0.00    -0.148 A  
HETATM    5  C   UNL     1      -8.945   8.483  70.371  1.00  0.00    -0.152 A  
HETATM    6  C   UNL     1      -8.836   5.349  72.249  1.00  0.00    -0.129 C  
HETATM    7  O   UNL     1      -8.742   9.766  70.782  1.00  0.00    -0.347 OA 
HETATM    8  C   UNL     1      -9.259   4.289  69.344  1.00  0.00    -0.203 C  
HETATM    9  C   UNL     1      -8.886   7.489  71.337  1.00  0.00    -0.138 A  
HETATM   10  C   UNL     1      -8.740   7.612  72.791  1.00  0.00    -0.140 C  
HETATM   11  C   UNL     1      -9.185   5.747  69.703  1.00  0.00    -0.159 A  
HETATM   12  H   UNL     1      -8.590   9.999  71.690  1.00  0.00     0.000 HD 
HETATM   13  O   UNL     1      -8.692   8.620  73.465  1.00  0.00    -0.305 OA 
HETATM   14  C   UNL     1      -8.986   6.150  71.017  1.00  0.00    -0.144 A  
HETATM   15  O   UNL     1      -8.715   6.335  73.287  1.00  0.00    -0.126 OA 
BRANCH   4  16
HETATM   16  C   UNL     1      -9.177   9.150  67.899  1.00  0.00    -0.144 C  
BRANCH  16  17
HETATM   17  C   UNL     1     -10.351  10.050  67.681  1.00  0.00    -0.272 C  
HETATM   18  C   UNL     1     -10.410  11.094  66.834  1.00  0.00    -0.272 C  
HETATM   19  C   UNL     1      -9.351  11.401  65.805  1.00  0.00    -0.247 C  
BRANCH  18  20
HETATM   20  C   UNL     1     -11.547  12.111  66.892  1.00  0.00    -0.408 C  
BRANCH  20  21
HETATM   21  C   UNL     1     -11.173  13.572  66.617  1.00  0.00    -0.328 C  
HETATM   22  O   UNL     1     -11.077  14.486  64.383  1.00  0.00    -0.300 OA 
HETATM   23  O   UNL     1     -13.101  14.192  65.326  1.00  0.00    -0.763 OA 
HETATM   24  C   UNL     1     -11.753  14.115  65.332  1.00  0.00    -0.347 C  
ENDBRANCH  20  21
ENDBRANCH  18  20
ENDBRANCH  16  17
ENDBRANCH   4  16
ENDBRANCH   2   3
TORSDOF 5
ENDMDL
MODEL      152
REMARK 921   NORMALIZED FREE ENERGY PREDICTED BY IDOCK:   -4.49 KCAL/MOL
REMARK 922        TOTAL FREE ENERGY PREDICTED BY IDOCK:   -6.07 KCAL/MOL
REMARK 923 INTER-LIGAND FREE ENERGY PREDICTED BY IDOCK:   -5.67 KCAL/MOL
REMARK 924 INTRA-LIGAND FREE ENERGY PREDICTED BY IDOCK:   -0.40 KCAL/MOL
REMARK 927      BINDING AFFINITY PREDICTED BY RF-SCORE:    0.00 PKD
ROOT
HETATM    1  C   UNL     1      -6.645  16.588  68.544  1.00  0.00    -0.139 C  
HETATM    2  O   UNL     1      -7.880  16.068  69.025  1.00  0.00    -0.196 OA 
ENDROOT
BRANCH   2   3
HETATM    3  C   UNL     1      -8.554  15.147  68.254  1.00  0.00    -0.164 A  
HETATM    4  C   UNL     1      -9.627  15.468  67.362  1.00  0.00    -0.213 A  
HETATM    5  C   UNL     1     -10.111  14.440  66.523  1.00  0.00    -0.276 A  
HETATM    6  C   UNL     1      -8.115  11.466  67.252  1.00  0.00    -0.148 C  
HETATM    7  O   UNL     1     -11.177  14.606  65.690  1.00  0.00    -0.328 OA 
HETATM    8  C   UNL     1      -6.897  13.512  69.271  1.00  0.00    -0.051 C  
HETATM    9  C   UNL     1      -9.518  13.186  66.555  1.00  0.00    -0.246 A  
HETATM   10  C   UNL     1      -9.795  12.004  65.733  1.00  0.00    -0.242 C  
HETATM   11  C   UNL     1      -7.989  13.845  68.294  1.00  0.00    -0.148 A  
HETATM   12  H   UNL     1     -11.502  13.915  65.125  1.00  0.00     0.000 HD 
HETATM   13  O   UNL     1     -10.574  11.890  64.808  1.00  0.00    -0.274 OA 
HETATM   14  C   UNL     1      -8.492  12.884  67.427  1.00  0.00    -0.196 A  
HETATM   15  O   UNL     1      -8.952  11.019  66.174  1.00  0.00    -0.179 OA 
BRANCH   4  16
HETATM   16  C   UNL     1     -10.261  16.837  67.441  1.00  0.00    -0.288 C  
BRANCH  16  17
HETATM   17  C   UNL     1      -9.522  18.055  66.987  1.00  0.00    -0.273 C  
HETATM   18  C   UNL     1      -9.418  19.220  67.653  1.00  0.00    -0.385 C  
HETATM   19  C   UNL     1      -9.871  19.416  69.078  1.00  0.00    -0.487 C  
BRANCH  18  20
HETATM   20  C   UNL     1      -8.884  20.482  66.981  1.00  0.00    -0.357 C  
BRANCH  20  21
HETATM   21  C   UNL     1      -7.381  20.749  67.122  1.00  0.00    -0.385 C  
HETATM   22  O   UNL     1      -5.709  19.214  66.293  1.00  0.00    -0.156 OA 
HETATM   23  O   UNL     1      -6.767  20.540  64.810  1.00  0.00    -0.305 OA 
HETATM   24  C   UNL     1      -6.542  20.078  66.059  1.00  0.00    -0.233 C  
ENDBRANCH  20  21
ENDBRANCH  18  20
ENDBRANCH  16  17
ENDBRANCH   4  16
ENDBRANCH   2   3
TORSDOF 5
ENDMDL
MODEL      153
REMARK 921   NORMALIZED FREE ENERGY PREDICTED BY IDOCK:   -4.49 KCAL/MOL
REMARK 922        TOTAL FREE ENERGY PREDICTED BY IDOCK:   -6.07 KCAL/MOL
REMARK 923 INTER-LIGAND FREE ENERGY PREDICTED BY IDOCK:   -5.19 KCAL/MOL
REMARK 924 INTRA-LIGAND FREE ENERGY PREDICTED BY IDOCK:   -0.87 KCAL/MOL
REMARK 927      BINDING AFFINITY PREDICTED BY RF-SCORE:    0.00 PKD
ROOT
HETATM    1  C   UNL     1     -10.962   8.883  72.003  1.00  0.00    -0.342 C  
HETATM    2  O   UNL     1     -11.586   9.262  70.780  1.00  0.00    -0.273 OA 
ENDROOT
BRANCH   2   3
HETATM    3  C   UNL     1     -11.116  10.373  70.115  1.00  0.00    -0.314 A  
HETATM    4  C   UNL     1     -10.039  10.356  69.172  1.00  0.00    -0.236 A  
HETATM    5  C   UNL     1      -9.777  11.545  68.456  1.00  0.00    -0.189 A  
HETATM    6  C   UNL     1     -12.234  14.007  69.581  1.00  0.00    -0.332 C  
HETATM    7  O   UNL     1      -8.734  11.672  67.589  1.00  0.00    -0.147 OA 
HETATM    8  C   UNL     1     -12.991  11.553  71.356  1.00  0.00    -0.450 C  
HETATM    9  C   UNL     1     -10.580  12.660  68.652  1.00  0.00    -0.245 A  
HETATM   10  C   UNL     1     -10.548  13.960  67.976  1.00  0.00    -0.248 C  
HETATM   11  C   UNL     1     -11.898  11.538  70.325  1.00  0.00    -0.431 A  
HETATM   12  H   UNL     1      -8.557  12.471  67.107  1.00  0.00     0.000 HD 
HETATM   13  O   UNL     1      -9.839  14.320  67.058  1.00  0.00    -0.243 OA 
HETATM   14  C   UNL     1     -11.607  12.669  69.574  1.00  0.00    -0.348 A  
HETATM   15  O   UNL     1     -11.532  14.720  68.550  1.00  0.00    -0.279 OA 
BRANCH   4  16
HETATM   16  C   UNL     1      -9.172   9.123  69.070  1.00  0.00    -0.143 C  
BRANCH  16  17
HETATM   17  C   UNL     1      -9.018   8.394  67.774  1.00  0.00    -0.140 C  
HETATM   18  C   UNL     1      -7.871   8.203  67.097  1.00  0.00    -0.101 C  
HETATM   19  C   UNL     1      -6.506   8.527  67.651  1.00  0.00    -0.057 C  
BRANCH  18  20
HETATM   20  C   UNL     1      -7.864   7.696  65.657  1.00  0.00    -0.109 C  
BRANCH  20  21
HETATM   21  C   UNL     1      -8.654   8.522  64.636  1.00  0.00    -0.082 C  
HETATM   22  O   UNL     1      -9.025  10.895  64.899  1.00  0.00    -0.193 OA 
HETATM   23  O   UNL     1      -7.000  10.207  64.192  1.00  0.00    -0.127 OA 
HETATM   24  C   UNL     1      -8.266   9.982  64.607  1.00  0.00    -0.163 C  
ENDBRANCH  20  21
ENDBRANCH  18  20
ENDBRANCH  16  17
ENDBRANCH   4  16
ENDBRANCH   2   3
TORSDOF 5
ENDMDL
MODEL      154
REMARK 921   NORMALIZED FREE ENERGY PREDICTED BY IDOCK:   -4.48 KCAL/MOL
REMARK 922        TOTAL FREE ENERGY PREDICTED BY IDOCK:   -6.06 KCAL/MOL
REMARK 923 INTER-LIGAND FREE ENERGY PREDICTED BY IDOCK:   -6.01 KCAL/MOL
REMARK 924 INTRA-LIGAND FREE ENERGY PREDICTED BY IDOCK:   -0.05 KCAL/MOL
REMARK 927      BINDING AFFINITY PREDICTED BY RF-SCORE:    0.00 PKD
ROOT
HETATM    1  C   UNL     1     -11.157   6.598  67.451  1.00  0.00    -0.320 C  
HETATM    2  O   UNL     1     -10.141   6.969  68.377  1.00  0.00    -0.153 OA 
ENDROOT
BRANCH   2   3
HETATM    3  C   UNL     1     -10.231   6.515  69.675  1.00  0.00    -0.187 A  
HETATM    4  C   UNL     1     -10.899   7.213  70.732  1.00  0.00    -0.267 A  
HETATM    5  C   UNL     1     -11.042   6.546  71.969  1.00  0.00    -0.258 A  
HETATM    6  C   UNL     1      -9.517   3.248  71.562  1.00  0.00    -0.147 C  
HETATM    7  O   UNL     1     -11.590   7.135  73.068  1.00  0.00    -0.541 OA 
HETATM    8  C   UNL     1      -8.991   4.501  68.751  1.00  0.00    -0.149 C  
HETATM    9  C   UNL     1     -10.579   5.245  72.109  1.00  0.00    -0.281 A  
HETATM   10  C   UNL     1     -10.685   4.338  73.256  1.00  0.00    -0.220 C  
HETATM   11  C   UNL     1      -9.733   5.199  69.855  1.00  0.00    -0.269 A  
HETATM   12  H   UNL     1     -11.687   6.686  73.900  1.00  0.00     0.000 HD 
HETATM   13  O   UNL     1     -11.250   4.519  74.315  1.00  0.00    -0.218 OA 
HETATM   14  C   UNL     1      -9.926   4.587  71.087  1.00  0.00    -0.257 A  
HETATM   15  O   UNL     1     -10.050   3.180  72.894  1.00  0.00    -0.133 OA 
BRANCH   4  16
HETATM   16  C   UNL     1     -11.309   8.651  70.517  1.00  0.00    -0.241 C  
BRANCH  16  17
HETATM   17  C   UNL     1     -10.427   9.600  69.770  1.00  0.00    -0.263 C  
HETATM   18  C   UNL     1     -10.794  10.782  69.241  1.00  0.00    -0.287 C  
HETATM   19  C   UNL     1     -12.127  11.439  69.497  1.00  0.00    -0.370 C  
BRANCH  18  20
HETATM   20  C   UNL     1      -9.895  11.536  68.265  1.00  0.00    -0.203 C  
BRANCH  20  21
HETATM   21  C   UNL     1     -10.315  11.513  66.790  1.00  0.00    -0.262 C  
HETATM   22  O   UNL     1     -12.147  12.840  65.943  1.00  0.00    -0.432 OA 
HETATM   23  O   UNL     1     -10.185  13.870  66.349  1.00  0.00    -0.278 OA 
HETATM   24  C   UNL     1     -10.988  12.785  66.330  1.00  0.00    -0.276 C  
ENDBRANCH  20  21
ENDBRANCH  18  20
ENDBRANCH  16  17
ENDBRANCH   4  16
ENDBRANCH   2   3
TORSDOF 5
ENDMDL
MODEL      155
REMARK 921   NORMALIZED FREE ENERGY PREDICTED BY IDOCK:   -4.48 KCAL/MOL
REMARK 922        TOTAL FREE ENERGY PREDICTED BY IDOCK:   -6.05 KCAL/MOL
REMARK 923 INTER-LIGAND FREE ENERGY PREDICTED BY IDOCK:   -5.74 KCAL/MOL
REMARK 924 INTRA-LIGAND FREE ENERGY PREDICTED BY IDOCK:   -0.31 KCAL/MOL
REMARK 927      BINDING AFFINITY PREDICTED BY RF-SCORE:    0.00 PKD
ROOT
HETATM    1  C   UNL     1      -7.132  11.248  69.265  1.00  0.00    -0.112 C  
HETATM    2  O   UNL     1      -8.533  11.367  69.040  1.00  0.00    -0.075 OA 
ENDROOT
BRANCH   2   3
HETATM    3  C   UNL     1      -8.977  11.614  67.760  1.00  0.00    -0.170 A  
HETATM    4  C   UNL     1      -9.293  10.598  66.802  1.00  0.00    -0.179 A  
HETATM    5  C   UNL     1      -9.887  11.006  65.587  1.00  0.00    -0.239 A  
HETATM    6  C   UNL     1     -10.253  14.638  65.767  1.00  0.00    -0.340 C  
HETATM    7  O   UNL     1     -10.162  10.140  64.571  1.00  0.00    -0.332 OA 
HETATM    8  C   UNL     1      -8.869  14.042  68.500  1.00  0.00    -0.160 C  
HETATM    9  C   UNL     1     -10.181  12.346  65.377  1.00  0.00    -0.302 A  
HETATM   10  C   UNL     1     -10.857  12.983  64.244  1.00  0.00    -0.405 C  
HETATM   11  C   UNL     1      -9.253  12.983  67.505  1.00  0.00    -0.195 A  
HETATM   12  H   UNL     1     -10.562  10.413  63.754  1.00  0.00     0.000 HD 
HETATM   13  O   UNL     1     -11.353  12.462  63.266  1.00  0.00    -0.437 OA 
HETATM   14  C   UNL     1      -9.860  13.318  66.302  1.00  0.00    -0.288 A  
HETATM   15  O   UNL     1     -10.879  14.326  64.511  1.00  0.00    -0.381 OA 
BRANCH   4  16
HETATM   16  C   UNL     1      -8.877   9.173  67.081  1.00  0.00    -0.130 C  
BRANCH  16  17
HETATM   17  C   UNL     1      -9.426   8.426  68.255  1.00  0.00    -0.147 C  
HETATM   18  C   UNL     1     -10.415   7.514  68.229  1.00  0.00    -0.223 C  
HETATM   19  C   UNL     1     -10.998   6.944  66.959  1.00  0.00    -0.404 C  
BRANCH  18  20
HETATM   20  C   UNL     1     -11.085   7.021  69.508  1.00  0.00    -0.221 C  
BRANCH  20  21
HETATM   21  C   UNL     1     -10.199   6.936  70.756  1.00  0.00    -0.212 C  
HETATM   22  O   UNL     1     -10.464   8.425  72.639  1.00  0.00    -0.326 OA 
HETATM   23  O   UNL     1     -11.932   6.733  72.406  1.00  0.00    -0.236 OA 
HETATM   24  C   UNL     1     -10.863   7.456  72.010  1.00  0.00    -0.227 C  
ENDBRANCH  20  21
ENDBRANCH  18  20
ENDBRANCH  16  17
ENDBRANCH   4  16
ENDBRANCH   2   3
TORSDOF 5
ENDMDL
MODEL      156
REMARK 921   NORMALIZED FREE ENERGY PREDICTED BY IDOCK:   -4.47 KCAL/MOL
REMARK 922        TOTAL FREE ENERGY PREDICTED BY IDOCK:   -6.04 KCAL/MOL
REMARK 923 INTER-LIGAND FREE ENERGY PREDICTED BY IDOCK:   -5.57 KCAL/MOL
REMARK 924 INTRA-LIGAND FREE ENERGY PREDICTED BY IDOCK:   -0.47 KCAL/MOL
REMARK 927      BINDING AFFINITY PREDICTED BY RF-SCORE:    0.00 PKD
ROOT
HETATM    1  C   UNL     1     -10.372  11.301  64.592  1.00  0.00    -0.315 C  
HETATM    2  O   UNL     1     -10.741  11.096  65.952  1.00  0.00    -0.254 OA 
ENDROOT
BRANCH   2   3
HETATM    3  C   UNL     1      -9.745  10.949  66.891  1.00  0.00    -0.181 A  
HETATM    4  C   UNL     1      -9.006  12.033  67.465  1.00  0.00    -0.174 A  
HETATM    5  C   UNL     1      -8.127  11.736  68.530  1.00  0.00    -0.140 A  
HETATM    6  C   UNL     1      -8.397   8.141  69.138  1.00  0.00    -0.131 C  
HETATM    7  O   UNL     1      -7.317  12.670  69.103  1.00  0.00    -0.297 OA 
HETATM    8  C   UNL     1     -10.351   8.487  66.728  1.00  0.00    -0.346 C  
HETATM    9  C   UNL     1      -8.037  10.436  69.009  1.00  0.00    -0.138 A  
HETATM   10  C   UNL     1      -7.264   9.913  70.138  1.00  0.00    -0.155 C  
HETATM   11  C   UNL     1      -9.606   9.622  67.375  1.00  0.00    -0.183 A  
HETATM   12  H   UNL     1      -6.726  12.471  69.819  1.00  0.00     0.000 HD 
HETATM   13  O   UNL     1      -6.574  10.521  70.931  1.00  0.00    -0.347 OA 
HETATM   14  C   UNL     1      -8.744   9.397  68.440  1.00  0.00    -0.124 A  
HETATM   15  O   UNL     1      -7.502   8.565  70.179  1.00  0.00    -0.056 OA 
BRANCH   4  16
HETATM   16  C   UNL     1      -9.111  13.403  66.838  1.00  0.00    -0.237 C  
BRANCH  16  17
HETATM   17  C   UNL     1      -9.663  14.561  67.606  1.00  0.00    -0.215 C  
HETATM   18  C   UNL     1     -10.945  14.971  67.620  1.00  0.00    -0.305 C  
HETATM   19  C   UNL     1     -12.083  14.190  67.012  1.00  0.00    -0.449 C  
BRANCH  18  20
HETATM   20  C   UNL     1     -11.349  16.321  68.209  1.00  0.00    -0.280 C  
BRANCH  20  21
HETATM   21  C   UNL     1     -10.217  17.189  68.770  1.00  0.00    -0.332 C  
HETATM   22  O   UNL     1      -8.839  18.590  67.365  1.00  0.00    -0.265 OA 
HETATM   23  O   UNL     1     -10.915  19.303  67.870  1.00  0.00    -0.320 OA 
HETATM   24  C   UNL     1      -9.909  18.404  67.927  1.00  0.00    -0.329 C  
ENDBRANCH  20  21
ENDBRANCH  18  20
ENDBRANCH  16  17
ENDBRANCH   4  16
ENDBRANCH   2   3
TORSDOF 5
ENDMDL
MODEL      157
REMARK 921   NORMALIZED FREE ENERGY PREDICTED BY IDOCK:   -4.47 KCAL/MOL
REMARK 922        TOTAL FREE ENERGY PREDICTED BY IDOCK:   -6.04 KCAL/MOL
REMARK 923 INTER-LIGAND FREE ENERGY PREDICTED BY IDOCK:   -5.69 KCAL/MOL
REMARK 924 INTRA-LIGAND FREE ENERGY PREDICTED BY IDOCK:   -0.35 KCAL/MOL
REMARK 927      BINDING AFFINITY PREDICTED BY RF-SCORE:    0.00 PKD
ROOT
HETATM    1  C   UNL     1     -13.763   9.243  72.081  1.00  0.00    -0.453 C  
HETATM    2  O   UNL     1     -12.514   9.926  72.077  1.00  0.00    -0.360 OA 
ENDROOT
BRANCH   2   3
HETATM    3  C   UNL     1     -11.989  10.338  70.873  1.00  0.00    -0.375 A  
HETATM    4  C   UNL     1     -11.396   9.464  69.907  1.00  0.00    -0.121 A  
HETATM    5  C   UNL     1     -11.047  10.013  68.653  1.00  0.00    -0.174 A  
HETATM    6  C   UNL     1     -12.000  13.541  68.755  1.00  0.00    -0.339 C  
HETATM    7  O   UNL     1     -10.408   9.299  67.684  1.00  0.00    -0.222 OA 
HETATM    8  C   UNL     1     -12.801  12.622  71.629  1.00  0.00    -0.367 C  
HETATM    9  C   UNL     1     -11.321  11.347  68.384  1.00  0.00    -0.346 A  
HETATM   10  C   UNL     1     -11.122  12.105  67.145  1.00  0.00    -0.291 C  
HETATM   11  C   UNL     1     -12.225  11.707  70.585  1.00  0.00    -0.461 A  
HETATM   12  H   UNL     1     -10.173   9.668  66.841  1.00  0.00     0.000 HD 
HETATM   13  O   UNL     1     -10.721  11.710  66.070  1.00  0.00    -0.264 OA 
HETATM   14  C   UNL     1     -11.881  12.184  69.327  1.00  0.00    -0.370 A  
HETATM   15  O   UNL     1     -11.533  13.386  67.405  1.00  0.00    -0.300 OA 
BRANCH   4  16
HETATM   16  C   UNL     1     -11.068   8.044  70.306  1.00  0.00    -0.224 C  
BRANCH  16  17
HETATM   17  C   UNL     1      -9.678   7.654  70.694  1.00  0.00    -0.174 C  
HETATM   18  C   UNL     1      -9.192   6.402  70.772  1.00  0.00    -0.161 C  
HETATM   19  C   UNL     1      -9.930   5.183  70.276  1.00  0.00    -0.320 C  
BRANCH  18  20
HETATM   20  C   UNL     1      -7.855   6.100  71.443  1.00  0.00    -0.108 C  
BRANCH  20  21
HETATM   21  C   UNL     1      -7.911   5.318  72.760  1.00  0.00    -0.099 C  
HETATM   22  O   UNL     1      -8.422   2.958  72.844  1.00  0.00    -0.074 OA 
HETATM   23  O   UNL     1      -6.353   3.577  72.202  1.00  0.00    -0.013 OA 
HETATM   24  C   UNL     1      -7.615   3.844  72.603  1.00  0.00    -0.072 C  
ENDBRANCH  20  21
ENDBRANCH  18  20
ENDBRANCH  16  17
ENDBRANCH   4  16
ENDBRANCH   2   3
TORSDOF 5
ENDMDL
MODEL      158
REMARK 921   NORMALIZED FREE ENERGY PREDICTED BY IDOCK:   -4.46 KCAL/MOL
REMARK 922        TOTAL FREE ENERGY PREDICTED BY IDOCK:   -6.02 KCAL/MOL
REMARK 923 INTER-LIGAND FREE ENERGY PREDICTED BY IDOCK:   -5.46 KCAL/MOL
REMARK 924 INTRA-LIGAND FREE ENERGY PREDICTED BY IDOCK:   -0.56 KCAL/MOL
REMARK 927      BINDING AFFINITY PREDICTED BY RF-SCORE:    0.00 PKD
ROOT
HETATM    1  C   UNL     1     -10.395  11.396  64.435  1.00  0.00    -0.320 C  
HETATM    2  O   UNL     1     -10.727  11.153  65.798  1.00  0.00    -0.250 OA 
ENDROOT
BRANCH   2   3
HETATM    3  C   UNL     1      -9.711  11.098  66.726  1.00  0.00    -0.193 A  
HETATM    4  C   UNL     1      -9.189  12.234  67.424  1.00  0.00    -0.182 A  
HETATM    5  C   UNL     1      -8.257  11.996  68.459  1.00  0.00    -0.113 A  
HETATM    6  C   UNL     1      -7.820   8.373  68.660  1.00  0.00    -0.116 C  
HETATM    7  O   UNL     1      -7.637  13.000  69.141  1.00  0.00    -0.321 OA 
HETATM    8  C   UNL     1      -9.832   8.600  66.284  1.00  0.00    -0.320 C  
HETATM    9  C   UNL     1      -7.913  10.694  68.791  1.00  0.00    -0.135 A  
HETATM   10  C   UNL     1      -7.040  10.207  69.863  1.00  0.00    -0.144 C  
HETATM   11  C   UNL     1      -9.313   9.778  67.061  1.00  0.00    -0.178 A  
HETATM   12  H   UNL     1      -7.011  12.840  69.837  1.00  0.00     0.000 HD 
HETATM   13  O   UNL     1      -6.471  10.845  70.726  1.00  0.00    -0.339 OA 
HETATM   14  C   UNL     1      -8.411   9.607  68.103  1.00  0.00    -0.118 A  
HETATM   15  O   UNL     1      -7.012   8.843  69.752  1.00  0.00    -0.048 OA 
BRANCH   4  16
HETATM   16  C   UNL     1      -9.564  13.620  66.953  1.00  0.00    -0.262 C  
BRANCH  16  17
HETATM   17  C   UNL     1     -10.397  14.524  67.804  1.00  0.00    -0.237 C  
HETATM   18  C   UNL     1      -9.973  15.623  68.455  1.00  0.00    -0.210 C  
HETATM   19  C   UNL     1      -8.610  16.239  68.261  1.00  0.00    -0.196 C  
BRANCH  18  20
HETATM   20  C   UNL     1     -10.832  16.309  69.514  1.00  0.00    -0.342 C  
BRANCH  20  21
HETATM   21  C   UNL     1     -12.193  15.670  69.810  1.00  0.00    -0.293 C  
HETATM   22  O   UNL     1     -12.495  14.000  71.529  1.00  0.00    -0.341 OA 
HETATM   23  O   UNL     1     -12.306  16.155  72.159  1.00  0.00    -0.466 OA 
HETATM   24  C   UNL     1     -12.335  15.175  71.230  1.00  0.00    -0.336 C  
ENDBRANCH  20  21
ENDBRANCH  18  20
ENDBRANCH  16  17
ENDBRANCH   4  16
ENDBRANCH   2   3
TORSDOF 5
ENDMDL
MODEL      159
REMARK 921   NORMALIZED FREE ENERGY PREDICTED BY IDOCK:   -4.45 KCAL/MOL
REMARK 922        TOTAL FREE ENERGY PREDICTED BY IDOCK:   -6.01 KCAL/MOL
REMARK 923 INTER-LIGAND FREE ENERGY PREDICTED BY IDOCK:   -5.13 KCAL/MOL
REMARK 924 INTRA-LIGAND FREE ENERGY PREDICTED BY IDOCK:   -0.89 KCAL/MOL
REMARK 927      BINDING AFFINITY PREDICTED BY RF-SCORE:    0.00 PKD
ROOT
HETATM    1  C   UNL     1     -13.198  10.239  71.872  1.00  0.00    -0.445 C  
HETATM    2  O   UNL     1     -11.844  10.271  71.433  1.00  0.00    -0.355 OA 
ENDROOT
BRANCH   2   3
HETATM    3  C   UNL     1     -11.589  10.327  70.080  1.00  0.00    -0.299 A  
HETATM    4  C   UNL     1     -11.650  11.521  69.293  1.00  0.00    -0.388 A  
HETATM    5  C   UNL     1     -11.208  11.446  67.954  1.00  0.00    -0.288 A  
HETATM    6  C   UNL     1     -10.116   8.001  67.404  1.00  0.00    -0.228 C  
HETATM    7  O   UNL     1     -11.289  12.496  67.088  1.00  0.00    -0.285 OA 
HETATM    8  C   UNL     1     -11.093   7.852  70.365  1.00  0.00    -0.249 C  
HETATM    9  C   UNL     1     -10.700  10.252  67.460  1.00  0.00    -0.348 A  
HETATM   10  C   UNL     1     -10.121   9.961  66.146  1.00  0.00    -0.245 C  
HETATM   11  C   UNL     1     -11.101   9.109  69.540  1.00  0.00    -0.068 A  
HETATM   12  H   UNL     1     -10.992  12.445  66.187  1.00  0.00     0.000 HD 
HETATM   13  O   UNL     1      -9.913  10.722  65.223  1.00  0.00    -0.246 OA 
HETATM   14  C   UNL     1     -10.660   9.104  68.223  1.00  0.00    -0.223 A  
HETATM   15  O   UNL     1      -9.791   8.631  66.154  1.00  0.00    -0.262 OA 
BRANCH   4  16
HETATM   16  C   UNL     1     -12.281  12.759  69.887  1.00  0.00    -0.245 C  
BRANCH  16  17
HETATM   17  C   UNL     1     -11.457  13.965  70.208  1.00  0.00    -0.122 C  
HETATM   18  C   UNL     1     -11.486  15.147  69.565  1.00  0.00    -0.314 C  
HETATM   19  C   UNL     1     -12.519  15.512  68.527  1.00  0.00     0.521 C  
BRANCH  18  20
HETATM   20  C   UNL     1     -10.415  16.210  69.791  1.00  0.00    -0.286 C  
BRANCH  20  21
HETATM   21  C   UNL     1      -8.993  15.855  69.340  1.00  0.00    -0.209 C  
HETATM   22  O   UNL     1      -8.541  14.108  67.734  1.00  0.00    -0.162 OA 
HETATM   23  O   UNL     1      -9.307  16.084  66.970  1.00  0.00    -0.210 OA 
HETATM   24  C   UNL     1      -8.928  15.246  67.959  1.00  0.00    -0.171 C  
ENDBRANCH  20  21
ENDBRANCH  18  20
ENDBRANCH  16  17
ENDBRANCH   4  16
ENDBRANCH   2   3
TORSDOF 5
ENDMDL
MODEL      160
REMARK 921   NORMALIZED FREE ENERGY PREDICTED BY IDOCK:   -4.45 KCAL/MOL
REMARK 922        TOTAL FREE ENERGY PREDICTED BY IDOCK:   -6.01 KCAL/MOL
REMARK 923 INTER-LIGAND FREE ENERGY PREDICTED BY IDOCK:   -5.67 KCAL/MOL
REMARK 924 INTRA-LIGAND FREE ENERGY PREDICTED BY IDOCK:   -0.34 KCAL/MOL
REMARK 927      BINDING AFFINITY PREDICTED BY RF-SCORE:    0.00 PKD
ROOT
HETATM    1  C   UNL     1     -11.562  12.636  69.446  1.00  0.00    -0.306 C  
HETATM    2  O   UNL     1     -12.168  11.810  68.457  1.00  0.00    -0.430 OA 
ENDROOT
BRANCH   2   3
HETATM    3  C   UNL     1     -11.432  11.461  67.346  1.00  0.00    -0.251 A  
HETATM    4  C   UNL     1     -10.777  10.200  67.173  1.00  0.00    -0.286 A  
HETATM    5  C   UNL     1     -10.194   9.933  65.914  1.00  0.00    -0.194 A  
HETATM    6  C   UNL     1     -10.842  12.857  63.818  1.00  0.00    -0.314 C  
HETATM    7  O   UNL     1      -9.480   8.801  65.655  1.00  0.00    -0.387 OA 
HETATM    8  C   UNL     1     -12.148  13.750  66.509  1.00  0.00    -0.483 C  
HETATM    9  C   UNL     1     -10.308  10.862  64.889  1.00  0.00    -0.371 A  
HETATM   10  C   UNL     1      -9.857  10.771  63.497  1.00  0.00    -0.347 C  
HETATM   11  C   UNL     1     -11.501  12.410  66.293  1.00  0.00    -0.423 A  
HETATM   12  H   UNL     1      -9.088   8.621  64.809  1.00  0.00     0.000 HD 
HETATM   13  O   UNL     1      -9.333   9.834  62.930  1.00  0.00    -0.273 OA 
HETATM   14  C   UNL     1     -10.930  12.080  65.072  1.00  0.00    -0.355 A  
HETATM   15  O   UNL     1     -10.190  11.960  62.904  1.00  0.00    -0.269 OA 
BRANCH   4  16
HETATM   16  C   UNL     1     -10.638   9.276  68.360  1.00  0.00    -0.234 C  
BRANCH  16  17
HETATM   17  C   UNL     1      -9.304   8.733  68.762  1.00  0.00    -0.141 C  
HETATM   18  C   UNL     1      -8.996   7.438  68.958  1.00  0.00    -0.131 C  
HETATM   19  C   UNL     1      -9.911   6.294  68.599  1.00  0.00    -0.152 C  
BRANCH  18  20
HETATM   20  C   UNL     1      -7.693   7.018  69.634  1.00  0.00    -0.110 C  
BRANCH  20  21
HETATM   21  C   UNL     1      -6.702   6.224  68.775  1.00  0.00    -0.061 C  
HETATM   22  O   UNL     1      -6.835   6.163  66.364  1.00  0.00    -0.058 OA 
HETATM   23  O   UNL     1      -5.978   8.006  67.336  1.00  0.00    -0.047 OA 
HETATM   24  C   UNL     1      -6.532   6.775  67.378  1.00  0.00    -0.049 C  
ENDBRANCH  20  21
ENDBRANCH  18  20
ENDBRANCH  16  17
ENDBRANCH   4  16
ENDBRANCH   2   3
TORSDOF 5
ENDMDL
MODEL      161
REMARK 921   NORMALIZED FREE ENERGY PREDICTED BY IDOCK:   -4.44 KCAL/MOL
REMARK 922        TOTAL FREE ENERGY PREDICTED BY IDOCK:   -6.00 KCAL/MOL
REMARK 923 INTER-LIGAND FREE ENERGY PREDICTED BY IDOCK:   -5.51 KCAL/MOL
REMARK 924 INTRA-LIGAND FREE ENERGY PREDICTED BY IDOCK:   -0.49 KCAL/MOL
REMARK 927      BINDING AFFINITY PREDICTED BY RF-SCORE:    0.00 PKD
ROOT
HETATM    1  C   UNL     1     -11.628   9.009  71.891  1.00  0.00    -0.370 C  
HETATM    2  O   UNL     1     -12.466   9.659  70.941  1.00  0.00    -0.293 OA 
ENDROOT
BRANCH   2   3
HETATM    3  C   UNL     1     -11.950  10.710  70.215  1.00  0.00    -0.339 A  
HETATM    4  C   UNL     1     -11.231  10.569  68.985  1.00  0.00    -0.316 A  
HETATM    5  C   UNL     1     -10.903  11.748  68.280  1.00  0.00    -0.220 A  
HETATM    6  C   UNL     1     -12.246  14.539  70.222  1.00  0.00    -0.330 C  
HETATM    7  O   UNL     1     -10.157  11.744  67.139  1.00  0.00    -0.201 OA 
HETATM    8  C   UNL     1     -13.036  12.119  72.028  1.00  0.00    -0.462 C  
HETATM    9  C   UNL     1     -11.315  12.981  68.766  1.00  0.00    -0.332 A  
HETATM   10  C   UNL     1     -11.161  14.313  68.174  1.00  0.00    -0.258 C  
HETATM   11  C   UNL     1     -12.327  11.986  70.710  1.00  0.00    -0.403 A  
HETATM   12  H   UNL     1      -9.937  12.537  66.664  1.00  0.00     0.000 HD 
HETATM   13  O   UNL     1     -10.682  14.614  67.099  1.00  0.00    -0.282 OA 
HETATM   14  C   UNL     1     -11.996  13.106  69.959  1.00  0.00    -0.391 A  
HETATM   15  O   UNL     1     -11.719  15.197  69.058  1.00  0.00    -0.308 OA 
BRANCH   4  16
HETATM   16  C   UNL     1     -10.761   9.197  68.564  1.00  0.00    -0.160 C  
BRANCH  16  17
HETATM   17  C   UNL     1      -9.406   8.695  68.950  1.00  0.00    -0.145 C  
HETATM   18  C   UNL     1      -8.548   8.025  68.158  1.00  0.00    -0.126 C  
HETATM   19  C   UNL     1      -8.739   7.850  66.672  1.00  0.00    -0.154 C  
BRANCH  18  20
HETATM   20  C   UNL     1      -7.320   7.318  68.725  1.00  0.00    -0.096 C  
BRANCH  20  21
HETATM   21  C   UNL     1      -7.516   6.555  70.040  1.00  0.00    -0.094 C  
HETATM   22  O   UNL     1      -9.110   4.755  70.269  1.00  0.00    -0.105 OA 
HETATM   23  O   UNL     1      -7.168   4.328  69.211  1.00  0.00    -0.050 OA 
HETATM   24  C   UNL     1      -8.029   5.146  69.854  1.00  0.00    -0.078 C  
ENDBRANCH  20  21
ENDBRANCH  18  20
ENDBRANCH  16  17
ENDBRANCH   4  16
ENDBRANCH   2   3
TORSDOF 5
ENDMDL
MODEL      162
REMARK 921   NORMALIZED FREE ENERGY PREDICTED BY IDOCK:   -4.44 KCAL/MOL
REMARK 922        TOTAL FREE ENERGY PREDICTED BY IDOCK:   -6.00 KCAL/MOL
REMARK 923 INTER-LIGAND FREE ENERGY PREDICTED BY IDOCK:   -5.87 KCAL/MOL
REMARK 924 INTRA-LIGAND FREE ENERGY PREDICTED BY IDOCK:   -0.12 KCAL/MOL
REMARK 927      BINDING AFFINITY PREDICTED BY RF-SCORE:    0.00 PKD
ROOT
HETATM    1  C   UNL     1     -12.153  15.401  64.542  1.00  0.00    -0.182 C  
HETATM    2  O   UNL     1     -10.910  16.093  64.593  1.00  0.00    -0.650 OA 
ENDROOT
BRANCH   2   3
HETATM    3  C   UNL     1     -10.158  16.018  65.744  1.00  0.00    -0.366 A  
HETATM    4  C   UNL     1      -9.545  14.821  66.235  1.00  0.00    -0.339 A  
HETATM    5  C   UNL     1      -8.675  14.937  67.342  1.00  0.00    -0.194 A  
HETATM    6  C   UNL     1      -8.573  18.482  68.227  1.00  0.00    -0.318 C  
HETATM    7  O   UNL     1      -8.095  13.860  67.942  1.00  0.00    -0.131 OA 
HETATM    8  C   UNL     1     -10.593  18.518  65.847  1.00  0.00    -0.336 C  
HETATM    9  C   UNL     1      -8.412  16.186  67.885  1.00  0.00    -0.166 A  
HETATM   10  C   UNL     1      -7.498  16.555  68.970  1.00  0.00    -0.229 C  
HETATM   11  C   UNL     1      -9.902  17.279  66.342  1.00  0.00    -0.310 A  
HETATM   12  H   UNL     1      -7.510  13.937  68.686  1.00  0.00     0.000 HD 
HETATM   13  O   UNL     1      -6.733  15.845  69.591  1.00  0.00    -0.189 OA 
HETATM   14  C   UNL     1      -9.019  17.332  67.413  1.00  0.00    -0.224 A  
HETATM   15  O   UNL     1      -7.622  17.909  69.138  1.00  0.00    -0.183 OA 
BRANCH   4  16
HETATM   16  C   UNL     1      -9.940  13.494  65.630  1.00  0.00    -0.252 C  
BRANCH  16  17
HETATM   17  C   UNL     1     -10.474  12.388  66.482  1.00  0.00    -0.254 C  
HETATM   18  C   UNL     1      -9.948  11.156  66.612  1.00  0.00    -0.244 C  
HETATM   19  C   UNL     1      -8.600  10.756  66.066  1.00  0.00    -0.181 C  
BRANCH  18  20
HETATM   20  C   UNL     1     -10.720  10.021  67.281  1.00  0.00    -0.309 C  
BRANCH  20  21
HETATM   21  C   UNL     1     -10.408   8.601  66.795  1.00  0.00    -0.336 C  
HETATM   22  O   UNL     1      -8.603   7.284  67.715  1.00  0.00    -0.120 OA 
HETATM   23  O   UNL     1     -10.500   7.475  68.914  1.00  0.00    -0.209 OA 
HETATM   24  C   UNL     1      -9.732   7.738  67.835  1.00  0.00    -0.153 C  
ENDBRANCH  20  21
ENDBRANCH  18  20
ENDBRANCH  16  17
ENDBRANCH   4  16
ENDBRANCH   2   3
TORSDOF 5
ENDMDL
MODEL      163
REMARK 921   NORMALIZED FREE ENERGY PREDICTED BY IDOCK:   -4.43 KCAL/MOL
REMARK 922        TOTAL FREE ENERGY PREDICTED BY IDOCK:   -5.99 KCAL/MOL
REMARK 923 INTER-LIGAND FREE ENERGY PREDICTED BY IDOCK:   -5.26 KCAL/MOL
REMARK 924 INTRA-LIGAND FREE ENERGY PREDICTED BY IDOCK:   -0.73 KCAL/MOL
REMARK 927      BINDING AFFINITY PREDICTED BY RF-SCORE:    0.00 PKD
ROOT
HETATM    1  C   UNL     1      -8.329  12.961  68.083  1.00  0.00    -0.168 C  
HETATM    2  O   UNL     1      -9.387  12.084  67.709  1.00  0.00    -0.178 OA 
ENDROOT
BRANCH   2   3
HETATM    3  C   UNL     1      -9.859  11.184  68.638  1.00  0.00    -0.202 A  
HETATM    4  C   UNL     1      -9.100  10.090  69.164  1.00  0.00    -0.188 A  
HETATM    5  C   UNL     1      -9.667   9.350  70.225  1.00  0.00    -0.246 A  
HETATM    6  C   UNL     1     -12.904  10.882  70.958  1.00  0.00    -0.376 C  
HETATM    7  O   UNL     1      -9.073   8.243  70.755  1.00  0.00    -0.141 OA 
HETATM    8  C   UNL     1     -11.938  12.641  68.567  1.00  0.00    -0.258 C  
HETATM    9  C   UNL     1     -10.898   9.723  70.747  1.00  0.00    -0.403 A  
HETATM   10  C   UNL     1     -11.636   9.161  71.882  1.00  0.00    -0.360 C  
HETATM   11  C   UNL     1     -11.133  11.521  69.164  1.00  0.00    -0.316 A  
HETATM   12  H   UNL     1      -9.454   7.746  71.470  1.00  0.00     0.000 HD 
HETATM   13  O   UNL     1     -11.298   8.278  72.644  1.00  0.00    -0.390 OA 
HETATM   14  C   UNL     1     -11.627  10.771  70.224  1.00  0.00    -0.427 A  
HETATM   15  O   UNL     1     -12.805   9.868  71.972  1.00  0.00    -0.402 OA 
BRANCH   4  16
HETATM   16  C   UNL     1      -7.801   9.709  68.493  1.00  0.00    -0.085 C  
BRANCH  16  17
HETATM   17  C   UNL     1      -7.653   8.399  67.788  1.00  0.00    -0.102 C  
HETATM   18  C   UNL     1      -8.485   7.894  66.858  1.00  0.00    -0.128 C  
HETATM   19  C   UNL     1      -9.608   8.677  66.223  1.00  0.00    -0.322 C  
BRANCH  18  20
HETATM   20  C   UNL     1      -8.398   6.438  66.410  1.00  0.00    -0.119 C  
BRANCH  20  21
HETATM   21  C   UNL     1      -8.110   5.402  67.502  1.00  0.00    -0.101 C  
HETATM   22  O   UNL     1      -8.898   5.658  69.772  1.00  0.00    -0.121 OA 
HETATM   23  O   UNL     1     -10.370   4.990  68.203  1.00  0.00    -0.116 OA 
HETATM   24  C   UNL     1      -9.141   5.380  68.606  1.00  0.00    -0.115 C  
ENDBRANCH  20  21
ENDBRANCH  18  20
ENDBRANCH  16  17
ENDBRANCH   4  16
ENDBRANCH   2   3
TORSDOF 5
ENDMDL
MODEL      164
REMARK 921   NORMALIZED FREE ENERGY PREDICTED BY IDOCK:   -4.43 KCAL/MOL
REMARK 922        TOTAL FREE ENERGY PREDICTED BY IDOCK:   -5.99 KCAL/MOL
REMARK 923 INTER-LIGAND FREE ENERGY PREDICTED BY IDOCK:   -5.71 KCAL/MOL
REMARK 924 INTRA-LIGAND FREE ENERGY PREDICTED BY IDOCK:   -0.28 KCAL/MOL
REMARK 927      BINDING AFFINITY PREDICTED BY RF-SCORE:    0.00 PKD
ROOT
HETATM    1  C   UNL     1     -11.761  12.222  64.526  1.00  0.00    -0.353 C  
HETATM    2  O   UNL     1     -12.095  12.304  65.907  1.00  0.00    -0.609 OA 
ENDROOT
BRANCH   2   3
HETATM    3  C   UNL     1     -11.125  12.707  66.799  1.00  0.00    -0.277 A  
HETATM    4  C   UNL     1     -10.210  11.822  67.453  1.00  0.00    -0.220 A  
HETATM    5  C   UNL     1      -9.172  12.401  68.217  1.00  0.00    -0.189 A  
HETATM    6  C   UNL     1      -9.568  16.025  67.943  1.00  0.00    -0.219 C  
HETATM    7  O   UNL     1      -8.288  11.662  68.945  1.00  0.00    -0.330 OA 
HETATM    8  C   UNL     1     -11.997  15.029  66.255  1.00  0.00     0.055 C  
HETATM    9  C   UNL     1      -9.046  13.782  68.276  1.00  0.00    -0.195 A  
HETATM   10  C   UNL     1      -8.018  14.595  68.932  1.00  0.00    -0.149 C  
HETATM   11  C   UNL     1     -10.997  14.116  66.906  1.00  0.00    -0.302 A  
HETATM   12  H   UNL     1      -7.590  12.051  69.458  1.00  0.00     0.000 HD 
HETATM   13  O   UNL     1      -7.023  14.227  69.522  1.00  0.00    -0.131 OA 
HETATM   14  C   UNL     1      -9.942  14.625  67.652  1.00  0.00    -0.227 A  
HETATM   15  O   UNL     1      -8.361  15.903  68.713  1.00  0.00    -0.178 OA 
BRANCH   4  16
HETATM   16  C   UNL     1     -10.460  10.333  67.394  1.00  0.00    -0.303 C  
BRANCH  16  17
HETATM   17  C   UNL     1     -10.622   9.529  68.645  1.00  0.00    -0.239 C  
HETATM   18  C   UNL     1     -10.045   8.343  68.912  1.00  0.00    -0.209 C  
HETATM   19  C   UNL     1      -8.966   7.724  68.059  1.00  0.00    -0.126 C  
BRANCH  18  20
HETATM   20  C   UNL     1     -10.493   7.480  70.088  1.00  0.00    -0.226 C  
BRANCH  20  21
HETATM   21  C   UNL     1     -11.469   8.126  71.079  1.00  0.00    -0.301 C  
HETATM   22  O   UNL     1     -13.810   7.537  71.164  1.00  0.00    -0.294 OA 
HETATM   23  O   UNL     1     -12.322   6.123  72.092  1.00  0.00    -0.299 OA 
HETATM   24  C   UNL     1     -12.650   7.251  71.426  1.00  0.00    -0.388 C  
ENDBRANCH  20  21
ENDBRANCH  18  20
ENDBRANCH  16  17
ENDBRANCH   4  16
ENDBRANCH   2   3
TORSDOF 5
ENDMDL
MODEL      165
REMARK 921   NORMALIZED FREE ENERGY PREDICTED BY IDOCK:   -4.38 KCAL/MOL
REMARK 922        TOTAL FREE ENERGY PREDICTED BY IDOCK:   -5.92 KCAL/MOL
REMARK 923 INTER-LIGAND FREE ENERGY PREDICTED BY IDOCK:   -5.85 KCAL/MOL
REMARK 924 INTRA-LIGAND FREE ENERGY PREDICTED BY IDOCK:   -0.08 KCAL/MOL
REMARK 927      BINDING AFFINITY PREDICTED BY RF-SCORE:    0.00 PKD
ROOT
HETATM    1  C   UNL     1     -14.117   8.507  72.102  1.00  0.00    -0.421 C  
HETATM    2  O   UNL     1     -12.839   9.077  72.368  1.00  0.00    -0.401 OA 
ENDROOT
BRANCH   2   3
HETATM    3  C   UNL     1     -12.045   9.444  71.304  1.00  0.00    -0.345 A  
HETATM    4  C   UNL     1     -11.171   8.554  70.601  1.00  0.00    -0.278 A  
HETATM    5  C   UNL     1     -10.541   9.040  69.435  1.00  0.00    -0.221 A  
HETATM    6  C   UNL     1     -11.691  12.481  68.982  1.00  0.00    -0.318 C  
HETATM    7  O   UNL     1      -9.633   8.312  68.726  1.00  0.00    -0.148 OA 
HETATM    8  C   UNL     1     -13.156  11.705  71.626  1.00  0.00    -0.456 C  
HETATM    9  C   UNL     1     -10.813  10.326  68.988  1.00  0.00    -0.265 A  
HETATM   10  C   UNL     1     -10.344  11.010  67.779  1.00  0.00    -0.188 C  
HETATM   11  C   UNL     1     -12.277  10.767  70.848  1.00  0.00    -0.487 A  
HETATM   12  H   UNL     1      -9.209   8.639  67.941  1.00  0.00     0.000 HD 
HETATM   13  O   UNL     1      -9.655  10.572  66.880  1.00  0.00    -0.169 OA 
HETATM   14  C   UNL     1     -11.646  11.180  69.681  1.00  0.00    -0.398 A  
HETATM   15  O   UNL     1     -10.881  12.269  67.814  1.00  0.00    -0.208 OA 
BRANCH   4  16
HETATM   16  C   UNL     1     -10.877   7.195  71.194  1.00  0.00    -0.261 C  
BRANCH  16  17
HETATM   17  C   UNL     1     -10.492   6.042  70.323  1.00  0.00    -0.305 C  
HETATM   18  C   UNL     1      -9.306   5.405  70.319  1.00  0.00    -0.198 C  
HETATM   19  C   UNL     1      -8.231   5.629  71.353  1.00  0.00    -0.122 C  
BRANCH  18  20
HETATM   20  C   UNL     1      -8.921   4.433  69.207  1.00  0.00    -0.148 C  
BRANCH  20  21
HETATM   21  C   UNL     1      -9.731   4.524  67.909  1.00  0.00    -0.195 C  
HETATM   22  O   UNL     1      -8.884   3.720  65.794  1.00  0.00    -0.116 OA 
HETATM   23  O   UNL     1      -9.647   2.208  67.279  1.00  0.00    -0.010 OA 
HETATM   24  C   UNL     1      -9.365   3.470  66.890  1.00  0.00    -0.188 C  
ENDBRANCH  20  21
ENDBRANCH  18  20
ENDBRANCH  16  17
ENDBRANCH   4  16
ENDBRANCH   2   3
TORSDOF 5
ENDMDL
MODEL      166
REMARK 921   NORMALIZED FREE ENERGY PREDICTED BY IDOCK:   -4.35 KCAL/MOL
REMARK 922        TOTAL FREE ENERGY PREDICTED BY IDOCK:   -5.89 KCAL/MOL
REMARK 923 INTER-LIGAND FREE ENERGY PREDICTED BY IDOCK:   -5.23 KCAL/MOL
REMARK 924 INTRA-LIGAND FREE ENERGY PREDICTED BY IDOCK:   -0.66 KCAL/MOL
REMARK 927      BINDING AFFINITY PREDICTED BY RF-SCORE:    0.00 PKD
ROOT
HETATM    1  C   UNL     1      -6.793  11.649  68.429  1.00  0.00    -0.071 C  
HETATM    2  O   UNL     1      -7.842  12.539  68.794  1.00  0.00    -0.079 OA 
ENDROOT
BRANCH   2   3
HETATM    3  C   UNL     1      -8.852  12.777  67.888  1.00  0.00    -0.186 A  
HETATM    4  C   UNL     1     -10.012  11.953  67.733  1.00  0.00    -0.191 A  
HETATM    5  C   UNL     1     -11.033  12.414  66.873  1.00  0.00    -0.265 A  
HETATM    6  C   UNL     1      -9.924  15.644  65.570  1.00  0.00    -0.329 C  
HETATM    7  O   UNL     1     -12.147  11.682  66.589  1.00  0.00    -0.441 OA 
HETATM    8  C   UNL     1      -7.482  14.845  67.342  1.00  0.00    -0.228 C  
HETATM    9  C   UNL     1     -10.905  13.647  66.248  1.00  0.00    -0.282 A  
HETATM   10  C   UNL     1     -11.855  14.356  65.387  1.00  0.00    -0.366 C  
HETATM   11  C   UNL     1      -8.728  14.016  67.208  1.00  0.00    -0.227 A  
HETATM   12  H   UNL     1     -12.834  11.993  66.011  1.00  0.00     0.000 HD 
HETATM   13  O   UNL     1     -12.985  14.035  65.078  1.00  0.00    -0.728 OA 
HETATM   14  C   UNL     1      -9.776  14.427  66.394  1.00  0.00    -0.320 A  
HETATM   15  O   UNL     1     -11.242  15.521  65.011  1.00  0.00    -0.379 OA 
BRANCH   4  16
HETATM   16  C   UNL     1     -10.040  10.595  68.395  1.00  0.00    -0.181 C  
BRANCH  16  17
HETATM   17  C   UNL     1      -9.914   9.342  67.587  1.00  0.00    -0.238 C  
HETATM   18  C   UNL     1      -9.068   8.322  67.823  1.00  0.00    -0.138 C  
HETATM   19  C   UNL     1      -8.240   8.191  69.076  1.00  0.00    -0.127 C  
BRANCH  18  20
HETATM   20  C   UNL     1      -8.824   7.228  66.787  1.00  0.00    -0.143 C  
BRANCH  20  21
HETATM   21  C   UNL     1      -8.349   7.688  65.404  1.00  0.00    -0.134 C  
HETATM   22  O   UNL     1      -6.770   9.493  65.111  1.00  0.00    -0.081 OA 
HETATM   23  O   UNL     1      -5.982   7.485  65.760  1.00  0.00    -0.037 OA 
HETATM   24  C   UNL     1      -6.980   8.327  65.415  1.00  0.00    -0.063 C  
ENDBRANCH  20  21
ENDBRANCH  18  20
ENDBRANCH  16  17
ENDBRANCH   4  16
ENDBRANCH   2   3
TORSDOF 5
ENDMDL
MODEL      167
REMARK 921   NORMALIZED FREE ENERGY PREDICTED BY IDOCK:   -4.34 KCAL/MOL
REMARK 922        TOTAL FREE ENERGY PREDICTED BY IDOCK:   -5.87 KCAL/MOL
REMARK 923 INTER-LIGAND FREE ENERGY PREDICTED BY IDOCK:   -5.35 KCAL/MOL
REMARK 924 INTRA-LIGAND FREE ENERGY PREDICTED BY IDOCK:   -0.52 KCAL/MOL
REMARK 927      BINDING AFFINITY PREDICTED BY RF-SCORE:    0.00 PKD
ROOT
HETATM    1  C   UNL     1     -12.429  12.874  70.470  1.00  0.00    -0.217 C  
HETATM    2  O   UNL     1     -12.641  11.557  69.972  1.00  0.00    -0.148 OA 
ENDROOT
BRANCH   2   3
HETATM    3  C   UNL     1     -11.547  10.748  69.757  1.00  0.00    -0.317 A  
HETATM    4  C   UNL     1     -10.688  10.835  68.616  1.00  0.00    -0.242 A  
HETATM    5  C   UNL     1      -9.518  10.044  68.615  1.00  0.00    -0.156 A  
HETATM    6  C   UNL     1      -9.491   8.212  71.779  1.00  0.00    -0.188 C  
HETATM    7  O   UNL     1      -8.664   9.986  67.554  1.00  0.00    -0.125 OA 
HETATM    8  C   UNL     1     -12.177   9.784  72.021  1.00  0.00    -0.271 C  
HETATM    9  C   UNL     1      -9.219   9.253  69.716  1.00  0.00    -0.191 A  
HETATM   10  C   UNL     1      -8.040   8.419  69.970  1.00  0.00    -0.115 C  
HETATM   11  C   UNL     1     -11.238   9.902  70.854  1.00  0.00    -0.433 A  
HETATM   12  H   UNL     1      -7.877   9.454  67.554  1.00  0.00     0.000 HD 
HETATM   13  O   UNL     1      -7.044   8.286  69.287  1.00  0.00    -0.057 OA 
HETATM   14  C   UNL     1     -10.061   9.166  70.805  1.00  0.00    -0.333 A  
HETATM   15  O   UNL     1      -8.239   7.827  71.188  1.00  0.00    -0.096 OA 
BRANCH   4  16
HETATM   16  C   UNL     1     -11.123  11.667  67.432  1.00  0.00    -0.337 C  
BRANCH  16  17
HETATM   17  C   UNL     1     -10.226  12.716  66.857  1.00  0.00    -0.242 C  
HETATM   18  C   UNL     1     -10.572  13.979  66.546  1.00  0.00    -0.279 C  
HETATM   19  C   UNL     1     -11.891  14.605  66.924  1.00  0.00    -0.345 C  
BRANCH  18  20
HETATM   20  C   UNL     1      -9.663  14.877  65.711  1.00  0.00    -0.359 C  
BRANCH  20  21
HETATM   21  C   UNL     1      -9.124  16.136  66.399  1.00  0.00    -0.339 C  
HETATM   22  O   UNL     1      -8.339  16.129  68.684  1.00  0.00    -0.187 OA 
HETATM   23  O   UNL     1      -6.993  15.274  67.093  1.00  0.00    -0.222 OA 
HETATM   24  C   UNL     1      -8.142  15.848  67.510  1.00  0.00    -0.151 C  
ENDBRANCH  20  21
ENDBRANCH  18  20
ENDBRANCH  16  17
ENDBRANCH   4  16
ENDBRANCH   2   3
TORSDOF 5
ENDMDL
MODEL      168
REMARK 921   NORMALIZED FREE ENERGY PREDICTED BY IDOCK:   -4.31 KCAL/MOL
REMARK 922        TOTAL FREE ENERGY PREDICTED BY IDOCK:   -5.84 KCAL/MOL
REMARK 923 INTER-LIGAND FREE ENERGY PREDICTED BY IDOCK:   -5.02 KCAL/MOL
REMARK 924 INTRA-LIGAND FREE ENERGY PREDICTED BY IDOCK:   -0.82 KCAL/MOL
REMARK 927      BINDING AFFINITY PREDICTED BY RF-SCORE:    0.00 PKD
ROOT
HETATM    1  C   UNL     1     -11.164   6.101  69.404  1.00  0.00    -0.396 C  
HETATM    2  O   UNL     1     -10.204   7.111  69.696  1.00  0.00    -0.197 OA 
ENDROOT
BRANCH   2   3
HETATM    3  C   UNL     1     -10.394   8.373  69.180  1.00  0.00    -0.220 A  
HETATM    4  C   UNL     1     -10.197   8.724  67.806  1.00  0.00    -0.285 A  
HETATM    5  C   UNL     1     -10.585  10.020  67.399  1.00  0.00    -0.271 A  
HETATM    6  C   UNL     1     -11.944  11.683  70.357  1.00  0.00    -0.358 C  
HETATM    7  O   UNL     1     -10.377  10.492  66.138  1.00  0.00    -0.241 OA 
HETATM    8  C   UNL     1     -11.113   8.922  71.553  1.00  0.00    -0.397 C  
HETATM    9  C   UNL     1     -11.171  10.884  68.313  1.00  0.00    -0.347 A  
HETATM   10  C   UNL     1     -11.716  12.229  68.105  1.00  0.00    -0.349 C  
HETATM   11  C   UNL     1     -10.961   9.289  70.104  1.00  0.00    -0.278 A  
HETATM   12  H   UNL     1     -10.638  11.364  65.864  1.00  0.00     0.000 HD 
HETATM   13  O   UNL     1     -11.817  12.854  67.069  1.00  0.00    -0.371 OA 
HETATM   14  C   UNL     1     -11.343  10.540  69.638  1.00  0.00    -0.345 A  
HETATM   15  O   UNL     1     -12.158  12.661  69.327  1.00  0.00    -0.259 OA 
BRANCH   4  16
HETATM   16  C   UNL     1      -9.489   7.750  66.895  1.00  0.00    -0.238 C  
BRANCH  16  17
HETATM   17  C   UNL     1      -8.018   7.508  67.019  1.00  0.00    -0.116 C  
HETATM   18  C   UNL     1      -7.415   6.316  67.179  1.00  0.00    -0.084 C  
HETATM   19  C   UNL     1      -8.128   4.992  67.054  1.00  0.00    -0.107 C  
BRANCH  18  20
HETATM   20  C   UNL     1      -5.945   6.207  67.575  1.00  0.00    -0.017 C  
BRANCH  20  21
HETATM   21  C   UNL     1      -5.556   6.803  68.932  1.00  0.00    -0.017 C  
HETATM   22  O   UNL     1      -7.127   7.007  70.756  1.00  0.00    -0.064 OA 
HETATM   23  O   UNL     1      -6.250   4.977  70.330  1.00  0.00    -0.018 OA 
HETATM   24  C   UNL     1      -6.397   6.296  70.081  1.00  0.00    -0.039 C  
ENDBRANCH  20  21
ENDBRANCH  18  20
ENDBRANCH  16  17
ENDBRANCH   4  16
ENDBRANCH   2   3
TORSDOF 5
ENDMDL
MODEL      169
REMARK 921   NORMALIZED FREE ENERGY PREDICTED BY IDOCK:   -4.30 KCAL/MOL
REMARK 922        TOTAL FREE ENERGY PREDICTED BY IDOCK:   -5.83 KCAL/MOL
REMARK 923 INTER-LIGAND FREE ENERGY PREDICTED BY IDOCK:   -4.96 KCAL/MOL
REMARK 924 INTRA-LIGAND FREE ENERGY PREDICTED BY IDOCK:   -0.87 KCAL/MOL
REMARK 927      BINDING AFFINITY PREDICTED BY RF-SCORE:    0.00 PKD
ROOT
HETATM    1  C   UNL     1      -6.125   7.793  66.783  1.00  0.00    -0.048 C  
HETATM    2  O   UNL     1      -7.066   7.016  67.517  1.00  0.00    -0.079 OA 
ENDROOT
BRANCH   2   3
HETATM    3  C   UNL     1      -7.910   7.659  68.396  1.00  0.00    -0.121 A  
HETATM    4  C   UNL     1      -9.211   8.149  68.056  1.00  0.00    -0.137 A  
HETATM    5  C   UNL     1     -10.019   8.643  69.104  1.00  0.00    -0.192 A  
HETATM    6  C   UNL     1      -8.085   8.268  72.183  1.00  0.00    -0.145 C  
HETATM    7  O   UNL     1     -11.243   9.204  68.893  1.00  0.00    -0.443 OA 
HETATM    8  C   UNL     1      -6.057   7.190  70.069  1.00  0.00    -0.024 C  
HETATM    9  C   UNL     1      -9.556   8.601  70.412  1.00  0.00    -0.196 A  
HETATM   10  C   UNL     1     -10.238   8.979  71.653  1.00  0.00    -0.348 C  
HETATM   11  C   UNL     1      -7.445   7.661  69.737  1.00  0.00    -0.090 A  
HETATM   12  H   UNL     1     -11.787   9.536  69.598  1.00  0.00     0.000 HD 
HETATM   13  O   UNL     1     -11.380   9.363  71.804  1.00  0.00    -0.379 OA 
HETATM   14  C   UNL     1      -8.295   8.138  70.726  1.00  0.00    -0.120 A  
HETATM   15  O   UNL     1      -9.341   8.769  72.667  1.00  0.00    -0.300 OA 
BRANCH   4  16
HETATM   16  C   UNL     1      -9.610   8.224  66.601  1.00  0.00    -0.299 C  
BRANCH  16  17
HETATM   17  C   UNL     1     -10.207   9.470  66.028  1.00  0.00    -0.242 C  
HETATM   18  C   UNL     1      -9.591  10.658  65.888  1.00  0.00    -0.253 C  
HETATM   19  C   UNL     1      -8.113  10.869  66.103  1.00  0.00    -0.160 C  
BRANCH  18  20
HETATM   20  C   UNL     1     -10.368  11.929  65.556  1.00  0.00    -0.303 C  
BRANCH  20  21
HETATM   21  C   UNL     1     -11.403  12.388  66.590  1.00  0.00    -0.394 C  
HETATM   22  O   UNL     1     -11.118  12.020  68.960  1.00  0.00    -0.228 OA 
HETATM   23  O   UNL     1      -9.947  13.684  67.994  1.00  0.00    -0.232 OA 
HETATM   24  C   UNL     1     -10.818  12.652  67.958  1.00  0.00    -0.225 C  
ENDBRANCH  20  21
ENDBRANCH  18  20
ENDBRANCH  16  17
ENDBRANCH   4  16
ENDBRANCH   2   3
TORSDOF 5
ENDMDL
MODEL      170
REMARK 921   NORMALIZED FREE ENERGY PREDICTED BY IDOCK:   -4.29 KCAL/MOL
REMARK 922        TOTAL FREE ENERGY PREDICTED BY IDOCK:   -5.80 KCAL/MOL
REMARK 923 INTER-LIGAND FREE ENERGY PREDICTED BY IDOCK:   -5.95 KCAL/MOL
REMARK 924 INTRA-LIGAND FREE ENERGY PREDICTED BY IDOCK:    0.15 KCAL/MOL
REMARK 927      BINDING AFFINITY PREDICTED BY RF-SCORE:    0.00 PKD
ROOT
HETATM    1  C   UNL     1      -9.681  10.270  69.365  1.00  0.00    -0.222 C  
HETATM    2  O   UNL     1     -10.612   9.867  68.366  1.00  0.00    -0.201 OA 
ENDROOT
BRANCH   2   3
HETATM    3  C   UNL     1     -10.765  10.656  67.248  1.00  0.00    -0.285 A  
HETATM    4  C   UNL     1     -10.407  10.258  65.920  1.00  0.00    -0.241 A  
HETATM    5  C   UNL     1     -10.770  11.116  64.859  1.00  0.00    -0.248 A  
HETATM    6  C   UNL     1     -12.524  13.952  66.358  1.00  0.00    -0.370 C  
HETATM    7  O   UNL     1     -10.418  10.880  63.563  1.00  0.00    -0.507 OA 
HETATM    8  C   UNL     1     -11.786  12.295  68.898  1.00  0.00    -0.355 C  
HETATM    9  C   UNL     1     -11.485  12.276  65.122  1.00  0.00    -0.390 A  
HETATM   10  C   UNL     1     -12.030  13.265  64.188  1.00  0.00    -0.447 C  
HETATM   11  C   UNL     1     -11.463  11.867  67.494  1.00  0.00    -0.396 A  
HETATM   12  H   UNL     1     -10.662  11.457  62.849  1.00  0.00     0.000 HD 
HETATM   13  O   UNL     1     -12.015  13.250  62.974  1.00  0.00    -0.373 OA 
HETATM   14  C   UNL     1     -11.813  12.657  66.407  1.00  0.00    -0.466 A  
HETATM   15  O   UNL     1     -12.630  14.230  64.952  1.00  0.00    -0.583 OA 
BRANCH   4  16
HETATM   16  C   UNL     1      -9.569   9.016  65.728  1.00  0.00    -0.287 C  
BRANCH  16  17
HETATM   17  C   UNL     1      -8.274   8.841  66.455  1.00  0.00    -0.111 C  
HETATM   18  C   UNL     1      -7.355   7.883  66.230  1.00  0.00    -0.075 C  
HETATM   19  C   UNL     1      -7.396   6.941  65.053  1.00  0.00    -0.086 C  
BRANCH  18  20
HETATM   20  C   UNL     1      -6.210   7.626  67.206  1.00  0.00    -0.053 C  
BRANCH  20  21
HETATM   21  C   UNL     1      -6.560   6.856  68.485  1.00  0.00    -0.058 C  
HETATM   22  O   UNL     1      -8.326   5.210  68.564  1.00  0.00    -0.089 OA 
HETATM   23  O   UNL     1      -6.368   4.625  67.617  1.00  0.00    -0.038 OA 
HETATM   24  C   UNL     1      -7.189   5.506  68.228  1.00  0.00    -0.071 C  
ENDBRANCH  20  21
ENDBRANCH  18  20
ENDBRANCH  16  17
ENDBRANCH   4  16
ENDBRANCH   2   3
TORSDOF 5
ENDMDL
MODEL      171
REMARK 921   NORMALIZED FREE ENERGY PREDICTED BY IDOCK:   -4.28 KCAL/MOL
REMARK 922        TOTAL FREE ENERGY PREDICTED BY IDOCK:   -5.79 KCAL/MOL
REMARK 923 INTER-LIGAND FREE ENERGY PREDICTED BY IDOCK:   -5.17 KCAL/MOL
REMARK 924 INTRA-LIGAND FREE ENERGY PREDICTED BY IDOCK:   -0.62 KCAL/MOL
REMARK 927      BINDING AFFINITY PREDICTED BY RF-SCORE:    0.00 PKD
ROOT
HETATM    1  C   UNL     1     -11.196   6.389  69.547  1.00  0.00    -0.412 C  
HETATM    2  O   UNL     1     -10.291   7.441  69.862  1.00  0.00    -0.207 OA 
ENDROOT
BRANCH   2   3
HETATM    3  C   UNL     1     -10.501   8.683  69.305  1.00  0.00    -0.217 A  
HETATM    4  C   UNL     1     -10.377   8.976  67.910  1.00  0.00    -0.290 A  
HETATM    5  C   UNL     1     -10.778  10.257  67.471  1.00  0.00    -0.294 A  
HETATM    6  C   UNL     1     -11.968  12.050  70.426  1.00  0.00    -0.291 C  
HETATM    7  O   UNL     1     -10.636  10.676  66.182  1.00  0.00    -0.219 OA 
HETATM    8  C   UNL     1     -11.089   9.334  71.689  1.00  0.00    -0.438 C  
HETATM    9  C   UNL     1     -11.310  11.163  68.379  1.00  0.00    -0.357 A  
HETATM   10  C   UNL     1     -11.858  12.502  68.144  1.00  0.00    -0.317 C  
HETATM   11  C   UNL     1     -11.013   9.640  70.220  1.00  0.00    -0.337 A  
HETATM   12  H   UNL     1     -10.906  11.538  65.887  1.00  0.00     0.000 HD 
HETATM   13  O   UNL     1     -12.011  13.085  67.090  1.00  0.00    -0.371 OA 
HETATM   14  C   UNL     1     -11.413  10.874  69.724  1.00  0.00    -0.390 A  
HETATM   15  O   UNL     1     -12.232  12.987  69.370  1.00  0.00    -0.237 OA 
BRANCH   4  16
HETATM   16  C   UNL     1      -9.723   7.960  67.003  1.00  0.00    -0.269 C  
BRANCH  16  17
HETATM   17  C   UNL     1      -8.242   7.758  67.014  1.00  0.00    -0.117 C  
HETATM   18  C   UNL     1      -7.423   7.791  65.946  1.00  0.00    -0.081 C  
HETATM   19  C   UNL     1      -7.853   8.245  64.573  1.00  0.00    -0.130 C  
BRANCH  18  20
HETATM   20  C   UNL     1      -5.981   7.297  66.025  1.00  0.00    -0.037 C  
BRANCH  20  21
HETATM   21  C   UNL     1      -5.781   5.825  66.403  1.00  0.00    -0.017 C  
HETATM   22  O   UNL     1      -7.457   4.139  65.976  1.00  0.00    -0.082 OA 
HETATM   23  O   UNL     1      -6.197   4.849  64.249  1.00  0.00    -0.021 OA 
HETATM   24  C   UNL     1      -6.573   4.865  65.546  1.00  0.00    -0.041 C  
ENDBRANCH  20  21
ENDBRANCH  18  20
ENDBRANCH  16  17
ENDBRANCH   4  16
ENDBRANCH   2   3
TORSDOF 5
ENDMDL
MODEL      172
REMARK 921   NORMALIZED FREE ENERGY PREDICTED BY IDOCK:   -4.25 KCAL/MOL
REMARK 922        TOTAL FREE ENERGY PREDICTED BY IDOCK:   -5.76 KCAL/MOL
REMARK 923 INTER-LIGAND FREE ENERGY PREDICTED BY IDOCK:   -5.27 KCAL/MOL
REMARK 924 INTRA-LIGAND FREE ENERGY PREDICTED BY IDOCK:   -0.49 KCAL/MOL
REMARK 927      BINDING AFFINITY PREDICTED BY RF-SCORE:    0.00 PKD
ROOT
HETATM    1  C   UNL     1     -10.497   6.002  67.788  1.00  0.00    -0.239 C  
HETATM    2  O   UNL     1      -9.683   6.479  68.854  1.00  0.00    -0.131 OA 
ENDROOT
BRANCH   2   3
HETATM    3  C   UNL     1      -9.812   5.896  70.095  1.00  0.00    -0.176 A  
HETATM    4  C   UNL     1     -10.944   6.064  70.955  1.00  0.00    -0.350 A  
HETATM    5  C   UNL     1     -10.999   5.277  72.127  1.00  0.00    -0.160 A  
HETATM    6  C   UNL     1      -8.000   3.186  72.125  1.00  0.00    -0.059 C  
HETATM    7  O   UNL     1     -11.987   5.403  73.057  1.00  0.00    -0.548 OA 
HETATM    8  C   UNL     1      -7.575   4.843  69.514  1.00  0.00    -0.056 C  
HETATM    9  C   UNL     1      -9.997   4.352  72.385  1.00  0.00    -0.232 A  
HETATM   10  C   UNL     1      -9.884   3.384  73.480  1.00  0.00    -0.110 C  
HETATM   11  C   UNL     1      -8.781   4.970  70.401  1.00  0.00    -0.128 A  
HETATM   12  H   UNL     1     -12.024   4.874  73.845  1.00  0.00     0.000 HD 
HETATM   13  O   UNL     1     -10.675   3.151  74.371  1.00  0.00    -0.183 OA 
HETATM   14  C   UNL     1      -8.904   4.207  71.556  1.00  0.00    -0.149 A  
HETATM   15  O   UNL     1      -8.700   2.722  73.291  1.00  0.00    -0.077 OA 
BRANCH   4  16
HETATM   16  C   UNL     1     -11.953   7.142  70.636  1.00  0.00    -0.312 C  
BRANCH  16  17
HETATM   17  C   UNL     1     -11.574   8.588  70.675  1.00  0.00    -0.214 C  
HETATM   18  C   UNL     1     -12.224   9.567  71.332  1.00  0.00    -0.455 C  
HETATM   19  C   UNL     1     -13.342   9.319  72.314  1.00  0.00    -0.547 C  
BRANCH  18  20
HETATM   20  C   UNL     1     -11.920  11.041  71.080  1.00  0.00    -0.334 C  
BRANCH  20  21
HETATM   21  C   UNL     1     -12.484  11.645  69.789  1.00  0.00    -0.088 C  
HETATM   22  O   UNL     1     -11.192  13.115  68.373  1.00  0.00    -0.240 OA 
HETATM   23  O   UNL     1     -10.773  10.904  68.275  1.00  0.00    -0.178 OA 
HETATM   24  C   UNL     1     -11.427  11.981  68.763  1.00  0.00    -0.300 C  
ENDBRANCH  20  21
ENDBRANCH  18  20
ENDBRANCH  16  17
ENDBRANCH   4  16
ENDBRANCH   2   3
TORSDOF 5
ENDMDL
MODEL      173
REMARK 921   NORMALIZED FREE ENERGY PREDICTED BY IDOCK:   -4.25 KCAL/MOL
REMARK 922        TOTAL FREE ENERGY PREDICTED BY IDOCK:   -5.76 KCAL/MOL
REMARK 923 INTER-LIGAND FREE ENERGY PREDICTED BY IDOCK:   -5.38 KCAL/MOL
REMARK 924 INTRA-LIGAND FREE ENERGY PREDICTED BY IDOCK:   -0.38 KCAL/MOL
REMARK 927      BINDING AFFINITY PREDICTED BY RF-SCORE:    0.00 PKD
ROOT
HETATM    1  C   UNL     1      -7.463   7.009  67.581  1.00  0.00    -0.098 C  
HETATM    2  O   UNL     1      -8.067   5.789  67.999  1.00  0.00    -0.103 OA 
ENDROOT
BRANCH   2   3
HETATM    3  C   UNL     1      -8.718   5.018  67.062  1.00  0.00    -0.103 A  
HETATM    4  C   UNL     1     -10.044   5.270  66.585  1.00  0.00    -0.259 A  
HETATM    5  C   UNL     1     -10.513   4.484  65.509  1.00  0.00    -0.211 A  
HETATM    6  C   UNL     1      -7.798   2.206  64.615  1.00  0.00    -0.073 C  
HETATM    7  O   UNL     1     -11.782   4.581  65.020  1.00  0.00    -1.044 OA 
HETATM    8  C   UNL     1      -6.528   3.732  67.023  1.00  0.00    -0.041 C  
HETATM    9  C   UNL     1      -9.679   3.539  64.929  1.00  0.00    -0.157 A  
HETATM   10  C   UNL     1      -9.917   2.674  63.770  1.00  0.00    -0.147 C  
HETATM   11  C   UNL     1      -7.898   4.018  66.476  1.00  0.00    -0.093 A  
HETATM   12  H   UNL     1     -12.097   4.053  64.297  1.00  0.00     0.000 HD 
HETATM   13  O   UNL     1     -10.883   2.640  63.035  1.00  0.00    -0.194 OA 
HETATM   14  C   UNL     1      -8.407   3.295  65.406  1.00  0.00    -0.099 A  
HETATM   15  O   UNL     1      -8.791   1.909  63.620  1.00  0.00    -0.087 OA 
BRANCH   4  16
HETATM   16  C   UNL     1     -10.909   6.269  67.317  1.00  0.00    -0.457 C  
BRANCH  16  17
HETATM   17  C   UNL     1     -11.004   6.257  68.809  1.00  0.00    -0.424 C  
HETATM   18  C   UNL     1     -10.707   7.277  69.636  1.00  0.00    -0.249 C  
HETATM   19  C   UNL     1     -10.420   8.681  69.167  1.00  0.00    -0.223 C  
BRANCH  18  20
HETATM   20  C   UNL     1     -10.570   7.073  71.143  1.00  0.00    -0.237 C  
BRANCH  20  21
HETATM   21  C   UNL     1     -11.583   6.128  71.801  1.00  0.00    -0.333 C  
HETATM   22  O   UNL     1     -10.915   4.115  72.957  1.00  0.00    -0.190 OA 
HETATM   23  O   UNL     1     -10.642   6.088  74.010  1.00  0.00    -0.269 OA 
HETATM   24  C   UNL     1     -11.012   5.334  72.953  1.00  0.00    -0.287 C  
ENDBRANCH  20  21
ENDBRANCH  18  20
ENDBRANCH  16  17
ENDBRANCH   4  16
ENDBRANCH   2   3
TORSDOF 5
ENDMDL
MODEL      174
REMARK 921   NORMALIZED FREE ENERGY PREDICTED BY IDOCK:   -4.24 KCAL/MOL
REMARK 922        TOTAL FREE ENERGY PREDICTED BY IDOCK:   -5.74 KCAL/MOL
REMARK 923 INTER-LIGAND FREE ENERGY PREDICTED BY IDOCK:   -5.36 KCAL/MOL
REMARK 924 INTRA-LIGAND FREE ENERGY PREDICTED BY IDOCK:   -0.38 KCAL/MOL
REMARK 927      BINDING AFFINITY PREDICTED BY RF-SCORE:    0.00 PKD
ROOT
HETATM    1  C   UNL     1      -5.594  13.665  68.525  1.00  0.00    -0.091 C  
HETATM    2  O   UNL     1      -6.437  12.983  67.602  1.00  0.00    -0.136 OA 
ENDROOT
BRANCH   2   3
HETATM    3  C   UNL     1      -7.719  12.664  67.990  1.00  0.00    -0.139 A  
HETATM    4  C   UNL     1      -8.872  13.467  67.717  1.00  0.00    -0.198 A  
HETATM    5  C   UNL     1     -10.137  12.930  68.041  1.00  0.00    -0.235 A  
HETATM    6  C   UNL     1      -9.535   9.602  69.429  1.00  0.00    -0.192 C  
HETATM    7  O   UNL     1     -11.297  13.630  67.898  1.00  0.00    -0.267 OA 
HETATM    8  C   UNL     1      -6.614  10.561  68.889  1.00  0.00    -0.054 C  
HETATM    9  C   UNL     1     -10.229  11.647  68.565  1.00  0.00    -0.216 A  
HETATM   10  C   UNL     1     -11.420  10.863  68.901  1.00  0.00    -0.300 C  
HETATM   11  C   UNL     1      -7.837  11.370  68.562  1.00  0.00    -0.140 A  
HETATM   12  H   UNL     1     -12.149  13.268  68.115  1.00  0.00     0.000 HD 
HETATM   13  O   UNL     1     -12.589  11.152  68.740  1.00  0.00    -0.345 OA 
HETATM   14  C   UNL     1      -9.110  10.887  68.837  1.00  0.00    -0.151 A  
HETATM   15  O   UNL     1     -10.970   9.671  69.404  1.00  0.00    -0.231 OA 
BRANCH   4  16
HETATM   16  C   UNL     1      -8.679  14.878  67.211  1.00  0.00    -0.224 C  
BRANCH  16  17
HETATM   17  C   UNL     1      -8.747  16.046  68.142  1.00  0.00    -0.173 C  
HETATM   18  C   UNL     1      -9.471  17.167  67.966  1.00  0.00    -0.262 C  
HETATM   19  C   UNL     1     -10.502  17.337  66.878  1.00  0.00    -0.272 C  
BRANCH  18  20
HETATM   20  C   UNL     1      -9.253  18.406  68.830  1.00  0.00    -0.277 C  
BRANCH  20  21
HETATM   21  C   UNL     1      -8.198  19.405  68.341  1.00  0.00    -0.382 C  
HETATM   22  O   UNL     1      -7.956  19.998  66.012  1.00  0.00    -0.328 OA 
HETATM   23  O   UNL     1      -9.655  20.914  67.172  1.00  0.00    -0.414 OA 
HETATM   24  C   UNL     1      -8.576  20.110  67.059  1.00  0.00    -0.336 C  
ENDBRANCH  20  21
ENDBRANCH  18  20
ENDBRANCH  16  17
ENDBRANCH   4  16
ENDBRANCH   2   3
TORSDOF 5
ENDMDL
MODEL      175
REMARK 921   NORMALIZED FREE ENERGY PREDICTED BY IDOCK:   -4.24 KCAL/MOL
REMARK 922        TOTAL FREE ENERGY PREDICTED BY IDOCK:   -5.74 KCAL/MOL
REMARK 923 INTER-LIGAND FREE ENERGY PREDICTED BY IDOCK:   -5.44 KCAL/MOL
REMARK 924 INTRA-LIGAND FREE ENERGY PREDICTED BY IDOCK:   -0.30 KCAL/MOL
REMARK 927      BINDING AFFINITY PREDICTED BY RF-SCORE:    0.00 PKD
ROOT
HETATM    1  C   UNL     1      -6.391  11.863  68.937  1.00  0.00    -0.073 C  
HETATM    2  O   UNL     1      -7.665  11.227  68.908  1.00  0.00    -0.133 OA 
ENDROOT
BRANCH   2   3
HETATM    3  C   UNL     1      -8.383  11.239  67.733  1.00  0.00    -0.125 A  
HETATM    4  C   UNL     1      -9.177  12.340  67.281  1.00  0.00    -0.185 A  
HETATM    5  C   UNL     1      -9.726  12.262  65.982  1.00  0.00    -0.242 A  
HETATM    6  C   UNL     1      -8.628   9.074  64.571  1.00  0.00    -0.156 C  
HETATM    7  O   UNL     1     -10.559  13.213  65.472  1.00  0.00    -0.278 OA 
HETATM    8  C   UNL     1      -7.354   8.938  67.418  1.00  0.00    -0.081 C  
HETATM    9  C   UNL     1      -9.451  11.162  65.181  1.00  0.00    -0.257 A  
HETATM   10  C   UNL     1      -9.841  10.902  63.792  1.00  0.00    -0.337 C  
HETATM   11  C   UNL     1      -8.148  10.108  66.908  1.00  0.00    -0.121 A  
HETATM   12  H   UNL     1     -10.928  13.161  64.598  1.00  0.00     0.000 HD 
HETATM   13  O   UNL     1     -10.447  11.624  63.027  1.00  0.00    -0.311 OA 
HETATM   14  C   UNL     1      -8.695  10.100  65.632  1.00  0.00    -0.173 A  
HETATM   15  O   UNL     1      -9.339   9.669  63.473  1.00  0.00    -0.206 OA 
BRANCH   4  16
HETATM   16  C   UNL     1      -9.484  13.466  68.241  1.00  0.00    -0.209 C  
BRANCH  16  17
HETATM   17  C   UNL     1      -9.474  14.890  67.786  1.00  0.00    -0.203 C  
HETATM   18  C   UNL     1      -8.410  15.714  67.765  1.00  0.00    -0.157 C  
HETATM   19  C   UNL     1      -6.992  15.261  68.012  1.00  0.00    -0.144 C  
BRANCH  18  20
HETATM   20  C   UNL     1      -8.563  17.218  67.551  1.00  0.00    -0.213 C  
BRANCH  20  21
HETATM   21  C   UNL     1      -9.960  17.803  67.790  1.00  0.00    -0.322 C  
HETATM   22  O   UNL     1     -10.685  19.876  66.783  1.00  0.00    -0.466 OA 
HETATM   23  O   UNL     1     -10.645  18.026  65.499  1.00  0.00    -0.639 OA 
HETATM   24  C   UNL     1     -10.450  18.683  66.663  1.00  0.00    -0.413 C  
ENDBRANCH  20  21
ENDBRANCH  18  20
ENDBRANCH  16  17
ENDBRANCH   4  16
ENDBRANCH   2   3
TORSDOF 5
ENDMDL
MODEL      176
REMARK 921   NORMALIZED FREE ENERGY PREDICTED BY IDOCK:   -4.24 KCAL/MOL
REMARK 922        TOTAL FREE ENERGY PREDICTED BY IDOCK:   -5.74 KCAL/MOL
REMARK 923 INTER-LIGAND FREE ENERGY PREDICTED BY IDOCK:   -5.34 KCAL/MOL
REMARK 924 INTRA-LIGAND FREE ENERGY PREDICTED BY IDOCK:   -0.40 KCAL/MOL
REMARK 927      BINDING AFFINITY PREDICTED BY RF-SCORE:    0.00 PKD
ROOT
HETATM    1  C   UNL     1     -10.624   7.933  72.550  1.00  0.00    -0.315 C  
HETATM    2  O   UNL     1     -11.481   8.305  71.476  1.00  0.00    -0.256 OA 
ENDROOT
BRANCH   2   3
HETATM    3  C   UNL     1     -11.142   9.399  70.709  1.00  0.00    -0.300 A  
HETATM    4  C   UNL     1     -10.163   9.383  69.665  1.00  0.00    -0.225 A  
HETATM    5  C   UNL     1     -10.041  10.541  68.865  1.00  0.00    -0.202 A  
HETATM    6  C   UNL     1     -12.516  12.932  70.098  1.00  0.00    -0.074 C  
HETATM    7  O   UNL     1      -9.095  10.672  67.893  1.00  0.00    -0.142 OA 
HETATM    8  C   UNL     1     -12.954  10.550  72.067  1.00  0.00    -0.490 C  
HETATM    9  C   UNL     1     -10.884  11.622  69.081  1.00  0.00    -0.231 A  
HETATM   10  C   UNL     1     -10.992  12.880  68.337  1.00  0.00    -0.258 C  
HETATM   11  C   UNL     1     -11.967  10.532  70.934  1.00  0.00    -0.481 A  
HETATM   12  H   UNL     1      -9.012  11.450  67.354  1.00  0.00     0.000 HD 
HETATM   13  O   UNL     1     -10.398  13.223  67.335  1.00  0.00    -0.240 OA 
HETATM   14  C   UNL     1     -11.815  11.631  70.099  1.00  0.00    -0.428 A  
HETATM   15  O   UNL     1     -11.960  13.619  68.965  1.00  0.00    -0.334 OA 
BRANCH   4  16
HETATM   16  C   UNL     1      -9.239   8.194  69.543  1.00  0.00    -0.158 C  
BRANCH  16  17
HETATM   17  C   UNL     1      -9.379   7.223  68.415  1.00  0.00    -0.143 C  
HETATM   18  C   UNL     1      -8.404   6.830  67.574  1.00  0.00    -0.122 C  
HETATM   19  C   UNL     1      -6.945   7.160  67.769  1.00  0.00    -0.076 C  
BRANCH  18  20
HETATM   20  C   UNL     1      -8.711   6.059  66.294  1.00  0.00    -0.138 C  
BRANCH  20  21
HETATM   21  C   UNL     1     -10.120   5.467  66.173  1.00  0.00    -0.135 C  
HETATM   22  O   UNL     1     -10.741   3.951  64.398  1.00  0.00    -0.270 OA 
HETATM   23  O   UNL     1      -9.522   3.142  66.110  1.00  0.00    -0.132 OA 
HETATM   24  C   UNL     1     -10.161   4.137  65.458  1.00  0.00    -0.187 C  
ENDBRANCH  20  21
ENDBRANCH  18  20
ENDBRANCH  16  17
ENDBRANCH   4  16
ENDBRANCH   2   3
TORSDOF 5
ENDMDL
MODEL      177
REMARK 921   NORMALIZED FREE ENERGY PREDICTED BY IDOCK:   -4.20 KCAL/MOL
REMARK 922        TOTAL FREE ENERGY PREDICTED BY IDOCK:   -5.70 KCAL/MOL
REMARK 923 INTER-LIGAND FREE ENERGY PREDICTED BY IDOCK:   -5.27 KCAL/MOL
REMARK 924 INTRA-LIGAND FREE ENERGY PREDICTED BY IDOCK:   -0.43 KCAL/MOL
REMARK 927      BINDING AFFINITY PREDICTED BY RF-SCORE:    0.00 PKD
ROOT
HETATM    1  C   UNL     1     -12.006   6.795  70.618  1.00  0.00    -0.362 C  
HETATM    2  O   UNL     1     -10.821   7.573  70.477  1.00  0.00    -0.231 OA 
ENDROOT
BRANCH   2   3
HETATM    3  C   UNL     1     -10.745   8.477  69.441  1.00  0.00    -0.156 A  
HETATM    4  C   UNL     1     -10.380   8.141  68.098  1.00  0.00    -0.251 A  
HETATM    5  C   UNL     1     -10.500   9.149  67.115  1.00  0.00    -0.255 A  
HETATM    6  C   UNL     1     -11.778  12.122  68.815  1.00  0.00    -0.321 C  
HETATM    7  O   UNL     1     -10.113   8.969  65.821  1.00  0.00    -0.421 OA 
HETATM    8  C   UNL     1     -11.543  10.124  71.202  1.00  0.00    -0.430 C  
HETATM    9  C   UNL     1     -10.997  10.397  67.463  1.00  0.00    -0.358 A  
HETATM   10  C   UNL     1     -11.279  11.556  66.612  1.00  0.00    -0.271 C  
HETATM   11  C   UNL     1     -11.214   9.773  69.778  1.00  0.00    -0.242 A  
HETATM   12  H   UNL     1     -10.194   9.647  65.160  1.00  0.00     0.000 HD 
HETATM   13  O   UNL     1     -11.185  11.651  65.405  1.00  0.00    -0.279 OA 
HETATM   14  C   UNL     1     -11.332  10.714  68.763  1.00  0.00    -0.339 A  
HETATM   15  O   UNL     1     -11.734  12.545  67.443  1.00  0.00    -0.350 OA 
BRANCH   4  16
HETATM   16  C   UNL     1      -9.783   6.782  67.818  1.00  0.00    -0.140 C  
BRANCH  16  17
HETATM   17  C   UNL     1      -8.707   6.219  68.691  1.00  0.00    -0.120 C  
HETATM   18  C   UNL     1      -8.585   4.937  69.082  1.00  0.00    -0.091 C  
HETATM   19  C   UNL     1      -9.417   3.808  68.527  1.00  0.00    -0.211 C  
BRANCH  18  20
HETATM   20  C   UNL     1      -7.620   4.526  70.191  1.00  0.00    -0.053 C  
BRANCH  20  21
HETATM   21  C   UNL     1      -7.199   5.623  71.174  1.00  0.00    -0.076 C  
HETATM   22  O   UNL     1      -8.682   6.470  72.883  1.00  0.00    -0.124 OA 
HETATM   23  O   UNL     1      -7.699   4.472  73.222  1.00  0.00    -0.084 OA 
HETATM   24  C   UNL     1      -7.944   5.579  72.488  1.00  0.00    -0.103 C  
ENDBRANCH  20  21
ENDBRANCH  18  20
ENDBRANCH  16  17
ENDBRANCH   4  16
ENDBRANCH   2   3
TORSDOF 5
ENDMDL
MODEL      178
REMARK 921   NORMALIZED FREE ENERGY PREDICTED BY IDOCK:   -4.17 KCAL/MOL
REMARK 922        TOTAL FREE ENERGY PREDICTED BY IDOCK:   -5.65 KCAL/MOL
REMARK 923 INTER-LIGAND FREE ENERGY PREDICTED BY IDOCK:   -5.41 KCAL/MOL
REMARK 924 INTRA-LIGAND FREE ENERGY PREDICTED BY IDOCK:   -0.24 KCAL/MOL
REMARK 927      BINDING AFFINITY PREDICTED BY RF-SCORE:    0.00 PKD
ROOT
HETATM    1  C   UNL     1     -11.222   6.360  71.341  1.00  0.00    -0.288 C  
HETATM    2  O   UNL     1      -9.964   6.030  70.762  1.00  0.00    -0.183 OA 
ENDROOT
BRANCH   2   3
HETATM    3  C   UNL     1      -9.945   5.288  69.602  1.00  0.00    -0.232 A  
HETATM    4  C   UNL     1     -10.193   5.821  68.296  1.00  0.00    -0.235 A  
HETATM    5  C   UNL     1      -9.982   4.968  67.190  1.00  0.00    -0.195 A  
HETATM    6  C   UNL     1      -8.841   1.768  68.538  1.00  0.00    -0.092 C  
HETATM    7  O   UNL     1     -10.256   5.339  65.907  1.00  0.00    -0.359 OA 
HETATM    8  C   UNL     1      -9.293   3.394  71.163  1.00  0.00    -0.208 C  
HETATM    9  C   UNL     1      -9.511   3.679  67.392  1.00  0.00    -0.238 A  
HETATM   10  C   UNL     1      -9.149   2.655  66.407  1.00  0.00    -0.112 C  
HETATM   11  C   UNL     1      -9.499   3.953  69.784  1.00  0.00    -0.264 A  
HETATM   12  H   UNL     1     -10.114   4.766  65.163  1.00  0.00     0.000 HD 
HETATM   13  O   UNL     1      -9.137   2.740  65.196  1.00  0.00    -0.138 OA 
HETATM   14  C   UNL     1      -9.288   3.171  68.656  1.00  0.00    -0.236 A  
HETATM   15  O   UNL     1      -8.762   1.552  67.120  1.00  0.00    -0.095 OA 
BRANCH   4  16
HETATM   16  C   UNL     1     -10.771   7.211  68.169  1.00  0.00    -0.214 C  
BRANCH  16  17
HETATM   17  C   UNL     1     -10.322   8.136  67.083  1.00  0.00    -0.391 C  
HETATM   18  C   UNL     1      -9.429   9.136  67.204  1.00  0.00    -0.197 C  
HETATM   19  C   UNL     1      -8.576   9.355  68.429  1.00  0.00    -0.124 C  
BRANCH  18  20
HETATM   20  C   UNL     1      -9.253  10.189  66.114  1.00  0.00    -0.196 C  
BRANCH  20  21
HETATM   21  C   UNL     1     -10.436  11.134  65.878  1.00  0.00    -0.310 C  
HETATM   22  O   UNL     1     -12.104  11.572  67.570  1.00  0.00    -0.614 OA 
HETATM   23  O   UNL     1     -10.104  12.593  67.757  1.00  0.00    -0.210 OA 
HETATM   24  C   UNL     1     -10.974  11.762  67.142  1.00  0.00    -0.276 C  
ENDBRANCH  20  21
ENDBRANCH  18  20
ENDBRANCH  16  17
ENDBRANCH   4  16
ENDBRANCH   2   3
TORSDOF 5
ENDMDL
MODEL      179
REMARK 921   NORMALIZED FREE ENERGY PREDICTED BY IDOCK:   -4.17 KCAL/MOL
REMARK 922        TOTAL FREE ENERGY PREDICTED BY IDOCK:   -5.65 KCAL/MOL
REMARK 923 INTER-LIGAND FREE ENERGY PREDICTED BY IDOCK:   -5.44 KCAL/MOL
REMARK 924 INTRA-LIGAND FREE ENERGY PREDICTED BY IDOCK:   -0.21 KCAL/MOL
REMARK 927      BINDING AFFINITY PREDICTED BY RF-SCORE:    0.00 PKD
ROOT
HETATM    1  C   UNL     1     -12.064  13.437  70.718  1.00  0.00    -0.250 C  
HETATM    2  O   UNL     1     -11.894  12.841  69.436  1.00  0.00    -0.296 OA 
ENDROOT
BRANCH   2   3
HETATM    3  C   UNL     1     -10.981  11.818  69.298  1.00  0.00    -0.175 A  
HETATM    4  C   UNL     1      -9.694  11.959  68.688  1.00  0.00    -0.116 A  
HETATM    5  C   UNL     1      -8.810  10.860  68.764  1.00  0.00    -0.161 A  
HETATM    6  C   UNL     1     -10.552   8.241  70.627  1.00  0.00    -0.215 C  
HETATM    7  O   UNL     1      -7.590  10.849  68.157  1.00  0.00    -0.088 OA 
HETATM    8  C   UNL     1     -12.734  10.472  70.551  1.00  0.00    -0.385 C  
HETATM    9  C   UNL     1      -9.190   9.714  69.449  1.00  0.00    -0.196 A  
HETATM   10  C   UNL     1      -8.422   8.496  69.721  1.00  0.00    -0.129 C  
HETATM   11  C   UNL     1     -11.360  10.621  69.960  1.00  0.00    -0.400 A  
HETATM   12  H   UNL     1      -6.995  10.110  68.208  1.00  0.00     0.000 HD 
HETATM   13  O   UNL     1      -7.264   8.252  69.447  1.00  0.00    -0.057 OA 
HETATM   14  C   UNL     1     -10.438   9.584  70.022  1.00  0.00    -0.283 A  
HETATM   15  O   UNL     1      -9.256   7.659  70.413  1.00  0.00    -0.156 OA 
BRANCH   4  16
HETATM   16  C   UNL     1      -9.388  13.213  67.904  1.00  0.00    -0.215 C  
BRANCH  16  17
HETATM   17  C   UNL     1      -9.787  13.340  66.468  1.00  0.00    -0.281 C  
HETATM   18  C   UNL     1     -10.187  14.466  65.848  1.00  0.00    -0.341 C  
HETATM   19  C   UNL     1     -10.099  15.840  66.463  1.00  0.00    -0.292 C  
BRANCH  18  20
HETATM   20  C   UNL     1     -10.836  14.432  64.467  1.00  0.00    -0.271 C  
BRANCH  20  21
HETATM   21  C   UNL     1     -12.281  13.926  64.402  1.00  0.00    -0.449 C  
HETATM   22  O   UNL     1     -13.024  12.333  62.745  1.00  0.00    -0.101 OA 
HETATM   23  O   UNL     1     -11.835  11.569  64.498  1.00  0.00    -0.125 OA 
HETATM   24  C   UNL     1     -12.418  12.555  63.783  1.00  0.00    -0.455 C  
ENDBRANCH  20  21
ENDBRANCH  18  20
ENDBRANCH  16  17
ENDBRANCH   4  16
ENDBRANCH   2   3
TORSDOF 5
ENDMDL
MODEL      180
REMARK 921   NORMALIZED FREE ENERGY PREDICTED BY IDOCK:   -4.16 KCAL/MOL
REMARK 922        TOTAL FREE ENERGY PREDICTED BY IDOCK:   -5.64 KCAL/MOL
REMARK 923 INTER-LIGAND FREE ENERGY PREDICTED BY IDOCK:   -5.16 KCAL/MOL
REMARK 924 INTRA-LIGAND FREE ENERGY PREDICTED BY IDOCK:   -0.48 KCAL/MOL
REMARK 927      BINDING AFFINITY PREDICTED BY RF-SCORE:    0.00 PKD
ROOT
HETATM    1  C   UNL     1     -11.521   6.555  69.830  1.00  0.00    -0.403 C  
HETATM    2  O   UNL     1     -11.354   7.869  70.353  1.00  0.00    -0.264 OA 
ENDROOT
BRANCH   2   3
HETATM    3  C   UNL     1     -10.134   8.490  70.202  1.00  0.00    -0.190 A  
HETATM    4  C   UNL     1      -9.855   9.501  69.227  1.00  0.00    -0.184 A  
HETATM    5  C   UNL     1      -8.605  10.154  69.301  1.00  0.00    -0.174 A  
HETATM    6  C   UNL     1      -6.839   8.716  72.160  1.00  0.00    -0.051 C  
HETATM    7  O   UNL     1      -8.198  11.077  68.384  1.00  0.00    -0.122 OA 
HETATM    8  C   UNL     1      -9.483   7.057  72.196  1.00  0.00    -0.150 C  
HETATM    9  C   UNL     1      -7.718   9.835  70.320  1.00  0.00    -0.187 A  
HETATM   10  C   UNL     1      -6.415  10.427  70.638  1.00  0.00    -0.032 C  
HETATM   11  C   UNL     1      -9.195   8.156  71.212  1.00  0.00    -0.193 A  
HETATM   12  H   UNL     1      -7.357  11.517  68.434  1.00  0.00     0.000 HD 
HETATM   13  O   UNL     1      -5.857  11.363  70.104  1.00  0.00    -0.109 OA 
HETATM   14  C   UNL     1      -7.992   8.850  71.246  1.00  0.00    -0.172 A  
HETATM   15  O   UNL     1      -5.934   9.742  71.723  1.00  0.00    -0.266 OA 
BRANCH   4  16
HETATM   16  C   UNL     1     -10.846   9.737  68.112  1.00  0.00    -0.264 C  
BRANCH  16  17
HETATM   17  C   UNL     1     -11.615  11.017  68.023  1.00  0.00    -0.326 C  
HETATM   18  C   UNL     1     -11.589  11.894  67.002  1.00  0.00    -0.365 C  
HETATM   19  C   UNL     1     -10.923  11.620  65.677  1.00  0.00    -0.322 C  
BRANCH  18  20
HETATM   20  C   UNL     1     -12.187  13.292  67.132  1.00  0.00    -0.281 C  
BRANCH  20  21
HETATM   21  C   UNL     1     -11.783  14.097  68.372  1.00  0.00    -0.380 C  
HETATM   22  O   UNL     1      -9.475  14.514  68.951  1.00  0.00    -0.203 OA 
HETATM   23  O   UNL     1     -10.393  15.732  67.294  1.00  0.00    -0.276 OA 
HETATM   24  C   UNL     1     -10.438  14.775  68.245  1.00  0.00    -0.241 C  
ENDBRANCH  20  21
ENDBRANCH  18  20
ENDBRANCH  16  17
ENDBRANCH   4  16
ENDBRANCH   2   3
TORSDOF 5
ENDMDL
MODEL      181
REMARK 921   NORMALIZED FREE ENERGY PREDICTED BY IDOCK:   -4.14 KCAL/MOL
REMARK 922        TOTAL FREE ENERGY PREDICTED BY IDOCK:   -5.61 KCAL/MOL
REMARK 923 INTER-LIGAND FREE ENERGY PREDICTED BY IDOCK:   -5.26 KCAL/MOL
REMARK 924 INTRA-LIGAND FREE ENERGY PREDICTED BY IDOCK:   -0.35 KCAL/MOL
REMARK 927      BINDING AFFINITY PREDICTED BY RF-SCORE:    0.00 PKD
ROOT
HETATM    1  C   UNL     1     -11.703  11.749  69.036  1.00  0.00    -0.328 C  
HETATM    2  O   UNL     1     -11.938  11.035  67.826  1.00  0.00    -0.609 OA 
ENDROOT
BRANCH   2   3
HETATM    3  C   UNL     1     -10.951  10.202  67.348  1.00  0.00    -0.229 A  
HETATM    4  C   UNL     1     -10.692   8.885  67.846  1.00  0.00    -0.185 A  
HETATM    5  C   UNL     1      -9.752   8.095  67.149  1.00  0.00    -0.199 A  
HETATM    6  C   UNL     1      -8.571  10.109  64.336  1.00  0.00    -0.191 C  
HETATM    7  O   UNL     1      -9.368   6.857  67.572  1.00  0.00    -0.122 OA 
HETATM    8  C   UNL     1     -10.539  12.102  65.714  1.00  0.00    -0.295 C  
HETATM    9  C   UNL     1      -9.149   8.590  66.001  1.00  0.00    -0.246 A  
HETATM   10  C   UNL     1      -8.215   7.932  65.083  1.00  0.00    -0.141 C  
HETATM   11  C   UNL     1     -10.293  10.699  66.193  1.00  0.00    -0.291 A  
HETATM   12  H   UNL     1      -8.736   6.325  67.103  1.00  0.00     0.000 HD 
HETATM   13  O   UNL     1      -7.809   6.788  65.106  1.00  0.00    -0.105 OA 
HETATM   14  C   UNL     1      -9.396   9.866  65.538  1.00  0.00    -0.280 A  
HETATM   15  O   UNL     1      -7.901   8.856  64.122  1.00  0.00    -0.121 OA 
BRANCH   4  16
HETATM   16  C   UNL     1     -11.338   8.451  69.141  1.00  0.00     0.487 C  
BRANCH  16  17
HETATM   17  C   UNL     1     -10.510   8.089  70.332  1.00  0.00    -0.218 C  
HETATM   18  C   UNL     1     -10.838   8.287  71.622  1.00  0.00    -0.320 C  
HETATM   19  C   UNL     1     -12.205   8.728  72.082  1.00  0.00    -0.448 C  
BRANCH  18  20
HETATM   20  C   UNL     1      -9.811   8.141  72.742  1.00  0.00    -0.353 C  
BRANCH  20  21
HETATM   21  C   UNL     1     -10.061   7.021  73.759  1.00  0.00    -0.390 C  
HETATM   22  O   UNL     1     -11.500   5.139  73.285  1.00  0.00    -0.317 OA 
HETATM   23  O   UNL     1      -9.435   5.153  72.386  1.00  0.00    -0.142 OA 
HETATM   24  C   UNL     1     -10.424   5.697  73.127  1.00  0.00    -0.221 C  
ENDBRANCH  20  21
ENDBRANCH  18  20
ENDBRANCH  16  17
ENDBRANCH   4  16
ENDBRANCH   2   3
TORSDOF 5
ENDMDL
MODEL      182
REMARK 921   NORMALIZED FREE ENERGY PREDICTED BY IDOCK:   -4.14 KCAL/MOL
REMARK 922        TOTAL FREE ENERGY PREDICTED BY IDOCK:   -5.61 KCAL/MOL
REMARK 923 INTER-LIGAND FREE ENERGY PREDICTED BY IDOCK:   -5.28 KCAL/MOL
REMARK 924 INTRA-LIGAND FREE ENERGY PREDICTED BY IDOCK:   -0.33 KCAL/MOL
REMARK 927      BINDING AFFINITY PREDICTED BY RF-SCORE:    0.00 PKD
ROOT
HETATM    1  C   UNL     1      -7.639  16.661  67.699  1.00  0.00    -0.153 C  
HETATM    2  O   UNL     1      -8.994  16.304  67.949  1.00  0.00    -0.186 OA 
ENDROOT
BRANCH   2   3
HETATM    3  C   UNL     1      -9.622  15.440  67.079  1.00  0.00    -0.218 A  
HETATM    4  C   UNL     1      -9.680  14.020  67.248  1.00  0.00    -0.237 A  
HETATM    5  C   UNL     1     -10.494  13.287  66.357  1.00  0.00    -0.284 A  
HETATM    6  C   UNL     1     -12.015  15.716  64.088  1.00  0.00    -0.039 C  
HETATM    7  O   UNL     1     -10.569  11.926  66.373  1.00  0.00    -0.233 OA 
HETATM    8  C   UNL     1     -10.245  17.580  65.859  1.00  0.00    -0.251 C  
HETATM    9  C   UNL     1     -11.232  13.953  65.388  1.00  0.00    -0.306 A  
HETATM   10  C   UNL     1     -12.190  13.417  64.417  1.00  0.00    -0.389 C  
HETATM   11  C   UNL     1     -10.357  16.094  66.055  1.00  0.00    -0.372 A  
HETATM   12  H   UNL     1     -11.116  11.432  65.773  1.00  0.00     0.000 HD 
HETATM   13  O   UNL     1     -12.583  12.275  64.290  1.00  0.00    -0.505 OA 
HETATM   14  C   UNL     1     -11.158  15.321  65.225  1.00  0.00    -0.382 A  
HETATM   15  O   UNL     1     -12.626  14.483  63.675  1.00  0.00    -0.798 OA 
BRANCH   4  16
HETATM   16  C   UNL     1      -8.792  13.368  68.282  1.00  0.00    -0.172 C  
BRANCH  16  17
HETATM   17  C   UNL     1      -7.854  12.266  67.907  1.00  0.00    -0.146 C  
HETATM   18  C   UNL     1      -7.917  10.988  68.322  1.00  0.00    -0.124 C  
HETATM   19  C   UNL     1      -9.083  10.410  69.085  1.00  0.00    -0.197 C  
BRANCH  18  20
HETATM   20  C   UNL     1      -6.759  10.017  68.108  1.00  0.00    -0.059 C  
BRANCH  20  21
HETATM   21  C   UNL     1      -5.893  10.249  66.865  1.00  0.00    -0.051 C  
HETATM   22  O   UNL     1      -5.223   8.451  65.397  1.00  0.00    -0.034 OA 
HETATM   23  O   UNL     1      -7.331   9.226  65.236  1.00  0.00    -0.091 OA 
HETATM   24  C   UNL     1      -6.096   9.216  65.781  1.00  0.00    -0.055 C  
ENDBRANCH  20  21
ENDBRANCH  18  20
ENDBRANCH  16  17
ENDBRANCH   4  16
ENDBRANCH   2   3
TORSDOF 5
ENDMDL
MODEL      183
REMARK 921   NORMALIZED FREE ENERGY PREDICTED BY IDOCK:   -4.12 KCAL/MOL
REMARK 922        TOTAL FREE ENERGY PREDICTED BY IDOCK:   -5.59 KCAL/MOL
REMARK 923 INTER-LIGAND FREE ENERGY PREDICTED BY IDOCK:   -6.07 KCAL/MOL
REMARK 924 INTRA-LIGAND FREE ENERGY PREDICTED BY IDOCK:    0.48 KCAL/MOL
REMARK 927      BINDING AFFINITY PREDICTED BY RF-SCORE:    0.00 PKD
ROOT
HETATM    1  C   UNL     1     -11.148  14.136  68.870  1.00  0.00    -0.263 C  
HETATM    2  O   UNL     1     -12.189  13.227  69.214  1.00  0.00    -0.268 OA 
ENDROOT
BRANCH   2   3
HETATM    3  C   UNL     1     -11.890  11.886  69.311  1.00  0.00    -0.318 A  
HETATM    4  C   UNL     1     -11.305  11.109  68.261  1.00  0.00    -0.365 A  
HETATM    5  C   UNL     1     -10.913   9.786  68.566  1.00  0.00    -0.149 A  
HETATM    6  C   UNL     1     -11.703   9.248  72.095  1.00  0.00    -0.146 C  
HETATM    7  O   UNL     1     -10.416   8.928  67.632  1.00  0.00    -0.246 OA 
HETATM    8  C   UNL     1     -12.731  12.167  71.692  1.00  0.00    -0.314 C  
HETATM    9  C   UNL     1     -11.064   9.302  69.858  1.00  0.00    -0.200 A  
HETATM   10  C   UNL     1     -10.663   8.008  70.419  1.00  0.00    -0.233 C  
HETATM   11  C   UNL     1     -12.069  11.355  70.615  1.00  0.00    -0.469 A  
HETATM   12  H   UNL     1     -10.152   8.039  67.837  1.00  0.00     0.000 HD 
HETATM   13  O   UNL     1     -10.063   7.101  69.880  1.00  0.00    -0.187 OA 
HETATM   14  C   UNL     1     -11.641  10.056  70.859  1.00  0.00    -0.463 A  
HETATM   15  O   UNL     1     -11.056   8.017  71.732  1.00  0.00    -0.242 OA 
BRANCH   4  16
HETATM   16  C   UNL     1     -11.242  11.688  66.868  1.00  0.00    -0.376 C  
BRANCH  16  17
HETATM   17  C   UNL     1     -10.515  10.979  65.771  1.00  0.00    -0.290 C  
HETATM   18  C   UNL     1     -10.315  11.434  64.520  1.00  0.00    -0.369 C  
HETATM   19  C   UNL     1     -10.625  12.844  64.081  1.00  0.00    -0.442 C  
BRANCH  18  20
HETATM   20  C   UNL     1      -9.811  10.521  63.405  1.00  0.00    -0.323 C  
BRANCH  20  21
HETATM   21  C   UNL     1      -8.823   9.423  63.814  1.00  0.00    -0.201 C  
HETATM   22  O   UNL     1      -6.458   9.565  63.342  1.00  0.00    -0.096 OA 
HETATM   23  O   UNL     1      -7.277  10.782  65.052  1.00  0.00     0.028 OA 
HETATM   24  C   UNL     1      -7.412   9.921  64.020  1.00  0.00    -0.135 C  
ENDBRANCH  20  21
ENDBRANCH  18  20
ENDBRANCH  16  17
ENDBRANCH   4  16
ENDBRANCH   2   3
TORSDOF 5
ENDMDL
MODEL      184
REMARK 921   NORMALIZED FREE ENERGY PREDICTED BY IDOCK:   -4.09 KCAL/MOL
REMARK 922        TOTAL FREE ENERGY PREDICTED BY IDOCK:   -5.55 KCAL/MOL
REMARK 923 INTER-LIGAND FREE ENERGY PREDICTED BY IDOCK:   -5.94 KCAL/MOL
REMARK 924 INTRA-LIGAND FREE ENERGY PREDICTED BY IDOCK:    0.38 KCAL/MOL
REMARK 927      BINDING AFFINITY PREDICTED BY RF-SCORE:    0.00 PKD
ROOT
HETATM    1  C   UNL     1      -8.731   8.897  66.749  1.00  0.00    -0.119 C  
HETATM    2  O   UNL     1     -10.147   8.946  66.890  1.00  0.00    -0.224 OA 
ENDROOT
BRANCH   2   3
HETATM    3  C   UNL     1     -10.725  10.104  67.362  1.00  0.00    -0.277 A  
HETATM    4  C   UNL     1     -10.995  10.369  68.742  1.00  0.00    -0.287 A  
HETATM    5  C   UNL     1     -11.444  11.664  69.085  1.00  0.00    -0.300 A  
HETATM    6  C   UNL     1     -11.584  13.579  65.974  1.00  0.00    -0.338 C  
HETATM    7  O   UNL     1     -11.805  12.011  70.352  1.00  0.00    -0.470 OA 
HETATM    8  C   UNL     1     -10.656  10.792  64.918  1.00  0.00    -0.258 C  
HETATM    9  C   UNL     1     -11.567  12.634  68.100  1.00  0.00    -0.386 A  
HETATM   10  C   UNL     1     -11.935  14.048  68.228  1.00  0.00    -0.349 C  
HETATM   11  C   UNL     1     -10.895  11.103  66.369  1.00  0.00    -0.284 A  
HETATM   12  H   UNL     1     -12.106  12.881  70.583  1.00  0.00     0.000 HD 
HETATM   13  O   UNL     1     -12.160  14.684  69.238  1.00  0.00    -0.310 OA 
HETATM   14  C   UNL     1     -11.317  12.364  66.771  1.00  0.00    -0.391 A  
HETATM   15  O   UNL     1     -11.933  14.565  66.960  1.00  0.00    -0.404 OA 
BRANCH   4  16
HETATM   16  C   UNL     1     -10.902   9.237  69.739  1.00  0.00    -0.239 C  
BRANCH  16  17
HETATM   17  C   UNL     1      -9.576   8.747  70.225  1.00  0.00    -0.198 C  
HETATM   18  C   UNL     1      -9.097   7.494  70.113  1.00  0.00    -0.147 C  
HETATM   19  C   UNL     1      -9.753   6.416  69.285  1.00  0.00    -0.150 C  
BRANCH  18  20
HETATM   20  C   UNL     1      -7.864   7.034  70.886  1.00  0.00    -0.096 C  
BRANCH  20  21
HETATM   21  C   UNL     1      -8.054   6.765  72.383  1.00  0.00    -0.102 C  
HETATM   22  O   UNL     1      -9.766   7.860  73.689  1.00  0.00    -0.273 OA 
HETATM   23  O   UNL     1     -10.379   6.164  72.339  1.00  0.00    -0.187 OA 
HETATM   24  C   UNL     1      -9.465   7.005  72.868  1.00  0.00    -0.146 C  
ENDBRANCH  20  21
ENDBRANCH  18  20
ENDBRANCH  16  17
ENDBRANCH   4  16
ENDBRANCH   2   3
TORSDOF 5
ENDMDL
MODEL      185
REMARK 921   NORMALIZED FREE ENERGY PREDICTED BY IDOCK:   -4.09 KCAL/MOL
REMARK 922        TOTAL FREE ENERGY PREDICTED BY IDOCK:   -5.54 KCAL/MOL
REMARK 923 INTER-LIGAND FREE ENERGY PREDICTED BY IDOCK:   -4.93 KCAL/MOL
REMARK 924 INTRA-LIGAND FREE ENERGY PREDICTED BY IDOCK:   -0.61 KCAL/MOL
REMARK 927      BINDING AFFINITY PREDICTED BY RF-SCORE:    0.00 PKD
ROOT
HETATM    1  C   UNL     1      -9.524   7.497  71.098  1.00  0.00    -0.158 C  
HETATM    2  O   UNL     1     -10.643   8.004  70.378  1.00  0.00    -0.216 OA 
ENDROOT
BRANCH   2   3
HETATM    3  C   UNL     1     -10.887   9.359  70.404  1.00  0.00    -0.269 A  
HETATM    4  C   UNL     1     -10.262  10.310  69.536  1.00  0.00    -0.261 A  
HETATM    5  C   UNL     1     -10.732  11.642  69.577  1.00  0.00     0.052 A  
HETATM    6  C   UNL     1     -13.434  11.722  72.038  1.00  0.00    -0.214 C  
HETATM    7  O   UNL     1     -10.166  12.649  68.854  1.00  0.00    -0.405 OA 
HETATM    8  C   UNL     1     -12.553   8.733  72.216  1.00  0.00    -0.460 C  
HETATM    9  C   UNL     1     -11.791  11.974  70.410  1.00  0.00    -0.302 A  
HETATM   10  C   UNL     1     -12.489  13.255  70.561  1.00  0.00    -0.260 C  
HETATM   11  C   UNL     1     -11.943   9.733  71.274  1.00  0.00    -0.471 A  
HETATM   12  H   UNL     1     -10.482  13.544  68.881  1.00  0.00     0.000 HD 
HETATM   13  O   UNL     1     -12.319  14.288  69.946  1.00  0.00    -0.332 OA 
HETATM   14  C   UNL     1     -12.377  11.052  71.252  1.00  0.00    -0.426 A  
HETATM   15  O   UNL     1     -13.444  13.064  71.524  1.00  0.00    -0.273 OA 
BRANCH   4  16
HETATM   16  C   UNL     1      -9.070   9.880  68.713  1.00  0.00    -0.147 C  
BRANCH  16  17
HETATM   17  C   UNL     1      -9.240   9.386  67.312  1.00  0.00    -0.151 C  
HETATM   18  C   UNL     1      -8.742   8.244  66.803  1.00  0.00    -0.143 C  
HETATM   19  C   UNL     1      -8.094   7.166  67.636  1.00  0.00    -0.114 C  
BRANCH  18  20
HETATM   20  C   UNL     1      -8.735   7.971  65.301  1.00  0.00    -0.062 C  
BRANCH  20  21
HETATM   21  C   UNL     1      -7.887   8.913  64.439  1.00  0.00    -0.128 C  
HETATM   22  O   UNL     1      -6.063  10.212  65.347  1.00  0.00    -0.084 OA 
HETATM   23  O   UNL     1      -5.721   8.018  64.965  1.00  0.00    -0.043 OA 
HETATM   24  C   UNL     1      -6.489   9.129  64.971  1.00  0.00    -0.066 C  
ENDBRANCH  20  21
ENDBRANCH  18  20
ENDBRANCH  16  17
ENDBRANCH   4  16
ENDBRANCH   2   3
TORSDOF 5
ENDMDL
MODEL      186
REMARK 921   NORMALIZED FREE ENERGY PREDICTED BY IDOCK:   -4.05 KCAL/MOL
REMARK 922        TOTAL FREE ENERGY PREDICTED BY IDOCK:   -5.50 KCAL/MOL
REMARK 923 INTER-LIGAND FREE ENERGY PREDICTED BY IDOCK:   -5.28 KCAL/MOL
REMARK 924 INTRA-LIGAND FREE ENERGY PREDICTED BY IDOCK:   -0.22 KCAL/MOL
REMARK 927      BINDING AFFINITY PREDICTED BY RF-SCORE:    0.00 PKD
ROOT
HETATM    1  C   UNL     1      -8.702  13.292  68.184  1.00  0.00    -0.179 C  
HETATM    2  O   UNL     1      -9.699  12.386  67.721  1.00  0.00    -0.190 OA 
ENDROOT
BRANCH   2   3
HETATM    3  C   UNL     1     -10.211  11.460  68.602  1.00  0.00    -0.208 A  
HETATM    4  C   UNL     1      -9.586  10.212  68.919  1.00  0.00    -0.186 A  
HETATM    5  C   UNL     1     -10.152   9.441  69.959  1.00  0.00    -0.226 A  
HETATM    6  C   UNL     1     -13.014  11.331  71.224  1.00  0.00    -0.327 C  
HETATM    7  O   UNL     1      -9.692   8.204  70.298  1.00  0.00    -0.174 OA 
HETATM    8  C   UNL     1     -12.029  13.204  68.928  1.00  0.00    -0.317 C  
HETATM    9  C   UNL     1     -11.249   9.925  70.658  1.00  0.00    -0.416 A  
HETATM   10  C   UNL     1     -11.948   9.345  71.809  1.00  0.00    -0.382 C  
HETATM   11  C   UNL     1     -11.356  11.915  69.308  1.00  0.00    -0.338 A  
HETATM   12  H   UNL     1     -10.072   7.686  70.997  1.00  0.00     0.000 HD 
HETATM   13  O   UNL     1     -11.679   8.338  72.430  1.00  0.00    -0.362 OA 
HETATM   14  C   UNL     1     -11.852  11.123  70.335  1.00  0.00    -0.462 A  
HETATM   15  O   UNL     1     -12.975  10.200  72.109  1.00  0.00    -0.415 OA 
BRANCH   4  16
HETATM   16  C   UNL     1      -8.439   9.728  68.063  1.00  0.00    -0.118 C  
BRANCH  16  17
HETATM   17  C   UNL     1      -8.539   9.727  66.571  1.00  0.00    -0.135 C  
HETATM   18  C   UNL     1      -8.704   8.649  65.783  1.00  0.00    -0.212 C  
HETATM   19  C   UNL     1      -9.024   7.270  66.303  1.00  0.00    -0.185 C  
BRANCH  18  20
HETATM   20  C   UNL     1      -8.513   8.724  64.270  1.00  0.00    -0.130 C  
BRANCH  20  21
HETATM   21  C   UNL     1      -7.225   8.108  63.712  1.00  0.00    -0.095 C  
HETATM   22  O   UNL     1      -5.456   9.446  62.756  1.00  0.00    -0.082 OA 
HETATM   23  O   UNL     1      -5.641   9.373  65.000  1.00  0.00    -0.055 OA 
HETATM   24  C   UNL     1      -6.038   9.041  63.752  1.00  0.00    -0.083 C  
ENDBRANCH  20  21
ENDBRANCH  18  20
ENDBRANCH  16  17
ENDBRANCH   4  16
ENDBRANCH   2   3
TORSDOF 5
ENDMDL
MODEL      187
REMARK 921   NORMALIZED FREE ENERGY PREDICTED BY IDOCK:   -3.99 KCAL/MOL
REMARK 922        TOTAL FREE ENERGY PREDICTED BY IDOCK:   -5.42 KCAL/MOL
REMARK 923 INTER-LIGAND FREE ENERGY PREDICTED BY IDOCK:   -5.09 KCAL/MOL
REMARK 924 INTRA-LIGAND FREE ENERGY PREDICTED BY IDOCK:   -0.33 KCAL/MOL
REMARK 927      BINDING AFFINITY PREDICTED BY RF-SCORE:    0.00 PKD
ROOT
HETATM    1  C   UNL     1      -7.164   8.046  66.851  1.00  0.00    -0.082 C  
HETATM    2  O   UNL     1      -8.072   6.968  67.052  1.00  0.00    -0.114 OA 
ENDROOT
BRANCH   2   3
HETATM    3  C   UNL     1      -8.800   6.927  68.220  1.00  0.00    -0.122 A  
HETATM    4  C   UNL     1     -10.028   7.631  68.434  1.00  0.00    -0.192 A  
HETATM    5  C   UNL     1     -10.738   7.364  69.626  1.00  0.00    -0.235 A  
HETATM    6  C   UNL     1      -8.809   4.852  71.452  1.00  0.00    -0.133 C  
HETATM    7  O   UNL     1     -11.876   8.028  69.973  1.00  0.00    -0.436 OA 
HETATM    8  C   UNL     1      -6.995   5.296  68.951  1.00  0.00    -0.056 C  
HETATM    9  C   UNL     1     -10.257   6.416  70.517  1.00  0.00    -0.230 A  
HETATM   10  C   UNL     1     -10.854   5.923  71.762  1.00  0.00    -0.260 C  
HETATM   11  C   UNL     1      -8.311   5.989  69.166  1.00  0.00    -0.114 A  
HETATM   12  H   UNL     1     -12.354   7.848  70.774  1.00  0.00     0.000 HD 
HETATM   13  O   UNL     1     -11.929   6.206  72.252  1.00  0.00    -0.318 OA 
HETATM   14  C   UNL     1      -9.066   5.752  70.308  1.00  0.00    -0.160 A  
HETATM   15  O   UNL     1      -9.974   5.009  72.278  1.00  0.00    -0.170 OA 
BRANCH   4  16
HETATM   16  C   UNL     1     -10.443   8.697  67.447  1.00  0.00    -0.351 C  
BRANCH  16  17
HETATM   17  C   UNL     1     -10.978  10.013  67.914  1.00  0.00    -0.311 C  
HETATM   18  C   UNL     1     -10.257  11.041  68.399  1.00  0.00    -0.198 C  
HETATM   19  C   UNL     1      -8.751  11.102  68.359  1.00  0.00    -0.157 C  
BRANCH  18  20
HETATM   20  C   UNL     1     -10.919  12.222  69.104  1.00  0.00    -0.217 C  
BRANCH  20  21
HETATM   21  C   UNL     1     -10.595  13.616  68.554  1.00  0.00    -0.259 C  
HETATM   22  O   UNL     1     -10.083  14.004  66.225  1.00  0.00    -0.282 OA 
HETATM   23  O   UNL     1     -12.238  13.695  66.804  1.00  0.00    -0.406 OA 
HETATM   24  C   UNL     1     -10.921  13.781  67.088  1.00  0.00    -0.290 C  
ENDBRANCH  20  21
ENDBRANCH  18  20
ENDBRANCH  16  17
ENDBRANCH   4  16
ENDBRANCH   2   3
TORSDOF 5
ENDMDL
MODEL      188
REMARK 921   NORMALIZED FREE ENERGY PREDICTED BY IDOCK:   -3.99 KCAL/MOL
REMARK 922        TOTAL FREE ENERGY PREDICTED BY IDOCK:   -5.42 KCAL/MOL
REMARK 923 INTER-LIGAND FREE ENERGY PREDICTED BY IDOCK:   -5.00 KCAL/MOL
REMARK 924 INTRA-LIGAND FREE ENERGY PREDICTED BY IDOCK:   -0.42 KCAL/MOL
REMARK 927      BINDING AFFINITY PREDICTED BY RF-SCORE:    0.00 PKD
ROOT
HETATM    1  C   UNL     1     -12.464   6.852  71.615  1.00  0.00    -0.375 C  
HETATM    2  O   UNL     1     -11.497   6.699  70.580  1.00  0.00    -0.317 OA 
ENDROOT
BRANCH   2   3
HETATM    3  C   UNL     1     -10.244   7.243  70.761  1.00  0.00    -0.197 A  
HETATM    4  C   UNL     1      -9.872   8.568  70.366  1.00  0.00    -0.198 A  
HETATM    5  C   UNL     1      -8.599   9.036  70.761  1.00  0.00    -0.217 A  
HETATM    6  C   UNL     1      -7.043   6.342  72.681  1.00  0.00    -0.079 C  
HETATM    7  O   UNL     1      -8.106  10.248  70.381  1.00  0.00    -0.410 OA 
HETATM    8  C   UNL     1      -9.757   5.019  71.888  1.00  0.00    -0.212 C  
HETATM    9  C   UNL     1      -7.779   8.231  71.540  1.00  0.00    -0.114 A  
HETATM   10  C   UNL     1      -6.468   8.529  72.125  1.00  0.00    -0.076 C  
HETATM   11  C   UNL     1      -9.371   6.426  71.525  1.00  0.00    -0.152 A  
HETATM   12  H   UNL     1      -7.250  10.563  70.647  1.00  0.00     0.000 HD 
HETATM   13  O   UNL     1      -5.843   9.570  72.095  1.00  0.00    -0.235 OA 
HETATM   14  C   UNL     1      -8.142   6.951  71.903  1.00  0.00    -0.100 A  
HETATM   15  O   UNL     1      -6.073   7.396  72.785  1.00  0.00    -0.050 OA 
BRANCH   4  16
HETATM   16  C   UNL     1     -10.795   9.350  69.461  1.00  0.00    -0.231 C  
BRANCH  16  17
HETATM   17  C   UNL     1     -10.493   9.509  68.006  1.00  0.00    -0.279 C  
HETATM   18  C   UNL     1     -10.287  10.669  67.355  1.00  0.00    -0.262 C  
HETATM   19  C   UNL     1     -10.127  12.001  68.045  1.00  0.00    -0.199 C  
BRANCH  18  20
HETATM   20  C   UNL     1     -10.266  10.741  65.831  1.00  0.00    -0.319 C  
BRANCH  20  21
HETATM   21  C   UNL     1      -8.900  10.571  65.157  1.00  0.00    -0.206 C  
HETATM   22  O   UNL     1      -8.639   9.495  63.009  1.00  0.00    -0.187 OA 
HETATM   23  O   UNL     1      -9.412  11.610  63.053  1.00  0.00    -0.368 OA 
HETATM   24  C   UNL     1      -8.973  10.481  63.650  1.00  0.00    -0.218 C  
ENDBRANCH  20  21
ENDBRANCH  18  20
ENDBRANCH  16  17
ENDBRANCH   4  16
ENDBRANCH   2   3
TORSDOF 5
ENDMDL
MODEL      189
REMARK 921   NORMALIZED FREE ENERGY PREDICTED BY IDOCK:   -3.97 KCAL/MOL
REMARK 922        TOTAL FREE ENERGY PREDICTED BY IDOCK:   -5.39 KCAL/MOL
REMARK 923 INTER-LIGAND FREE ENERGY PREDICTED BY IDOCK:   -4.79 KCAL/MOL
REMARK 924 INTRA-LIGAND FREE ENERGY PREDICTED BY IDOCK:   -0.60 KCAL/MOL
REMARK 927      BINDING AFFINITY PREDICTED BY RF-SCORE:    0.00 PKD
ROOT
HETATM    1  C   UNL     1     -10.431   5.967  70.679  1.00  0.00    -0.246 C  
HETATM    2  O   UNL     1      -9.645   7.145  70.832  1.00  0.00    -0.167 OA 
ENDROOT
BRANCH   2   3
HETATM    3  C   UNL     1      -9.814   8.173  69.932  1.00  0.00    -0.186 A  
HETATM    4  C   UNL     1      -9.169   8.247  68.656  1.00  0.00    -0.143 A  
HETATM    5  C   UNL     1      -9.564   9.283  67.781  1.00  0.00    -0.142 A  
HETATM    6  C   UNL     1     -12.172  11.174  69.508  1.00  0.00    -0.277 C  
HETATM    7  O   UNL     1      -8.970   9.498  66.573  1.00  0.00    -0.142 OA 
HETATM    8  C   UNL     1     -11.449   9.042  71.671  1.00  0.00    -0.431 C  
HETATM    9  C   UNL     1     -10.575  10.156  68.157  1.00  0.00    -0.262 A  
HETATM   10  C   UNL     1     -11.197  11.243  67.395  1.00  0.00    -0.303 C  
HETATM   11  C   UNL     1     -10.819   9.103  70.308  1.00  0.00    -0.282 A  
HETATM   12  H   UNL     1      -9.236  10.195  65.985  1.00  0.00     0.000 HD 
HETATM   13  O   UNL     1     -10.992  11.577  66.246  1.00  0.00    -0.285 OA 
HETATM   14  C   UNL     1     -11.181  10.085  69.395  1.00  0.00    -0.235 A  
HETATM   15  O   UNL     1     -12.127  11.814  68.223  1.00  0.00    -0.525 OA 
BRANCH   4  16
HETATM   16  C   UNL     1      -8.031   7.300  68.354  1.00  0.00    -0.124 C  
BRANCH  16  17
HETATM   17  C   UNL     1      -8.201   6.177  67.382  1.00  0.00    -0.109 C  
HETATM   18  C   UNL     1      -7.693   6.114  66.137  1.00  0.00    -0.099 C  
HETATM   19  C   UNL     1      -6.686   7.096  65.592  1.00  0.00    -0.052 C  
BRANCH  18  20
HETATM   20  C   UNL     1      -8.155   5.060  65.134  1.00  0.00    -0.112 C  
BRANCH  20  21
HETATM   21  C   UNL     1      -9.516   4.409  65.404  1.00  0.00    -0.175 C  
HETATM   22  O   UNL     1     -10.683   3.106  63.737  1.00  0.00    -0.239 OA 
HETATM   23  O   UNL     1      -8.950   2.151  64.814  1.00  0.00    -0.113 OA 
HETATM   24  C   UNL     1      -9.782   3.184  64.560  1.00  0.00    -0.143 C  
ENDBRANCH  20  21
ENDBRANCH  18  20
ENDBRANCH  16  17
ENDBRANCH   4  16
ENDBRANCH   2   3
TORSDOF 5
ENDMDL
MODEL      190
REMARK 921   NORMALIZED FREE ENERGY PREDICTED BY IDOCK:   -3.96 KCAL/MOL
REMARK 922        TOTAL FREE ENERGY PREDICTED BY IDOCK:   -5.38 KCAL/MOL
REMARK 923 INTER-LIGAND FREE ENERGY PREDICTED BY IDOCK:   -4.92 KCAL/MOL
REMARK 924 INTRA-LIGAND FREE ENERGY PREDICTED BY IDOCK:   -0.46 KCAL/MOL
REMARK 927      BINDING AFFINITY PREDICTED BY RF-SCORE:    0.00 PKD
ROOT
HETATM    1  C   UNL     1     -11.807  12.762  69.617  1.00  0.00    -0.317 C  
HETATM    2  O   UNL     1     -11.570  11.481  69.041  1.00  0.00    -0.259 OA 
ENDROOT
BRANCH   2   3
HETATM    3  C   UNL     1     -10.915  10.530  69.792  1.00  0.00    -0.294 A  
HETATM    4  C   UNL     1      -9.497  10.333  69.791  1.00  0.00    -0.128 A  
HETATM    5  C   UNL     1      -8.961   9.426  70.731  1.00  0.00    -0.191 A  
HETATM    6  C   UNL     1     -11.781   8.141  72.671  1.00  0.00    -0.355 C  
HETATM    7  O   UNL     1      -7.639   9.101  70.775  1.00  0.00    -0.109 OA 
HETATM    8  C   UNL     1     -13.248  10.024  70.659  1.00  0.00    -0.174 C  
HETATM    9  C   UNL     1      -9.802   8.796  71.639  1.00  0.00    -0.378 A  
HETATM   10  C   UNL     1      -9.468   7.887  72.740  1.00  0.00    -0.241 C  
HETATM   11  C   UNL     1     -11.757   9.844  70.706  1.00  0.00    -0.424 A  
HETATM   12  H   UNL     1      -7.278   8.491  71.407  1.00  0.00     0.000 HD 
HETATM   13  O   UNL     1      -8.372   7.534  73.125  1.00  0.00    -0.109 OA 
HETATM   14  C   UNL     1     -11.168   8.983  71.622  1.00  0.00    -0.431 A  
HETATM   15  O   UNL     1     -10.656   7.527  73.319  1.00  0.00    -0.356 OA 
BRANCH   4  16
HETATM   16  C   UNL     1      -8.665  11.006  68.725  1.00  0.00    -0.146 C  
BRANCH  16  17
HETATM   17  C   UNL     1      -7.915  10.201  67.712  1.00  0.00    -0.102 C  
HETATM   18  C   UNL     1      -8.447   9.522  66.679  1.00  0.00    -0.136 C  
HETATM   19  C   UNL     1      -9.890   9.633  66.256  1.00  0.00    -0.323 C  
BRANCH  18  20
HETATM   20  C   UNL     1      -7.630   8.512  65.877  1.00  0.00    -0.085 C  
BRANCH  20  21
HETATM   21  C   UNL     1      -7.518   7.101  66.465  1.00  0.00    -0.088 C  
HETATM   22  O   UNL     1      -8.658   5.201  65.501  1.00  0.00    -0.131 OA 
HETATM   23  O   UNL     1      -6.792   5.950  64.486  1.00  0.00    -0.048 OA 
HETATM   24  C   UNL     1      -7.735   6.002  65.451  1.00  0.00    -0.091 C  
ENDBRANCH  20  21
ENDBRANCH  18  20
ENDBRANCH  16  17
ENDBRANCH   4  16
ENDBRANCH   2   3
TORSDOF 5
ENDMDL
MODEL      191
REMARK 921   NORMALIZED FREE ENERGY PREDICTED BY IDOCK:   -3.96 KCAL/MOL
REMARK 922        TOTAL FREE ENERGY PREDICTED BY IDOCK:   -5.38 KCAL/MOL
REMARK 923 INTER-LIGAND FREE ENERGY PREDICTED BY IDOCK:   -5.03 KCAL/MOL
REMARK 924 INTRA-LIGAND FREE ENERGY PREDICTED BY IDOCK:   -0.35 KCAL/MOL
REMARK 927      BINDING AFFINITY PREDICTED BY RF-SCORE:    0.00 PKD
ROOT
HETATM    1  C   UNL     1      -6.809  10.631  68.789  1.00  0.00    -0.062 C  
HETATM    2  O   UNL     1      -7.598  11.735  69.224  1.00  0.00     0.010 OA 
ENDROOT
BRANCH   2   3
HETATM    3  C   UNL     1      -8.643  12.153  68.431  1.00  0.00    -0.141 A  
HETATM    4  C   UNL     1      -9.967  11.611  68.483  1.00  0.00    -0.198 A  
HETATM    5  C   UNL     1     -10.968  12.252  67.719  1.00  0.00    -0.232 A  
HETATM    6  C   UNL     1      -9.358  15.072  66.040  1.00  0.00    -0.269 C  
HETATM    7  O   UNL     1     -12.244  11.783  67.631  1.00  0.00    -0.534 OA 
HETATM    8  C   UNL     1      -6.936  13.821  67.561  1.00  0.00    -0.161 C  
HETATM    9  C   UNL     1     -10.656  13.390  66.988  1.00  0.00    -0.264 A  
HETATM   10  C   UNL     1     -11.533  14.255  66.194  1.00  0.00    -0.355 C  
HETATM   11  C   UNL     1      -8.341  13.296  67.644  1.00  0.00    -0.181 A  
HETATM   12  H   UNL     1     -12.917  12.214  67.117  1.00  0.00     0.000 HD 
HETATM   13  O   UNL     1     -12.737  14.188  66.052  1.00  0.00    -0.469 OA 
HETATM   14  C   UNL     1      -9.373  13.896  66.934  1.00  0.00    -0.265 A  
HETATM   15  O   UNL     1     -10.733  15.228  65.656  1.00  0.00    -0.325 OA 
BRANCH   4  16
HETATM   16  C   UNL     1     -10.205  10.331  69.248  1.00  0.00    -0.244 C  
BRANCH  16  17
HETATM   17  C   UNL     1     -10.431   9.037  68.533  1.00  0.00    -0.232 C  
HETATM   18  C   UNL     1      -9.824   7.864  68.794  1.00  0.00    -0.171 C  
HETATM   19  C   UNL     1      -8.955   7.620  70.002  1.00  0.00    -0.143 C  
BRANCH  18  20
HETATM   20  C   UNL     1      -9.917   6.682  67.833  1.00  0.00    -0.152 C  
BRANCH  20  21
HETATM   21  C   UNL     1      -8.930   5.532  68.065  1.00  0.00    -0.108 C  
HETATM   22  O   UNL     1      -9.652   3.309  68.677  1.00  0.00    -0.164 OA 
HETATM   23  O   UNL     1      -9.870   3.945  66.527  1.00  0.00    -0.198 OA 
HETATM   24  C   UNL     1      -9.521   4.165  67.813  1.00  0.00    -0.175 C  
ENDBRANCH  20  21
ENDBRANCH  18  20
ENDBRANCH  16  17
ENDBRANCH   4  16
ENDBRANCH   2   3
TORSDOF 5
ENDMDL
MODEL      192
REMARK 921   NORMALIZED FREE ENERGY PREDICTED BY IDOCK:   -3.93 KCAL/MOL
REMARK 922        TOTAL FREE ENERGY PREDICTED BY IDOCK:   -5.34 KCAL/MOL
REMARK 923 INTER-LIGAND FREE ENERGY PREDICTED BY IDOCK:   -4.96 KCAL/MOL
REMARK 924 INTRA-LIGAND FREE ENERGY PREDICTED BY IDOCK:   -0.38 KCAL/MOL
REMARK 927      BINDING AFFINITY PREDICTED BY RF-SCORE:    0.00 PKD
ROOT
HETATM    1  C   UNL     1     -11.185   9.813  71.012  1.00  0.00    -0.381 C  
HETATM    2  O   UNL     1      -9.858   9.304  71.104  1.00  0.00    -0.285 OA 
ENDROOT
BRANCH   2   3
HETATM    3  C   UNL     1      -9.288   8.739  69.985  1.00  0.00    -0.168 A  
HETATM    4  C   UNL     1      -8.626   9.479  68.953  1.00  0.00    -0.128 A  
HETATM    5  C   UNL     1      -7.954   8.746  67.950  1.00  0.00    -0.107 A  
HETATM    6  C   UNL     1      -8.388   5.210  68.770  1.00  0.00    -0.088 C  
HETATM    7  O   UNL     1      -7.354   9.337  66.878  1.00  0.00    -0.089 OA 
HETATM    8  C   UNL     1     -10.012   6.559  71.068  1.00  0.00    -0.203 C  
HETATM    9  C   UNL     1      -7.919   7.360  68.014  1.00  0.00    -0.119 A  
HETATM   10  C   UNL     1      -7.229   6.405  67.142  1.00  0.00    -0.075 C  
HETATM   11  C   UNL     1      -9.269   7.321  70.007  1.00  0.00    -0.148 A  
HETATM   12  H   UNL     1      -6.902   8.844  66.204  1.00  0.00     0.000 HD 
HETATM   13  O   UNL     1      -6.493   6.631  66.203  1.00  0.00    -0.041 OA 
HETATM   14  C   UNL     1      -8.572   6.657  69.006  1.00  0.00    -0.130 A  
HETATM   15  O   UNL     1      -7.529   5.157  67.619  1.00  0.00    -0.081 OA 
BRANCH   4  16
HETATM   16  C   UNL     1      -8.772  10.982  68.920  1.00  0.00    -0.122 C  
BRANCH  16  17
HETATM   17  C   UNL     1      -9.680  11.646  67.935  1.00  0.00    -0.181 C  
HETATM   18  C   UNL     1      -9.445  12.801  67.284  1.00  0.00    -0.204 C  
HETATM   19  C   UNL     1      -8.116  13.515  67.296  1.00  0.00    -0.141 C  
BRANCH  18  20
HETATM   20  C   UNL     1     -10.547  13.529  66.520  1.00  0.00    -0.281 C  
BRANCH  20  21
HETATM   21  C   UNL     1     -10.750  13.122  65.056  1.00  0.00    -0.338 C  
HETATM   22  O   UNL     1     -12.796  12.110  64.265  1.00  0.00    -0.578 OA 
HETATM   23  O   UNL     1     -12.780  14.332  64.632  1.00  0.00    -0.655 OA 
HETATM   24  C   UNL     1     -12.198  13.114  64.623  1.00  0.00    -0.414 C  
ENDBRANCH  20  21
ENDBRANCH  18  20
ENDBRANCH  16  17
ENDBRANCH   4  16
ENDBRANCH   2   3
TORSDOF 5
ENDMDL
MODEL      193
REMARK 921   NORMALIZED FREE ENERGY PREDICTED BY IDOCK:   -3.83 KCAL/MOL
REMARK 922        TOTAL FREE ENERGY PREDICTED BY IDOCK:   -5.22 KCAL/MOL
REMARK 923 INTER-LIGAND FREE ENERGY PREDICTED BY IDOCK:   -4.82 KCAL/MOL
REMARK 924 INTRA-LIGAND FREE ENERGY PREDICTED BY IDOCK:   -0.39 KCAL/MOL
REMARK 927      BINDING AFFINITY PREDICTED BY RF-SCORE:    0.00 PKD
ROOT
HETATM    1  C   UNL     1     -10.843   8.615  72.071  1.00  0.00    -0.360 C  
HETATM    2  O   UNL     1      -9.758   8.275  71.213  1.00  0.00    -0.161 OA 
ENDROOT
BRANCH   2   3
HETATM    3  C   UNL     1      -9.997   7.440  70.144  1.00  0.00    -0.184 A  
HETATM    4  C   UNL     1     -10.393   7.884  68.842  1.00  0.00    -0.225 A  
HETATM    5  C   UNL     1     -10.446   6.922  67.810  1.00  0.00    -0.223 A  
HETATM    6  C   UNL     1      -9.435   3.738  69.294  1.00  0.00    -0.182 C  
HETATM    7  O   UNL     1     -10.881   7.211  66.551  1.00  0.00    -0.482 OA 
HETATM    8  C   UNL     1      -9.301   5.623  71.778  1.00  0.00    -0.163 C  
HETATM    9  C   UNL     1     -10.081   5.609  68.071  1.00  0.00    -0.211 A  
HETATM   10  C   UNL     1      -9.984   4.470  67.152  1.00  0.00    -0.159 C  
HETATM   11  C   UNL     1      -9.665   6.083  70.394  1.00  0.00    -0.206 A  
HETATM   12  H   UNL     1     -10.916   6.564  65.856  1.00  0.00     0.000 HD 
HETATM   13  O   UNL     1     -10.155   4.449  65.951  1.00  0.00    -0.226 OA 
HETATM   14  C   UNL     1      -9.714   5.188  69.333  1.00  0.00    -0.248 A  
HETATM   15  O   UNL     1      -9.603   3.394  67.909  1.00  0.00    -0.190 OA 
BRANCH   4  16
HETATM   16  C   UNL     1     -10.840   9.316  68.661  1.00  0.00    -0.120 C  
BRANCH  16  17
HETATM   17  C   UNL     1     -10.188  10.205  67.651  1.00  0.00    -0.246 C  
HETATM   18  C   UNL     1      -9.079  10.944  67.836  1.00  0.00    -0.149 C  
HETATM   19  C   UNL     1      -8.190  10.834  69.050  1.00  0.00    -0.139 C  
BRANCH  18  20
HETATM   20  C   UNL     1      -8.660  12.024  66.842  1.00  0.00    -0.189 C  
BRANCH  20  21
HETATM   21  C   UNL     1      -7.763  13.143  67.385  1.00  0.00    -0.151 C  
HETATM   22  O   UNL     1      -8.151  15.473  66.880  1.00  0.00    -0.223 OA 
HETATM   23  O   UNL     1      -9.464  14.486  68.421  1.00  0.00    -0.197 OA 
HETATM   24  C   UNL     1      -8.465  14.475  67.512  1.00  0.00    -0.190 C  
ENDBRANCH  20  21
ENDBRANCH  18  20
ENDBRANCH  16  17
ENDBRANCH   4  16
ENDBRANCH   2   3
TORSDOF 5
ENDMDL
MODEL      194
REMARK 921   NORMALIZED FREE ENERGY PREDICTED BY IDOCK:   -3.75 KCAL/MOL
REMARK 922        TOTAL FREE ENERGY PREDICTED BY IDOCK:   -5.11 KCAL/MOL
REMARK 923 INTER-LIGAND FREE ENERGY PREDICTED BY IDOCK:   -4.71 KCAL/MOL
REMARK 924 INTRA-LIGAND FREE ENERGY PREDICTED BY IDOCK:   -0.40 KCAL/MOL
REMARK 927      BINDING AFFINITY PREDICTED BY RF-SCORE:    0.00 PKD
ROOT
HETATM    1  C   UNL     1     -10.521   4.856  71.999  1.00  0.00    -0.176 C  
HETATM    2  O   UNL     1      -9.559   5.194  71.005  1.00  0.00    -0.155 OA 
ENDROOT
BRANCH   2   3
HETATM    3  C   UNL     1      -9.862   4.953  69.683  1.00  0.00    -0.218 A  
HETATM    4  C   UNL     1     -10.537   5.878  68.825  1.00  0.00    -0.340 A  
HETATM    5  C   UNL     1     -10.634   5.550  67.455  1.00  0.00    -0.177 A  
HETATM    6  C   UNL     1      -8.942   2.338  67.026  1.00  0.00    -0.133 C  
HETATM    7  O   UNL     1     -11.318   6.315  66.558  1.00  0.00    -0.732 OA 
HETATM    8  C   UNL     1      -8.643   2.764  70.103  1.00  0.00    -0.111 C  
HETATM    9  C   UNL     1     -10.048   4.385  66.981  1.00  0.00    -0.141 A  
HETATM   10  C   UNL     1      -9.955   3.883  65.607  1.00  0.00    -0.104 C  
HETATM   11  C   UNL     1      -9.304   3.749  69.180  1.00  0.00    -0.243 A  
HETATM   12  H   UNL     1     -11.383   6.094  65.636  1.00  0.00     0.000 HD 
HETATM   13  O   UNL     1     -10.328   4.412  64.580  1.00  0.00    -0.096 OA 
HETATM   14  C   UNL     1      -9.411   3.493  67.819  1.00  0.00    -0.230 A  
HETATM   15  O   UNL     1      -9.300   2.682  65.677  1.00  0.00    -0.122 OA 
BRANCH   4  16
HETATM   16  C   UNL     1     -11.206   7.088  69.434  1.00  0.00    -0.143 C  
BRANCH  16  17
HETATM   17  C   UNL     1     -10.435   8.342  69.701  1.00  0.00    -0.221 C  
HETATM   18  C   UNL     1     -10.141   9.304  68.808  1.00  0.00    -0.210 C  
HETATM   19  C   UNL     1     -10.725   9.366  67.418  1.00  0.00    -0.280 C  
BRANCH  18  20
HETATM   20  C   UNL     1      -9.118  10.395  69.112  1.00  0.00    -0.197 C  
BRANCH  20  21
HETATM   21  C   UNL     1      -7.656   9.950  69.227  1.00  0.00    -0.101 C  
HETATM   22  O   UNL     1      -6.269  10.532  71.118  1.00  0.00    -0.336 OA 
HETATM   23  O   UNL     1      -7.781   8.881  71.374  1.00  0.00    -0.172 OA 
HETATM   24  C   UNL     1      -7.164   9.842  70.652  1.00  0.00    -0.069 C  
ENDBRANCH  20  21
ENDBRANCH  18  20
ENDBRANCH  16  17
ENDBRANCH   4  16
ENDBRANCH   2   3
TORSDOF 5
ENDMDL
MODEL      195
REMARK 921   NORMALIZED FREE ENERGY PREDICTED BY IDOCK:   -3.70 KCAL/MOL
REMARK 922        TOTAL FREE ENERGY PREDICTED BY IDOCK:   -5.04 KCAL/MOL
REMARK 923 INTER-LIGAND FREE ENERGY PREDICTED BY IDOCK:   -4.44 KCAL/MOL
REMARK 924 INTRA-LIGAND FREE ENERGY PREDICTED BY IDOCK:   -0.60 KCAL/MOL
REMARK 927      BINDING AFFINITY PREDICTED BY RF-SCORE:    0.00 PKD
ROOT
HETATM    1  C   UNL     1     -10.724  10.115  68.947  1.00  0.00    -0.223 C  
HETATM    2  O   UNL     1     -11.059   9.604  67.661  1.00  0.00    -0.214 OA 
ENDROOT
BRANCH   2   3
HETATM    3  C   UNL     1     -10.103   8.903  66.959  1.00  0.00    -0.261 A  
HETATM    4  C   UNL     1      -9.891   7.492  67.068  1.00  0.00    -0.280 A  
HETATM    5  C   UNL     1      -8.980   6.895  66.168  1.00  0.00    -0.134 A  
HETATM    6  C   UNL     1      -7.734   9.571  64.012  1.00  0.00    -0.124 C  
HETATM    7  O   UNL     1      -8.640   5.577  66.225  1.00  0.00    -0.118 OA 
HETATM    8  C   UNL     1      -9.627  11.168  65.913  1.00  0.00    -0.250 C  
HETATM    9  C   UNL     1      -8.362   7.670  65.196  1.00  0.00    -0.100 A  
HETATM   10  C   UNL     1      -7.454   7.262  64.120  1.00  0.00    -0.099 C  
HETATM   11  C   UNL     1      -9.430   9.680  65.980  1.00  0.00    -0.284 A  
HETATM   12  H   UNL     1      -8.028   5.175  65.620  1.00  0.00     0.000 HD 
HETATM   13  O   UNL     1      -7.089   6.144  63.819  1.00  0.00    -0.047 OA 
HETATM   14  C   UNL     1      -8.565   9.032  65.108  1.00  0.00    -0.204 A  
HETATM   15  O   UNL     1      -7.109   8.406  63.450  1.00  0.00    -0.087 OA 
BRANCH   4  16
HETATM   16  C   UNL     1     -10.550   6.737  68.198  1.00  0.00    -0.279 C  
BRANCH  16  17
HETATM   17  C   UNL     1      -9.824   6.480  69.480  1.00  0.00    -0.167 C  
HETATM   18  C   UNL     1      -9.506   5.276  69.991  1.00  0.00    -0.216 C  
HETATM   19  C   UNL     1      -9.659   3.978  69.238  1.00  0.00    -0.247 C  
BRANCH  18  20
HETATM   20  C   UNL     1      -9.019   5.118  71.429  1.00  0.00    -0.156 C  
BRANCH  20  21
HETATM   21  C   UNL     1      -9.700   5.999  72.483  1.00  0.00    -0.169 C  
HETATM   22  O   UNL     1     -12.059   6.513  72.414  1.00  0.00    -0.228 OA 
HETATM   23  O   UNL     1     -11.435   4.477  73.146  1.00  0.00    -0.255 OA 
HETATM   24  C   UNL     1     -11.172   5.708  72.658  1.00  0.00    -0.300 C  
ENDBRANCH  20  21
ENDBRANCH  18  20
ENDBRANCH  16  17
ENDBRANCH   4  16
ENDBRANCH   2   3
TORSDOF 5
ENDMDL
MODEL      196
REMARK 921   NORMALIZED FREE ENERGY PREDICTED BY IDOCK:   -3.65 KCAL/MOL
REMARK 922        TOTAL FREE ENERGY PREDICTED BY IDOCK:   -4.98 KCAL/MOL
REMARK 923 INTER-LIGAND FREE ENERGY PREDICTED BY IDOCK:   -4.44 KCAL/MOL
REMARK 924 INTRA-LIGAND FREE ENERGY PREDICTED BY IDOCK:   -0.54 KCAL/MOL
REMARK 927      BINDING AFFINITY PREDICTED BY RF-SCORE:    0.00 PKD
ROOT
HETATM    1  C   UNL     1      -8.014   9.601  69.993  1.00  0.00    -0.172 C  
HETATM    2  O   UNL     1      -7.287   9.116  68.868  1.00  0.00    -0.072 OA 
ENDROOT
BRANCH   2   3
HETATM    3  C   UNL     1      -7.681   7.930  68.288  1.00  0.00    -0.121 A  
HETATM    4  C   UNL     1      -8.544   7.832  67.151  1.00  0.00    -0.128 A  
HETATM    5  C   UNL     1      -8.729   6.555  66.577  1.00  0.00    -0.134 A  
HETATM    6  C   UNL     1      -6.696   4.227  68.528  1.00  0.00    -0.047 C  
HETATM    7  O   UNL     1      -9.585   6.326  65.541  1.00  0.00    -0.348 OA 
HETATM    8  C   UNL     1      -6.163   6.901  70.046  1.00  0.00    -0.031 C  
HETATM    9  C   UNL     1      -8.049   5.461  67.093  1.00  0.00    -0.101 A  
HETATM   10  C   UNL     1      -8.023   4.074  66.621  1.00  0.00    -0.097 C  
HETATM   11  C   UNL     1      -7.026   6.789  68.821  1.00  0.00    -0.079 A  
HETATM   12  H   UNL     1      -9.708   5.468  65.154  1.00  0.00     0.000 HD 
HETATM   13  O   UNL     1      -8.555   3.598  65.638  1.00  0.00    -0.109 OA 
HETATM   14  C   UNL     1      -7.229   5.565  68.198  1.00  0.00    -0.072 A  
HETATM   15  O   UNL     1      -7.220   3.384  67.489  1.00  0.00    -0.057 OA 
BRANCH   4  16
HETATM   16  C   UNL     1      -9.299   9.059  66.696  1.00  0.00    -0.229 C  
BRANCH  16  17
HETATM   17  C   UNL     1     -10.575   9.469  67.359  1.00  0.00    -0.337 C  
HETATM   18  C   UNL     1     -10.917  10.716  67.732  1.00  0.00    -0.364 C  
HETATM   19  C   UNL     1     -10.137  11.949  67.349  1.00  0.00    -0.211 C  
BRANCH  18  20
HETATM   20  C   UNL     1     -12.110  10.981  68.647  1.00  0.00    -0.129 C  
BRANCH  20  21
HETATM   21  C   UNL     1     -11.788  11.396  70.087  1.00  0.00    -0.440 C  
HETATM   22  O   UNL     1     -13.180  10.764  71.958  1.00  0.00    -0.484 OA 
HETATM   23  O   UNL     1     -11.795   9.214  71.091  1.00  0.00    -0.281 OA 
HETATM   24  C   UNL     1     -12.339  10.449  71.128  1.00  0.00    -0.400 C  
ENDBRANCH  20  21
ENDBRANCH  18  20
ENDBRANCH  16  17
ENDBRANCH   4  16
ENDBRANCH   2   3
TORSDOF 5
ENDMDL
MODEL      197
REMARK 921   NORMALIZED FREE ENERGY PREDICTED BY IDOCK:   -3.64 KCAL/MOL
REMARK 922        TOTAL FREE ENERGY PREDICTED BY IDOCK:   -4.97 KCAL/MOL
REMARK 923 INTER-LIGAND FREE ENERGY PREDICTED BY IDOCK:   -4.70 KCAL/MOL
REMARK 924 INTRA-LIGAND FREE ENERGY PREDICTED BY IDOCK:   -0.27 KCAL/MOL
REMARK 927      BINDING AFFINITY PREDICTED BY RF-SCORE:    0.00 PKD
ROOT
HETATM    1  C   UNL     1     -10.831   7.817  71.336  1.00  0.00    -0.228 C  
HETATM    2  O   UNL     1      -9.583   7.367  70.819  1.00  0.00    -0.170 OA 
ENDROOT
BRANCH   2   3
HETATM    3  C   UNL     1      -9.476   7.129  69.466  1.00  0.00    -0.151 A  
HETATM    4  C   UNL     1      -9.057   8.103  68.504  1.00  0.00    -0.136 A  
HETATM    5  C   UNL     1      -8.845   7.664  67.178  1.00  0.00    -0.125 A  
HETATM    6  C   UNL     1      -9.544   4.076  67.139  1.00  0.00    -0.196 C  
HETATM    7  O   UNL     1      -8.519   8.511  66.161  1.00  0.00    -0.118 OA 
HETATM    8  C   UNL     1     -10.159   4.772  70.119  1.00  0.00    -0.310 C  
HETATM    9  C   UNL     1      -9.005   6.322  66.861  1.00  0.00    -0.120 A  
HETATM   10  C   UNL     1      -8.770   5.632  65.589  1.00  0.00    -0.151 C  
HETATM   11  C   UNL     1      -9.670   5.770  69.108  1.00  0.00    -0.189 A  
HETATM   12  H   UNL     1      -8.376   8.216  65.270  1.00  0.00     0.000 HD 
HETATM   13  O   UNL     1      -8.331   6.084  64.552  1.00  0.00    -0.123 OA 
HETATM   14  C   UNL     1      -9.423   5.395  67.794  1.00  0.00    -0.132 A  
HETATM   15  O   UNL     1      -9.097   4.318  65.795  1.00  0.00    -0.123 OA 
BRANCH   4  16
HETATM   16  C   UNL     1      -8.974   9.554  68.916  1.00  0.00    -0.141 C  
BRANCH  16  17
HETATM   17  C   UNL     1     -10.206  10.332  69.249  1.00  0.00    -0.244 C  
HETATM   18  C   UNL     1     -10.776  11.287  68.491  1.00  0.00    -0.235 C  
HETATM   19  C   UNL     1     -10.367  11.586  67.070  1.00  0.00    -0.254 C  
BRANCH  18  20
HETATM   20  C   UNL     1     -11.861  12.208  69.043  1.00  0.00    -0.361 C  
BRANCH  20  21
HETATM   21  C   UNL     1     -12.000  13.580  68.373  1.00  0.00    -0.378 C  
HETATM   22  O   UNL     1     -11.876  15.648  69.617  1.00  0.00    -0.334 OA 
HETATM   23  O   UNL     1      -9.955  14.565  69.159  1.00  0.00    -0.197 OA 
HETATM   24  C   UNL     1     -11.299  14.693  69.117  1.00  0.00    -0.281 C  
ENDBRANCH  20  21
ENDBRANCH  18  20
ENDBRANCH  16  17
ENDBRANCH   4  16
ENDBRANCH   2   3
TORSDOF 5
ENDMDL
MODEL      198
REMARK 921   NORMALIZED FREE ENERGY PREDICTED BY IDOCK:   -3.60 KCAL/MOL
REMARK 922        TOTAL FREE ENERGY PREDICTED BY IDOCK:   -4.91 KCAL/MOL
REMARK 923 INTER-LIGAND FREE ENERGY PREDICTED BY IDOCK:   -4.30 KCAL/MOL
REMARK 924 INTRA-LIGAND FREE ENERGY PREDICTED BY IDOCK:   -0.61 KCAL/MOL
REMARK 927      BINDING AFFINITY PREDICTED BY RF-SCORE:    0.00 PKD
ROOT
HETATM    1  C   UNL     1     -10.074  11.669  64.996  1.00  0.00    -0.263 C  
HETATM    2  O   UNL     1     -10.228  10.994  66.240  1.00  0.00    -0.230 OA 
ENDROOT
BRANCH   2   3
HETATM    3  C   UNL     1      -9.112  10.776  67.016  1.00  0.00    -0.144 A  
HETATM    4  C   UNL     1      -8.652  11.664  68.041  1.00  0.00    -0.152 A  
HETATM    5  C   UNL     1      -7.585  11.227  68.856  1.00  0.00    -0.126 A  
HETATM    6  C   UNL     1      -6.697   7.872  67.708  1.00  0.00    -0.068 C  
HETATM    7  O   UNL     1      -7.014  12.013  69.812  1.00  0.00    -0.346 OA 
HETATM    8  C   UNL     1      -8.983   8.600  65.712  1.00  0.00    -0.244 C  
HETATM    9  C   UNL     1      -7.050   9.959  68.673  1.00  0.00    -0.071 A  
HETATM   10  C   UNL     1      -6.007   9.270  69.438  1.00  0.00    -0.037 C  
HETATM   11  C   UNL     1      -8.523   9.499  66.825  1.00  0.00    -0.129 A  
HETATM   12  H   UNL     1      -6.296  11.719  70.361  1.00  0.00     0.000 HD 
HETATM   13  O   UNL     1      -5.423   9.647  70.433  1.00  0.00    -0.034 OA 
HETATM   14  C   UNL     1      -7.492   9.116  67.674  1.00  0.00    -0.084 A  
HETATM   15  O   UNL     1      -5.830   8.050  68.840  1.00  0.00    -0.033 OA 
BRANCH   4  16
HETATM   16  C   UNL     1      -9.242  13.052  68.127  1.00  0.00    -0.212 C  
BRANCH  16  17
HETATM   17  C   UNL     1      -8.690  14.175  67.308  1.00  0.00    -0.229 C  
HETATM   18  C   UNL     1      -8.004  15.237  67.770  1.00  0.00    -0.159 C  
HETATM   19  C   UNL     1      -7.501  15.360  69.186  1.00  0.00    -0.189 C  
BRANCH  18  20
HETATM   20  C   UNL     1      -7.732  16.458  66.895  1.00  0.00    -0.276 C  
BRANCH  20  21
HETATM   21  C   UNL     1      -8.942  17.331  66.544  1.00  0.00    -0.294 C  
HETATM   22  O   UNL     1     -10.896  17.467  67.957  1.00  0.00    -0.378 OA 
HETATM   23  O   UNL     1      -9.055  18.609  68.574  1.00  0.00    -0.316 OA 
HETATM   24  C   UNL     1      -9.734  17.784  67.748  1.00  0.00    -0.285 C  
ENDBRANCH  20  21
ENDBRANCH  18  20
ENDBRANCH  16  17
ENDBRANCH   4  16
ENDBRANCH   2   3
TORSDOF 5
ENDMDL
MODEL      199
REMARK 921   NORMALIZED FREE ENERGY PREDICTED BY IDOCK:   -3.59 KCAL/MOL
REMARK 922        TOTAL FREE ENERGY PREDICTED BY IDOCK:   -4.90 KCAL/MOL
REMARK 923 INTER-LIGAND FREE ENERGY PREDICTED BY IDOCK:   -4.36 KCAL/MOL
REMARK 924 INTRA-LIGAND FREE ENERGY PREDICTED BY IDOCK:   -0.54 KCAL/MOL
REMARK 927      BINDING AFFINITY PREDICTED BY RF-SCORE:    0.00 PKD
ROOT
HETATM    1  C   UNL     1      -9.397   4.234  71.791  1.00  0.00    -0.137 C  
HETATM    2  O   UNL     1     -10.156   4.848  70.754  1.00  0.00    -0.223 OA 
ENDROOT
BRANCH   2   3
HETATM    3  C   UNL     1     -10.008   6.200  70.537  1.00  0.00    -0.181 A  
HETATM    4  C   UNL     1      -8.967   6.783  69.745  1.00  0.00    -0.144 A  
HETATM    5  C   UNL     1      -9.040   8.170  69.488  1.00  0.00    -0.151 A  
HETATM    6  C   UNL     1     -12.077   9.381  71.123  1.00  0.00    -0.328 C  
HETATM    7  O   UNL     1      -8.071   8.849  68.812  1.00  0.00    -0.110 OA 
HETATM    8  C   UNL     1     -12.135   6.362  71.915  1.00  0.00    -0.362 C  
HETATM    9  C   UNL     1     -10.118   8.905  69.963  1.00  0.00    -0.207 A  
HETATM   10  C   UNL     1     -10.441  10.320  69.757  1.00  0.00    -0.259 C  
HETATM   11  C   UNL     1     -11.079   6.981  71.044  1.00  0.00    -0.295 A  
HETATM   12  H   UNL     1      -8.120   9.782  68.638  1.00  0.00     0.000 HD 
HETATM   13  O   UNL     1      -9.858  11.140  69.079  1.00  0.00    -0.189 OA 
HETATM   14  C   UNL     1     -11.108   8.335  70.736  1.00  0.00    -0.280 A  
HETATM   15  O   UNL     1     -11.597  10.558  70.454  1.00  0.00    -0.293 OA 
BRANCH   4  16
HETATM   16  C   UNL     1      -7.796   5.926  69.327  1.00  0.00    -0.095 C  
BRANCH  16  17
HETATM   17  C   UNL     1      -7.939   4.901  68.248  1.00  0.00    -0.086 C  
HETATM   18  C   UNL     1      -8.038   5.140  66.927  1.00  0.00    -0.108 C  
HETATM   19  C   UNL     1      -7.813   6.493  66.300  1.00  0.00    -0.105 C  
BRANCH  18  20
HETATM   20  C   UNL     1      -8.460   4.050  65.945  1.00  0.00    -0.109 C  
BRANCH  20  21
HETATM   21  C   UNL     1      -9.080   4.522  64.625  1.00  0.00    -0.151 C  
HETATM   22  O   UNL     1     -10.847   3.304  63.515  1.00  0.00    -0.248 OA 
HETATM   23  O   UNL     1     -11.382   4.555  65.310  1.00  0.00    -0.106 OA 
HETATM   24  C   UNL     1     -10.501   4.050  64.419  1.00  0.00    -0.197 C  
ENDBRANCH  20  21
ENDBRANCH  18  20
ENDBRANCH  16  17
ENDBRANCH   4  16
ENDBRANCH   2   3
TORSDOF 5
ENDMDL
MODEL      200
REMARK 921   NORMALIZED FREE ENERGY PREDICTED BY IDOCK:   -3.57 KCAL/MOL
REMARK 922        TOTAL FREE ENERGY PREDICTED BY IDOCK:   -4.88 KCAL/MOL
REMARK 923 INTER-LIGAND FREE ENERGY PREDICTED BY IDOCK:   -4.89 KCAL/MOL
REMARK 924 INTRA-LIGAND FREE ENERGY PREDICTED BY IDOCK:    0.01 KCAL/MOL
REMARK 927      BINDING AFFINITY PREDICTED BY RF-SCORE:    0.00 PKD
ROOT
HETATM    1  C   UNL     1     -10.360  12.329  66.679  1.00  0.00    -0.215 C  
HETATM    2  O   UNL     1     -10.020  12.595  68.036  1.00  0.00    -0.207 OA 
ENDROOT
BRANCH   2   3
HETATM    3  C   UNL     1      -9.171  13.644  68.311  1.00  0.00    -0.198 A  
HETATM    4  C   UNL     1      -9.583  15.011  68.425  1.00  0.00    -0.212 A  
HETATM    5  C   UNL     1      -8.625  15.949  68.866  1.00  0.00    -0.221 A  
HETATM    6  C   UNL     1      -5.540  14.086  69.479  1.00  0.00    -0.088 C  
HETATM    7  O   UNL     1      -8.878  17.286  68.941  1.00  0.00    -0.257 OA 
HETATM    8  C   UNL     1      -7.419  11.812  68.458  1.00  0.00    -0.110 C  
HETATM    9  C   UNL     1      -7.349  15.524  69.210  1.00  0.00    -0.202 A  
HETATM   10  C   UNL     1      -6.228  16.293  69.759  1.00  0.00    -0.192 C  
HETATM   11  C   UNL     1      -7.849  13.241  68.632  1.00  0.00    -0.063 A  
HETATM   12  H   UNL     1      -8.234  17.918  69.239  1.00  0.00     0.000 HD 
HETATM   13  O   UNL     1      -6.197  17.464  70.079  1.00  0.00    -0.203 OA 
HETATM   14  C   UNL     1      -6.959  14.207  69.083  1.00  0.00    -0.111 A  
HETATM   15  O   UNL     1      -5.188  15.413  69.901  1.00  0.00    -0.097 OA 
BRANCH   4  16
HETATM   16  C   UNL     1     -10.969  15.399  67.964  1.00  0.00    -0.307 C  
BRANCH  16  17
HETATM   17  C   UNL     1     -12.151  15.246  68.866  1.00  0.00    -0.223 C  
HETATM   18  C   UNL     1     -12.217  15.598  70.164  1.00  0.00    -0.387 C  
HETATM   19  C   UNL     1     -11.154  16.402  70.870  1.00  0.00    -0.073 C  
BRANCH  18  20
HETATM   20  C   UNL     1     -13.366  15.145  71.060  1.00  0.00    -0.504 C  
BRANCH  20  21
HETATM   21  C   UNL     1     -13.023  14.122  72.148  1.00  0.00    -0.463 C  
HETATM   22  O   UNL     1     -14.076  11.951  72.264  1.00  0.00     0.150 OA 
HETATM   23  O   UNL     1     -12.462  12.270  70.726  1.00  0.00    -0.346 OA 
HETATM   24  C   UNL     1     -13.261  12.689  71.731  1.00  0.00    -0.359 C  
ENDBRANCH  20  21
ENDBRANCH  18  20
ENDBRANCH  16  17
ENDBRANCH   4  16
ENDBRANCH   2   3
TORSDOF 5
ENDMDL
MODEL      201
REMARK 921   NORMALIZED FREE ENERGY PREDICTED BY IDOCK:   -3.55 KCAL/MOL
REMARK 922        TOTAL FREE ENERGY PREDICTED BY IDOCK:   -4.85 KCAL/MOL
REMARK 923 INTER-LIGAND FREE ENERGY PREDICTED BY IDOCK:   -4.67 KCAL/MOL
REMARK 924 INTRA-LIGAND FREE ENERGY PREDICTED BY IDOCK:   -0.18 KCAL/MOL
REMARK 927      BINDING AFFINITY PREDICTED BY RF-SCORE:    0.00 PKD
ROOT
HETATM    1  C   UNL     1      -8.277   9.876  69.965  1.00  0.00    -0.168 C  
HETATM    2  O   UNL     1      -7.714   9.178  68.859  1.00  0.00    -0.081 OA 
ENDROOT
BRANCH   2   3
HETATM    3  C   UNL     1      -8.275   7.978  68.480  1.00  0.00    -0.126 A  
HETATM    4  C   UNL     1      -9.109   7.803  67.330  1.00  0.00    -0.138 A  
HETATM    5  C   UNL     1      -9.480   6.484  66.985  1.00  0.00    -0.138 A  
HETATM    6  C   UNL     1      -7.908   4.279  69.441  1.00  0.00    -0.057 C  
HETATM    7  O   UNL     1     -10.330   6.199  65.959  1.00  0.00    -0.411 OA 
HETATM    8  C   UNL     1      -6.997   7.077  70.482  1.00  0.00    -0.062 C  
HETATM    9  C   UNL     1      -9.001   5.415  67.730  1.00  0.00    -0.108 A  
HETATM   10  C   UNL     1      -9.185   3.976  67.517  1.00  0.00    -0.164 C  
HETATM   11  C   UNL     1      -7.830   6.871  69.248  1.00  0.00    -0.114 A  
HETATM   12  H   UNL     1     -10.579   5.312  65.726  1.00  0.00     0.000 HD 
HETATM   13  O   UNL     1      -9.756   3.412  66.607  1.00  0.00    -0.122 OA 
HETATM   14  C   UNL     1      -8.208   5.597  68.844  1.00  0.00    -0.100 A  
HETATM   15  O   UNL     1      -8.529   3.346  68.541  1.00  0.00    -0.078 OA 
BRANCH   4  16
HETATM   16  C   UNL     1      -9.643   9.023  66.618  1.00  0.00    -0.274 C  
BRANCH  16  17
HETATM   17  C   UNL     1     -10.615   9.941  67.286  1.00  0.00    -0.316 C  
HETATM   18  C   UNL     1     -10.752  11.261  67.061  1.00  0.00    -0.305 C  
HETATM   19  C   UNL     1     -10.069  11.995  65.933  1.00  0.00    -0.264 C  
BRANCH  18  20
HETATM   20  C   UNL     1     -11.573  12.153  67.989  1.00  0.00    -0.411 C  
BRANCH  20  21
HETATM   21  C   UNL     1     -11.731  13.618  67.567  1.00  0.00    -0.406 C  
HETATM   22  O   UNL     1     -11.854  15.422  69.169  1.00  0.00    -0.330 OA 
HETATM   23  O   UNL     1      -9.835  14.526  68.728  1.00  0.00    -0.224 OA 
HETATM   24  C   UNL     1     -11.174  14.602  68.569  1.00  0.00    -0.271 C  
ENDBRANCH  20  21
ENDBRANCH  18  20
ENDBRANCH  16  17
ENDBRANCH   4  16
ENDBRANCH   2   3
TORSDOF 5
ENDMDL
MODEL      202
REMARK 921   NORMALIZED FREE ENERGY PREDICTED BY IDOCK:   -3.52 KCAL/MOL
REMARK 922        TOTAL FREE ENERGY PREDICTED BY IDOCK:   -4.82 KCAL/MOL
REMARK 923 INTER-LIGAND FREE ENERGY PREDICTED BY IDOCK:   -4.32 KCAL/MOL
REMARK 924 INTRA-LIGAND FREE ENERGY PREDICTED BY IDOCK:   -0.49 KCAL/MOL
REMARK 927      BINDING AFFINITY PREDICTED BY RF-SCORE:    0.00 PKD
ROOT
HETATM    1  C   UNL     1      -8.562   9.529  69.363  1.00  0.00    -0.159 C  
HETATM    2  O   UNL     1      -7.584   9.042  68.450  1.00  0.00    -0.088 OA 
ENDROOT
BRANCH   2   3
HETATM    3  C   UNL     1      -7.865   7.908  67.722  1.00  0.00    -0.123 A  
HETATM    4  C   UNL     1      -8.195   7.901  66.329  1.00  0.00    -0.117 A  
HETATM    5  C   UNL     1      -8.302   6.647  65.688  1.00  0.00    -0.144 A  
HETATM    6  C   UNL     1      -7.581   4.111  68.220  1.00  0.00    -0.067 C  
HETATM    7  O   UNL     1      -8.685   6.511  64.387  1.00  0.00    -0.331 OA 
HETATM    8  C   UNL     1      -7.352   6.725  69.911  1.00  0.00    -0.089 C  
HETATM    9  C   UNL     1      -8.049   5.483  66.400  1.00  0.00    -0.105 A  
HETATM   10  C   UNL     1      -8.023   4.093  65.934  1.00  0.00    -0.094 C  
HETATM   11  C   UNL     1      -7.648   6.701  68.437  1.00  0.00    -0.104 A  
HETATM   12  H   UNL     1      -8.757   5.668  63.955  1.00  0.00     0.000 HD 
HETATM   13  O   UNL     1      -8.168   3.670  64.805  1.00  0.00    -0.090 OA 
HETATM   14  C   UNL     1      -7.745   5.501  67.746  1.00  0.00    -0.092 A  
HETATM   15  O   UNL     1      -7.746   3.322  67.031  1.00  0.00    -0.077 OA 
BRANCH   4  16
HETATM   16  C   UNL     1      -8.523   9.208  65.647  1.00  0.00    -0.151 C  
BRANCH  16  17
HETATM   17  C   UNL     1      -9.845   9.874  65.854  1.00  0.00    -0.342 C  
HETATM   18  C   UNL     1     -10.050  11.093  66.386  1.00  0.00    -0.269 C  
HETATM   19  C   UNL     1      -8.946  12.079  66.676  1.00  0.00    -0.204 C  
BRANCH  18  20
HETATM   20  C   UNL     1     -11.441  11.560  66.809  1.00  0.00    -0.233 C  
BRANCH  20  21
HETATM   21  C   UNL     1     -12.022  12.756  66.047  1.00  0.00    -0.491 C  
HETATM   22  O   UNL     1     -11.280  13.365  63.830  1.00  0.00    -0.344 OA 
HETATM   23  O   UNL     1     -12.677  11.611  64.040  1.00  0.00    -0.209 OA 
HETATM   24  C   UNL     1     -11.935  12.620  64.545  1.00  0.00    -0.399 C  
ENDBRANCH  20  21
ENDBRANCH  18  20
ENDBRANCH  16  17
ENDBRANCH   4  16
ENDBRANCH   2   3
TORSDOF 5
ENDMDL
MODEL      203
REMARK 921   NORMALIZED FREE ENERGY PREDICTED BY IDOCK:   -3.52 KCAL/MOL
REMARK 922        TOTAL FREE ENERGY PREDICTED BY IDOCK:   -4.81 KCAL/MOL
REMARK 923 INTER-LIGAND FREE ENERGY PREDICTED BY IDOCK:   -5.18 KCAL/MOL
REMARK 924 INTRA-LIGAND FREE ENERGY PREDICTED BY IDOCK:    0.37 KCAL/MOL
REMARK 927      BINDING AFFINITY PREDICTED BY RF-SCORE:    0.00 PKD
ROOT
HETATM    1  C   UNL     1      -6.724  10.570  64.872  1.00  0.00     0.021 C  
HETATM    2  O   UNL     1      -7.767  10.267  65.792  1.00  0.00    -0.131 OA 
ENDROOT
BRANCH   2   3
HETATM    3  C   UNL     1      -8.968  10.929  65.671  1.00  0.00    -0.194 A  
HETATM    4  C   UNL     1      -9.430  11.939  66.575  1.00  0.00    -0.226 A  
HETATM    5  C   UNL     1     -10.609  12.637  66.231  1.00  0.00    -0.252 A  
HETATM    6  C   UNL     1     -11.719  11.294  63.017  1.00  0.00     0.650 C  
HETATM    7  O   UNL     1     -11.185  13.564  67.047  1.00  0.00    -0.296 OA 
HETATM    8  C   UNL     1      -9.192   9.542  63.556  1.00  0.00    -0.038 C  
HETATM    9  C   UNL     1     -11.249  12.361  65.030  1.00  0.00    -0.354 A  
HETATM   10  C   UNL     1     -12.424  13.002  64.434  1.00  0.00    -0.337 C  
HETATM   11  C   UNL     1      -9.663  10.640  64.468  1.00  0.00    -0.367 A  
HETATM   12  H   UNL     1     -11.977  14.034  66.815  1.00  0.00     0.000 HD 
HETATM   13  O   UNL     1     -13.059  13.952  64.844  1.00  0.00    -0.704 OA 
HETATM   14  C   UNL     1     -10.802  11.377  64.173  1.00  0.00    -0.431 A  
HETATM   15  O   UNL     1     -12.666  12.347  63.255  1.00  0.00    -0.688 OA 
BRANCH   4  16
HETATM   16  C   UNL     1      -8.714  12.127  67.892  1.00  0.00    -0.176 C  
BRANCH  16  17
HETATM   17  C   UNL     1      -8.833  13.407  68.657  1.00  0.00     0.020 C  
HETATM   18  C   UNL     1      -8.428  14.623  68.248  1.00  0.00    -0.158 C  
HETATM   19  C   UNL     1      -7.964  14.924  66.844  1.00  0.00    -0.067 C  
BRANCH  18  20
HETATM   20  C   UNL     1      -8.339  15.805  69.209  1.00  0.00    -0.249 C  
BRANCH  20  21
HETATM   21  C   UNL     1      -9.518  16.784  69.199  1.00  0.00    -0.162 C  
HETATM   22  O   UNL     1     -11.784  16.081  68.743  1.00  0.00    -0.385 OA 
HETATM   23  O   UNL     1     -10.928  15.656  70.782  1.00  0.00    -0.324 OA 
HETATM   24  C   UNL     1     -10.846  16.140  69.525  1.00  0.00    -0.329 C  
ENDBRANCH  20  21
ENDBRANCH  18  20
ENDBRANCH  16  17
ENDBRANCH   4  16
ENDBRANCH   2   3
TORSDOF 5
ENDMDL
MODEL      204
REMARK 921   NORMALIZED FREE ENERGY PREDICTED BY IDOCK:   -3.37 KCAL/MOL
REMARK 922        TOTAL FREE ENERGY PREDICTED BY IDOCK:   -4.62 KCAL/MOL
REMARK 923 INTER-LIGAND FREE ENERGY PREDICTED BY IDOCK:   -4.61 KCAL/MOL
REMARK 924 INTRA-LIGAND FREE ENERGY PREDICTED BY IDOCK:   -0.02 KCAL/MOL
REMARK 927      BINDING AFFINITY PREDICTED BY RF-SCORE:    0.00 PKD
ROOT
HETATM    1  C   UNL     1      -5.179  11.189  66.010  1.00  0.00    -0.130 C  
HETATM    2  O   UNL     1      -5.561  10.985  67.366  1.00  0.00    -0.043 OA 
ENDROOT
BRANCH   2   3
HETATM    3  C   UNL     1      -6.903  10.945  67.675  1.00  0.00    -0.081 A  
HETATM    4  C   UNL     1      -7.646  12.050  68.201  1.00  0.00    -0.120 A  
HETATM    5  C   UNL     1      -9.045  11.902  68.319  1.00  0.00    -0.183 A  
HETATM    6  C   UNL     1      -9.852   8.560  67.077  1.00  0.00    -0.224 C  
HETATM    7  O   UNL     1      -9.846  12.855  68.874  1.00  0.00    -0.419 OA 
HETATM    8  C   UNL     1      -6.745   8.575  66.777  1.00  0.00    -0.061 C  
HETATM    9  C   UNL     1      -9.654  10.731  67.890  1.00  0.00    -0.171 A  
HETATM   10  C   UNL     1     -11.078  10.386  67.842  1.00  0.00    -0.299 C  
HETATM   11  C   UNL     1      -7.545   9.743  67.280  1.00  0.00    -0.088 A  
HETATM   12  H   UNL     1     -10.788  12.755  68.953  1.00  0.00     0.000 HD 
HETATM   13  O   UNL     1     -12.035  11.079  68.121  1.00  0.00    -0.610 OA 
HETATM   14  C   UNL     1      -8.927   9.667  67.397  1.00  0.00    -0.141 A  
HETATM   15  O   UNL     1     -11.150   9.106  67.360  1.00  0.00    -0.052 OA 
BRANCH   4  16
HETATM   16  C   UNL     1      -6.898  13.262  68.708  1.00  0.00    -0.102 C  
BRANCH  16  17
HETATM   17  C   UNL     1      -7.360  14.645  68.379  1.00  0.00    -0.115 C  
HETATM   18  C   UNL     1      -6.765  15.794  68.748  1.00  0.00    -0.119 C  
HETATM   19  C   UNL     1      -5.402  15.865  69.391  1.00  0.00    -0.113 C  
BRANCH  18  20
HETATM   20  C   UNL     1      -7.465  17.143  68.602  1.00  0.00    -0.245 C  
BRANCH  20  21
HETATM   21  C   UNL     1      -8.649  17.197  67.630  1.00  0.00    -0.214 C  
HETATM   22  O   UNL     1     -10.944  17.085  68.377  1.00  0.00    -0.352 OA 
HETATM   23  O   UNL     1      -9.838  19.031  68.626  1.00  0.00    -0.371 OA 
HETATM   24  C   UNL     1      -9.918  17.737  68.249  1.00  0.00    -0.355 C  
ENDBRANCH  20  21
ENDBRANCH  18  20
ENDBRANCH  16  17
ENDBRANCH   4  16
ENDBRANCH   2   3
TORSDOF 5
ENDMDL
MODEL      205
REMARK 921   NORMALIZED FREE ENERGY PREDICTED BY IDOCK:   -3.28 KCAL/MOL
REMARK 922        TOTAL FREE ENERGY PREDICTED BY IDOCK:   -4.50 KCAL/MOL
REMARK 923 INTER-LIGAND FREE ENERGY PREDICTED BY IDOCK:   -3.95 KCAL/MOL
REMARK 924 INTRA-LIGAND FREE ENERGY PREDICTED BY IDOCK:   -0.56 KCAL/MOL
REMARK 927      BINDING AFFINITY PREDICTED BY RF-SCORE:    0.00 PKD
ROOT
HETATM    1  C   UNL     1      -5.597  13.619  68.053  1.00  0.00    -0.125 C  
HETATM    2  O   UNL     1      -6.573  13.279  67.075  1.00  0.00    -0.102 OA 
ENDROOT
BRANCH   2   3
HETATM    3  C   UNL     1      -7.822  12.881  67.498  1.00  0.00    -0.177 A  
HETATM    4  C   UNL     1      -8.105  11.621  68.114  1.00  0.00    -0.148 A  
HETATM    5  C   UNL     1      -9.402  11.423  68.636  1.00  0.00    -0.150 A  
HETATM    6  C   UNL     1     -11.259  14.512  68.023  1.00  0.00    -0.292 C  
HETATM    7  O   UNL     1      -9.810  10.240  69.176  1.00  0.00    -0.194 OA 
HETATM    8  C   UNL     1      -8.508  15.200  66.719  1.00  0.00    -0.272 C  
HETATM    9  C   UNL     1     -10.335  12.449  68.575  1.00  0.00    -0.232 A  
HETATM   10  C   UNL     1     -11.698  12.501  69.112  1.00  0.00    -0.321 C  
HETATM   11  C   UNL     1      -8.805  13.901  67.415  1.00  0.00    -0.209 A  
HETATM   12  H   UNL     1     -10.683  10.107  69.528  1.00  0.00     0.000 HD 
HETATM   13  O   UNL     1     -12.284  11.668  69.773  1.00  0.00    -0.275 OA 
HETATM   14  C   UNL     1     -10.056  13.656  67.967  1.00  0.00    -0.250 A  
HETATM   15  O   UNL     1     -12.204  13.726  68.766  1.00  0.00    -0.350 OA 
BRANCH   4  16
HETATM   16  C   UNL     1      -7.056  10.534  68.076  1.00  0.00    -0.086 C  
BRANCH  16  17
HETATM   17  C   UNL     1      -6.936   9.620  66.898  1.00  0.00    -0.085 C  
HETATM   18  C   UNL     1      -7.246   8.311  66.869  1.00  0.00    -0.083 C  
HETATM   19  C   UNL     1      -7.964   7.593  67.985  1.00  0.00    -0.122 C  
BRANCH  18  20
HETATM   20  C   UNL     1      -6.826   7.413  65.709  1.00  0.00    -0.056 C  
BRANCH  20  21
HETATM   21  C   UNL     1      -7.955   6.819  64.859  1.00  0.00    -0.124 C  
HETATM   22  O   UNL     1      -7.811   4.621  63.866  1.00  0.00    -0.080 OA 
HETATM   23  O   UNL     1      -8.263   4.766  66.068  1.00  0.00    -0.110 OA 
HETATM   24  C   UNL     1      -7.987   5.308  64.862  1.00  0.00    -0.105 C  
ENDBRANCH  20  21
ENDBRANCH  18  20
ENDBRANCH  16  17
ENDBRANCH   4  16
ENDBRANCH   2   3
TORSDOF 5
ENDMDL
MODEL      206
REMARK 921   NORMALIZED FREE ENERGY PREDICTED BY IDOCK:   -3.17 KCAL/MOL
REMARK 922        TOTAL FREE ENERGY PREDICTED BY IDOCK:   -4.36 KCAL/MOL
REMARK 923 INTER-LIGAND FREE ENERGY PREDICTED BY IDOCK:   -4.27 KCAL/MOL
REMARK 924 INTRA-LIGAND FREE ENERGY PREDICTED BY IDOCK:   -0.09 KCAL/MOL
REMARK 927      BINDING AFFINITY PREDICTED BY RF-SCORE:    0.00 PKD
ROOT
HETATM    1  C   UNL     1      -5.621  13.868  68.156  1.00  0.00    -0.118 C  
HETATM    2  O   UNL     1      -6.572  13.401  67.204  1.00  0.00    -0.195 OA 
ENDROOT
BRANCH   2   3
HETATM    3  C   UNL     1      -7.863  13.165  67.621  1.00  0.00    -0.169 A  
HETATM    4  C   UNL     1      -8.287  11.985  68.312  1.00  0.00    -0.163 A  
HETATM    5  C   UNL     1      -9.608  11.959  68.813  1.00  0.00    -0.012 A  
HETATM    6  C   UNL     1     -11.118  15.175  67.950  1.00  0.00    -0.321 C  
HETATM    7  O   UNL     1     -10.147  10.865  69.421  1.00  0.00    -0.369 OA 
HETATM    8  C   UNL     1      -8.286  15.483  66.673  1.00  0.00    -0.286 C  
HETATM    9  C   UNL     1     -10.426  13.070  68.661  1.00  0.00    -0.236 A  
HETATM   10  C   UNL     1     -11.786  13.299  69.159  1.00  0.00    -0.329 C  
HETATM   11  C   UNL     1      -8.732  14.273  67.446  1.00  0.00    -0.217 A  
HETATM   12  H   UNL     1     -11.035  10.848  69.758  1.00  0.00     0.000 HD 
HETATM   13  O   UNL     1     -12.468  12.579  69.859  1.00  0.00    -0.083 OA 
HETATM   14  C   UNL     1     -10.011  14.197  67.981  1.00  0.00    -0.226 A  
HETATM   15  O   UNL     1     -12.154  14.544  68.720  1.00  0.00    -0.293 OA 
BRANCH   4  16
HETATM   16  C   UNL     1      -7.358  10.796  68.372  1.00  0.00    -0.092 C  
BRANCH  16  17
HETATM   17  C   UNL     1      -7.890   9.399  68.320  1.00  0.00    -0.090 C  
HETATM   18  C   UNL     1      -7.687   8.433  69.235  1.00  0.00    -0.098 C  
HETATM   19  C   UNL     1      -7.046   8.672  70.580  1.00  0.00    -0.044 C  
BRANCH  18  20
HETATM   20  C   UNL     1      -8.036   6.974  68.951  1.00  0.00    -0.120 C  
BRANCH  20  21
HETATM   21  C   UNL     1      -9.093   6.335  69.858  1.00  0.00    -0.145 C  
HETATM   22  O   UNL     1     -11.459   6.723  69.563  1.00  0.00    -0.264 OA 
HETATM   23  O   UNL     1     -10.432   5.293  68.158  1.00  0.00    -0.151 OA 
HETATM   24  C   UNL     1     -10.439   6.161  69.193  1.00  0.00    -0.251 C  
ENDBRANCH  20  21
ENDBRANCH  18  20
ENDBRANCH  16  17
ENDBRANCH   4  16
ENDBRANCH   2   3
TORSDOF 5
ENDMDL
MODEL      207
REMARK 921   NORMALIZED FREE ENERGY PREDICTED BY IDOCK:   -3.17 KCAL/MOL
REMARK 922        TOTAL FREE ENERGY PREDICTED BY IDOCK:   -4.36 KCAL/MOL
REMARK 923 INTER-LIGAND FREE ENERGY PREDICTED BY IDOCK:   -4.91 KCAL/MOL
REMARK 924 INTRA-LIGAND FREE ENERGY PREDICTED BY IDOCK:    0.55 KCAL/MOL
REMARK 927      BINDING AFFINITY PREDICTED BY RF-SCORE:    0.00 PKD
ROOT
HETATM    1  C   UNL     1      -9.784  12.363  66.777  1.00  0.00    -0.223 C  
HETATM    2  O   UNL     1      -9.470  11.449  67.823  1.00  0.00    -0.159 OA 
ENDROOT
BRANCH   2   3
HETATM    3  C   UNL     1     -10.458  11.107  68.721  1.00  0.00    -0.203 A  
HETATM    4  C   UNL     1     -10.716   9.773  69.172  1.00  0.00    -0.242 A  
HETATM    5  C   UNL     1     -11.657   9.604  70.211  1.00  0.00    -0.198 A  
HETATM    6  C   UNL     1     -12.842  12.945  71.105  1.00  0.00    -0.238 C  
HETATM    7  O   UNL     1     -12.039   8.379  70.671  1.00  0.00    -0.490 OA 
HETATM    8  C   UNL     1     -10.873  13.613  68.776  1.00  0.00    -0.279 C  
HETATM    9  C   UNL     1     -12.261  10.715  70.783  1.00  0.00    -0.474 A  
HETATM   10  C   UNL     1     -13.196  10.788  71.910  1.00  0.00    -0.419 C  
HETATM   11  C   UNL     1     -11.118  12.224  69.297  1.00  0.00    -0.220 A  
HETATM   12  H   UNL     1     -12.672   8.265  71.370  1.00  0.00     0.000 HD 
HETATM   13  O   UNL     1     -13.601   9.890  72.619  1.00  0.00    -0.211 OA 
HETATM   14  C   UNL     1     -12.015  11.995  70.332  1.00  0.00    -0.379 A  
HETATM   15  O   UNL     1     -13.512  12.112  72.065  1.00  0.00    -0.456 OA 
BRANCH   4  16
HETATM   16  C   UNL     1     -10.067   8.617  68.448  1.00  0.00    -0.217 C  
BRANCH  16  17
HETATM   17  C   UNL     1      -8.580   8.462  68.420  1.00  0.00    -0.139 C  
HETATM   18  C   UNL     1      -7.798   8.082  69.447  1.00  0.00    -0.113 C  
HETATM   19  C   UNL     1      -8.329   7.549  70.755  1.00  0.00    -0.118 C  
BRANCH  18  20
HETATM   20  C   UNL     1      -6.279   8.226  69.394  1.00  0.00    -0.037 C  
BRANCH  20  21
HETATM   21  C   UNL     1      -5.470   6.925  69.349  1.00  0.00    -0.015 C  
HETATM   22  O   UNL     1      -6.438   4.818  68.670  1.00  0.00    -0.035 OA 
HETATM   23  O   UNL     1      -5.911   6.313  67.069  1.00  0.00    -0.019 OA 
HETATM   24  C   UNL     1      -5.998   5.915  68.357  1.00  0.00    -0.020 C  
ENDBRANCH  20  21
ENDBRANCH  18  20
ENDBRANCH  16  17
ENDBRANCH   4  16
ENDBRANCH   2   3
TORSDOF 5
ENDMDL
MODEL      208
REMARK 921   NORMALIZED FREE ENERGY PREDICTED BY IDOCK:   -3.16 KCAL/MOL
REMARK 922        TOTAL FREE ENERGY PREDICTED BY IDOCK:   -4.35 KCAL/MOL
REMARK 923 INTER-LIGAND FREE ENERGY PREDICTED BY IDOCK:   -4.32 KCAL/MOL
REMARK 924 INTRA-LIGAND FREE ENERGY PREDICTED BY IDOCK:   -0.03 KCAL/MOL
REMARK 927      BINDING AFFINITY PREDICTED BY RF-SCORE:    0.00 PKD
ROOT
HETATM    1  C   UNL     1     -11.057   6.581  67.444  1.00  0.00    -0.327 C  
HETATM    2  O   UNL     1      -9.759   7.088  67.736  1.00  0.00    -0.132 OA 
ENDROOT
BRANCH   2   3
HETATM    3  C   UNL     1      -9.216   6.840  68.977  1.00  0.00    -0.136 A  
HETATM    4  C   UNL     1      -9.895   7.066  70.218  1.00  0.00    -0.180 A  
HETATM    5  C   UNL     1      -9.266   6.615  71.399  1.00  0.00    -0.151 A  
HETATM    6  C   UNL     1      -6.126   5.045  70.382  1.00  0.00    -0.018 C  
HETATM    7  O   UNL     1      -9.779   6.840  72.642  1.00  0.00    -0.150 OA 
HETATM    8  C   UNL     1      -7.237   5.999  67.626  1.00  0.00    -0.076 C  
HETATM    9  C   UNL     1      -8.055   5.942  71.324  1.00  0.00    -0.118 A  
HETATM   10  C   UNL     1      -7.266   5.323  72.394  1.00  0.00    -0.092 C  
HETATM   11  C   UNL     1      -7.959   6.183  68.931  1.00  0.00    -0.101 A  
HETATM   12  H   UNL     1      -9.357   6.537  73.437  1.00  0.00     0.000 HD 
HETATM   13  O   UNL     1      -7.536   5.223  73.573  1.00  0.00    -0.092 OA 
HETATM   14  C   UNL     1      -7.403   5.741  70.125  1.00  0.00    -0.073 A  
HETATM   15  O   UNL     1      -6.144   4.809  71.799  1.00  0.00    -0.019 OA 
BRANCH   4  16
HETATM   16  C   UNL     1     -11.175   7.867  70.217  1.00  0.00    -0.206 C  
BRANCH  16  17
HETATM   17  C   UNL     1     -11.194   9.289  69.754  1.00  0.00    -0.104 C  
HETATM   18  C   UNL     1     -11.995  10.268  70.215  1.00  0.00    -0.348 C  
HETATM   19  C   UNL     1     -12.875  10.130  71.432  1.00  0.00    -0.530 C  
BRANCH  18  20
HETATM   20  C   UNL     1     -12.129  11.603  69.487  1.00  0.00    -0.336 C  
BRANCH  20  21
HETATM   21  C   UNL     1     -11.192  11.830  68.295  1.00  0.00    -0.313 C  
HETATM   22  O   UNL     1     -11.438  13.705  66.791  1.00  0.00    -0.320 OA 
HETATM   23  O   UNL     1     -10.504  14.073  68.808  1.00  0.00    -0.239 OA 
HETATM   24  C   UNL     1     -11.077  13.278  67.879  1.00  0.00    -0.262 C  
ENDBRANCH  20  21
ENDBRANCH  18  20
ENDBRANCH  16  17
ENDBRANCH   4  16
ENDBRANCH   2   3
TORSDOF 5
ENDMDL
MODEL      209
REMARK 921   NORMALIZED FREE ENERGY PREDICTED BY IDOCK:   -3.14 KCAL/MOL
REMARK 922        TOTAL FREE ENERGY PREDICTED BY IDOCK:   -4.32 KCAL/MOL
REMARK 923 INTER-LIGAND FREE ENERGY PREDICTED BY IDOCK:   -4.35 KCAL/MOL
REMARK 924 INTRA-LIGAND FREE ENERGY PREDICTED BY IDOCK:    0.03 KCAL/MOL
REMARK 927      BINDING AFFINITY PREDICTED BY RF-SCORE:    0.00 PKD
ROOT
HETATM    1  C   UNL     1      -6.222  10.206  70.516  1.00  0.00    -0.115 C  
HETATM    2  O   UNL     1      -6.240   8.996  69.766  1.00  0.00    -0.037 OA 
ENDROOT
BRANCH   2   3
HETATM    3  C   UNL     1      -7.411   8.619  69.147  1.00  0.00    -0.076 A  
HETATM    4  C   UNL     1      -7.713   8.866  67.769  1.00  0.00    -0.101 A  
HETATM    5  C   UNL     1      -8.886   8.281  67.241  1.00  0.00    -0.130 A  
HETATM    6  C   UNL     1     -10.423   6.382  69.961  1.00  0.00    -0.215 C  
HETATM    7  O   UNL     1      -9.316   8.506  65.968  1.00  0.00    -0.223 OA 
HETATM    8  C   UNL     1      -7.946   7.606  71.413  1.00  0.00    -0.094 C  
HETATM    9  C   UNL     1      -9.672   7.466  68.044  1.00  0.00    -0.161 A  
HETATM   10  C   UNL     1     -10.873   6.699  67.698  1.00  0.00    -0.315 C  
HETATM   11  C   UNL     1      -8.252   7.813  69.956  1.00  0.00    -0.121 A  
HETATM   12  H   UNL     1     -10.104   8.112  65.613  1.00  0.00     0.000 HD 
HETATM   13  O   UNL     1     -11.406   6.574  66.614  1.00  0.00    -0.171 OA 
HETATM   14  C   UNL     1      -9.378   7.245  69.374  1.00  0.00    -0.151 A  
HETATM   15  O   UNL     1     -11.281   6.079  68.849  1.00  0.00    -0.344 OA 
BRANCH   4  16
HETATM   16  C   UNL     1      -6.843   9.821  66.987  1.00  0.00    -0.083 C  
BRANCH  16  17
HETATM   17  C   UNL     1      -7.363  11.151  66.544  1.00  0.00    -0.129 C  
HETATM   18  C   UNL     1      -8.342  11.862  67.133  1.00  0.00    -0.174 C  
HETATM   19  C   UNL     1      -8.941  11.515  68.474  1.00  0.00    -0.146 C  
BRANCH  18  20
HETATM   20  C   UNL     1      -8.985  13.064  66.447  1.00  0.00    -0.002 C  
BRANCH  20  21
HETATM   21  C   UNL     1     -10.240  13.641  67.111  1.00  0.00    -0.244 C  
HETATM   22  O   UNL     1     -12.285  14.043  65.888  1.00  0.00    -0.408 OA 
HETATM   23  O   UNL     1     -11.796  11.925  66.476  1.00  0.00    -0.579 OA 
HETATM   24  C   UNL     1     -11.527  13.247  66.423  1.00  0.00    -0.329 C  
ENDBRANCH  20  21
ENDBRANCH  18  20
ENDBRANCH  16  17
ENDBRANCH   4  16
ENDBRANCH   2   3
TORSDOF 5
ENDMDL
MODEL      210
REMARK 921   NORMALIZED FREE ENERGY PREDICTED BY IDOCK:   -3.12 KCAL/MOL
REMARK 922        TOTAL FREE ENERGY PREDICTED BY IDOCK:   -4.29 KCAL/MOL
REMARK 923 INTER-LIGAND FREE ENERGY PREDICTED BY IDOCK:   -4.49 KCAL/MOL
REMARK 924 INTRA-LIGAND FREE ENERGY PREDICTED BY IDOCK:    0.20 KCAL/MOL
REMARK 927      BINDING AFFINITY PREDICTED BY RF-SCORE:    0.00 PKD
ROOT
HETATM    1  C   UNL     1      -5.522  17.777  69.090  1.00  0.00    -0.190 C  
HETATM    2  O   UNL     1      -6.804  17.271  69.447  1.00  0.00    -0.237 OA 
ENDROOT
BRANCH   2   3
HETATM    3  C   UNL     1      -7.082  15.944  69.206  1.00  0.00    -0.206 A  
HETATM    4  C   UNL     1      -8.047  15.479  68.257  1.00  0.00    -0.133 A  
HETATM    5  C   UNL     1      -8.106  14.089  68.010  1.00  0.00    -0.152 A  
HETATM    6  C   UNL     1      -5.541  12.545  70.107  1.00  0.00    -0.140 C  
HETATM    7  O   UNL     1      -9.032  13.522  67.186  1.00  0.00    -0.210 OA 
HETATM    8  C   UNL     1      -5.238  15.547  70.907  1.00  0.00    -0.142 C  
HETATM    9  C   UNL     1      -7.217  13.236  68.650  1.00  0.00    -0.106 A  
HETATM   10  C   UNL     1      -7.042  11.789  68.495  1.00  0.00    -0.091 C  
HETATM   11  C   UNL     1      -6.210  15.047  69.875  1.00  0.00    -0.155 A  
HETATM   12  H   UNL     1      -9.071  12.588  67.020  1.00  0.00     0.000 HD 
HETATM   13  O   UNL     1      -7.607  11.035  67.730  1.00  0.00    -0.096 OA 
HETATM   14  C   UNL     1      -6.300  13.694  69.573  1.00  0.00    -0.114 A  
HETATM   15  O   UNL     1      -6.050  11.424  69.366  1.00  0.00    -0.061 OA 
BRANCH   4  16
HETATM   16  C   UNL     1      -9.022  16.465  67.659  1.00  0.00    -0.198 C  
BRANCH  16  17
HETATM   17  C   UNL     1      -8.545  17.736  67.031  1.00  0.00    -0.248 C  
HETATM   18  C   UNL     1      -8.921  18.983  67.367  1.00  0.00    -0.318 C  
HETATM   19  C   UNL     1      -9.746  19.311  68.586  1.00  0.00    -0.494 C  
BRANCH  18  20
HETATM   20  C   UNL     1      -8.592  20.185  66.485  1.00  0.00    -0.327 C  
BRANCH  20  21
HETATM   21  C   UNL     1      -7.136  20.666  66.499  1.00  0.00    -0.275 C  
HETATM   22  O   UNL     1      -5.307  19.281  65.744  1.00  0.00    -0.152 OA 
HETATM   23  O   UNL     1      -6.610  20.263  64.191  1.00  0.00    -0.226 OA 
HETATM   24  C   UNL     1      -6.264  19.990  65.468  1.00  0.00    -0.222 C  
ENDBRANCH  20  21
ENDBRANCH  18  20
ENDBRANCH  16  17
ENDBRANCH   4  16
ENDBRANCH   2   3
TORSDOF 5
ENDMDL
MODEL      211
REMARK 921   NORMALIZED FREE ENERGY PREDICTED BY IDOCK:   -3.11 KCAL/MOL
REMARK 922        TOTAL FREE ENERGY PREDICTED BY IDOCK:   -4.29 KCAL/MOL
REMARK 923 INTER-LIGAND FREE ENERGY PREDICTED BY IDOCK:   -4.87 KCAL/MOL
REMARK 924 INTRA-LIGAND FREE ENERGY PREDICTED BY IDOCK:    0.59 KCAL/MOL
REMARK 927      BINDING AFFINITY PREDICTED BY RF-SCORE:    0.00 PKD
ROOT
HETATM    1  C   UNL     1     -10.747  14.829  65.869  1.00  0.00    -0.316 C  
HETATM    2  O   UNL     1      -9.592  15.611  65.584  1.00  0.00    -0.333 OA 
ENDROOT
BRANCH   2   3
HETATM    3  C   UNL     1      -8.965  16.266  66.621  1.00  0.00    -0.251 A  
HETATM    4  C   UNL     1      -7.888  15.720  67.390  1.00  0.00    -0.203 A  
HETATM    5  C   UNL     1      -7.245  16.573  68.314  1.00  0.00    -0.159 A  
HETATM    6  C   UNL     1      -8.891  19.827  68.056  1.00  0.00    -0.302 C  
HETATM    7  O   UNL     1      -6.260  16.146  69.153  1.00  0.00    -0.136 OA 
HETATM    8  C   UNL     1     -10.540  18.159  65.997  1.00  0.00    -0.278 C  
HETATM    9  C   UNL     1      -7.640  17.900  68.420  1.00  0.00    -0.282 A  
HETATM   10  C   UNL     1      -7.076  18.975  69.241  1.00  0.00    -0.243 C  
HETATM   11  C   UNL     1      -9.374  17.616  66.775  1.00  0.00    -0.286 A  
HETATM   12  H   UNL     1      -5.827  16.719  69.775  1.00  0.00     0.000 HD 
HETATM   13  O   UNL     1      -6.105  18.944  69.969  1.00  0.00    -0.244 OA 
HETATM   14  C   UNL     1      -8.688  18.412  67.683  1.00  0.00    -0.268 A  
HETATM   15  O   UNL     1      -7.838  20.087  68.998  1.00  0.00    -0.134 OA 
BRANCH   4  16
HETATM   16  C   UNL     1      -7.569  14.249  67.263  1.00  0.00    -0.118 C  
BRANCH  16  17
HETATM   17  C   UNL     1      -8.573  13.208  67.642  1.00  0.00    -0.193 C  
HETATM   18  C   UNL     1      -8.316  11.921  67.939  1.00  0.00    -0.152 C  
HETATM   19  C   UNL     1      -6.927  11.367  68.137  1.00  0.00    -0.069 C  
BRANCH  18  20
HETATM   20  C   UNL     1      -9.430  10.882  68.036  1.00  0.00    -0.167 C  
BRANCH  20  21
HETATM   21  C   UNL     1      -9.466   9.812  66.939  1.00  0.00    -0.202 C  
HETATM   22  O   UNL     1     -10.328  10.256  64.726  1.00  0.00    -0.277 OA 
HETATM   23  O   UNL     1      -8.269  11.013  65.237  1.00  0.00    -0.045 OA 
HETATM   24  C   UNL     1      -9.422  10.378  65.538  1.00  0.00    -0.215 C  
ENDBRANCH  20  21
ENDBRANCH  18  20
ENDBRANCH  16  17
ENDBRANCH   4  16
ENDBRANCH   2   3
TORSDOF 5
ENDMDL
MODEL      212
REMARK 921   NORMALIZED FREE ENERGY PREDICTED BY IDOCK:   -3.07 KCAL/MOL
REMARK 922        TOTAL FREE ENERGY PREDICTED BY IDOCK:   -4.23 KCAL/MOL
REMARK 923 INTER-LIGAND FREE ENERGY PREDICTED BY IDOCK:   -4.35 KCAL/MOL
REMARK 924 INTRA-LIGAND FREE ENERGY PREDICTED BY IDOCK:    0.11 KCAL/MOL
REMARK 927      BINDING AFFINITY PREDICTED BY RF-SCORE:    0.00 PKD
ROOT
HETATM    1  C   UNL     1      -7.878  14.919  68.795  1.00  0.00    -0.149 C  
HETATM    2  O   UNL     1      -9.044  14.123  68.977  1.00  0.00    -0.052 OA 
ENDROOT
BRANCH   2   3
HETATM    3  C   UNL     1      -9.712  13.666  67.863  1.00  0.00    -0.234 A  
HETATM    4  C   UNL     1      -9.422  12.435  67.193  1.00  0.00    -0.198 A  
HETATM    5  C   UNL     1     -10.296  12.028  66.161  1.00  0.00    -0.224 A  
HETATM    6  C   UNL     1     -12.899  14.585  65.927  1.00  0.00     0.055 C  
HETATM    7  O   UNL     1     -10.080  10.916  65.404  1.00  0.00    -0.248 OA 
HETATM    8  C   UNL     1     -11.102  15.767  68.189  1.00  0.00    -0.341 C  
HETATM    9  C   UNL     1     -11.413  12.796  65.860  1.00  0.00    -0.399 A  
HETATM   10  C   UNL     1     -12.488  12.537  64.897  1.00  0.00    -0.450 C  
HETATM   11  C   UNL     1     -10.840  14.452  67.510  1.00  0.00    -0.285 A  
HETATM   12  H   UNL     1     -10.669  10.642  64.710  1.00  0.00     0.000 HD 
HETATM   13  O   UNL     1     -12.655  11.563  64.192  1.00  0.00    -0.031 OA 
HETATM   14  C   UNL     1     -11.676  13.988  66.503  1.00  0.00    -0.412 A  
HETATM   15  O   UNL     1     -13.337  13.609  64.968  1.00  0.00    -0.593 OA 
BRANCH   4  16
HETATM   16  C   UNL     1      -8.149  11.697  67.535  1.00  0.00    -0.144 C  
BRANCH  16  17
HETATM   17  C   UNL     1      -8.048  10.214  67.366  1.00  0.00    -0.114 C  
HETATM   18  C   UNL     1      -6.945   9.522  67.027  1.00  0.00    -0.085 C  
HETATM   19  C   UNL     1      -5.564  10.125  66.960  1.00  0.00    -0.045 C  
BRANCH  18  20
HETATM   20  C   UNL     1      -7.015   8.056  66.609  1.00  0.00    -0.072 C  
BRANCH  20  21
HETATM   21  C   UNL     1      -6.478   7.031  67.615  1.00  0.00    -0.051 C  
HETATM   22  O   UNL     1      -7.921   5.818  69.125  1.00  0.00    -0.095 OA 
HETATM   23  O   UNL     1      -7.839   5.160  66.972  1.00  0.00    -0.095 OA 
HETATM   24  C   UNL     1      -7.482   5.968  67.994  1.00  0.00    -0.085 C  
ENDBRANCH  20  21
ENDBRANCH  18  20
ENDBRANCH  16  17
ENDBRANCH   4  16
ENDBRANCH   2   3
TORSDOF 5
ENDMDL
MODEL      213
REMARK 921   NORMALIZED FREE ENERGY PREDICTED BY IDOCK:   -2.96 KCAL/MOL
REMARK 922        TOTAL FREE ENERGY PREDICTED BY IDOCK:   -4.08 KCAL/MOL
REMARK 923 INTER-LIGAND FREE ENERGY PREDICTED BY IDOCK:   -4.90 KCAL/MOL
REMARK 924 INTRA-LIGAND FREE ENERGY PREDICTED BY IDOCK:    0.82 KCAL/MOL
REMARK 927      BINDING AFFINITY PREDICTED BY RF-SCORE:    0.00 PKD
ROOT
HETATM    1  C   UNL     1      -5.759  12.516  67.198  1.00  0.00    -0.008 C  
HETATM    2  O   UNL     1      -6.303  13.814  67.414  1.00  0.00    -0.315 OA 
ENDROOT
BRANCH   2   3
HETATM    3  C   UNL     1      -7.649  13.930  67.682  1.00  0.00    -0.178 A  
HETATM    4  C   UNL     1      -8.465  12.876  68.204  1.00  0.00    -0.176 A  
HETATM    5  C   UNL     1      -9.790  13.195  68.574  1.00  0.00    -0.153 A  
HETATM    6  C   UNL     1     -10.231  16.763  67.913  1.00  0.00    -0.300 C  
HETATM    7  O   UNL     1     -10.681  12.261  69.012  1.00  0.00    -0.336 OA 
HETATM    8  C   UNL     1      -7.295  16.335  66.944  1.00  0.00    -0.266 C  
HETATM    9  C   UNL     1     -10.242  14.503  68.463  1.00  0.00    -0.240 A  
HETATM   10  C   UNL     1     -11.533  15.077  68.853  1.00  0.00    -0.314 C  
HETATM   11  C   UNL     1      -8.148  15.252  67.542  1.00  0.00    -0.192 A  
HETATM   12  H   UNL     1     -11.572  12.476  69.261  1.00  0.00     0.000 HD 
HETATM   13  O   UNL     1     -12.467  14.535  69.407  1.00  0.00    -0.230 OA 
HETATM   14  C   UNL     1      -9.452  15.508  67.946  1.00  0.00    -0.201 A  
HETATM   15  O   UNL     1     -11.485  16.403  68.513  1.00  0.00    -0.351 OA 
BRANCH   4  16
HETATM   16  C   UNL     1      -7.917  11.468  68.227  1.00  0.00    -0.142 C  
BRANCH  16  17
HETATM   17  C   UNL     1      -8.708  10.325  67.676  1.00  0.00    -0.121 C  
HETATM   18  C   UNL     1      -8.309   9.464  66.722  1.00  0.00    -0.123 C  
HETATM   19  C   UNL     1      -6.899   9.393  66.193  1.00  0.00    -0.085 C  
BRANCH  18  20
HETATM   20  C   UNL     1      -9.290   8.515  66.038  1.00  0.00    -0.266 C  
BRANCH  20  21
HETATM   21  C   UNL     1     -10.478   8.035  66.880  1.00  0.00    -0.387 C  
HETATM   22  O   UNL     1     -10.948   5.693  67.240  1.00  0.00    -0.209 OA 
HETATM   23  O   UNL     1      -9.277   6.636  68.419  1.00  0.00    -0.125 OA 
HETATM   24  C   UNL     1     -10.269   6.674  67.504  1.00  0.00    -0.181 C  
ENDBRANCH  20  21
ENDBRANCH  18  20
ENDBRANCH  16  17
ENDBRANCH   4  16
ENDBRANCH   2   3
TORSDOF 5
ENDMDL
MODEL      214
REMARK 921   NORMALIZED FREE ENERGY PREDICTED BY IDOCK:   -2.93 KCAL/MOL
REMARK 922        TOTAL FREE ENERGY PREDICTED BY IDOCK:   -4.05 KCAL/MOL
REMARK 923 INTER-LIGAND FREE ENERGY PREDICTED BY IDOCK:   -4.08 KCAL/MOL
REMARK 924 INTRA-LIGAND FREE ENERGY PREDICTED BY IDOCK:    0.04 KCAL/MOL
REMARK 927      BINDING AFFINITY PREDICTED BY RF-SCORE:    0.00 PKD
ROOT
HETATM    1  C   UNL     1      -6.767   9.293  70.481  1.00  0.00    -0.078 C  
HETATM    2  O   UNL     1      -6.699   9.619  69.096  1.00  0.00    -0.048 OA 
ENDROOT
BRANCH   2   3
HETATM    3  C   UNL     1      -7.645  10.471  68.571  1.00  0.00    -0.097 A  
HETATM    4  C   UNL     1      -9.004  10.106  68.306  1.00  0.00    -0.120 A  
HETATM    5  C   UNL     1      -9.893  11.132  67.915  1.00  0.00    -0.174 A  
HETATM    6  C   UNL     1      -7.960  14.235  67.880  1.00  0.00    -0.153 C  
HETATM    7  O   UNL     1     -11.188  10.895  67.564  1.00  0.00    -0.304 OA 
HETATM    8  C   UNL     1      -5.761  12.171  68.685  1.00  0.00    -0.053 C  
HETATM    9  C   UNL     1      -9.444  12.444  67.842  1.00  0.00    -0.198 A  
HETATM   10  C   UNL     1     -10.193  13.667  67.540  1.00  0.00    -0.241 C  
HETATM   11  C   UNL     1      -7.202  11.814  68.452  1.00  0.00    -0.089 A  
HETATM   12  H   UNL     1     -11.786  11.585  67.302  1.00  0.00     0.000 HD 
HETATM   13  O   UNL     1     -11.383  13.798  67.339  1.00  0.00    -0.298 OA 
HETATM   14  C   UNL     1      -8.129  12.782  68.087  1.00  0.00    -0.158 A  
HETATM   15  O   UNL     1      -9.286  14.694  67.572  1.00  0.00    -0.189 OA 
BRANCH   4  16
HETATM   16  C   UNL     1      -9.392   8.647  68.341  1.00  0.00    -0.141 C  
BRANCH  16  17
HETATM   17  C   UNL     1      -9.747   7.975  69.629  1.00  0.00    -0.169 C  
HETATM   18  C   UNL     1     -10.476   8.503  70.630  1.00  0.00    -0.234 C  
HETATM   19  C   UNL     1     -11.232   9.804  70.522  1.00  0.00    -0.381 C  
BRANCH  18  20
HETATM   20  C   UNL     1     -10.542   7.846  72.006  1.00  0.00    -0.296 C  
BRANCH  20  21
HETATM   21  C   UNL     1      -9.448   8.237  73.005  1.00  0.00    -0.298 C  
HETATM   22  O   UNL     1      -8.484   6.655  74.556  1.00  0.00    -0.136 OA 
HETATM   23  O   UNL     1      -7.815   6.580  72.407  1.00  0.00    -0.100 OA 
HETATM   24  C   UNL     1      -8.559   7.085  73.414  1.00  0.00    -0.131 C  
ENDBRANCH  20  21
ENDBRANCH  18  20
ENDBRANCH  16  17
ENDBRANCH   4  16
ENDBRANCH   2   3
TORSDOF 5
ENDMDL
MODEL      215
REMARK 921   NORMALIZED FREE ENERGY PREDICTED BY IDOCK:   -2.92 KCAL/MOL
REMARK 922        TOTAL FREE ENERGY PREDICTED BY IDOCK:   -4.04 KCAL/MOL
REMARK 923 INTER-LIGAND FREE ENERGY PREDICTED BY IDOCK:   -4.69 KCAL/MOL
REMARK 924 INTRA-LIGAND FREE ENERGY PREDICTED BY IDOCK:    0.65 KCAL/MOL
REMARK 927      BINDING AFFINITY PREDICTED BY RF-SCORE:    0.00 PKD
ROOT
HETATM    1  C   UNL     1      -9.892  10.001  65.482  1.00  0.00    -0.303 C  
HETATM    2  O   UNL     1     -10.012  11.223  66.202  1.00  0.00    -0.213 OA 
ENDROOT
BRANCH   2   3
HETATM    3  C   UNL     1      -8.985  11.603  67.037  1.00  0.00    -0.182 A  
HETATM    4  C   UNL     1      -8.501  12.944  67.168  1.00  0.00    -0.179 A  
HETATM    5  C   UNL     1      -7.550  13.200  68.180  1.00  0.00    -0.141 A  
HETATM    6  C   UNL     1      -6.968  10.027  69.899  1.00  0.00    -0.118 C  
HETATM    7  O   UNL     1      -6.963  14.418  68.352  1.00  0.00    -0.094 OA 
HETATM    8  C   UNL     1      -9.011   9.153  67.708  1.00  0.00    -0.132 C  
HETATM    9  C   UNL     1      -7.151  12.177  69.028  1.00  0.00    -0.062 A  
HETATM   10  C   UNL     1      -6.248  12.224  70.182  1.00  0.00    -0.048 C  
HETATM   11  C   UNL     1      -8.532  10.565  67.893  1.00  0.00    -0.119 A  
HETATM   12  H   UNL     1      -6.323  14.591  69.033  1.00  0.00     0.000 HD 
HETATM   13  O   UNL     1      -5.696  13.187  70.674  1.00  0.00    -0.167 OA 
HETATM   14  C   UNL     1      -7.613  10.885  68.884  1.00  0.00    -0.128 A  
HETATM   15  O   UNL     1      -6.168  10.944  70.664  1.00  0.00    -0.289 OA 
BRANCH   4  16
HETATM   16  C   UNL     1      -8.936  13.982  66.160  1.00  0.00     0.179 C  
BRANCH  16  17
HETATM   17  C   UNL     1      -9.833  15.111  66.555  1.00  0.00    -0.278 C  
HETATM   18  C   UNL     1      -9.490  16.409  66.644  1.00  0.00    -0.277 C  
HETATM   19  C   UNL     1      -8.176  16.966  66.155  1.00  0.00    -0.295 C  
BRANCH  18  20
HETATM   20  C   UNL     1     -10.397  17.433  67.322  1.00  0.00    -0.336 C  
BRANCH  20  21
HETATM   21  C   UNL     1      -9.940  17.953  68.689  1.00  0.00    -0.387 C  
HETATM   22  O   UNL     1      -8.012  19.385  68.953  1.00  0.00    -0.358 OA 
HETATM   23  O   UNL     1      -9.920  20.301  68.185  1.00  0.00    -0.379 OA 
HETATM   24  C   UNL     1      -9.181  19.258  68.620  1.00  0.00    -0.385 C  
ENDBRANCH  20  21
ENDBRANCH  18  20
ENDBRANCH  16  17
ENDBRANCH   4  16
ENDBRANCH   2   3
TORSDOF 5
ENDMDL
MODEL      216
REMARK 921   NORMALIZED FREE ENERGY PREDICTED BY IDOCK:   -2.75 KCAL/MOL
REMARK 922        TOTAL FREE ENERGY PREDICTED BY IDOCK:   -3.82 KCAL/MOL
REMARK 923 INTER-LIGAND FREE ENERGY PREDICTED BY IDOCK:   -3.82 KCAL/MOL
REMARK 924 INTRA-LIGAND FREE ENERGY PREDICTED BY IDOCK:    0.00 KCAL/MOL
REMARK 927      BINDING AFFINITY PREDICTED BY RF-SCORE:    0.00 PKD
ROOT
HETATM    1  C   UNL     1      -5.125  16.447  68.367  1.00  0.00    -0.100 C  
HETATM    2  O   UNL     1      -6.175  16.347  69.324  1.00  0.00    -0.154 OA 
ENDROOT
BRANCH   2   3
HETATM    3  C   UNL     1      -7.353  15.738  68.950  1.00  0.00    -0.162 A  
HETATM    4  C   UNL     1      -7.579  14.325  68.983  1.00  0.00    -0.084 A  
HETATM    5  C   UNL     1      -8.889  13.865  68.721  1.00  0.00     0.007 A  
HETATM    6  C   UNL     1     -10.940  16.832  68.125  1.00  0.00    -0.309 C  
HETATM    7  O   UNL     1      -9.208  12.542  68.649  1.00  0.00    -0.374 OA 
HETATM    8  C   UNL     1      -8.138  18.127  68.589  1.00  0.00    -0.301 C  
HETATM    9  C   UNL     1      -9.907  14.779  68.485  1.00  0.00    -0.218 A  
HETATM   10  C   UNL     1     -11.338  14.542  68.270  1.00  0.00    -0.297 C  
HETATM   11  C   UNL     1      -8.404  16.650  68.670  1.00  0.00    -0.246 A  
HETATM   12  H   UNL     1     -10.089  12.233  68.473  1.00  0.00     0.000 HD 
HETATM   13  O   UNL     1     -11.946  13.492  68.304  1.00  0.00    -0.356 OA 
HETATM   14  C   UNL     1      -9.675  16.138  68.443  1.00  0.00    -0.219 A  
HETATM   15  O   UNL     1     -11.907  15.771  68.063  1.00  0.00    -0.207 OA 
BRANCH   4  16
HETATM   16  C   UNL     1      -6.402  13.398  69.177  1.00  0.00    -0.102 C  
BRANCH  16  17
HETATM   17  C   UNL     1      -6.274  12.138  68.383  1.00  0.00    -0.052 C  
HETATM   18  C   UNL     1      -6.463  10.885  68.837  1.00  0.00    -0.049 C  
HETATM   19  C   UNL     1      -7.040  10.562  70.192  1.00  0.00    -0.078 C  
BRANCH  18  20
HETATM   20  C   UNL     1      -6.036   9.665  68.024  1.00  0.00    -0.051 C  
BRANCH  20  21
HETATM   21  C   UNL     1      -7.158   8.739  67.540  1.00  0.00    -0.079 C  
HETATM   22  O   UNL     1      -9.477   9.106  68.108  1.00  0.00    -0.141 OA 
HETATM   23  O   UNL     1      -8.558  10.393  66.504  1.00  0.00    -0.127 OA 
HETATM   24  C   UNL     1      -8.504   9.418  67.437  1.00  0.00    -0.125 C  
ENDBRANCH  20  21
ENDBRANCH  18  20
ENDBRANCH  16  17
ENDBRANCH   4  16
ENDBRANCH   2   3
TORSDOF 5
ENDMDL
MODEL      217
REMARK 921   NORMALIZED FREE ENERGY PREDICTED BY IDOCK:   -2.35 KCAL/MOL
REMARK 922        TOTAL FREE ENERGY PREDICTED BY IDOCK:   -3.30 KCAL/MOL
REMARK 923 INTER-LIGAND FREE ENERGY PREDICTED BY IDOCK:   -3.27 KCAL/MOL
REMARK 924 INTRA-LIGAND FREE ENERGY PREDICTED BY IDOCK:   -0.03 KCAL/MOL
REMARK 927      BINDING AFFINITY PREDICTED BY RF-SCORE:    0.00 PKD
ROOT
HETATM    1  C   UNL     1      -8.719   7.564  65.280  1.00  0.00     0.072 C  
HETATM    2  O   UNL     1      -8.605   8.952  65.579  1.00  0.00    -0.148 OA 
ENDROOT
BRANCH   2   3
HETATM    3  C   UNL     1      -8.232   9.325  66.851  1.00  0.00    -0.119 A  
HETATM    4  C   UNL     1      -8.909   8.918  68.045  1.00  0.00    -0.133 A  
HETATM    5  C   UNL     1      -8.314   9.253  69.282  1.00  0.00    -0.124 A  
HETATM    6  C   UNL     1      -5.217  11.034  68.505  1.00  0.00    -0.040 C  
HETATM    7  O   UNL     1      -8.902   8.986  70.482  1.00  0.00    -0.168 OA 
HETATM    8  C   UNL     1      -6.334  10.500  65.639  1.00  0.00    -0.126 C  
HETATM    9  C   UNL     1      -7.095   9.916  69.304  1.00  0.00    -0.069 A  
HETATM   10  C   UNL     1      -6.262  10.293  70.450  1.00  0.00    -0.120 C  
HETATM   11  C   UNL     1      -7.005  10.036  66.901  1.00  0.00    -0.089 A  
HETATM   12  H   UNL     1      -8.501   9.211  71.314  1.00  0.00     0.000 HD 
HETATM   13  O   UNL     1      -6.440  10.056  71.627  1.00  0.00    -0.291 OA 
HETATM   14  C   UNL     1      -6.458  10.315  68.147  1.00  0.00    -0.057 A  
HETATM   15  O   UNL     1      -5.172  10.946  69.938  1.00  0.00    -0.041 OA 
BRANCH   4  16
HETATM   16  C   UNL     1     -10.265   8.262  67.932  1.00  0.00    -0.276 C  
BRANCH  16  17
HETATM   17  C   UNL     1     -10.495   6.876  68.443  1.00  0.00    -0.235 C  
HETATM   18  C   UNL     1     -10.960   6.540  69.660  1.00  0.00    -0.394 C  
HETATM   19  C   UNL     1     -11.524   7.533  70.646  1.00  0.00    -0.291 C  
BRANCH  18  20
HETATM   20  C   UNL     1     -10.893   5.106  70.178  1.00  0.00     0.070 C  
BRANCH  20  21
HETATM   21  C   UNL     1      -9.588   4.688  70.866  1.00  0.00    -0.249 C  
HETATM   22  O   UNL     1      -9.207   5.018  73.229  1.00  0.00    -0.128 OA 
HETATM   23  O   UNL     1     -10.528   3.308  72.593  1.00  0.00    -0.159 OA 
HETATM   24  C   UNL     1      -9.750   4.381  72.337  1.00  0.00    -0.157 C  
ENDBRANCH  20  21
ENDBRANCH  18  20
ENDBRANCH  16  17
ENDBRANCH   4  16
ENDBRANCH   2   3
TORSDOF 5
ENDMDL
MODEL      218
REMARK 921   NORMALIZED FREE ENERGY PREDICTED BY IDOCK:   -2.30 KCAL/MOL
REMARK 922        TOTAL FREE ENERGY PREDICTED BY IDOCK:   -3.24 KCAL/MOL
REMARK 923 INTER-LIGAND FREE ENERGY PREDICTED BY IDOCK:   -3.08 KCAL/MOL
REMARK 924 INTRA-LIGAND FREE ENERGY PREDICTED BY IDOCK:   -0.16 KCAL/MOL
REMARK 927      BINDING AFFINITY PREDICTED BY RF-SCORE:    0.00 PKD
ROOT
HETATM    1  C   UNL     1     -11.059   8.211  67.341  1.00  0.00     0.382 C  
HETATM    2  O   UNL     1      -9.774   8.743  67.037  1.00  0.00    -0.167 OA 
ENDROOT
BRANCH   2   3
HETATM    3  C   UNL     1      -8.706   8.386  67.831  1.00  0.00    -0.138 A  
HETATM    4  C   UNL     1      -8.206   9.174  68.916  1.00  0.00    -0.112 A  
HETATM    5  C   UNL     1      -7.208   8.602  69.735  1.00  0.00    -0.051 A  
HETATM    6  C   UNL     1      -6.575   5.248  68.426  1.00  0.00    -0.049 C  
HETATM    7  O   UNL     1      -6.603   9.283  70.749  1.00  0.00    -0.066 OA 
HETATM    8  C   UNL     1      -8.723   6.281  66.410  1.00  0.00    -0.137 C  
HETATM    9  C   UNL     1      -6.779   7.304  69.496  1.00  0.00    -0.045 A  
HETATM   10  C   UNL     1      -5.824   6.486  70.250  1.00  0.00    -0.023 C  
HETATM   11  C   UNL     1      -8.224   7.075  67.584  1.00  0.00    -0.117 A  
HETATM   12  H   UNL     1      -5.931   8.898  71.300  1.00  0.00     0.000 HD 
HETATM   13  O   UNL     1      -5.243   6.756  71.280  1.00  0.00    -0.025 OA 
HETATM   14  C   UNL     1      -7.259   6.558  68.439  1.00  0.00    -0.085 A  
HETATM   15  O   UNL     1      -5.734   5.289  69.589  1.00  0.00    -0.014 OA 
BRANCH   4  16
HETATM   16  C   UNL     1      -8.676  10.602  69.063  1.00  0.00    -0.152 C  
BRANCH  16  17
HETATM   17  C   UNL     1      -8.758  11.512  67.879  1.00  0.00    -0.144 C  
HETATM   18  C   UNL     1      -9.709  12.435  67.645  1.00  0.00    -0.195 C  
HETATM   19  C   UNL     1     -10.750  12.843  68.658  1.00  0.00    -0.273 C  
BRANCH  18  20
HETATM   20  C   UNL     1      -9.855  13.109  66.284  1.00  0.00    -0.284 C  
BRANCH  20  21
HETATM   21  C   UNL     1     -11.117  12.768  65.483  1.00  0.00    -0.318 C  
HETATM   22  O   UNL     1     -11.054  12.257  63.122  1.00  0.00    -0.372 OA 
HETATM   23  O   UNL     1     -10.398  10.664  64.574  1.00  0.00    -0.355 OA 
HETATM   24  C   UNL     1     -10.852  11.900  64.274  1.00  0.00    -0.344 C  
ENDBRANCH  20  21
ENDBRANCH  18  20
ENDBRANCH  16  17
ENDBRANCH   4  16
ENDBRANCH   2   3
TORSDOF 5
ENDMDL
MODEL      219
REMARK 921   NORMALIZED FREE ENERGY PREDICTED BY IDOCK:   -2.28 KCAL/MOL
REMARK 922        TOTAL FREE ENERGY PREDICTED BY IDOCK:   -3.21 KCAL/MOL
REMARK 923 INTER-LIGAND FREE ENERGY PREDICTED BY IDOCK:   -3.41 KCAL/MOL
REMARK 924 INTRA-LIGAND FREE ENERGY PREDICTED BY IDOCK:    0.20 KCAL/MOL
REMARK 927      BINDING AFFINITY PREDICTED BY RF-SCORE:    0.00 PKD
ROOT
HETATM    1  C   UNL     1      -7.387   8.714  71.498  1.00  0.00    -0.100 C  
HETATM    2  O   UNL     1      -6.561   8.989  70.371  1.00  0.00    -0.040 OA 
ENDROOT
BRANCH   2   3
HETATM    3  C   UNL     1      -7.161   9.312  69.174  1.00  0.00    -0.067 A  
HETATM    4  C   UNL     1      -7.761   8.362  68.287  1.00  0.00    -0.106 A  
HETATM    5  C   UNL     1      -8.475   8.864  67.176  1.00  0.00    -0.106 A  
HETATM    6  C   UNL     1      -8.298  12.510  67.377  1.00  0.00    -0.182 C  
HETATM    7  O   UNL     1      -9.024   8.057  66.224  1.00  0.00    -0.154 OA 
HETATM    8  C   UNL     1      -6.601  11.691  69.865  1.00  0.00    -0.030 C  
HETATM    9  C   UNL     1      -8.608  10.234  67.002  1.00  0.00    -0.129 A  
HETATM   10  C   UNL     1      -9.358  10.974  65.983  1.00  0.00    -0.201 C  
HETATM   11  C   UNL     1      -7.280  10.709  68.953  1.00  0.00    -0.090 A  
HETATM   12  H   UNL     1      -9.504   8.394  65.477  1.00  0.00     0.000 HD 
HETATM   13  O   UNL     1     -10.068  10.539  65.100  1.00  0.00    -0.291 OA 
HETATM   14  C   UNL     1      -8.014  11.141  67.856  1.00  0.00    -0.114 A  
HETATM   15  O   UNL     1      -9.150  12.304  66.238  1.00  0.00    -0.206 OA 
BRANCH   4  16
HETATM   16  C   UNL     1      -7.509   6.890  68.511  1.00  0.00    -0.096 C  
BRANCH  16  17
HETATM   17  C   UNL     1      -8.402   6.082  69.398  1.00  0.00    -0.115 C  
HETATM   18  C   UNL     1      -9.714   6.288  69.612  1.00  0.00    -0.175 C  
HETATM   19  C   UNL     1     -10.550   7.263  68.819  1.00  0.00    -0.202 C  
BRANCH  18  20
HETATM   20  C   UNL     1     -10.463   5.587  70.742  1.00  0.00    -0.330 C  
BRANCH  20  21
HETATM   21  C   UNL     1     -10.407   6.257  72.119  1.00  0.00    -0.218 C  
HETATM   22  O   UNL     1     -10.229   4.992  74.170  1.00  0.00    -0.197 OA 
HETATM   23  O   UNL     1      -8.375   5.255  72.917  1.00  0.00    -0.112 OA 
HETATM   24  C   UNL     1      -9.691   5.435  73.166  1.00  0.00    -0.149 C  
ENDBRANCH  20  21
ENDBRANCH  18  20
ENDBRANCH  16  17
ENDBRANCH   4  16
ENDBRANCH   2   3
TORSDOF 5
ENDMDL
MODEL      220
REMARK 921   NORMALIZED FREE ENERGY PREDICTED BY IDOCK:   -1.83 KCAL/MOL
REMARK 922        TOTAL FREE ENERGY PREDICTED BY IDOCK:   -2.63 KCAL/MOL
REMARK 923 INTER-LIGAND FREE ENERGY PREDICTED BY IDOCK:   -3.40 KCAL/MOL
REMARK 924 INTRA-LIGAND FREE ENERGY PREDICTED BY IDOCK:    0.77 KCAL/MOL
REMARK 927      BINDING AFFINITY PREDICTED BY RF-SCORE:    0.00 PKD
ROOT
HETATM    1  C   UNL     1      -5.732  18.228  68.697  1.00  0.00    -0.182 C  
HETATM    2  O   UNL     1      -6.955  17.519  68.866  1.00  0.00    -0.233 OA 
ENDROOT
BRANCH   2   3
HETATM    3  C   UNL     1      -6.918  16.143  68.919  1.00  0.00    -0.161 A  
HETATM    4  C   UNL     1      -7.479  15.279  67.925  1.00  0.00    -0.157 A  
HETATM    5  C   UNL     1      -7.223  13.895  68.041  1.00  0.00    -0.141 A  
HETATM    6  C   UNL     1      -5.129  13.461  71.005  1.00  0.00    -0.140 C  
HETATM    7  O   UNL     1      -7.765  12.969  67.199  1.00  0.00    -0.325 OA 
HETATM    8  C   UNL     1      -5.591  16.548  71.047  1.00  0.00     0.181 C  
HETATM    9  C   UNL     1      -6.418  13.425  69.069  1.00  0.00    -0.105 A  
HETATM   10  C   UNL     1      -5.957  12.060  69.340  1.00  0.00    -0.093 C  
HETATM   11  C   UNL     1      -6.129  15.633  69.983  1.00  0.00    -0.149 A  
HETATM   12  H   UNL     1      -7.593  12.038  67.277  1.00  0.00     0.000 HD 
HETATM   13  O   UNL     1      -6.142  11.053  68.686  1.00  0.00    -0.043 OA 
HETATM   14  C   UNL     1      -5.894  14.265  70.029  1.00  0.00    -0.131 A  
HETATM   15  O   UNL     1      -5.205  12.125  70.483  1.00  0.00    -0.098 OA 
BRANCH   4  16
HETATM   16  C   UNL     1      -8.401  15.864  66.881  1.00  0.00    -0.281 C  
BRANCH  16  17
HETATM   17  C   UNL     1      -8.632  17.339  66.798  1.00  0.00    -0.275 C  
HETATM   18  C   UNL     1      -9.623  17.955  66.127  1.00  0.00    -0.192 C  
HETATM   19  C   UNL     1     -10.794  17.232  65.509  1.00  0.00    -0.024 C  
BRANCH  18  20
HETATM   20  C   UNL     1      -9.606  19.460  65.875  1.00  0.00    -0.149 C  
BRANCH  20  21
HETATM   21  C   UNL     1      -9.883  20.360  67.086  1.00  0.00    -0.601 C  
HETATM   22  O   UNL     1      -8.614  20.200  69.135  1.00  0.00     0.157 OA 
HETATM   23  O   UNL     1      -7.670  21.247  67.378  1.00  0.00    -0.361 OA 
HETATM   24  C   UNL     1      -8.677  20.572  67.972  1.00  0.00     0.104 C  
ENDBRANCH  20  21
ENDBRANCH  18  20
ENDBRANCH  16  17
ENDBRANCH   4  16
ENDBRANCH   2   3
TORSDOF 5
ENDMDL
MODEL      221
REMARK 921   NORMALIZED FREE ENERGY PREDICTED BY IDOCK:   -1.80 KCAL/MOL
REMARK 922        TOTAL FREE ENERGY PREDICTED BY IDOCK:   -2.59 KCAL/MOL
REMARK 923 INTER-LIGAND FREE ENERGY PREDICTED BY IDOCK:   -2.87 KCAL/MOL
REMARK 924 INTRA-LIGAND FREE ENERGY PREDICTED BY IDOCK:    0.27 KCAL/MOL
REMARK 927      BINDING AFFINITY PREDICTED BY RF-SCORE:    0.00 PKD
ROOT
HETATM    1  C   UNL     1      -8.722   7.564  65.279  1.00  0.00     0.072 C  
HETATM    2  O   UNL     1      -8.616   8.946  65.606  1.00  0.00    -0.146 OA 
ENDROOT
BRANCH   2   3
HETATM    3  C   UNL     1      -8.273   9.296  66.892  1.00  0.00    -0.119 A  
HETATM    4  C   UNL     1      -8.980   8.874  68.063  1.00  0.00    -0.140 A  
HETATM    5  C   UNL     1      -8.413   9.186  69.319  1.00  0.00    -0.132 A  
HETATM    6  C   UNL     1      -5.291  10.964  68.646  1.00  0.00    -0.040 C  
HETATM    7  O   UNL     1      -9.031   8.903  70.500  1.00  0.00    -0.158 OA 
HETATM    8  C   UNL     1      -6.341  10.482  65.746  1.00  0.00    -0.129 C  
HETATM    9  C   UNL     1      -7.192   9.843  69.381  1.00  0.00    -0.083 A  
HETATM   10  C   UNL     1      -6.386  10.197  70.553  1.00  0.00    -0.117 C  
HETATM   11  C   UNL     1      -7.044  10.001  66.984  1.00  0.00    -0.089 A  
HETATM   12  H   UNL     1      -8.650   9.112  71.345  1.00  0.00     0.000 HD 
HETATM   13  O   UNL     1      -6.594   9.942  71.722  1.00  0.00    -0.221 OA 
HETATM   14  C   UNL     1      -6.526  10.257  68.247  1.00  0.00    -0.056 A  
HETATM   15  O   UNL     1      -5.281  10.853  70.078  1.00  0.00    -0.042 OA 
BRANCH   4  16
HETATM   16  C   UNL     1     -10.336   8.226  67.907  1.00  0.00    -0.278 C  
BRANCH  16  17
HETATM   17  C   UNL     1     -10.464   6.809  67.447  1.00  0.00    -0.330 C  
HETATM   18  C   UNL     1     -10.562   5.721  68.232  1.00  0.00    -0.286 C  
HETATM   19  C   UNL     1     -10.764   5.779  69.726  1.00  0.00    -0.418 C  
BRANCH  18  20
HETATM   20  C   UNL     1     -10.406   4.310  67.670  1.00  0.00     0.310 C  
BRANCH  20  21
HETATM   21  C   UNL     1      -8.976   3.767  67.570  1.00  0.00    -0.157 C  
HETATM   22  O   UNL     1      -7.899   2.608  69.396  1.00  0.00    -0.043 OA 
HETATM   23  O   UNL     1      -9.422   1.486  68.174  1.00  0.00    -0.174 OA 
HETATM   24  C   UNL     1      -8.709   2.590  68.480  1.00  0.00    -0.091 C  
ENDBRANCH  20  21
ENDBRANCH  18  20
ENDBRANCH  16  17
ENDBRANCH   4  16
ENDBRANCH   2   3
TORSDOF 5
ENDMDL
MODEL      222
REMARK 921   NORMALIZED FREE ENERGY PREDICTED BY IDOCK:   -1.76 KCAL/MOL
REMARK 922        TOTAL FREE ENERGY PREDICTED BY IDOCK:   -2.53 KCAL/MOL
REMARK 923 INTER-LIGAND FREE ENERGY PREDICTED BY IDOCK:   -2.17 KCAL/MOL
REMARK 924 INTRA-LIGAND FREE ENERGY PREDICTED BY IDOCK:   -0.36 KCAL/MOL
REMARK 927      BINDING AFFINITY PREDICTED BY RF-SCORE:    0.00 PKD
ROOT
HETATM    1  C   UNL     1      -9.837   3.263  70.953  1.00  0.00    -0.015 C  
HETATM    2  O   UNL     1      -9.702   3.957  69.717  1.00  0.00    -0.205 OA 
ENDROOT
BRANCH   2   3
HETATM    3  C   UNL     1      -8.864   5.049  69.660  1.00  0.00    -0.094 A  
HETATM    4  C   UNL     1      -7.516   5.010  69.180  1.00  0.00    -0.061 A  
HETATM    5  C   UNL     1      -6.836   6.240  69.036  1.00  0.00    -0.066 A  
HETATM    6  C   UNL     1      -9.184   8.857  70.037  1.00  0.00    -0.174 C  
HETATM    7  O   UNL     1      -5.529   6.323  68.661  1.00  0.00    -0.007 OA 
HETATM    8  C   UNL     1     -10.900   6.296  70.526  1.00  0.00    -0.348 C  
HETATM    9  C   UNL     1      -7.494   7.429  69.316  1.00  0.00    -0.092 A  
HETATM   10  C   UNL     1      -7.024   8.810  69.167  1.00  0.00    -0.059 C  
HETATM   11  C   UNL     1      -9.502   6.277  69.976  1.00  0.00    -0.167 A  
HETATM   12  H   UNL     1      -5.071   7.150  68.563  1.00  0.00     0.000 HD 
HETATM   13  O   UNL     1      -5.970   9.207  68.714  1.00  0.00    -0.043 OA 
HETATM   14  C   UNL     1      -8.790   7.454  69.790  1.00  0.00    -0.141 A  
HETATM   15  O   UNL     1      -8.044   9.615  69.600  1.00  0.00    -0.110 OA 
BRANCH   4  16
HETATM   16  C   UNL     1      -6.852   3.670  68.966  1.00  0.00    -0.045 C  
BRANCH  16  17
HETATM   17  C   UNL     1      -7.386   2.698  67.961  1.00  0.00    -0.052 C  
HETATM   18  C   UNL     1      -7.223   2.760  66.627  1.00  0.00    -0.065 C  
HETATM   19  C   UNL     1      -6.290   3.724  65.939  1.00  0.00    -0.032 C  
BRANCH  18  20
HETATM   20  C   UNL     1      -8.037   1.883  65.679  1.00  0.00    -0.080 C  
BRANCH  20  21
HETATM   21  C   UNL     1      -7.614   1.892  64.205  1.00  0.00    -0.060 C  
HETATM   22  O   UNL     1      -9.199   1.637  62.400  1.00  0.00    -0.075 OA 
HETATM   23  O   UNL     1      -9.071   3.636  63.430  1.00  0.00    -0.095 OA 
HETATM   24  C   UNL     1      -8.703   2.348  63.263  1.00  0.00    -0.085 C  
ENDBRANCH  20  21
ENDBRANCH  18  20
ENDBRANCH  16  17
ENDBRANCH   4  16
ENDBRANCH   2   3
TORSDOF 5
ENDMDL
MODEL      223
REMARK 921   NORMALIZED FREE ENERGY PREDICTED BY IDOCK:   -1.23 KCAL/MOL
REMARK 922        TOTAL FREE ENERGY PREDICTED BY IDOCK:   -1.85 KCAL/MOL
REMARK 923 INTER-LIGAND FREE ENERGY PREDICTED BY IDOCK:   -1.61 KCAL/MOL
REMARK 924 INTRA-LIGAND FREE ENERGY PREDICTED BY IDOCK:   -0.24 KCAL/MOL
REMARK 927      BINDING AFFINITY PREDICTED BY RF-SCORE:    0.00 PKD
ROOT
HETATM    1  C   UNL     1      -7.985  17.019  66.354  1.00  0.00    -0.307 C  
HETATM    2  O   UNL     1      -6.707  17.461  66.799  1.00  0.00    -0.171 OA 
ENDROOT
BRANCH   2   3
HETATM    3  C   UNL     1      -6.535  17.749  68.135  1.00  0.00    -0.183 A  
HETATM    4  C   UNL     1      -5.921  16.867  69.080  1.00  0.00    -0.166 A  
HETATM    5  C   UNL     1      -5.674  17.366  70.378  1.00  0.00    -0.124 A  
HETATM    6  C   UNL     1      -6.842  20.830  70.405  1.00  0.00     1.364 C  
HETATM    7  O   UNL     1      -5.165  16.598  71.382  1.00  0.00    -0.185 OA 
HETATM    8  C   UNL     1      -7.573  19.976  67.493  1.00  0.00    -0.327 C  
HETATM    9  C   UNL     1      -5.990  18.683  70.682  1.00  0.00     0.075 A  
HETATM   10  C   UNL     1      -5.757  19.433  71.920  1.00  0.00    -0.136 C  
HETATM   11  C   UNL     1      -6.882  19.080  68.482  1.00  0.00    -0.297 A  
HETATM   12  H   UNL     1      -4.999  16.934  72.255  1.00  0.00     0.000 HD 
HETATM   13  O   UNL     1      -5.188  19.072  72.930  1.00  0.00     1.058 OA 
HETATM   14  C   UNL     1      -6.594  19.521  69.767  1.00  0.00    -0.299 A  
HETATM   15  O   UNL     1      -6.271  20.686  71.716  1.00  0.00    -0.640 OA 
BRANCH   4  16
HETATM   16  C   UNL     1      -5.674  15.428  68.688  1.00  0.00    -0.092 C  
BRANCH  16  17
HETATM   17  C   UNL     1      -6.674  14.362  69.004  1.00  0.00    -0.107 C  
HETATM   18  C   UNL     1      -6.803  13.178  68.376  1.00  0.00    -0.098 C  
HETATM   19  C   UNL     1      -5.812  12.649  67.370  1.00  0.00    -0.118 C  
BRANCH  18  20
HETATM   20  C   UNL     1      -8.025  12.288  68.588  1.00  0.00    -0.050 C  
BRANCH  20  21
HETATM   21  C   UNL     1      -8.891  12.009  67.354  1.00  0.00    -0.178 C  
HETATM   22  O   UNL     1     -10.600  10.301  67.330  1.00  0.00    -0.239 OA 
HETATM   23  O   UNL     1     -11.050  12.243  68.378  1.00  0.00    -0.212 OA 
HETATM   24  C   UNL     1     -10.241  11.416  67.682  1.00  0.00    -0.180 C  
ENDBRANCH  20  21
ENDBRANCH  18  20
ENDBRANCH  16  17
ENDBRANCH   4  16
ENDBRANCH   2   3
TORSDOF 5
ENDMDL
MODEL      224
REMARK 921   NORMALIZED FREE ENERGY PREDICTED BY IDOCK:   -0.02 KCAL/MOL
REMARK 922        TOTAL FREE ENERGY PREDICTED BY IDOCK:   -0.29 KCAL/MOL
REMARK 923 INTER-LIGAND FREE ENERGY PREDICTED BY IDOCK:   -2.18 KCAL/MOL
REMARK 924 INTRA-LIGAND FREE ENERGY PREDICTED BY IDOCK:    1.89 KCAL/MOL
REMARK 927      BINDING AFFINITY PREDICTED BY RF-SCORE:    0.00 PKD
ROOT
HETATM    1  C   UNL     1      -6.813  14.725  66.713  1.00  0.00     1.307 C  
HETATM    2  O   UNL     1      -6.293  15.987  67.116  1.00  0.00    -0.248 OA 
ENDROOT
BRANCH   2   3
HETATM    3  C   UNL     1      -7.176  16.990  67.451  1.00  0.00    -0.156 A  
HETATM    4  C   UNL     1      -8.575  16.970  67.149  1.00  0.00    -0.220 A  
HETATM    5  C   UNL     1      -9.378  17.996  67.696  1.00  0.00    -0.259 A  
HETATM    6  C   UNL     1      -7.155  20.125  69.667  1.00  0.00     0.012 C  
HETATM    7  O   UNL     1     -10.706  18.124  67.417  1.00  0.00    -0.403 OA 
HETATM    8  C   UNL     1      -5.131  18.034  68.538  1.00  0.00    -0.151 C  
HETATM    9  C   UNL     1      -8.807  18.950  68.527  1.00  0.00    -0.387 A  
HETATM   10  C   UNL     1      -9.446  20.046  69.260  1.00  0.00     0.139 C  
HETATM   11  C   UNL     1      -6.610  17.999  68.273  1.00  0.00    -0.201 A  
HETATM   12  H   UNL     1     -11.246  18.813  67.785  1.00  0.00     0.000 HD 
HETATM   13  O   UNL     1     -10.627  20.320  69.337  1.00  0.00    -0.047 OA 
HETATM   14  C   UNL     1      -7.455  18.967  68.800  1.00  0.00    -0.369 A  
HETATM   15  O   UNL     1      -8.443  20.710  69.915  1.00  0.00     1.339 OA 
BRANCH   4  16
HETATM   16  C   UNL     1      -9.102  15.937  66.180  1.00  0.00    -0.385 C  
BRANCH  16  17
HETATM   17  C   UNL     1      -9.453  14.559  66.640  1.00  0.00    -0.301 C  
HETATM   18  C   UNL     1     -10.428  14.231  67.509  1.00  0.00    -0.252 C  
HETATM   19  C   UNL     1     -11.467  15.203  68.009  1.00  0.00    -0.355 C  
BRANCH  18  20
HETATM   20  C   UNL     1     -10.520  12.836  68.122  1.00  0.00    -0.244 C  
BRANCH  20  21
HETATM   21  C   UNL     1     -11.011  11.714  67.200  1.00  0.00    -0.330 C  
HETATM   22  O   UNL     1     -10.751   9.377  67.751  1.00  0.00    -0.265 OA 
HETATM   23  O   UNL     1     -12.386  10.537  68.777  1.00  0.00    -0.238 OA 
HETATM   24  C   UNL     1     -11.343  10.432  67.927  1.00  0.00    -0.173 C  
ENDBRANCH  20  21
ENDBRANCH  18  20
ENDBRANCH  16  17
ENDBRANCH   4  16
ENDBRANCH   2   3
TORSDOF 5
ENDMDL
MODEL      225
REMARK 921   NORMALIZED FREE ENERGY PREDICTED BY IDOCK:   -0.01 KCAL/MOL
REMARK 922        TOTAL FREE ENERGY PREDICTED BY IDOCK:   -0.27 KCAL/MOL
REMARK 923 INTER-LIGAND FREE ENERGY PREDICTED BY IDOCK:   -0.93 KCAL/MOL
REMARK 924 INTRA-LIGAND FREE ENERGY PREDICTED BY IDOCK:    0.65 KCAL/MOL
REMARK 927      BINDING AFFINITY PREDICTED BY RF-SCORE:    0.00 PKD
ROOT
HETATM    1  C   UNL     1      -6.017  11.910  65.831  1.00  0.00     1.319 C  
HETATM    2  O   UNL     1      -5.804  11.899  67.239  1.00  0.00    -0.099 OA 
ENDROOT
BRANCH   2   3
HETATM    3  C   UNL     1      -6.317  10.856  67.978  1.00  0.00    -0.057 A  
HETATM    4  C   UNL     1      -7.147  11.013  69.134  1.00  0.00    -0.116 A  
HETATM    5  C   UNL     1      -7.723   9.849  69.689  1.00  0.00    -0.149 A  
HETATM    6  C   UNL     1      -6.633   7.047  67.610  1.00  0.00    -0.055 C  
HETATM    7  O   UNL     1      -8.467   9.864  70.831  1.00  0.00    -0.350 OA 
HETATM    8  C   UNL     1      -5.169   9.427  66.220  1.00  0.00    -0.040 C  
HETATM    9  C   UNL     1      -7.509   8.617  69.086  1.00  0.00    -0.083 A  
HETATM   10  C   UNL     1      -8.059   7.304  69.433  1.00  0.00    -0.130 C  
HETATM   11  C   UNL     1      -6.083   9.580  67.403  1.00  0.00    -0.053 A  
HETATM   12  H   UNL     1      -8.855   9.082  71.204  1.00  0.00     0.000 HD 
HETATM   13  O   UNL     1      -8.866   7.024  70.296  1.00  0.00    -0.146 OA 
HETATM   14  C   UNL     1      -6.697   8.476  67.980  1.00  0.00    -0.065 A  
HETATM   15  O   UNL     1      -7.521   6.411  68.544  1.00  0.00    -0.084 OA 
BRANCH   4  16
HETATM   16  C   UNL     1      -7.271  12.379  69.767  1.00  0.00     0.655 C  
BRANCH  16  17
HETATM   17  C   UNL     1      -7.902  13.516  69.028  1.00  0.00     0.157 C  
HETATM   18  C   UNL     1      -7.455  14.784  68.983  1.00  0.00    -0.142 C  
HETATM   19  C   UNL     1      -6.113  15.221  69.516  1.00  0.00    -0.125 C  
BRANCH  18  20
HETATM   20  C   UNL     1      -8.318  15.919  68.438  1.00  0.00    -0.174 C  
BRANCH  20  21
HETATM   21  C   UNL     1      -7.878  16.532  67.103  1.00  0.00    -0.215 C  
HETATM   22  O   UNL     1      -9.048  18.381  66.078  1.00  0.00    -0.501 OA 
HETATM   23  O   UNL     1      -7.680  18.818  67.814  1.00  0.00    -0.233 OA 
HETATM   24  C   UNL     1      -8.278  17.980  66.939  1.00  0.00    -0.242 C  
ENDBRANCH  20  21
ENDBRANCH  18  20
ENDBRANCH  16  17
ENDBRANCH   4  16
ENDBRANCH   2   3
TORSDOF 5
ENDMDL
MODEL      226
REMARK 921   NORMALIZED FREE ENERGY PREDICTED BY IDOCK:    2.63 KCAL/MOL
REMARK 922        TOTAL FREE ENERGY PREDICTED BY IDOCK:    3.13 KCAL/MOL
REMARK 923 INTER-LIGAND FREE ENERGY PREDICTED BY IDOCK:    2.61 KCAL/MOL
REMARK 924 INTRA-LIGAND FREE ENERGY PREDICTED BY IDOCK:    0.52 KCAL/MOL
REMARK 927      BINDING AFFINITY PREDICTED BY RF-SCORE:    0.00 PKD
ROOT
HETATM    1  C   UNL     1     -11.128  15.310  71.819  1.00  0.00    -0.158 C  
HETATM    2  O   UNL     1     -11.953  14.149  71.784  1.00  0.00    -0.191 OA 
ENDROOT
BRANCH   2   3
HETATM    3  C   UNL     1     -11.924  13.351  70.662  1.00  0.00    -0.209 A  
HETATM    4  C   UNL     1     -11.792  13.841  69.323  1.00  0.00    -0.392 A  
HETATM    5  C   UNL     1     -11.619  12.892  68.292  1.00  0.00    -0.335 A  
HETATM    6  C   UNL     1     -11.604   9.604  69.889  1.00  0.00    -0.030 C  
HETATM    7  O   UNL     1     -11.559  13.234  66.974  1.00  0.00    -0.322 OA 
HETATM    8  C   UNL     1     -12.071  11.462  72.353  1.00  0.00     2.622 C  
HETATM    9  C   UNL     1     -11.542  11.541  68.603  1.00  0.00    -0.375 A  
HETATM   10  C   UNL     1     -11.293  10.397  67.722  1.00  0.00    -0.128 C  
HETATM   11  C   UNL     1     -11.880  11.962  70.949  1.00  0.00     0.155 A  
HETATM   12  H   UNL     1     -11.442  12.595  66.280  1.00  0.00     0.000 HD 
HETATM   13  O   UNL     1     -11.046  10.395  66.533  1.00  0.00    -0.025 OA 
HETATM   14  C   UNL     1     -11.684  11.079  69.895  1.00  0.00    -0.424 A  
HETATM   15  O   UNL     1     -11.337   9.281  68.515  1.00  0.00     0.151 OA 
BRANCH   4  16
HETATM   16  C   UNL     1     -11.957  15.321  69.065  1.00  0.00    -0.304 C  
BRANCH  16  17
HETATM   17  C   UNL     1     -11.523  15.929  67.770  1.00  0.00    -0.128 C  
HETATM   18  C   UNL     1     -10.544  16.838  67.603  1.00  0.00    -0.325 C  
HETATM   19  C   UNL     1      -9.579  17.241  68.690  1.00  0.00    -0.284 C  
BRANCH  18  20
HETATM   20  C   UNL     1     -10.370  17.598  66.290  1.00  0.00    -0.342 C  
BRANCH  20  21
HETATM   21  C   UNL     1     -11.460  17.393  65.232  1.00  0.00     1.214 C  
HETATM   22  O   UNL     1     -10.991  16.462  63.052  1.00  0.00     2.655 OA 
HETATM   23  O   UNL     1     -11.106  15.056  64.808  1.00  0.00    -0.387 OA 
HETATM   24  C   UNL     1     -11.153  16.285  64.251  1.00  0.00     0.173 C  
ENDBRANCH  20  21
ENDBRANCH  18  20
ENDBRANCH  16  17
ENDBRANCH   4  16
ENDBRANCH   2   3
TORSDOF 5
ENDMDL
MODEL      227
REMARK 921   NORMALIZED FREE ENERGY PREDICTED BY IDOCK:    2.67 KCAL/MOL
REMARK 922        TOTAL FREE ENERGY PREDICTED BY IDOCK:    3.19 KCAL/MOL
REMARK 923 INTER-LIGAND FREE ENERGY PREDICTED BY IDOCK:    1.79 KCAL/MOL
REMARK 924 INTRA-LIGAND FREE ENERGY PREDICTED BY IDOCK:    1.40 KCAL/MOL
REMARK 927      BINDING AFFINITY PREDICTED BY RF-SCORE:    0.00 PKD
ROOT
HETATM    1  C   UNL     1     -10.257   7.823  68.432  1.00  0.00    -0.200 C  
HETATM    2  O   UNL     1     -10.300   8.808  69.459  1.00  0.00    -0.204 OA 
ENDROOT
BRANCH   2   3
HETATM    3  C   UNL     1      -9.119   9.201  70.048  1.00  0.00    -0.192 A  
HETATM    4  C   UNL     1      -8.581  10.526  69.978  1.00  0.00     0.426 A  
HETATM    5  C   UNL     1      -7.443  10.813  70.764  1.00  0.00     1.863 A  
HETATM    6  C   UNL     1      -6.626   7.749  72.582  1.00  0.00    -0.066 C  
HETATM    7  O   UNL     1      -6.799  12.014  70.723  1.00  0.00     0.169 OA 
HETATM    8  C   UNL     1      -9.083   6.809  70.901  1.00  0.00    -0.153 C  
HETATM    9  C   UNL     1      -6.915   9.837  71.597  1.00  0.00     0.703 A  
HETATM   10  C   UNL     1      -5.802   9.927  72.547  1.00  0.00     0.467 C  
HETATM   11  C   UNL     1      -8.536   8.209  70.879  1.00  0.00    -0.144 A  
HETATM   12  H   UNL     1      -6.034  12.207  71.252  1.00  0.00     0.000 HD 
HETATM   13  O   UNL     1      -5.138  10.898  72.847  1.00  0.00    -0.325 OA 
HETATM   14  C   UNL     1      -7.433   8.559  71.646  1.00  0.00    -0.128 A  
HETATM   15  O   UNL     1      -5.666   8.682  73.103  1.00  0.00    -0.074 OA 
BRANCH   4  16
HETATM   16  C   UNL     1      -9.174  11.508  68.995  1.00  0.00     0.110 C  
BRANCH  16  17
HETATM   17  C   UNL     1      -9.904  12.724  69.466  1.00  0.00     1.179 C  
HETATM   18  C   UNL     1     -11.160  12.765  69.948  1.00  0.00     0.249 C  
HETATM   19  C   UNL     1     -11.971  11.538  70.282  1.00  0.00    -0.455 C  
BRANCH  18  20
HETATM   20  C   UNL     1     -11.905  14.084  70.136  1.00  0.00    -0.377 C  
BRANCH  20  21
HETATM   21  C   UNL     1     -11.933  15.032  68.932  1.00  0.00    -0.287 C  
HETATM   22  O   UNL     1     -10.550  17.009  68.805  1.00  0.00    -0.330 OA 
HETATM   23  O   UNL     1      -9.588  15.010  68.411  1.00  0.00    -0.200 OA 
HETATM   24  C   UNL     1     -10.643  15.792  68.727  1.00  0.00    -0.239 C  
ENDBRANCH  20  21
ENDBRANCH  18  20
ENDBRANCH  16  17
ENDBRANCH   4  16
ENDBRANCH   2   3
TORSDOF 5
ENDMDL
MODEL      228
REMARK 921   NORMALIZED FREE ENERGY PREDICTED BY IDOCK:    5.94 KCAL/MOL
REMARK 922        TOTAL FREE ENERGY PREDICTED BY IDOCK:    7.41 KCAL/MOL
REMARK 923 INTER-LIGAND FREE ENERGY PREDICTED BY IDOCK:    5.10 KCAL/MOL
REMARK 924 INTRA-LIGAND FREE ENERGY PREDICTED BY IDOCK:    2.31 KCAL/MOL
REMARK 927      BINDING AFFINITY PREDICTED BY RF-SCORE:    0.00 PKD
ROOT
HETATM    1  C   UNL     1     -10.279   7.854  68.468  1.00  0.00    -0.205 C  
HETATM    2  O   UNL     1     -10.624   8.770  69.503  1.00  0.00    -0.225 OA 
ENDROOT
BRANCH   2   3
HETATM    3  C   UNL     1      -9.616   9.314  70.267  1.00  0.00    -0.235 A  
HETATM    4  C   UNL     1      -9.002   8.660  71.383  1.00  0.00    -0.286 A  
HETATM    5  C   UNL     1      -7.876   9.280  71.967  1.00  0.00     0.711 A  
HETATM    6  C   UNL     1      -7.255  12.336  70.058  1.00  0.00     1.129 C  
HETATM    7  O   UNL     1      -7.255   8.792  73.078  1.00  0.00    -0.341 OA 
HETATM    8  C   UNL     1      -9.799  11.238  68.619  1.00  0.00    -0.208 C  
HETATM    9  C   UNL     1      -7.380  10.459  71.428  1.00  0.00     2.266 A  
HETATM   10  C   UNL     1      -6.194  11.231  71.812  1.00  0.00     1.954 C  
HETATM   11  C   UNL     1      -9.112  10.540  69.759  1.00  0.00     0.124 A  
HETATM   12  H   UNL     1      -6.497   9.208  73.471  1.00  0.00     0.000 HD 
HETATM   13  O   UNL     1      -5.360  10.970  72.656  1.00  0.00    -0.233 OA 
HETATM   14  C   UNL     1      -7.987  11.088  70.361  1.00  0.00     1.984 A  
HETATM   15  O   UNL     1      -6.158  12.322  70.985  1.00  0.00    -0.226 OA 
BRANCH   4  16
HETATM   16  C   UNL     1      -9.647   7.417  71.949  1.00  0.00    -0.174 C  
BRANCH  16  17
HETATM   17  C   UNL     1      -8.969   6.087  71.855  1.00  0.00    -0.138 C  
HETATM   18  C   UNL     1      -8.891   5.306  70.762  1.00  0.00    -0.151 C  
HETATM   19  C   UNL     1      -9.308   5.750  69.382  1.00  0.00    -0.151 C  
BRANCH  18  20
HETATM   20  C   UNL     1      -8.426   3.854  70.845  1.00  0.00    -0.098 C  
BRANCH  20  21
HETATM   21  C   UNL     1      -9.122   2.971  71.887  1.00  0.00    -0.154 C  
HETATM   22  O   UNL     1      -8.075   2.361  73.977  1.00  0.00    -0.054 OA 
HETATM   23  O   UNL     1      -8.926   4.437  73.780  1.00  0.00    -0.103 OA 
HETATM   24  C   UNL     1      -8.643   3.206  73.301  1.00  0.00    -0.081 C  
ENDBRANCH  20  21
ENDBRANCH  18  20
ENDBRANCH  16  17
ENDBRANCH   4  16
ENDBRANCH   2   3
TORSDOF 5
ENDMDL
MODEL      229
REMARK 921   NORMALIZED FREE ENERGY PREDICTED BY IDOCK:    7.45 KCAL/MOL
REMARK 922        TOTAL FREE ENERGY PREDICTED BY IDOCK:    9.36 KCAL/MOL
REMARK 923 INTER-LIGAND FREE ENERGY PREDICTED BY IDOCK:    7.00 KCAL/MOL
REMARK 924 INTRA-LIGAND FREE ENERGY PREDICTED BY IDOCK:    2.36 KCAL/MOL
REMARK 927      BINDING AFFINITY PREDICTED BY RF-SCORE:    0.00 PKD
ROOT
HETATM    1  C   UNL     1     -10.280   7.855  68.469  1.00  0.00    -0.205 C  
HETATM    2  O   UNL     1     -10.645   8.771  69.496  1.00  0.00    -0.225 OA 
ENDROOT
BRANCH   2   3
HETATM    3  C   UNL     1      -9.650   9.334  70.265  1.00  0.00    -0.235 A  
HETATM    4  C   UNL     1      -9.034   8.693  71.387  1.00  0.00    -0.286 A  
HETATM    5  C   UNL     1      -7.921   9.332  71.976  1.00  0.00     0.738 A  
HETATM    6  C   UNL     1      -7.334  12.390  70.060  1.00  0.00     1.399 C  
HETATM    7  O   UNL     1      -7.300   8.858  73.093  1.00  0.00    -0.355 OA 
HETATM    8  C   UNL     1      -9.851  11.249  68.609  1.00  0.00    -0.208 C  
HETATM    9  C   UNL     1      -7.439  10.517  71.436  1.00  0.00     2.932 A  
HETATM   10  C   UNL     1      -6.268  11.308  71.825  1.00  0.00     1.954 C  
HETATM   11  C   UNL     1      -9.161  10.565  69.755  1.00  0.00     0.112 A  
HETATM   12  H   UNL     1      -6.551   9.287  73.489  1.00  0.00     0.000 HD 
HETATM   13  O   UNL     1      -5.436  11.063  72.675  1.00  0.00    -0.081 OA 
HETATM   14  C   UNL     1      -8.049  11.132  70.363  1.00  0.00     2.435 A  
HETATM   15  O   UNL     1      -6.242  12.396  70.994  1.00  0.00    -0.064 OA 
BRANCH   4  16
HETATM   16  C   UNL     1      -9.664   7.442  71.954  1.00  0.00    -0.179 C  
BRANCH  16  17
HETATM   17  C   UNL     1      -8.966   6.123  71.869  1.00  0.00    -0.140 C  
HETATM   18  C   UNL     1      -8.870   5.339  70.779  1.00  0.00    -0.151 C  
HETATM   19  C   UNL     1      -9.285   5.772  69.395  1.00  0.00    -0.144 C  
BRANCH  18  20
HETATM   20  C   UNL     1      -8.383   3.895  70.870  1.00  0.00    -0.089 C  
BRANCH  20  21
HETATM   21  C   UNL     1      -7.047   3.578  70.188  1.00  0.00    -0.041 C  
HETATM   22  O   UNL     1      -6.915   2.419  68.073  1.00  0.00    -0.046 OA 
HETATM   23  O   UNL     1      -7.489   4.597  68.059  1.00  0.00    -0.072 OA 
HETATM   24  C   UNL     1      -7.148   3.451  68.686  1.00  0.00    -0.050 C  
ENDBRANCH  20  21
ENDBRANCH  18  20
ENDBRANCH  16  17
ENDBRANCH   4  16
ENDBRANCH   2   3
TORSDOF 5
ENDMDL
