MODEL        1
REMARK 921   NORMALIZED FREE ENERGY PREDICTED BY IDOCK:   -6.81 KCAL/MOL
REMARK 922        TOTAL FREE ENERGY PREDICTED BY IDOCK:  -12.34 KCAL/MOL
REMARK 923 INTER-LIGAND FREE ENERGY PREDICTED BY IDOCK:  -10.80 KCAL/MOL
REMARK 924 INTRA-LIGAND FREE ENERGY PREDICTED BY IDOCK:   -1.54 KCAL/MOL
REMARK 927      BINDING AFFINITY PREDICTED BY RF-SCORE:    0.00 PKD
ROOT
HETATM    1  C   UNL     1     -10.484   7.485  66.978  1.00  0.00    -0.338 C  
HETATM    2  O   UNL     1      -9.762   7.900  68.135  1.00  0.00    -0.152 OA 
ENDROOT
BRANCH   2   3
HETATM    3  C   UNL     1     -10.407   8.760  69.000  1.00  0.00    -0.213 A  
HETATM    4  C   UNL     1     -10.474  10.177  68.803  1.00  0.00    -0.223 A  
HETATM    5  C   UNL     1     -11.253  10.929  69.713  1.00  0.00    -0.281 A  
HETATM    6  C   UNL     1     -11.914   8.904  70.871  1.00  0.00    -0.254 A  
HETATM    7  O   UNL     1     -11.314  12.288  69.712  1.00  0.00    -0.460 OA 
HETATM    8  C   UNL     1     -11.130   8.116  70.036  1.00  0.00    -0.146 A  
HETATM    9  C   UNL     1     -11.971  10.273  70.705  1.00  0.00    -0.456 A  
HETATM   10  C   UNL     1     -12.890  10.829  71.702  1.00  0.00    -0.457 C  
HETATM   11  C   UNL     1     -11.042   6.629  70.235  1.00  0.00    -0.379 C  
HETATM   12  H   UNL     1     -11.837  12.794  70.322  1.00  0.00     0.000 HD 
HETATM   13  O   UNL     1     -13.339   9.767  72.452  1.00  0.00    -0.412 OA 
HETATM   14  C   UNL     1     -12.762   8.524  72.024  1.00  0.00    -0.376 C  
HETATM   15  O   UNL     1     -13.250  11.980  71.855  1.00  0.00    -0.480 OA 
BRANCH   4  16
HETATM   16  C   UNL     1      -9.639  10.794  67.699  1.00  0.00    -0.174 C  
BRANCH  16  17
HETATM   17  C   UNL     1     -10.221  10.967  66.334  1.00  0.00    -0.289 C  
HETATM   18  C   UNL     1      -9.636  10.653  65.162  1.00  0.00    -0.304 C  
HETATM   19  C   UNL     1      -8.287  10.001  65.011  1.00  0.00    -0.158 C  
BRANCH  18  20
HETATM   20  C   UNL     1     -10.353  10.984  63.875  1.00  0.00    -0.436 C  
BRANCH  20  21
HETATM   21  C   UNL     1     -10.683  12.470  63.815  1.00  0.00    -0.483 C  
BRANCH  21  22
HETATM   22  C   UNL     1     -12.170  12.680  63.760  1.00  0.00    -0.514 C  
HETATM   23  O   UNL     1     -12.976  11.949  63.206  1.00  0.00    -0.707 OA 
BRANCH  22  24
HETATM   24  O   UNL     1     -12.455  13.897  64.294  1.00  0.00    -0.638 OA 
BRANCH  24  25
HETATM   25  C   UNL     1     -12.542  13.877  65.728  1.00  0.00    -0.494 C  
BRANCH  25  26
HETATM   26  C   UNL     1     -11.442  14.823  66.242  1.00  0.00    -0.316 C  
BRANCH  26  27
HETATM   27  N   UNL     1     -10.954  14.581  67.603  1.00  0.00    -0.280 NA 
HETATM   28  C   UNL     1      -9.481  14.528  67.701  1.00  0.00    -0.209 C  
HETATM   29  C   UNL     1      -8.798  15.894  67.524  1.00  0.00    -0.189 C  
HETATM   30  O   UNL     1      -9.296  16.850  68.466  1.00  0.00    -0.243 OA 
HETATM   31  C   UNL     1     -10.717  16.993  68.353  1.00  0.00    -0.361 C  
HETATM   32  C   UNL     1     -11.436  15.642  68.522  1.00  0.00    -0.375 C  
ENDBRANCH  26  27
ENDBRANCH  25  26
ENDBRANCH  24  25
ENDBRANCH  22  24
ENDBRANCH  21  22
ENDBRANCH  20  21
ENDBRANCH  18  20
ENDBRANCH  16  17
ENDBRANCH   4  16
ENDBRANCH   2   3
TORSDOF 10
ENDMDL
MODEL        2
REMARK 921   NORMALIZED FREE ENERGY PREDICTED BY IDOCK:   -6.68 KCAL/MOL
REMARK 922        TOTAL FREE ENERGY PREDICTED BY IDOCK:  -12.12 KCAL/MOL
REMARK 923 INTER-LIGAND FREE ENERGY PREDICTED BY IDOCK:  -10.93 KCAL/MOL
REMARK 924 INTRA-LIGAND FREE ENERGY PREDICTED BY IDOCK:   -1.19 KCAL/MOL
REMARK 927      BINDING AFFINITY PREDICTED BY RF-SCORE:    0.00 PKD
ROOT
HETATM    1  C   UNL     1      -7.241  14.033  67.598  1.00  0.00    -0.176 C  
HETATM    2  O   UNL     1      -8.627  13.821  67.857  1.00  0.00    -0.160 OA 
ENDROOT
BRANCH   2   3
HETATM    3  C   UNL     1      -9.421  13.483  66.780  1.00  0.00    -0.269 A  
HETATM    4  C   UNL     1      -9.688  12.133  66.387  1.00  0.00    -0.243 A  
HETATM    5  C   UNL     1     -10.600  11.928  65.325  1.00  0.00    -0.275 A  
HETATM    6  C   UNL     1     -10.996  14.313  65.161  1.00  0.00    -0.369 A  
HETATM    7  O   UNL     1     -10.859  10.709  64.777  1.00  0.00    -0.132 OA 
HETATM    8  C   UNL     1     -10.077  14.581  66.169  1.00  0.00    -0.319 A  
HETATM    9  C   UNL     1     -11.248  13.017  64.758  1.00  0.00    -0.344 A  
HETATM   10  C   UNL     1     -12.272  13.042  63.711  1.00  0.00    -0.460 C  
HETATM   11  C   UNL     1      -9.779  15.994  66.587  1.00  0.00    -0.261 C  
HETATM   12  H   UNL     1     -11.471  10.571  64.065  1.00  0.00     0.000 HD 
HETATM   13  O   UNL     1     -12.585  14.365  63.504  1.00  0.00    -0.784 OA 
HETATM   14  C   UNL     1     -11.818  15.238  64.347  1.00  0.00    -0.281 C  
HETATM   15  O   UNL     1     -12.802  12.111  63.135  1.00  0.00    -0.662 OA 
BRANCH   4  16
HETATM   16  C   UNL     1      -8.915  11.016  67.061  1.00  0.00    -0.151 C  
BRANCH  16  17
HETATM   17  C   UNL     1      -9.448  10.389  68.308  1.00  0.00    -0.153 C  
HETATM   18  C   UNL     1     -10.154   9.246  68.398  1.00  0.00    -0.215 C  
HETATM   19  C   UNL     1     -10.492   8.340  67.244  1.00  0.00    -0.373 C  
BRANCH  18  20
HETATM   20  C   UNL     1     -10.683   8.818  69.745  1.00  0.00    -0.220 C  
BRANCH  20  21
HETATM   21  C   UNL     1     -11.045  10.033  70.588  1.00  0.00    -0.408 C  
BRANCH  21  22
HETATM   22  C   UNL     1     -12.112   9.686  71.589  1.00  0.00    -0.402 C  
HETATM   23  O   UNL     1     -12.187   8.645  72.222  1.00  0.00    -0.362 OA 
BRANCH  22  24
HETATM   24  O   UNL     1     -13.064  10.656  71.559  1.00  0.00    -0.405 OA 
BRANCH  24  25
HETATM   25  C   UNL     1     -12.538  11.953  71.235  1.00  0.00    -0.277 C  
BRANCH  25  26
HETATM   26  C   UNL     1     -13.412  12.974  71.984  1.00  0.00    -0.492 C  
BRANCH  26  27
HETATM   27  N   UNL     1     -13.655  14.250  71.303  1.00  0.00    -0.326 NA 
HETATM   28  C   UNL     1     -14.208  15.295  72.188  1.00  0.00    -0.571 C  
HETATM   29  C   UNL     1     -13.198  15.844  73.208  1.00  0.00    -0.595 C  
HETATM   30  O   UNL     1     -12.028  16.354  72.557  1.00  0.00    -0.534 OA 
HETATM   31  C   UNL     1     -11.410  15.347  71.747  1.00  0.00    -0.382 C  
HETATM   32  C   UNL     1     -12.396  14.771  70.713  1.00  0.00    -0.330 C  
ENDBRANCH  26  27
ENDBRANCH  25  26
ENDBRANCH  24  25
ENDBRANCH  22  24
ENDBRANCH  21  22
ENDBRANCH  20  21
ENDBRANCH  18  20
ENDBRANCH  16  17
ENDBRANCH   4  16
ENDBRANCH   2   3
TORSDOF 10
ENDMDL
MODEL        3
REMARK 921   NORMALIZED FREE ENERGY PREDICTED BY IDOCK:   -6.67 KCAL/MOL
REMARK 922        TOTAL FREE ENERGY PREDICTED BY IDOCK:  -12.12 KCAL/MOL
REMARK 923 INTER-LIGAND FREE ENERGY PREDICTED BY IDOCK:  -11.20 KCAL/MOL
REMARK 924 INTRA-LIGAND FREE ENERGY PREDICTED BY IDOCK:   -0.92 KCAL/MOL
REMARK 927      BINDING AFFINITY PREDICTED BY RF-SCORE:    0.00 PKD
ROOT
HETATM    1  C   UNL     1     -10.725   7.054  66.991  1.00  0.00    -0.353 C  
HETATM    2  O   UNL     1      -9.915   7.554  68.053  1.00  0.00    -0.159 OA 
ENDROOT
BRANCH   2   3
HETATM    3  C   UNL     1     -10.523   8.399  68.959  1.00  0.00    -0.201 A  
HETATM    4  C   UNL     1     -10.654   9.810  68.759  1.00  0.00    -0.244 A  
HETATM    5  C   UNL     1     -11.388  10.543  69.720  1.00  0.00    -0.300 A  
HETATM    6  C   UNL     1     -11.888   8.508  70.938  1.00  0.00    -0.243 A  
HETATM    7  O   UNL     1     -11.497  11.900  69.714  1.00  0.00    -0.393 OA 
HETATM    8  C   UNL     1     -11.142   7.740  70.051  1.00  0.00    -0.182 A  
HETATM    9  C   UNL     1     -12.006   9.872  70.768  1.00  0.00    -0.410 A  
HETATM   10  C   UNL     1     -12.866  10.405  71.828  1.00  0.00    -0.456 C  
HETATM   11  C   UNL     1     -10.988   6.258  70.252  1.00  0.00    -0.400 C  
HETATM   12  H   UNL     1     -11.989  12.392  70.360  1.00  0.00     0.000 HD 
HETATM   13  O   UNL     1     -13.219   9.336  72.617  1.00  0.00    -0.414 OA 
HETATM   14  C   UNL     1     -12.633   8.109  72.154  1.00  0.00    -0.310 C  
HETATM   15  O   UNL     1     -13.253  11.544  72.000  1.00  0.00    -0.509 OA 
BRANCH   4  16
HETATM   16  C   UNL     1      -9.927  10.446  67.590  1.00  0.00    -0.205 C  
BRANCH  16  17
HETATM   17  C   UNL     1     -10.705  11.116  66.505  1.00  0.00    -0.314 C  
HETATM   18  C   UNL     1     -10.455  11.064  65.183  1.00  0.00    -0.329 C  
HETATM   19  C   UNL     1      -9.361  10.256  64.537  1.00  0.00    -0.328 C  
BRANCH  18  20
HETATM   20  C   UNL     1     -11.307  11.884  64.245  1.00  0.00    -0.425 C  
BRANCH  20  21
HETATM   21  C   UNL     1     -12.379  12.639  65.019  1.00  0.00    -0.561 C  
BRANCH  21  22
HETATM   22  C   UNL     1     -12.232  14.121  64.820  1.00  0.00    -0.440 C  
HETATM   23  O   UNL     1     -12.657  14.762  63.872  1.00  0.00    -0.834 OA 
BRANCH  22  24
HETATM   24  O   UNL     1     -11.414  14.609  65.791  1.00  0.00    -0.342 OA 
BRANCH  24  25
HETATM   25  C   UNL     1     -10.331  15.397  65.272  1.00  0.00    -0.390 C  
BRANCH  25  26
HETATM   26  C   UNL     1     -10.581  16.841  65.744  1.00  0.00    -0.250 C  
BRANCH  26  27
HETATM   27  N   UNL     1      -9.403  17.604  66.165  1.00  0.00    -0.488 NA 
HETATM   28  C   UNL     1      -9.618  19.065  66.174  1.00  0.00    -0.259 C  
HETATM   29  C   UNL     1     -10.540  19.550  67.305  1.00  0.00    -0.490 C  
HETATM   30  O   UNL     1     -10.049  19.142  68.587  1.00  0.00    -0.391 OA 
HETATM   31  C   UNL     1      -9.899  17.719  68.651  1.00  0.00    -0.359 C  
HETATM   32  C   UNL     1      -8.982  17.196  67.529  1.00  0.00    -0.221 C  
ENDBRANCH  26  27
ENDBRANCH  25  26
ENDBRANCH  24  25
ENDBRANCH  22  24
ENDBRANCH  21  22
ENDBRANCH  20  21
ENDBRANCH  18  20
ENDBRANCH  16  17
ENDBRANCH   4  16
ENDBRANCH   2   3
TORSDOF 10
ENDMDL
MODEL        4
REMARK 921   NORMALIZED FREE ENERGY PREDICTED BY IDOCK:   -6.63 KCAL/MOL
REMARK 922        TOTAL FREE ENERGY PREDICTED BY IDOCK:  -12.05 KCAL/MOL
REMARK 923 INTER-LIGAND FREE ENERGY PREDICTED BY IDOCK:  -10.55 KCAL/MOL
REMARK 924 INTRA-LIGAND FREE ENERGY PREDICTED BY IDOCK:   -1.50 KCAL/MOL
REMARK 927      BINDING AFFINITY PREDICTED BY RF-SCORE:    0.00 PKD
ROOT
HETATM    1  C   UNL     1     -10.658   7.071  67.089  1.00  0.00    -0.341 C  
HETATM    2  O   UNL     1      -9.875   7.572  68.170  1.00  0.00    -0.151 OA 
ENDROOT
BRANCH   2   3
HETATM    3  C   UNL     1     -10.497   8.444  69.041  1.00  0.00    -0.201 A  
HETATM    4  C   UNL     1     -10.538   9.862  68.845  1.00  0.00    -0.239 A  
HETATM    5  C   UNL     1     -11.295  10.627  69.762  1.00  0.00    -0.301 A  
HETATM    6  C   UNL     1     -11.985   8.615  70.924  1.00  0.00    -0.220 A  
HETATM    7  O   UNL     1     -11.330  11.988  69.762  1.00  0.00    -0.447 OA 
HETATM    8  C   UNL     1     -11.223   7.813  70.082  1.00  0.00    -0.168 A  
HETATM    9  C   UNL     1     -12.018   9.985  70.759  1.00  0.00    -0.426 A  
HETATM   10  C   UNL     1     -12.918  10.557  71.764  1.00  0.00    -0.476 C  
HETATM   11  C   UNL     1     -11.162   6.324  70.279  1.00  0.00    -0.455 C  
HETATM   12  H   UNL     1     -11.838  12.503  70.377  1.00  0.00     0.000 HD 
HETATM   13  O   UNL     1     -13.380   9.504  72.517  1.00  0.00    -0.418 OA 
HETATM   14  C   UNL     1     -12.831   8.250  72.083  1.00  0.00    -0.315 C  
HETATM   15  O   UNL     1     -13.254  11.715  71.921  1.00  0.00    -0.485 OA 
BRANCH   4  16
HETATM   16  C   UNL     1      -9.700  10.464  67.735  1.00  0.00    -0.181 C  
BRANCH  16  17
HETATM   17  C   UNL     1     -10.299  10.677  66.383  1.00  0.00    -0.291 C  
HETATM   18  C   UNL     1      -9.690  10.503  65.194  1.00  0.00    -0.341 C  
HETATM   19  C   UNL     1      -8.286   9.994  65.004  1.00  0.00    -0.148 C  
BRANCH  18  20
HETATM   20  C   UNL     1     -10.438  10.855  63.931  1.00  0.00    -0.359 C  
BRANCH  20  21
HETATM   21  C   UNL     1     -10.599  12.365  63.809  1.00  0.00    -0.486 C  
BRANCH  21  22
HETATM   22  C   UNL     1     -12.050  12.750  63.876  1.00  0.00    -0.486 C  
HETATM   23  O   UNL     1     -12.984  12.101  63.430  1.00  0.00    -0.776 OA 
BRANCH  22  24
HETATM   24  O   UNL     1     -12.140  14.012  64.375  1.00  0.00    -0.432 OA 
BRANCH  24  25
HETATM   25  C   UNL     1     -12.902  14.083  65.591  1.00  0.00    -0.406 C  
BRANCH  25  26
HETATM   26  C   UNL     1     -11.880  14.097  66.742  1.00  0.00    -0.425 C  
BRANCH  26  27
HETATM   27  N   UNL     1     -10.928  15.212  66.757  1.00  0.00    -0.321 NA 
HETATM   28  C   UNL     1     -11.015  16.045  67.973  1.00  0.00    -0.341 C  
HETATM   29  C   UNL     1     -10.478  15.356  69.238  1.00  0.00    -0.251 C  
HETATM   30  O   UNL     1      -9.123  14.926  69.060  1.00  0.00    -0.196 OA 
HETATM   31  C   UNL     1      -9.004  14.049  67.934  1.00  0.00    -0.188 C  
HETATM   32  C   UNL     1      -9.536  14.707  66.647  1.00  0.00    -0.278 C  
ENDBRANCH  26  27
ENDBRANCH  25  26
ENDBRANCH  24  25
ENDBRANCH  22  24
ENDBRANCH  21  22
ENDBRANCH  20  21
ENDBRANCH  18  20
ENDBRANCH  16  17
ENDBRANCH   4  16
ENDBRANCH   2   3
TORSDOF 10
ENDMDL
MODEL        5
REMARK 921   NORMALIZED FREE ENERGY PREDICTED BY IDOCK:   -6.56 KCAL/MOL
REMARK 922        TOTAL FREE ENERGY PREDICTED BY IDOCK:  -11.94 KCAL/MOL
REMARK 923 INTER-LIGAND FREE ENERGY PREDICTED BY IDOCK:  -10.88 KCAL/MOL
REMARK 924 INTRA-LIGAND FREE ENERGY PREDICTED BY IDOCK:   -1.05 KCAL/MOL
REMARK 927      BINDING AFFINITY PREDICTED BY RF-SCORE:    0.00 PKD
ROOT
HETATM    1  C   UNL     1      -8.296   7.853  68.386  1.00  0.00    -0.124 C  
HETATM    2  O   UNL     1      -9.675   8.097  68.116  1.00  0.00    -0.154 OA 
ENDROOT
BRANCH   2   3
HETATM    3  C   UNL     1     -10.368   8.856  69.037  1.00  0.00    -0.212 A  
HETATM    4  C   UNL     1     -10.506  10.278  68.946  1.00  0.00    -0.231 A  
HETATM    5  C   UNL     1     -11.327  10.919  69.903  1.00  0.00    -0.305 A  
HETATM    6  C   UNL     1     -11.891   8.782  70.898  1.00  0.00    -0.267 A  
HETATM    7  O   UNL     1     -11.457  12.270  70.003  1.00  0.00    -0.505 OA 
HETATM    8  C   UNL     1     -11.063   8.100  70.014  1.00  0.00    -0.146 A  
HETATM    9  C   UNL     1     -12.017  10.155  70.835  1.00  0.00    -0.461 A  
HETATM   10  C   UNL     1     -12.969  10.587  71.862  1.00  0.00    -0.447 C  
HETATM   11  C   UNL     1     -10.902   6.608  70.101  1.00  0.00    -0.330 C  
HETATM   12  H   UNL     1     -12.008  12.701  70.645  1.00  0.00     0.000 HD 
HETATM   13  O   UNL     1     -13.367   9.450  72.526  1.00  0.00    -0.440 OA 
HETATM   14  C   UNL     1     -12.726   8.273  72.011  1.00  0.00    -0.342 C  
HETATM   15  O   UNL     1     -13.387  11.704  72.098  1.00  0.00    -0.491 OA 
BRANCH   4  16
HETATM   16  C   UNL     1      -9.696  11.018  67.900  1.00  0.00    -0.183 C  
BRANCH  16  17
HETATM   17  C   UNL     1     -10.383  11.626  66.720  1.00  0.00    -0.257 C  
HETATM   18  C   UNL     1     -10.369  11.168  65.454  1.00  0.00    -0.331 C  
HETATM   19  C   UNL     1      -9.697   9.901  64.996  1.00  0.00    -0.359 C  
BRANCH  18  20
HETATM   20  C   UNL     1     -11.056  11.973  64.378  1.00  0.00    -0.399 C  
BRANCH  20  21
HETATM   21  C   UNL     1     -12.133  12.864  64.983  1.00  0.00    -0.480 C  
BRANCH  21  22
HETATM   22  C   UNL     1     -11.978  14.281  64.507  1.00  0.00    -0.462 C  
HETATM   23  O   UNL     1     -12.785  14.902  63.833  1.00  0.00    -0.789 OA 
BRANCH  22  24
HETATM   24  O   UNL     1     -10.725  14.707  64.818  1.00  0.00    -0.412 OA 
BRANCH  24  25
HETATM   25  C   UNL     1     -10.629  15.253  66.144  1.00  0.00    -0.313 C  
BRANCH  25  26
HETATM   26  C   UNL     1      -9.224  15.869  66.258  1.00  0.00    -0.337 C  
BRANCH  26  27
HETATM   27  N   UNL     1      -9.107  17.295  65.938  1.00  0.00    -0.529 NA 
HETATM   28  C   UNL     1     -10.170  18.124  66.543  1.00  0.00    -0.391 C  
HETATM   29  C   UNL     1     -10.037  18.287  68.066  1.00  0.00    -0.364 C  
HETATM   30  O   UNL     1      -8.761  18.830  68.422  1.00  0.00    -0.317 OA 
HETATM   31  C   UNL     1      -7.696  18.012  67.921  1.00  0.00    -0.230 C  
HETATM   32  C   UNL     1      -7.798  17.824  66.395  1.00  0.00    -0.277 C  
ENDBRANCH  26  27
ENDBRANCH  25  26
ENDBRANCH  24  25
ENDBRANCH  22  24
ENDBRANCH  21  22
ENDBRANCH  20  21
ENDBRANCH  18  20
ENDBRANCH  16  17
ENDBRANCH   4  16
ENDBRANCH   2   3
TORSDOF 10
ENDMDL
MODEL        6
REMARK 921   NORMALIZED FREE ENERGY PREDICTED BY IDOCK:   -6.56 KCAL/MOL
REMARK 922        TOTAL FREE ENERGY PREDICTED BY IDOCK:  -11.93 KCAL/MOL
REMARK 923 INTER-LIGAND FREE ENERGY PREDICTED BY IDOCK:  -11.03 KCAL/MOL
REMARK 924 INTRA-LIGAND FREE ENERGY PREDICTED BY IDOCK:   -0.90 KCAL/MOL
REMARK 927      BINDING AFFINITY PREDICTED BY RF-SCORE:    0.00 PKD
ROOT
HETATM    1  C   UNL     1     -12.273  13.973  69.153  1.00  0.00    -0.262 C  
HETATM    2  O   UNL     1     -11.685  13.295  70.261  1.00  0.00    -0.257 OA 
ENDROOT
BRANCH   2   3
HETATM    3  C   UNL     1     -11.859  11.927  70.322  1.00  0.00    -0.281 A  
HETATM    4  C   UNL     1     -11.083  10.997  69.560  1.00  0.00    -0.322 A  
HETATM    5  C   UNL     1     -11.298   9.618  69.793  1.00  0.00    -0.120 A  
HETATM    6  C   UNL     1     -12.913  10.130  71.527  1.00  0.00    -0.547 A  
HETATM    7  O   UNL     1     -10.714   8.629  69.064  1.00  0.00    -0.348 OA 
HETATM    8  C   UNL     1     -12.778  11.497  71.312  1.00  0.00    -0.469 A  
HETATM    9  C   UNL     1     -12.185   9.222  70.785  1.00  0.00    -0.192 A  
HETATM   10  C   UNL     1     -12.511   7.870  71.248  1.00  0.00    -0.264 C  
HETATM   11  C   UNL     1     -13.591  12.487  72.098  1.00  0.00    -0.458 C  
HETATM   12  H   UNL     1     -10.858   7.703  69.220  1.00  0.00     0.000 HD 
HETATM   13  O   UNL     1     -13.447   8.015  72.245  1.00  0.00    -0.205 OA 
HETATM   14  C   UNL     1     -13.782   9.393  72.473  1.00  0.00    -0.350 C  
HETATM   15  O   UNL     1     -12.050   6.805  70.888  1.00  0.00    -0.377 OA 
BRANCH   4  16
HETATM   16  C   UNL     1     -10.153  11.535  68.490  1.00  0.00    -0.211 C  
BRANCH  16  17
HETATM   17  C   UNL     1     -10.691  11.874  67.138  1.00  0.00    -0.280 C  
HETATM   18  C   UNL     1     -10.502  11.183  65.998  1.00  0.00    -0.312 C  
HETATM   19  C   UNL     1      -9.750   9.883  65.885  1.00  0.00    -0.326 C  
BRANCH  18  20
HETATM   20  C   UNL     1     -11.057  11.735  64.707  1.00  0.00    -0.356 C  
BRANCH  20  21
HETATM   21  C   UNL     1     -12.363  12.475  64.961  1.00  0.00    -0.522 C  
BRANCH  21  22
HETATM   22  C   UNL     1     -12.299  13.870  64.406  1.00  0.00    -0.361 C  
HETATM   23  O   UNL     1     -12.467  14.184  63.238  1.00  0.00    -0.758 OA 
BRANCH  22  24
HETATM   24  O   UNL     1     -11.870  14.707  65.389  1.00  0.00    -0.350 OA 
BRANCH  24  25
HETATM   25  C   UNL     1     -10.686  15.437  65.029  1.00  0.00    -0.438 C  
BRANCH  25  26
HETATM   26  C   UNL     1     -10.394  16.392  66.200  1.00  0.00    -0.344 C  
BRANCH  26  27
HETATM   27  N   UNL     1      -9.661  17.619  65.875  1.00  0.00    -0.542 NA 
HETATM   28  C   UNL     1     -10.472  18.846  66.014  1.00  0.00    -0.446 C  
HETATM   29  C   UNL     1     -10.783  19.223  67.472  1.00  0.00    -0.463 C  
HETATM   30  O   UNL     1      -9.582  19.366  68.239  1.00  0.00    -0.336 OA 
HETATM   31  C   UNL     1      -8.798  18.168  68.197  1.00  0.00    -0.280 C  
HETATM   32  C   UNL     1      -8.470  17.758  66.749  1.00  0.00    -0.248 C  
ENDBRANCH  26  27
ENDBRANCH  25  26
ENDBRANCH  24  25
ENDBRANCH  22  24
ENDBRANCH  21  22
ENDBRANCH  20  21
ENDBRANCH  18  20
ENDBRANCH  16  17
ENDBRANCH   4  16
ENDBRANCH   2   3
TORSDOF 10
ENDMDL
MODEL        7
REMARK 921   NORMALIZED FREE ENERGY PREDICTED BY IDOCK:   -6.42 KCAL/MOL
REMARK 922        TOTAL FREE ENERGY PREDICTED BY IDOCK:  -11.71 KCAL/MOL
REMARK 923 INTER-LIGAND FREE ENERGY PREDICTED BY IDOCK:  -10.97 KCAL/MOL
REMARK 924 INTRA-LIGAND FREE ENERGY PREDICTED BY IDOCK:   -0.74 KCAL/MOL
REMARK 927      BINDING AFFINITY PREDICTED BY RF-SCORE:    0.00 PKD
ROOT
HETATM    1  C   UNL     1      -9.998   8.010  67.454  1.00  0.00    -0.207 C  
HETATM    2  O   UNL     1      -9.395   9.281  67.220  1.00  0.00    -0.128 OA 
ENDROOT
BRANCH   2   3
HETATM    3  C   UNL     1     -10.211  10.279  66.726  1.00  0.00    -0.228 A  
HETATM    4  C   UNL     1     -11.005  11.134  67.555  1.00  0.00    -0.331 A  
HETATM    5  C   UNL     1     -11.717  12.181  66.924  1.00  0.00    -0.301 A  
HETATM    6  C   UNL     1     -10.786  11.563  64.774  1.00  0.00    -0.366 A  
HETATM    7  O   UNL     1     -12.594  12.995  67.572  1.00  0.00     0.033 OA 
HETATM    8  C   UNL     1     -10.096  10.491  65.329  1.00  0.00    -0.369 A  
HETATM    9  C   UNL     1     -11.570  12.384  65.558  1.00  0.00    -0.432 A  
HETATM   10  C   UNL     1     -12.144  13.433  64.712  1.00  0.00    -0.406 C  
HETATM   11  C   UNL     1      -9.266   9.578  64.471  1.00  0.00    -0.223 C  
HETATM   12  H   UNL     1     -13.073  13.698  67.149  1.00  0.00     0.000 HD 
HETATM   13  O   UNL     1     -11.698  13.191  63.434  1.00  0.00    -0.475 OA 
HETATM   14  C   UNL     1     -10.862  12.025  63.368  1.00  0.00    -0.405 C  
HETATM   15  O   UNL     1     -12.846  14.374  65.028  1.00  0.00    -0.631 OA 
BRANCH   4  16
HETATM   16  C   UNL     1     -11.109  10.816  69.033  1.00  0.00    -0.308 C  
BRANCH  16  17
HETATM   17  C   UNL     1     -11.665  11.832  69.976  1.00  0.00    -0.386 C  
HETATM   18  C   UNL     1     -12.527  11.609  70.987  1.00  0.00    -0.436 C  
HETATM   19  C   UNL     1     -13.052  10.259  71.399  1.00  0.00    -0.512 C  
BRANCH  18  20
HETATM   20  C   UNL     1     -13.045  12.785  71.780  1.00  0.00    -0.455 C  
BRANCH  20  21
HETATM   21  C   UNL     1     -12.707  14.093  71.077  1.00  0.00    -0.433 C  
BRANCH  21  22
HETATM   22  C   UNL     1     -12.088  15.067  72.040  1.00  0.00    -0.379 C  
HETATM   23  O   UNL     1     -12.159  15.013  73.257  1.00  0.00    -0.370 OA 
BRANCH  22  24
HETATM   24  O   UNL     1     -11.566  16.104  71.331  1.00  0.00    -0.445 OA 
BRANCH  24  25
HETATM   25  C   UNL     1     -10.632  15.683  70.323  1.00  0.00    -0.313 C  
BRANCH  25  26
HETATM   26  C   UNL     1     -10.775  16.677  69.158  1.00  0.00    -0.342 C  
BRANCH  26  27
HETATM   27  N   UNL     1      -9.532  17.123  68.522  1.00  0.00    -0.274 NA 
HETATM   28  C   UNL     1      -9.151  16.318  67.343  1.00  0.00    -0.195 C  
HETATM   29  C   UNL     1     -10.051  16.546  66.118  1.00  0.00    -0.348 C  
HETATM   30  O   UNL     1     -10.086  17.929  65.749  1.00  0.00    -0.563 OA 
HETATM   31  C   UNL     1     -10.528  18.743  66.841  1.00  0.00    -0.414 C  
HETATM   32  C   UNL     1      -9.649  18.538  68.090  1.00  0.00    -0.327 C  
ENDBRANCH  26  27
ENDBRANCH  25  26
ENDBRANCH  24  25
ENDBRANCH  22  24
ENDBRANCH  21  22
ENDBRANCH  20  21
ENDBRANCH  18  20
ENDBRANCH  16  17
ENDBRANCH   4  16
ENDBRANCH   2   3
TORSDOF 10
ENDMDL
MODEL        8
REMARK 921   NORMALIZED FREE ENERGY PREDICTED BY IDOCK:   -6.40 KCAL/MOL
REMARK 922        TOTAL FREE ENERGY PREDICTED BY IDOCK:  -11.68 KCAL/MOL
REMARK 923 INTER-LIGAND FREE ENERGY PREDICTED BY IDOCK:  -10.70 KCAL/MOL
REMARK 924 INTRA-LIGAND FREE ENERGY PREDICTED BY IDOCK:   -0.98 KCAL/MOL
REMARK 927      BINDING AFFINITY PREDICTED BY RF-SCORE:    0.00 PKD
ROOT
HETATM    1  C   UNL     1     -10.186   7.036  66.753  1.00  0.00    -0.211 C  
HETATM    2  O   UNL     1      -9.502   7.311  67.974  1.00  0.00    -0.136 OA 
ENDROOT
BRANCH   2   3
HETATM    3  C   UNL     1     -10.197   8.019  68.933  1.00  0.00    -0.209 A  
HETATM    4  C   UNL     1     -10.328   9.444  68.924  1.00  0.00    -0.230 A  
HETATM    5  C   UNL     1     -11.151  10.033  69.912  1.00  0.00    -0.288 A  
HETATM    6  C   UNL     1     -11.729   7.845  70.781  1.00  0.00    -0.230 A  
HETATM    7  O   UNL     1     -11.276  11.377  70.089  1.00  0.00    -0.476 OA 
HETATM    8  C   UNL     1     -10.900   7.211  69.862  1.00  0.00    -0.276 A  
HETATM    9  C   UNL     1     -11.848   9.220  70.796  1.00  0.00    -0.303 A  
HETATM   10  C   UNL     1     -12.803   9.596  71.842  1.00  0.00    -0.425 C  
HETATM   11  C   UNL     1     -10.744   5.716  69.864  1.00  0.00    -0.399 C  
HETATM   12  H   UNL     1     -11.828  11.772  70.752  1.00  0.00     0.000 HD 
HETATM   13  O   UNL     1     -13.210   8.425  72.438  1.00  0.00    -0.297 OA 
HETATM   14  C   UNL     1     -12.570   7.277  71.859  1.00  0.00    -0.291 C  
HETATM   15  O   UNL     1     -13.218  10.699  72.140  1.00  0.00    -0.464 OA 
BRANCH   4  16
HETATM   16  C   UNL     1      -9.510  10.240  67.926  1.00  0.00    -0.154 C  
BRANCH  16  17
HETATM   17  C   UNL     1     -10.182  11.241  67.043  1.00  0.00    -0.250 C  
HETATM   18  C   UNL     1     -10.236  11.224  65.698  1.00  0.00    -0.304 C  
HETATM   19  C   UNL     1      -9.670  10.138  64.820  1.00  0.00    -0.389 C  
BRANCH  18  20
HETATM   20  C   UNL     1     -10.891  12.376  64.977  1.00  0.00    -0.331 C  
BRANCH  20  21
HETATM   21  C   UNL     1     -12.117  12.857  65.742  1.00  0.00    -0.513 C  
BRANCH  21  22
HETATM   22  C   UNL     1     -11.841  14.174  66.411  1.00  0.00    -0.423 C  
HETATM   23  O   UNL     1     -11.355  15.160  65.879  1.00  0.00    -0.319 OA 
BRANCH  22  24
HETATM   24  O   UNL     1     -12.077  14.039  67.744  1.00  0.00    -0.371 OA 
BRANCH  24  25
HETATM   25  C   UNL     1     -11.602  15.154  68.515  1.00  0.00    -0.335 C  
BRANCH  25  26
HETATM   26  C   UNL     1     -11.840  14.792  69.992  1.00  0.00    -0.311 C  
BRANCH  26  27
HETATM   27  N   UNL     1     -12.647  15.734  70.774  1.00  0.00    -0.418 NA 
HETATM   28  C   UNL     1     -13.979  15.210  71.136  1.00  0.00    -0.404 C  
HETATM   29  C   UNL     1     -13.943  14.103  72.202  1.00  0.00    -0.531 C  
HETATM   30  O   UNL     1     -13.276  14.546  73.389  1.00  0.00    -0.592 OA 
HETATM   31  C   UNL     1     -11.946  14.991  73.097  1.00  0.00    -0.296 C  
HETATM   32  C   UNL     1     -11.944  16.101  72.029  1.00  0.00    -0.526 C  
ENDBRANCH  26  27
ENDBRANCH  25  26
ENDBRANCH  24  25
ENDBRANCH  22  24
ENDBRANCH  21  22
ENDBRANCH  20  21
ENDBRANCH  18  20
ENDBRANCH  16  17
ENDBRANCH   4  16
ENDBRANCH   2   3
TORSDOF 10
ENDMDL
MODEL        9
REMARK 921   NORMALIZED FREE ENERGY PREDICTED BY IDOCK:   -6.33 KCAL/MOL
REMARK 922        TOTAL FREE ENERGY PREDICTED BY IDOCK:  -11.57 KCAL/MOL
REMARK 923 INTER-LIGAND FREE ENERGY PREDICTED BY IDOCK:  -10.38 KCAL/MOL
REMARK 924 INTRA-LIGAND FREE ENERGY PREDICTED BY IDOCK:   -1.19 KCAL/MOL
REMARK 927      BINDING AFFINITY PREDICTED BY RF-SCORE:    0.00 PKD
ROOT
HETATM    1  C   UNL     1      -8.615  10.936  68.590  1.00  0.00    -0.153 C  
HETATM    2  O   UNL     1      -9.856  10.442  68.091  1.00  0.00    -0.148 OA 
ENDROOT
BRANCH   2   3
HETATM    3  C   UNL     1     -10.567  11.273  67.249  1.00  0.00    -0.233 A  
HETATM    4  C   UNL     1     -11.250  12.451  67.691  1.00  0.00    -0.340 A  
HETATM    5  C   UNL     1     -11.855  13.266  66.707  1.00  0.00    -0.394 A  
HETATM    6  C   UNL     1     -11.031  11.813  64.950  1.00  0.00    -0.358 A  
HETATM    7  O   UNL     1     -12.628  14.349  66.993  1.00  0.00    -0.538 OA 
HETATM    8  C   UNL     1     -10.453  10.949  65.874  1.00  0.00    -0.285 A  
HETATM    9  C   UNL     1     -11.709  12.941  65.364  1.00  0.00    -0.413 A  
HETATM   10  C   UNL     1     -12.180  13.666  64.181  1.00  0.00    -0.399 C  
HETATM   11  C   UNL     1      -9.740   9.704  65.426  1.00  0.00    -0.365 C  
HETATM   12  H   UNL     1     -13.035  14.896  66.332  1.00  0.00     0.000 HD 
HETATM   13  O   UNL     1     -11.784  12.929  63.090  1.00  0.00    -0.472 OA 
HETATM   14  C   UNL     1     -11.081  11.737  63.472  1.00  0.00    -0.422 C  
HETATM   15  O   UNL     1     -12.771  14.727  64.117  1.00  0.00    -0.758 OA 
BRANCH   4  16
HETATM   16  C   UNL     1     -11.364  12.705  69.181  1.00  0.00    -0.339 C  
BRANCH  16  17
HETATM   17  C   UNL     1     -12.009  11.686  70.063  1.00  0.00    -0.429 C  
HETATM   18  C   UNL     1     -12.718  11.920  71.184  1.00  0.00    -0.384 C  
HETATM   19  C   UNL     1     -13.049  13.283  71.732  1.00  0.00    -0.472 C  
BRANCH  18  20
HETATM   20  C   UNL     1     -13.219  10.748  71.991  1.00  0.00    -0.466 C  
BRANCH  20  21
HETATM   21  C   UNL     1     -13.201   9.476  71.153  1.00  0.00    -0.332 C  
BRANCH  21  22
HETATM   22  C   UNL     1     -12.239   8.476  71.731  1.00  0.00    -0.334 C  
HETATM   23  O   UNL     1     -11.224   8.737  72.357  1.00  0.00    -0.329 OA 
BRANCH  22  24
HETATM   24  O   UNL     1     -12.602   7.234  71.309  1.00  0.00    -0.355 OA 
BRANCH  24  25
HETATM   25  C   UNL     1     -11.488   6.336  71.179  1.00  0.00    -0.299 C  
BRANCH  25  26
HETATM   26  C   UNL     1     -11.301   6.095  69.670  1.00  0.00    -0.372 C  
BRANCH  26  27
HETATM   27  N   UNL     1     -10.568   7.126  68.930  1.00  0.00    -0.209 NA 
HETATM   28  C   UNL     1      -9.138   7.207  69.289  1.00  0.00    -0.137 C  
HETATM   29  C   UNL     1      -8.303   6.019  68.783  1.00  0.00    -0.106 C  
HETATM   30  O   UNL     1      -8.421   5.867  67.364  1.00  0.00    -0.105 OA 
HETATM   31  C   UNL     1      -9.791   5.706  66.976  1.00  0.00    -0.154 C  
HETATM   32  C   UNL     1     -10.659   6.879  67.469  1.00  0.00    -0.281 C  
ENDBRANCH  26  27
ENDBRANCH  25  26
ENDBRANCH  24  25
ENDBRANCH  22  24
ENDBRANCH  21  22
ENDBRANCH  20  21
ENDBRANCH  18  20
ENDBRANCH  16  17
ENDBRANCH   4  16
ENDBRANCH   2   3
TORSDOF 10
ENDMDL
MODEL       10
REMARK 921   NORMALIZED FREE ENERGY PREDICTED BY IDOCK:   -6.31 KCAL/MOL
REMARK 922        TOTAL FREE ENERGY PREDICTED BY IDOCK:  -11.54 KCAL/MOL
REMARK 923 INTER-LIGAND FREE ENERGY PREDICTED BY IDOCK:  -10.36 KCAL/MOL
REMARK 924 INTRA-LIGAND FREE ENERGY PREDICTED BY IDOCK:   -1.18 KCAL/MOL
REMARK 927      BINDING AFFINITY PREDICTED BY RF-SCORE:    0.00 PKD
ROOT
HETATM    1  C   UNL     1     -14.352   8.555  72.037  1.00  0.00    -0.447 C  
HETATM    2  O   UNL     1     -13.124   9.089  72.528  1.00  0.00    -0.433 OA 
ENDROOT
BRANCH   2   3
HETATM    3  C   UNL     1     -12.110   9.270  71.610  1.00  0.00    -0.379 A  
HETATM    4  C   UNL     1     -11.866  10.508  70.934  1.00  0.00    -0.455 A  
HETATM    5  C   UNL     1     -10.731  10.583  70.094  1.00  0.00    -0.171 A  
HETATM    6  C   UNL     1     -10.104   8.317  70.682  1.00  0.00    -0.212 A  
HETATM    7  O   UNL     1     -10.443  11.656  69.308  1.00  0.00    -0.405 OA 
HETATM    8  C   UNL     1     -11.227   8.167  71.488  1.00  0.00    -0.307 A  
HETATM    9  C   UNL     1      -9.868   9.498  70.009  1.00  0.00    -0.269 A  
HETATM   10  C   UNL     1      -8.609   9.374  69.270  1.00  0.00    -0.143 C  
HETATM   11  C   UNL     1     -11.502   6.871  72.197  1.00  0.00    -0.316 C  
HETATM   12  H   UNL     1      -9.681  11.707  68.743  1.00  0.00     0.000 HD 
HETATM   13  O   UNL     1      -8.141   8.103  69.510  1.00  0.00    -0.114 OA 
HETATM   14  C   UNL     1      -9.024   7.356  70.362  1.00  0.00    -0.150 C  
HETATM   15  O   UNL     1      -8.029  10.204  68.598  1.00  0.00    -0.095 OA 
BRANCH   4  16
HETATM   16  C   UNL     1     -12.879  11.625  71.083  1.00  0.00    -0.392 C  
BRANCH  16  17
HETATM   17  C   UNL     1     -12.448  13.047  70.927  1.00  0.00    -0.396 C  
HETATM   18  C   UNL     1     -13.096  14.141  71.371  1.00  0.00    -0.428 C  
HETATM   19  C   UNL     1     -14.369  14.129  72.176  1.00  0.00    -0.606 C  
BRANCH  18  20
HETATM   20  C   UNL     1     -12.543  15.505  71.039  1.00  0.00    -0.513 C  
BRANCH  20  21
HETATM   21  C   UNL     1     -11.040  15.428  70.801  1.00  0.00    -0.371 C  
BRANCH  21  22
HETATM   22  C   UNL     1     -10.722  15.630  69.346  1.00  0.00    -0.252 C  
HETATM   23  O   UNL     1     -11.021  16.607  68.677  1.00  0.00    -0.339 OA 
BRANCH  22  24
HETATM   24  O   UNL     1     -10.185  14.480  68.858  1.00  0.00    -0.231 OA 
BRANCH  24  25
HETATM   25  C   UNL     1      -9.349  14.694  67.709  1.00  0.00    -0.197 C  
BRANCH  25  26
HETATM   26  C   UNL     1      -9.856  13.731  66.620  1.00  0.00    -0.284 C  
BRANCH  26  27
HETATM   27  N   UNL     1     -11.256  13.310  66.721  1.00  0.00    -0.296 NA 
HETATM   28  C   UNL     1     -12.211  14.305  66.192  1.00  0.00    -0.410 C  
HETATM   29  C   UNL     1     -12.190  14.433  64.660  1.00  0.00    -0.464 C  
HETATM   30  O   UNL     1     -12.432  13.170  64.029  1.00  0.00    -0.599 OA 
HETATM   31  C   UNL     1     -11.477  12.191  64.454  1.00  0.00    -0.350 C  
HETATM   32  C   UNL     1     -11.468  12.037  65.987  1.00  0.00    -0.338 C  
ENDBRANCH  26  27
ENDBRANCH  25  26
ENDBRANCH  24  25
ENDBRANCH  22  24
ENDBRANCH  21  22
ENDBRANCH  20  21
ENDBRANCH  18  20
ENDBRANCH  16  17
ENDBRANCH   4  16
ENDBRANCH   2   3
TORSDOF 10
ENDMDL
MODEL       11
REMARK 921   NORMALIZED FREE ENERGY PREDICTED BY IDOCK:   -6.17 KCAL/MOL
REMARK 922        TOTAL FREE ENERGY PREDICTED BY IDOCK:  -11.32 KCAL/MOL
REMARK 923 INTER-LIGAND FREE ENERGY PREDICTED BY IDOCK:  -10.65 KCAL/MOL
REMARK 924 INTRA-LIGAND FREE ENERGY PREDICTED BY IDOCK:   -0.68 KCAL/MOL
REMARK 927      BINDING AFFINITY PREDICTED BY RF-SCORE:    0.00 PKD
ROOT
HETATM    1  C   UNL     1      -8.758   8.692  65.489  1.00  0.00    -0.186 C  
HETATM    2  O   UNL     1     -10.102   8.646  65.964  1.00  0.00    -0.189 OA 
ENDROOT
BRANCH   2   3
HETATM    3  C   UNL     1     -10.280   8.599  67.332  1.00  0.00    -0.262 A  
HETATM    4  C   UNL     1     -10.321   9.763  68.164  1.00  0.00    -0.241 A  
HETATM    5  C   UNL     1     -10.611   9.578  69.536  1.00  0.00    -0.221 A  
HETATM    6  C   UNL     1     -10.887   7.195  69.189  1.00  0.00    -0.185 A  
HETATM    7  O   UNL     1     -10.572  10.578  70.458  1.00  0.00    -0.420 OA 
HETATM    8  C   UNL     1     -10.566   7.308  67.841  1.00  0.00    -0.266 A  
HETATM    9  C   UNL     1     -10.911   8.306  70.007  1.00  0.00    -0.232 A  
HETATM   10  C   UNL     1     -11.307   7.889  71.355  1.00  0.00    -0.252 C  
HETATM   11  C   UNL     1     -10.510   6.094  66.956  1.00  0.00    -0.341 C  
HETATM   12  H   UNL     1     -10.766  10.454  71.379  1.00  0.00     0.000 HD 
HETATM   13  O   UNL     1     -11.487   6.526  71.303  1.00  0.00    -0.290 OA 
HETATM   14  C   UNL     1     -11.222   5.998  69.994  1.00  0.00    -0.355 C  
HETATM   15  O   UNL     1     -11.492   8.570  72.344  1.00  0.00    -0.369 OA 
BRANCH   4  16
HETATM   16  C   UNL     1      -9.962  11.103  67.553  1.00  0.00    -0.204 C  
BRANCH  16  17
HETATM   17  C   UNL     1     -11.042  12.006  67.052  1.00  0.00    -0.351 C  
HETATM   18  C   UNL     1     -11.273  12.357  65.773  1.00  0.00    -0.370 C  
HETATM   19  C   UNL     1     -10.507  11.845  64.581  1.00  0.00    -0.340 C  
BRANCH  18  20
HETATM   20  C   UNL     1     -12.365  13.354  65.473  1.00  0.00    -0.528 C  
BRANCH  20  21
HETATM   21  C   UNL     1     -12.021  14.164  64.229  1.00  0.00    -0.460 C  
BRANCH  21  22
HETATM   22  C   UNL     1     -11.531  15.533  64.607  1.00  0.00    -0.324 C  
HETATM   23  O   UNL     1     -11.449  16.495  63.859  1.00  0.00    -1.145 OA 
BRANCH  22  24
HETATM   24  O   UNL     1     -11.048  15.485  65.877  1.00  0.00    -0.301 OA 
BRANCH  24  25
HETATM   25  C   UNL     1      -9.908  16.335  66.079  1.00  0.00    -0.343 C  
BRANCH  25  26
HETATM   26  C   UNL     1     -10.058  16.932  67.489  1.00  0.00    -0.282 C  
BRANCH  26  27
HETATM   27  N   UNL     1     -10.536  18.316  67.566  1.00  0.00    -0.419 NA 
HETATM   28  C   UNL     1     -10.082  19.032  68.775  1.00  0.00    -0.363 C  
HETATM   29  C   UNL     1      -8.584  19.378  68.766  1.00  0.00    -0.335 C  
HETATM   30  O   UNL     1      -8.235  20.146  67.609  1.00  0.00    -0.306 OA 
HETATM   31  C   UNL     1      -8.587  19.453  66.405  1.00  0.00    -0.354 C  
HETATM   32  C   UNL     1     -10.083  19.087  66.381  1.00  0.00    -0.415 C  
ENDBRANCH  26  27
ENDBRANCH  25  26
ENDBRANCH  24  25
ENDBRANCH  22  24
ENDBRANCH  21  22
ENDBRANCH  20  21
ENDBRANCH  18  20
ENDBRANCH  16  17
ENDBRANCH   4  16
ENDBRANCH   2   3
TORSDOF 10
ENDMDL
MODEL       12
REMARK 921   NORMALIZED FREE ENERGY PREDICTED BY IDOCK:   -6.17 KCAL/MOL
REMARK 922        TOTAL FREE ENERGY PREDICTED BY IDOCK:  -11.31 KCAL/MOL
REMARK 923 INTER-LIGAND FREE ENERGY PREDICTED BY IDOCK:   -9.85 KCAL/MOL
REMARK 924 INTRA-LIGAND FREE ENERGY PREDICTED BY IDOCK:   -1.47 KCAL/MOL
REMARK 927      BINDING AFFINITY PREDICTED BY RF-SCORE:    0.00 PKD
ROOT
HETATM    1  C   UNL     1      -6.736  13.265  67.564  1.00  0.00    -0.148 C  
HETATM    2  O   UNL     1      -7.805  14.033  68.112  1.00  0.00    -0.121 OA 
ENDROOT
BRANCH   2   3
HETATM    3  C   UNL     1      -8.907  14.235  67.306  1.00  0.00    -0.214 A  
HETATM    4  C   UNL     1      -9.000  15.290  66.343  1.00  0.00    -0.339 A  
HETATM    5  C   UNL     1     -10.145  15.321  65.513  1.00  0.00    -0.375 A  
HETATM    6  C   UNL     1     -10.976  13.284  66.528  1.00  0.00    -0.299 A  
HETATM    7  O   UNL     1     -10.415  16.326  64.635  1.00  0.00    -0.661 OA 
HETATM    8  C   UNL     1      -9.896  13.224  67.402  1.00  0.00    -0.227 A  
HETATM    9  C   UNL     1     -11.088  14.306  65.609  1.00  0.00    -0.316 A  
HETATM   10  C   UNL     1     -12.301  14.093  64.814  1.00  0.00    -0.417 C  
HETATM   11  C   UNL     1      -9.789  12.128  68.424  1.00  0.00    -0.200 C  
HETATM   12  H   UNL     1     -11.184  16.347  64.078  1.00  0.00     0.000 HD 
HETATM   13  O   UNL     1     -12.891  12.951  65.304  1.00  0.00    -0.668 OA 
HETATM   14  C   UNL     1     -12.149  12.388  66.397  1.00  0.00    -0.140 C  
HETATM   15  O   UNL     1     -12.726  14.738  63.876  1.00  0.00    -0.794 OA 
BRANCH   4  16
HETATM   16  C   UNL     1      -7.923  16.357  66.331  1.00  0.00    -0.329 C  
BRANCH  16  17
HETATM   17  C   UNL     1      -8.297  17.796  66.477  1.00  0.00    -0.294 C  
HETATM   18  C   UNL     1      -7.759  18.688  67.330  1.00  0.00    -0.238 C  
HETATM   19  C   UNL     1      -6.616  18.410  68.270  1.00  0.00    -0.224 C  
BRANCH  18  20
HETATM   20  C   UNL     1      -8.334  20.082  67.390  1.00  0.00    -0.382 C  
BRANCH  20  21
HETATM   21  C   UNL     1      -9.856  20.032  67.385  1.00  0.00    -0.558 C  
BRANCH  21  22
HETATM   22  C   UNL     1     -10.371  19.451  68.672  1.00  0.00    -0.258 C  
HETATM   23  O   UNL     1     -10.134  19.872  69.793  1.00  0.00    -0.202 OA 
BRANCH  22  24
HETATM   24  O   UNL     1     -11.018  18.288  68.393  1.00  0.00    -0.010 OA 
BRANCH  24  25
HETATM   25  C   UNL     1     -10.564  17.184  69.193  1.00  0.00    -0.259 C  
BRANCH  25  26
HETATM   26  C   UNL     1     -11.672  16.118  69.130  1.00  0.00    -0.238 C  
BRANCH  26  27
HETATM   27  N   UNL     1     -11.554  14.997  70.067  1.00  0.00    -0.268 NA 
HETATM   28  C   UNL     1     -11.000  15.383  71.381  1.00  0.00    -0.140 C  
HETATM   29  C   UNL     1     -11.963  16.215  72.242  1.00  0.00    -0.546 C  
HETATM   30  O   UNL     1     -13.205  15.531  72.441  1.00  0.00    -0.383 OA 
HETATM   31  C   UNL     1     -13.821  15.206  71.189  1.00  0.00    -0.419 C  
HETATM   32  C   UNL     1     -12.881  14.373  70.297  1.00  0.00    -0.178 C  
ENDBRANCH  26  27
ENDBRANCH  25  26
ENDBRANCH  24  25
ENDBRANCH  22  24
ENDBRANCH  21  22
ENDBRANCH  20  21
ENDBRANCH  18  20
ENDBRANCH  16  17
ENDBRANCH   4  16
ENDBRANCH   2   3
TORSDOF 10
ENDMDL
MODEL       13
REMARK 921   NORMALIZED FREE ENERGY PREDICTED BY IDOCK:   -6.15 KCAL/MOL
REMARK 922        TOTAL FREE ENERGY PREDICTED BY IDOCK:  -11.29 KCAL/MOL
REMARK 923 INTER-LIGAND FREE ENERGY PREDICTED BY IDOCK:  -10.18 KCAL/MOL
REMARK 924 INTRA-LIGAND FREE ENERGY PREDICTED BY IDOCK:   -1.12 KCAL/MOL
REMARK 927      BINDING AFFINITY PREDICTED BY RF-SCORE:    0.00 PKD
ROOT
HETATM    1  C   UNL     1      -7.016  10.474  66.239  1.00  0.00    -0.128 C  
HETATM    2  O   UNL     1      -8.263   9.785  66.306  1.00  0.00    -0.115 OA 
ENDROOT
BRANCH   2   3
HETATM    3  C   UNL     1      -9.406  10.547  66.177  1.00  0.00    -0.176 A  
HETATM    4  C   UNL     1     -10.012  11.253  67.265  1.00  0.00    -0.208 A  
HETATM    5  C   UNL     1     -11.123  12.078  66.974  1.00  0.00    -0.298 A  
HETATM    6  C   UNL     1     -10.931  11.557  64.614  1.00  0.00    -0.353 A  
HETATM    7  O   UNL     1     -11.861  12.715  67.924  1.00  0.00    -0.350 OA 
HETATM    8  C   UNL     1      -9.863  10.698  64.844  1.00  0.00    -0.363 A  
HETATM    9  C   UNL     1     -11.537  12.228  65.657  1.00  0.00    -0.433 A  
HETATM   10  C   UNL     1     -12.604  13.074  65.114  1.00  0.00    -0.469 C  
HETATM   11  C   UNL     1      -9.221   9.943  63.714  1.00  0.00    -0.289 C  
HETATM   12  H   UNL     1     -12.607  13.268  67.728  1.00  0.00     0.000 HD 
HETATM   13  O   UNL     1     -12.615  12.862  63.755  1.00  0.00    -0.663 OA 
HETATM   14  C   UNL     1     -11.621  11.908  63.351  1.00  0.00    -0.382 C  
HETATM   15  O   UNL     1     -13.334  13.854  65.694  1.00  0.00    -0.620 OA 
BRANCH   4  16
HETATM   16  C   UNL     1      -9.491  11.006  68.668  1.00  0.00    -0.197 C  
BRANCH  16  17
HETATM   17  C   UNL     1     -10.342  10.283  69.661  1.00  0.00    -0.281 C  
HETATM   18  C   UNL     1     -10.798   9.020  69.565  1.00  0.00    -0.177 C  
HETATM   19  C   UNL     1     -10.477   8.063  68.447  1.00  0.00    -0.205 C  
BRANCH  18  20
HETATM   20  C   UNL     1     -11.721   8.492  70.636  1.00  0.00    -0.161 C  
BRANCH  20  21
HETATM   21  C   UNL     1     -11.866   9.506  71.763  1.00  0.00    -0.430 C  
BRANCH  21  22
HETATM   22  C   UNL     1     -13.309   9.880  71.958  1.00  0.00    -0.432 C  
HETATM   23  O   UNL     1     -14.171   9.170  72.452  1.00  0.00    -0.439 OA 
BRANCH  22  24
HETATM   24  O   UNL     1     -13.531  11.077  71.354  1.00  0.00    -0.161 OA 
BRANCH  24  25
HETATM   25  C   UNL     1     -13.712  12.154  72.287  1.00  0.00    -0.006 C  
BRANCH  25  26
HETATM   26  C   UNL     1     -12.801  13.299  71.811  1.00  0.00    -0.269 C  
BRANCH  26  27
HETATM   27  N   UNL     1     -13.460  14.567  71.485  1.00  0.00    -0.356 NA 
HETATM   28  C   UNL     1     -13.696  15.428  72.661  1.00  0.00    -0.542 C  
HETATM   29  C   UNL     1     -12.416  16.054  73.240  1.00  0.00    -0.535 C  
HETATM   30  O   UNL     1     -11.709  16.803  72.245  1.00  0.00    -0.375 OA 
HETATM   31  C   UNL     1     -11.388  15.984  71.115  1.00  0.00    -0.361 C  
HETATM   32  C   UNL     1     -12.648  15.337  70.510  1.00  0.00    -0.399 C  
ENDBRANCH  26  27
ENDBRANCH  25  26
ENDBRANCH  24  25
ENDBRANCH  22  24
ENDBRANCH  21  22
ENDBRANCH  20  21
ENDBRANCH  18  20
ENDBRANCH  16  17
ENDBRANCH   4  16
ENDBRANCH   2   3
TORSDOF 10
ENDMDL
MODEL       14
REMARK 921   NORMALIZED FREE ENERGY PREDICTED BY IDOCK:   -6.15 KCAL/MOL
REMARK 922        TOTAL FREE ENERGY PREDICTED BY IDOCK:  -11.28 KCAL/MOL
REMARK 923 INTER-LIGAND FREE ENERGY PREDICTED BY IDOCK:  -10.31 KCAL/MOL
REMARK 924 INTRA-LIGAND FREE ENERGY PREDICTED BY IDOCK:   -0.97 KCAL/MOL
REMARK 927      BINDING AFFINITY PREDICTED BY RF-SCORE:    0.00 PKD
ROOT
HETATM    1  C   UNL     1      -8.828  13.610  68.409  1.00  0.00    -0.152 C  
HETATM    2  O   UNL     1     -10.230  13.660  68.154  1.00  0.00    -0.233 OA 
ENDROOT
BRANCH   2   3
HETATM    3  C   UNL     1     -11.044  12.912  68.981  1.00  0.00    -0.233 A  
HETATM    4  C   UNL     1     -11.123  11.484  68.931  1.00  0.00    -0.288 A  
HETATM    5  C   UNL     1     -11.921  10.837  69.903  1.00  0.00    -0.342 A  
HETATM    6  C   UNL     1     -12.431  12.965  70.946  1.00  0.00    -0.383 A  
HETATM    7  O   UNL     1     -12.174   9.500  69.905  1.00  0.00    -0.367 OA 
HETATM    8  C   UNL     1     -11.697  13.660  69.992  1.00  0.00    -0.319 A  
HETATM    9  C   UNL     1     -12.532  11.589  70.898  1.00  0.00    -0.464 A  
HETATM   10  C   UNL     1     -13.335  11.137  72.037  1.00  0.00    -0.278 C  
HETATM   11  C   UNL     1     -11.612  15.160  70.025  1.00  0.00    -0.326 C  
HETATM   12  H   UNL     1     -12.710   9.065  70.558  1.00  0.00     0.000 HD 
HETATM   13  O   UNL     1     -13.710  12.269  72.722  1.00  0.00    -0.081 OA 
HETATM   14  C   UNL     1     -13.214  13.464  72.100  1.00  0.00    -0.462 C  
HETATM   15  O   UNL     1     -13.613  10.004  72.378  1.00  0.00    -0.341 OA 
BRANCH   4  16
HETATM   16  C   UNL     1     -10.429  10.760  67.794  1.00  0.00    -0.243 C  
BRANCH  16  17
HETATM   17  C   UNL     1     -10.760  11.107  66.379  1.00  0.00    -0.303 C  
HETATM   18  C   UNL     1      -9.914  11.115  65.331  1.00  0.00    -0.309 C  
HETATM   19  C   UNL     1      -8.464  10.709  65.382  1.00  0.00    -0.162 C  
BRANCH  18  20
HETATM   20  C   UNL     1     -10.418  11.581  63.987  1.00  0.00    -0.424 C  
BRANCH  20  21
HETATM   21  C   UNL     1     -11.846  12.097  64.102  1.00  0.00    -0.490 C  
BRANCH  21  22
HETATM   22  C   UNL     1     -11.891  13.585  63.897  1.00  0.00    -0.411 C  
HETATM   23  O   UNL     1     -12.605  14.177  63.102  1.00  0.00    -0.686 OA 
BRANCH  22  24
HETATM   24  O   UNL     1     -10.896  14.153  64.629  1.00  0.00    -0.403 OA 
BRANCH  24  25
HETATM   25  C   UNL     1     -10.994  15.584  64.699  1.00  0.00    -0.322 C  
BRANCH  25  26
HETATM   26  C   UNL     1     -10.133  16.020  65.898  1.00  0.00    -0.353 C  
BRANCH  26  27
HETATM   27  N   UNL     1      -9.569  17.372  65.840  1.00  0.00    -0.532 NA 
HETATM   28  C   UNL     1     -10.171  18.304  66.816  1.00  0.00    -0.378 C  
HETATM   29  C   UNL     1      -9.770  18.021  68.273  1.00  0.00    -0.330 C  
HETATM   30  O   UNL     1      -8.346  18.032  68.432  1.00  0.00    -0.284 OA 
HETATM   31  C   UNL     1      -7.724  17.083  67.558  1.00  0.00    -0.170 C  
HETATM   32  C   UNL     1      -8.106  17.334  66.087  1.00  0.00    -0.237 C  
ENDBRANCH  26  27
ENDBRANCH  25  26
ENDBRANCH  24  25
ENDBRANCH  22  24
ENDBRANCH  21  22
ENDBRANCH  20  21
ENDBRANCH  18  20
ENDBRANCH  16  17
ENDBRANCH   4  16
ENDBRANCH   2   3
TORSDOF 10
ENDMDL
MODEL       15
REMARK 921   NORMALIZED FREE ENERGY PREDICTED BY IDOCK:   -6.12 KCAL/MOL
REMARK 922        TOTAL FREE ENERGY PREDICTED BY IDOCK:  -11.23 KCAL/MOL
REMARK 923 INTER-LIGAND FREE ENERGY PREDICTED BY IDOCK:   -9.93 KCAL/MOL
REMARK 924 INTRA-LIGAND FREE ENERGY PREDICTED BY IDOCK:   -1.30 KCAL/MOL
REMARK 927      BINDING AFFINITY PREDICTED BY RF-SCORE:    0.00 PKD
ROOT
HETATM    1  C   UNL     1     -13.884  14.269  72.277  1.00  0.00    -0.524 C  
HETATM    2  O   UNL     1     -12.510  13.984  72.026  1.00  0.00    -0.271 OA 
ENDROOT
BRANCH   2   3
HETATM    3  C   UNL     1     -12.185  13.533  70.763  1.00  0.00    -0.338 A  
HETATM    4  C   UNL     1     -12.408  12.190  70.321  1.00  0.00    -0.269 A  
HETATM    5  C   UNL     1     -12.122  11.889  68.969  1.00  0.00    -0.186 A  
HETATM    6  C   UNL     1     -11.519  14.199  68.548  1.00  0.00    -0.333 A  
HETATM    7  O   UNL     1     -12.180  10.634  68.446  1.00  0.00    -0.822 OA 
HETATM    8  C   UNL     1     -11.741  14.546  69.876  1.00  0.00    -0.354 A  
HETATM    9  C   UNL     1     -11.710  12.903  68.114  1.00  0.00    -0.395 A  
HETATM   10  C   UNL     1     -11.429  12.844  66.677  1.00  0.00    -0.343 C  
HETATM   11  C   UNL     1     -11.503  15.950  70.358  1.00  0.00    -0.393 C  
HETATM   12  H   UNL     1     -11.988  10.432  67.538  1.00  0.00     0.000 HD 
HETATM   13  O   UNL     1     -11.054  14.112  66.301  1.00  0.00    -0.310 OA 
HETATM   14  C   UNL     1     -11.054  15.024  67.410  1.00  0.00    -0.324 C  
HETATM   15  O   UNL     1     -11.529  11.902  65.915  1.00  0.00    -0.340 OA 
BRANCH   4  16
HETATM   16  C   UNL     1     -12.844  11.156  71.340  1.00  0.00    -0.544 C  
BRANCH  16  17
HETATM   17  C   UNL     1     -12.138   9.841  71.415  1.00  0.00    -0.486 C  
HETATM   18  C   UNL     1     -12.689   8.644  71.690  1.00  0.00    -0.379 C  
HETATM   19  C   UNL     1     -14.157   8.395  71.918  1.00  0.00    -0.516 C  
BRANCH  18  20
HETATM   20  C   UNL     1     -11.793   7.435  71.808  1.00  0.00    -0.327 C  
BRANCH  20  21
HETATM   21  C   UNL     1     -10.714   7.671  72.856  1.00  0.00    -0.428 C  
BRANCH  21  22
HETATM   22  C   UNL     1      -9.381   7.905  72.202  1.00  0.00    -0.169 C  
HETATM   23  O   UNL     1      -8.689   8.903  72.326  1.00  0.00    -0.395 OA 
BRANCH  22  24
HETATM   24  O   UNL     1      -9.145   6.892  71.327  1.00  0.00    -0.148 OA 
BRANCH  24  25
HETATM   25  C   UNL     1      -8.196   7.240  70.305  1.00  0.00    -0.133 C  
BRANCH  25  26
HETATM   26  C   UNL     1      -8.956   7.176  68.969  1.00  0.00    -0.134 C  
BRANCH  26  27
HETATM   27  N   UNL     1      -9.849   8.300  68.670  1.00  0.00    -0.171 NA 
HETATM   28  C   UNL     1      -9.214   9.621  68.851  1.00  0.00    -0.147 C  
HETATM   29  C   UNL     1      -8.165   9.957  67.779  1.00  0.00    -0.114 C  
HETATM   30  O   UNL     1      -8.724   9.883  66.462  1.00  0.00    -0.127 OA 
HETATM   31  C   UNL     1      -9.283   8.588  66.213  1.00  0.00    -0.207 C  
HETATM   32  C   UNL     1     -10.339   8.215  67.272  1.00  0.00    -0.303 C  
ENDBRANCH  26  27
ENDBRANCH  25  26
ENDBRANCH  24  25
ENDBRANCH  22  24
ENDBRANCH  21  22
ENDBRANCH  20  21
ENDBRANCH  18  20
ENDBRANCH  16  17
ENDBRANCH   4  16
ENDBRANCH   2   3
TORSDOF 10
ENDMDL
MODEL       16
REMARK 921   NORMALIZED FREE ENERGY PREDICTED BY IDOCK:   -6.09 KCAL/MOL
REMARK 922        TOTAL FREE ENERGY PREDICTED BY IDOCK:  -11.20 KCAL/MOL
REMARK 923 INTER-LIGAND FREE ENERGY PREDICTED BY IDOCK:   -9.90 KCAL/MOL
REMARK 924 INTRA-LIGAND FREE ENERGY PREDICTED BY IDOCK:   -1.29 KCAL/MOL
REMARK 927      BINDING AFFINITY PREDICTED BY RF-SCORE:    0.00 PKD
ROOT
HETATM    1  C   UNL     1      -8.655   7.654  66.352  1.00  0.00    -0.143 C  
HETATM    2  O   UNL     1      -8.316   8.778  67.160  1.00  0.00    -0.103 OA 
ENDROOT
BRANCH   2   3
HETATM    3  C   UNL     1      -9.269   9.214  68.057  1.00  0.00    -0.134 A  
HETATM    4  C   UNL     1     -10.394  10.019  67.688  1.00  0.00    -0.272 A  
HETATM    5  C   UNL     1     -11.348  10.311  68.690  1.00  0.00    -0.166 A  
HETATM    6  C   UNL     1     -10.124   8.967  70.293  1.00  0.00    -0.232 A  
HETATM    7  O   UNL     1     -12.402  11.153  68.507  1.00  0.00    -0.694 OA 
HETATM    8  C   UNL     1      -9.130   8.682  69.364  1.00  0.00    -0.149 A  
HETATM    9  C   UNL     1     -11.203   9.759  69.956  1.00  0.00    -0.297 A  
HETATM   10  C   UNL     1     -12.092   9.860  71.116  1.00  0.00    -0.374 C  
HETATM   11  C   UNL     1      -7.939   7.846  69.738  1.00  0.00    -0.114 C  
HETATM   12  H   UNL     1     -13.043  11.349  69.179  1.00  0.00     0.000 HD 
HETATM   13  O   UNL     1     -11.499   9.138  72.125  1.00  0.00    -0.334 OA 
HETATM   14  C   UNL     1     -10.249   8.564  71.713  1.00  0.00    -0.282 C  
HETATM   15  O   UNL     1     -13.166  10.422  71.212  1.00  0.00    -0.374 OA 
BRANCH   4  16
HETATM   16  C   UNL     1     -10.448  10.585  66.282  1.00  0.00    -0.250 C  
BRANCH  16  17
HETATM   17  C   UNL     1     -10.195  12.040  66.055  1.00  0.00    -0.256 C  
HETATM   18  C   UNL     1     -10.781  12.826  65.132  1.00  0.00    -0.319 C  
HETATM   19  C   UNL     1     -11.863  12.390  64.180  1.00  0.00    -0.492 C  
BRANCH  18  20
HETATM   20  C   UNL     1     -10.328  14.260  64.999  1.00  0.00    -0.448 C  
BRANCH  20  21
HETATM   21  C   UNL     1     -11.099  15.155  65.960  1.00  0.00    -0.312 C  
BRANCH  21  22
HETATM   22  C   UNL     1     -10.194  15.678  67.040  1.00  0.00    -0.274 C  
HETATM   23  O   UNL     1      -8.975  15.737  66.985  1.00  0.00    -0.202 OA 
BRANCH  22  24
HETATM   24  O   UNL     1     -10.942  15.930  68.147  1.00  0.00    -0.309 OA 
BRANCH  24  25
HETATM   25  C   UNL     1     -11.693  14.789  68.591  1.00  0.00    -0.325 C  
BRANCH  25  26
HETATM   26  C   UNL     1     -11.589  14.773  70.126  1.00  0.00    -0.290 C  
BRANCH  26  27
HETATM   27  N   UNL     1     -12.402  15.756  70.847  1.00  0.00    -0.420 NA 
HETATM   28  C   UNL     1     -13.783  15.302  71.109  1.00  0.00    -0.443 C  
HETATM   29  C   UNL     1     -13.882  14.197  72.174  1.00  0.00    -0.518 C  
HETATM   30  O   UNL     1     -13.283  14.610  73.408  1.00  0.00    -0.585 OA 
HETATM   31  C   UNL     1     -11.914  14.986  73.215  1.00  0.00    -0.305 C  
HETATM   32  C   UNL     1     -11.776  16.091  72.150  1.00  0.00    -0.488 C  
ENDBRANCH  26  27
ENDBRANCH  25  26
ENDBRANCH  24  25
ENDBRANCH  22  24
ENDBRANCH  21  22
ENDBRANCH  20  21
ENDBRANCH  18  20
ENDBRANCH  16  17
ENDBRANCH   4  16
ENDBRANCH   2   3
TORSDOF 10
ENDMDL
MODEL       17
REMARK 921   NORMALIZED FREE ENERGY PREDICTED BY IDOCK:   -6.08 KCAL/MOL
REMARK 922        TOTAL FREE ENERGY PREDICTED BY IDOCK:  -11.18 KCAL/MOL
REMARK 923 INTER-LIGAND FREE ENERGY PREDICTED BY IDOCK:  -10.50 KCAL/MOL
REMARK 924 INTRA-LIGAND FREE ENERGY PREDICTED BY IDOCK:   -0.67 KCAL/MOL
REMARK 927      BINDING AFFINITY PREDICTED BY RF-SCORE:    0.00 PKD
ROOT
HETATM    1  C   UNL     1      -8.759  10.861  68.790  1.00  0.00    -0.158 C  
HETATM    2  O   UNL     1      -9.998  10.376  68.278  1.00  0.00    -0.146 OA 
ENDROOT
BRANCH   2   3
HETATM    3  C   UNL     1     -10.661  11.184  67.377  1.00  0.00    -0.250 A  
HETATM    4  C   UNL     1     -11.402  12.349  67.756  1.00  0.00    -0.356 A  
HETATM    5  C   UNL     1     -11.949  13.143  66.721  1.00  0.00    -0.373 A  
HETATM    6  C   UNL     1     -10.961  11.698  65.045  1.00  0.00    -0.334 A  
HETATM    7  O   UNL     1     -12.766  14.210  66.939  1.00  0.00    -0.496 OA 
HETATM    8  C   UNL     1     -10.435  10.854  66.017  1.00  0.00    -0.287 A  
HETATM    9  C   UNL     1     -11.694  12.812  65.396  1.00  0.00    -0.425 A  
HETATM   10  C   UNL     1     -12.090  13.518  64.175  1.00  0.00    -0.435 C  
HETATM   11  C   UNL     1      -9.662   9.622  65.636  1.00  0.00    -0.363 C  
HETATM   12  H   UNL     1     -13.134  14.743  66.244  1.00  0.00     0.000 HD 
HETATM   13  O   UNL     1     -11.594  12.783  63.123  1.00  0.00    -0.445 OA 
HETATM   14  C   UNL     1     -10.895  11.610  63.568  1.00  0.00    -0.425 C  
HETATM   15  O   UNL     1     -12.698  14.564  64.056  1.00  0.00    -0.759 OA 
BRANCH   4  16
HETATM   16  C   UNL     1     -11.636  12.610  69.231  1.00  0.00    -0.376 C  
BRANCH  16  17
HETATM   17  C   UNL     1     -12.110  11.505  70.117  1.00  0.00    -0.432 C  
HETATM   18  C   UNL     1     -12.786  11.632  71.274  1.00  0.00    -0.430 C  
HETATM   19  C   UNL     1     -13.252  12.935  71.869  1.00  0.00    -0.521 C  
BRANCH  18  20
HETATM   20  C   UNL     1     -13.104  10.393  72.076  1.00  0.00    -0.521 C  
BRANCH  20  21
HETATM   21  C   UNL     1     -12.541   9.155  71.390  1.00  0.00    -0.390 C  
BRANCH  21  22
HETATM   22  C   UNL     1     -11.212   8.779  71.982  1.00  0.00    -0.373 C  
HETATM   23  O   UNL     1     -10.119   9.143  71.575  1.00  0.00    -0.319 OA 
BRANCH  22  24
HETATM   24  O   UNL     1     -11.417   7.845  72.949  1.00  0.00    -0.403 OA 
BRANCH  24  25
HETATM   25  C   UNL     1     -10.203   7.425  73.592  1.00  0.00    -0.329 C  
BRANCH  25  26
HETATM   26  C   UNL     1     -10.127   5.898  73.419  1.00  0.00    -0.198 C  
BRANCH  26  27
HETATM   27  N   UNL     1      -8.958   5.378  72.705  1.00  0.00    -0.132 NA 
HETATM   28  C   UNL     1      -8.858   3.905  72.729  1.00  0.00    -0.098 C  
HETATM   29  C   UNL     1      -9.908   3.197  71.858  1.00  0.00    -0.168 C  
HETATM   30  O   UNL     1      -9.846   3.648  70.500  1.00  0.00    -0.176 OA 
HETATM   31  C   UNL     1     -10.018   5.067  70.420  1.00  0.00    -0.247 C  
HETATM   32  C   UNL     1      -8.983   5.811  71.285  1.00  0.00    -0.140 C  
ENDBRANCH  26  27
ENDBRANCH  25  26
ENDBRANCH  24  25
ENDBRANCH  22  24
ENDBRANCH  21  22
ENDBRANCH  20  21
ENDBRANCH  18  20
ENDBRANCH  16  17
ENDBRANCH   4  16
ENDBRANCH   2   3
TORSDOF 10
ENDMDL
MODEL       18
REMARK 921   NORMALIZED FREE ENERGY PREDICTED BY IDOCK:   -6.07 KCAL/MOL
REMARK 922        TOTAL FREE ENERGY PREDICTED BY IDOCK:  -11.16 KCAL/MOL
REMARK 923 INTER-LIGAND FREE ENERGY PREDICTED BY IDOCK:  -10.31 KCAL/MOL
REMARK 924 INTRA-LIGAND FREE ENERGY PREDICTED BY IDOCK:   -0.85 KCAL/MOL
REMARK 927      BINDING AFFINITY PREDICTED BY RF-SCORE:    0.00 PKD
ROOT
HETATM    1  C   UNL     1     -14.255  14.137  72.177  1.00  0.00    -0.546 C  
HETATM    2  O   UNL     1     -12.866  13.839  72.052  1.00  0.00    -0.325 OA 
ENDROOT
BRANCH   2   3
HETATM    3  C   UNL     1     -12.445  13.314  70.847  1.00  0.00    -0.342 A  
HETATM    4  C   UNL     1     -12.565  11.930  70.502  1.00  0.00    -0.212 A  
HETATM    5  C   UNL     1     -12.185  11.545  69.196  1.00  0.00    -0.156 A  
HETATM    6  C   UNL     1     -11.694  13.848  68.624  1.00  0.00    -0.396 A  
HETATM    7  O   UNL     1     -12.142  10.252  68.772  1.00  0.00    -0.685 OA 
HETATM    8  C   UNL     1     -12.010  14.282  69.907  1.00  0.00    -0.397 A  
HETATM    9  C   UNL     1     -11.785  12.514  68.285  1.00  0.00    -0.390 A  
HETATM   10  C   UNL     1     -11.421  12.362  66.874  1.00  0.00    -0.360 C  
HETATM   11  C   UNL     1     -11.882  15.730  70.287  1.00  0.00    -0.369 C  
HETATM   12  H   UNL     1     -11.887   9.993  67.894  1.00  0.00     0.000 HD 
HETATM   13  O   UNL     1     -11.099  13.619  66.418  1.00  0.00    -0.299 OA 
HETATM   14  C   UNL     1     -11.214  14.612  67.449  1.00  0.00    -0.342 C  
HETATM   15  O   UNL     1     -11.423  11.361  66.185  1.00  0.00    -0.270 OA 
BRANCH   4  16
HETATM   16  C   UNL     1     -12.997  10.952  71.577  1.00  0.00    -0.556 C  
BRANCH  16  17
HETATM   17  C   UNL     1     -12.273   9.655  71.738  1.00  0.00    -0.464 C  
HETATM   18  C   UNL     1     -12.823   8.429  71.828  1.00  0.00    -0.371 C  
HETATM   19  C   UNL     1     -14.294   8.127  71.720  1.00  0.00    -0.582 C  
BRANCH  18  20
HETATM   20  C   UNL     1     -11.926   7.241  72.077  1.00  0.00    -0.333 C  
BRANCH  20  21
HETATM   21  C   UNL     1     -10.942   7.541  73.200  1.00  0.00    -0.420 C  
BRANCH  21  22
HETATM   22  C   UNL     1      -9.566   7.788  72.648  1.00  0.00    -0.202 C  
HETATM   23  O   UNL     1      -8.831   8.715  72.947  1.00  0.00    -0.367 OA 
BRANCH  22  24
HETATM   24  O   UNL     1      -9.336   6.898  71.645  1.00  0.00    -0.154 OA 
BRANCH  24  25
HETATM   25  C   UNL     1      -8.529   7.438  70.587  1.00  0.00    -0.136 C  
BRANCH  25  26
HETATM   26  C   UNL     1      -8.656   6.461  69.404  1.00  0.00    -0.130 C  
BRANCH  26  27
HETATM   27  N   UNL     1      -9.861   5.627  69.372  1.00  0.00    -0.162 NA 
HETATM   28  C   UNL     1     -11.017   6.284  68.728  1.00  0.00    -0.352 C  
HETATM   29  C   UNL     1     -10.878   6.428  67.204  1.00  0.00    -0.393 C  
HETATM   30  O   UNL     1     -10.653   5.159  66.580  1.00  0.00    -0.288 OA 
HETATM   31  C   UNL     1      -9.492   4.518  67.120  1.00  0.00    -0.162 C  
HETATM   32  C   UNL     1      -9.594   4.359  68.648  1.00  0.00    -0.149 C  
ENDBRANCH  26  27
ENDBRANCH  25  26
ENDBRANCH  24  25
ENDBRANCH  22  24
ENDBRANCH  21  22
ENDBRANCH  20  21
ENDBRANCH  18  20
ENDBRANCH  16  17
ENDBRANCH   4  16
ENDBRANCH   2   3
TORSDOF 10
ENDMDL
MODEL       19
REMARK 921   NORMALIZED FREE ENERGY PREDICTED BY IDOCK:   -6.06 KCAL/MOL
REMARK 922        TOTAL FREE ENERGY PREDICTED BY IDOCK:  -11.15 KCAL/MOL
REMARK 923 INTER-LIGAND FREE ENERGY PREDICTED BY IDOCK:   -9.83 KCAL/MOL
REMARK 924 INTRA-LIGAND FREE ENERGY PREDICTED BY IDOCK:   -1.32 KCAL/MOL
REMARK 927      BINDING AFFINITY PREDICTED BY RF-SCORE:    0.00 PKD
ROOT
HETATM    1  C   UNL     1     -13.170  12.485  71.874  1.00  0.00    -0.392 C  
HETATM    2  O   UNL     1     -13.354  11.383  70.988  1.00  0.00    -0.004 OA 
ENDROOT
BRANCH   2   3
HETATM    3  C   UNL     1     -12.324  10.467  70.906  1.00  0.00    -0.390 A  
HETATM    4  C   UNL     1     -11.128  10.688  70.151  1.00  0.00    -0.341 A  
HETATM    5  C   UNL     1     -10.110   9.710  70.235  1.00  0.00    -0.275 A  
HETATM    6  C   UNL     1     -11.423   8.433  71.823  1.00  0.00    -0.365 A  
HETATM    7  O   UNL     1      -8.973   9.736  69.487  1.00  0.00    -0.173 OA 
HETATM    8  C   UNL     1     -12.476   9.338  71.748  1.00  0.00    -0.458 A  
HETATM    9  C   UNL     1     -10.272   8.624  71.086  1.00  0.00    -0.294 A  
HETATM   10  C   UNL     1      -9.336   7.538  71.387  1.00  0.00    -0.141 C  
HETATM   11  C   UNL     1     -13.742   9.116  72.528  1.00  0.00    -0.499 C  
HETATM   12  H   UNL     1      -8.289   9.080  69.544  1.00  0.00     0.000 HD 
HETATM   13  O   UNL     1      -9.972   6.714  72.287  1.00  0.00    -0.167 OA 
HETATM   14  C   UNL     1     -11.295   7.179  72.600  1.00  0.00    -0.268 C  
HETATM   15  O   UNL     1      -8.201   7.370  70.985  1.00  0.00    -0.108 OA 
BRANCH   4  16
HETATM   16  C   UNL     1     -11.059  11.899  69.241  1.00  0.00    -0.264 C  
BRANCH  16  17
HETATM   17  C   UNL     1     -11.390  11.760  67.791  1.00  0.00    -0.358 C  
HETATM   18  C   UNL     1     -10.523  11.773  66.761  1.00  0.00    -0.260 C  
HETATM   19  C   UNL     1      -9.026  11.872  66.887  1.00  0.00    -0.196 C  
BRANCH  18  20
HETATM   20  C   UNL     1     -11.060  11.706  65.352  1.00  0.00    -0.299 C  
BRANCH  20  21
HETATM   21  C   UNL     1     -12.249  12.643  65.188  1.00  0.00    -0.539 C  
BRANCH  21  22
HETATM   22  C   UNL     1     -11.925  13.746  64.220  1.00  0.00    -0.443 C  
HETATM   23  O   UNL     1     -12.607  14.082  63.264  1.00  0.00    -0.801 OA 
BRANCH  22  24
HETATM   24  O   UNL     1     -10.675  14.206  64.490  1.00  0.00    -0.403 OA 
BRANCH  24  25
HETATM   25  C   UNL     1     -10.674  15.492  65.131  1.00  0.00    -0.440 C  
BRANCH  25  26
HETATM   26  C   UNL     1      -9.428  15.524  66.034  1.00  0.00    -0.352 C  
BRANCH  26  27
HETATM   27  N   UNL     1      -9.652  15.302  67.465  1.00  0.00    -0.206 NA 
HETATM   28  C   UNL     1      -8.490  15.655  68.306  1.00  0.00    -0.156 C  
HETATM   29  C   UNL     1      -8.239  17.167  68.414  1.00  0.00    -0.253 C  
HETATM   30  O   UNL     1      -9.397  17.853  68.904  1.00  0.00    -0.252 OA 
HETATM   31  C   UNL     1     -10.535  17.602  68.071  1.00  0.00    -0.394 C  
HETATM   32  C   UNL     1     -10.815  16.094  67.937  1.00  0.00    -0.332 C  
ENDBRANCH  26  27
ENDBRANCH  25  26
ENDBRANCH  24  25
ENDBRANCH  22  24
ENDBRANCH  21  22
ENDBRANCH  20  21
ENDBRANCH  18  20
ENDBRANCH  16  17
ENDBRANCH   4  16
ENDBRANCH   2   3
TORSDOF 10
ENDMDL
MODEL       20
REMARK 921   NORMALIZED FREE ENERGY PREDICTED BY IDOCK:   -6.05 KCAL/MOL
REMARK 922        TOTAL FREE ENERGY PREDICTED BY IDOCK:  -11.13 KCAL/MOL
REMARK 923 INTER-LIGAND FREE ENERGY PREDICTED BY IDOCK:   -9.61 KCAL/MOL
REMARK 924 INTRA-LIGAND FREE ENERGY PREDICTED BY IDOCK:   -1.52 KCAL/MOL
REMARK 927      BINDING AFFINITY PREDICTED BY RF-SCORE:    0.00 PKD
ROOT
HETATM    1  C   UNL     1     -13.941  14.344  72.348  1.00  0.00    -0.486 C  
HETATM    2  O   UNL     1     -12.592  13.969  72.081  1.00  0.00    -0.281 OA 
ENDROOT
BRANCH   2   3
HETATM    3  C   UNL     1     -12.309  13.515  70.808  1.00  0.00    -0.363 A  
HETATM    4  C   UNL     1     -12.515  12.163  70.387  1.00  0.00    -0.224 A  
HETATM    5  C   UNL     1     -12.278  11.857  69.027  1.00  0.00    -0.045 A  
HETATM    6  C   UNL     1     -11.754  14.177  68.562  1.00  0.00    -0.380 A  
HETATM    7  O   UNL     1     -12.325  10.595  68.517  1.00  0.00    -0.814 OA 
HETATM    8  C   UNL     1     -11.929  14.531  69.895  1.00  0.00    -0.382 A  
HETATM    9  C   UNL     1     -11.930  12.873  68.147  1.00  0.00    -0.306 A  
HETATM   10  C   UNL     1     -11.708  12.807  66.700  1.00  0.00    -0.393 C  
HETATM   11  C   UNL     1     -11.709  15.945  70.355  1.00  0.00    -0.371 C  
HETATM   12  H   UNL     1     -12.166  10.390  67.604  1.00  0.00     0.000 HD 
HETATM   13  O   UNL     1     -11.383  14.082  66.298  1.00  0.00    -0.318 OA 
HETATM   14  C   UNL     1     -11.360  15.004  67.398  1.00  0.00    -0.332 C  
HETATM   15  O   UNL     1     -11.815  11.856  65.950  1.00  0.00    -0.466 OA 
BRANCH   4  16
HETATM   16  C   UNL     1     -12.880  11.127  71.432  1.00  0.00    -0.544 C  
BRANCH  16  17
HETATM   17  C   UNL     1     -12.151   9.823  71.475  1.00  0.00    -0.493 C  
HETATM   18  C   UNL     1     -12.688   8.605  71.681  1.00  0.00    -0.379 C  
HETATM   19  C   UNL     1     -14.157   8.321  71.850  1.00  0.00    -0.499 C  
BRANCH  18  20
HETATM   20  C   UNL     1     -11.773   7.409  71.776  1.00  0.00    -0.319 C  
BRANCH  20  21
HETATM   21  C   UNL     1     -11.851   6.575  70.504  1.00  0.00    -0.393 C  
BRANCH  21  22
HETATM   22  C   UNL     1     -10.492   6.060  70.123  1.00  0.00    -0.246 C  
HETATM   23  O   UNL     1     -10.136   4.892  70.149  1.00  0.00    -0.241 OA 
BRANCH  22  24
HETATM   24  O   UNL     1      -9.675   7.123  69.893  1.00  0.00    -0.170 OA 
BRANCH  24  25
HETATM   25  C   UNL     1      -9.879   7.720  68.602  1.00  0.00    -0.169 C  
BRANCH  25  26
HETATM   26  C   UNL     1      -9.025   9.000  68.578  1.00  0.00    -0.133 C  
BRANCH  26  27
HETATM   27  N   UNL     1      -9.441  10.046  67.639  1.00  0.00    -0.143 NA 
HETATM   28  C   UNL     1      -8.570  11.238  67.660  1.00  0.00    -0.124 C  
HETATM   29  C   UNL     1      -7.183  11.005  67.040  1.00  0.00    -0.123 C  
HETATM   30  O   UNL     1      -7.289  10.526  65.694  1.00  0.00    -0.147 OA 
HETATM   31  C   UNL     1      -8.063   9.322  65.635  1.00  0.00    -0.112 C  
HETATM   32  C   UNL     1      -9.461   9.518  66.252  1.00  0.00    -0.210 C  
ENDBRANCH  26  27
ENDBRANCH  25  26
ENDBRANCH  24  25
ENDBRANCH  22  24
ENDBRANCH  21  22
ENDBRANCH  20  21
ENDBRANCH  18  20
ENDBRANCH  16  17
ENDBRANCH   4  16
ENDBRANCH   2   3
TORSDOF 10
ENDMDL
MODEL       21
REMARK 921   NORMALIZED FREE ENERGY PREDICTED BY IDOCK:   -6.04 KCAL/MOL
REMARK 922        TOTAL FREE ENERGY PREDICTED BY IDOCK:  -11.12 KCAL/MOL
REMARK 923 INTER-LIGAND FREE ENERGY PREDICTED BY IDOCK:  -10.34 KCAL/MOL
REMARK 924 INTRA-LIGAND FREE ENERGY PREDICTED BY IDOCK:   -0.78 KCAL/MOL
REMARK 927      BINDING AFFINITY PREDICTED BY RF-SCORE:    0.00 PKD
ROOT
HETATM    1  C   UNL     1     -11.899  12.048  69.391  1.00  0.00    -0.324 C  
HETATM    2  O   UNL     1     -10.698  11.291  69.523  1.00  0.00    -0.197 OA 
ENDROOT
BRANCH   2   3
HETATM    3  C   UNL     1     -10.714  10.002  69.031  1.00  0.00    -0.220 A  
HETATM    4  C   UNL     1     -10.312   9.657  67.701  1.00  0.00    -0.290 A  
HETATM    5  C   UNL     1     -10.283   8.285  67.360  1.00  0.00    -0.258 A  
HETATM    6  C   UNL     1     -10.938   7.678  69.614  1.00  0.00    -0.145 A  
HETATM    7  O   UNL     1     -10.030   7.824  66.105  1.00  0.00    -0.463 OA 
HETATM    8  C   UNL     1     -11.028   9.011  69.996  1.00  0.00    -0.230 A  
HETATM    9  C   UNL     1     -10.571   7.332  68.329  1.00  0.00    -0.217 A  
HETATM   10  C   UNL     1     -10.534   5.871  68.228  1.00  0.00    -0.236 C  
HETATM   11  C   UNL     1     -11.457   9.390  71.386  1.00  0.00    -0.449 C  
HETATM   12  H   UNL     1     -10.010   6.902  65.876  1.00  0.00     0.000 HD 
HETATM   13  O   UNL     1     -10.905   5.386  69.461  1.00  0.00    -0.269 OA 
HETATM   14  C   UNL     1     -11.204   6.443  70.387  1.00  0.00    -0.372 C  
HETATM   15  O   UNL     1     -10.211   5.175  67.285  1.00  0.00    -0.193 OA 
BRANCH   4  16
HETATM   16  C   UNL     1     -10.034  10.776  66.717  1.00  0.00    -0.249 C  
BRANCH  16  17
HETATM   17  C   UNL     1     -11.116  11.245  65.799  1.00  0.00    -0.153 C  
HETATM   18  C   UNL     1     -11.086  11.249  64.453  1.00  0.00    -0.273 C  
HETATM   19  C   UNL     1      -9.961  10.715  63.607  1.00  0.00    -0.364 C  
BRANCH  18  20
HETATM   20  C   UNL     1     -12.248  11.847  63.697  1.00  0.00    -0.586 C  
BRANCH  20  21
HETATM   21  C   UNL     1     -11.963  13.301  63.342  1.00  0.00    -0.491 C  
BRANCH  21  22
HETATM   22  C   UNL     1     -12.068  14.174  64.561  1.00  0.00    -0.468 C  
HETATM   23  O   UNL     1     -13.092  14.419  65.179  1.00  0.00    -0.633 OA 
BRANCH  22  24
HETATM   24  O   UNL     1     -10.864  14.771  64.771  1.00  0.00    -0.399 OA 
BRANCH  24  25
HETATM   25  C   UNL     1     -10.979  16.153  65.146  1.00  0.00    -0.316 C  
BRANCH  25  26
HETATM   26  C   UNL     1      -9.852  16.421  66.159  1.00  0.00    -0.338 C  
BRANCH  26  27
HETATM   27  N   UNL     1      -9.210  17.737  66.090  1.00  0.00    -0.495 NA 
HETATM   28  C   UNL     1     -10.161  18.863  66.188  1.00  0.00    -0.433 C  
HETATM   29  C   UNL     1     -10.762  19.049  67.591  1.00  0.00    -0.409 C  
HETATM   30  O   UNL     1      -9.737  19.215  68.577  1.00  0.00    -0.354 OA 
HETATM   31  C   UNL     1      -8.833  18.104  68.572  1.00  0.00    -0.299 C  
HETATM   32  C   UNL     1      -8.213  17.886  67.179  1.00  0.00    -0.216 C  
ENDBRANCH  26  27
ENDBRANCH  25  26
ENDBRANCH  24  25
ENDBRANCH  22  24
ENDBRANCH  21  22
ENDBRANCH  20  21
ENDBRANCH  18  20
ENDBRANCH  16  17
ENDBRANCH   4  16
ENDBRANCH   2   3
TORSDOF 10
ENDMDL
MODEL       22
REMARK 921   NORMALIZED FREE ENERGY PREDICTED BY IDOCK:   -5.96 KCAL/MOL
REMARK 922        TOTAL FREE ENERGY PREDICTED BY IDOCK:  -10.98 KCAL/MOL
REMARK 923 INTER-LIGAND FREE ENERGY PREDICTED BY IDOCK:   -9.68 KCAL/MOL
REMARK 924 INTRA-LIGAND FREE ENERGY PREDICTED BY IDOCK:   -1.30 KCAL/MOL
REMARK 927      BINDING AFFINITY PREDICTED BY RF-SCORE:    0.00 PKD
ROOT
HETATM    1  C   UNL     1      -8.742  10.593  67.451  1.00  0.00    -0.125 C  
HETATM    2  O   UNL     1     -10.082  10.104  67.465  1.00  0.00    -0.182 OA 
ENDROOT
BRANCH   2   3
HETATM    3  C   UNL     1     -10.669   9.926  68.701  1.00  0.00    -0.226 A  
HETATM    4  C   UNL     1     -11.600  10.850  69.275  1.00  0.00    -0.388 A  
HETATM    5  C   UNL     1     -12.203  10.494  70.504  1.00  0.00    -0.344 A  
HETATM    6  C   UNL     1     -11.047   8.364  70.492  1.00  0.00    -0.267 A  
HETATM    7  O   UNL     1     -13.016  11.323  71.214  1.00  0.00    -0.381 OA 
HETATM    8  C   UNL     1     -10.390   8.675  69.307  1.00  0.00    -0.228 A  
HETATM    9  C   UNL     1     -11.932   9.254  71.067  1.00  0.00    -0.369 A  
HETATM   10  C   UNL     1     -12.487   8.647  72.279  1.00  0.00    -0.395 C  
HETATM   11  C   UNL     1      -9.403   7.720  68.697  1.00  0.00    -0.148 C  
HETATM   12  H   UNL     1     -13.421  11.085  72.039  1.00  0.00     0.000 HD 
HETATM   13  O   UNL     1     -11.894   7.412  72.403  1.00  0.00    -0.284 OA 
HETATM   14  C   UNL     1     -10.958   7.156  71.345  1.00  0.00    -0.234 C  
HETATM   15  O   UNL     1     -13.331   9.084  73.038  1.00  0.00    -0.300 OA 
BRANCH   4  16
HETATM   16  C   UNL     1     -11.813  12.184  68.587  1.00  0.00    -0.358 C  
BRANCH  16  17
HETATM   17  C   UNL     1     -10.872  13.315  68.849  1.00  0.00    -0.245 C  
HETATM   18  C   UNL     1     -11.124  14.424  69.569  1.00  0.00    -0.267 C  
HETATM   19  C   UNL     1     -12.405  14.707  70.309  1.00  0.00    -0.406 C  
BRANCH  18  20
HETATM   20  C   UNL     1     -10.069  15.501  69.648  1.00  0.00    -0.297 C  
BRANCH  20  21
HETATM   21  C   UNL     1     -10.624  16.829  69.149  1.00  0.00    -0.343 C  
BRANCH  21  22
HETATM   22  C   UNL     1      -9.832  17.325  67.972  1.00  0.00    -0.284 C  
HETATM   23  O   UNL     1      -9.709  18.492  67.633  1.00  0.00    -0.284 OA 
BRANCH  22  24
HETATM   24  O   UNL     1      -9.402  16.252  67.257  1.00  0.00    -0.220 OA 
BRANCH  24  25
HETATM   25  C   UNL     1      -9.986  16.178  65.946  1.00  0.00    -0.356 C  
BRANCH  25  26
HETATM   26  C   UNL     1      -9.953  14.694  65.540  1.00  0.00    -0.352 C  
BRANCH  26  27
HETATM   27  N   UNL     1     -10.714  14.327  64.342  1.00  0.00    -0.237 NA 
HETATM   28  C   UNL     1     -10.634  12.891  64.009  1.00  0.00    -0.389 C  
HETATM   29  C   UNL     1     -11.409  11.984  64.979  1.00  0.00    -0.310 C  
HETATM   30  O   UNL     1     -12.786  12.369  65.061  1.00  0.00    -0.673 OA 
HETATM   31  C   UNL     1     -12.915  13.739  65.460  1.00  0.00    -0.315 C  
HETATM   32  C   UNL     1     -12.147  14.678  64.511  1.00  0.00    -0.475 C  
ENDBRANCH  26  27
ENDBRANCH  25  26
ENDBRANCH  24  25
ENDBRANCH  22  24
ENDBRANCH  21  22
ENDBRANCH  20  21
ENDBRANCH  18  20
ENDBRANCH  16  17
ENDBRANCH   4  16
ENDBRANCH   2   3
TORSDOF 10
ENDMDL
MODEL       23
REMARK 921   NORMALIZED FREE ENERGY PREDICTED BY IDOCK:   -5.95 KCAL/MOL
REMARK 922        TOTAL FREE ENERGY PREDICTED BY IDOCK:  -10.98 KCAL/MOL
REMARK 923 INTER-LIGAND FREE ENERGY PREDICTED BY IDOCK:   -9.52 KCAL/MOL
REMARK 924 INTRA-LIGAND FREE ENERGY PREDICTED BY IDOCK:   -1.46 KCAL/MOL
REMARK 927      BINDING AFFINITY PREDICTED BY RF-SCORE:    0.00 PKD
ROOT
HETATM    1  C   UNL     1      -7.237  11.808  67.981  1.00  0.00    -0.084 C  
HETATM    2  O   UNL     1      -8.578  11.337  68.095  1.00  0.00    -0.137 OA 
ENDROOT
BRANCH   2   3
HETATM    3  C   UNL     1      -9.430  11.615  67.045  1.00  0.00    -0.182 A  
HETATM    4  C   UNL     1      -9.522  10.809  65.866  1.00  0.00    -0.236 A  
HETATM    5  C   UNL     1     -10.509  11.152  64.913  1.00  0.00    -0.308 A  
HETATM    6  C   UNL     1     -11.300  12.951  66.331  1.00  0.00    -0.361 A  
HETATM    7  O   UNL     1     -10.632  10.544  63.701  1.00  0.00    -0.432 OA 
HETATM    8  C   UNL     1     -10.322  12.691  67.285  1.00  0.00    -0.230 A  
HETATM    9  C   UNL     1     -11.386  12.195  65.180  1.00  0.00    -0.379 A  
HETATM   10  C   UNL     1     -12.519  12.677  64.385  1.00  0.00    -0.428 C  
HETATM   11  C   UNL     1     -10.207  13.533  68.524  1.00  0.00    -0.229 C  
HETATM   12  H   UNL     1     -11.295  10.774  63.061  1.00  0.00     0.000 HD 
HETATM   13  O   UNL     1     -13.063  13.730  65.083  1.00  0.00    -0.762 OA 
HETATM   14  C   UNL     1     -12.351  13.994  66.301  1.00  0.00    -0.448 C  
HETATM   15  O   UNL     1     -12.957  12.247  63.336  1.00  0.00    -0.753 OA 
BRANCH   4  16
HETATM   16  C   UNL     1      -8.504   9.703  65.665  1.00  0.00    -0.141 C  
BRANCH  16  17
HETATM   17  C   UNL     1      -8.906   8.277  65.861  1.00  0.00    -0.197 C  
HETATM   18  C   UNL     1      -8.426   7.424  66.786  1.00  0.00    -0.124 C  
HETATM   19  C   UNL     1      -7.422   7.773  67.852  1.00  0.00    -0.104 C  
BRANCH  18  20
HETATM   20  C   UNL     1      -8.896   5.990  66.771  1.00  0.00    -0.120 C  
BRANCH  20  21
HETATM   21  C   UNL     1     -10.308   5.884  67.330  1.00  0.00    -0.274 C  
BRANCH  21  22
HETATM   22  C   UNL     1     -10.274   5.646  68.814  1.00  0.00    -0.204 C  
HETATM   23  O   UNL     1      -9.427   5.006  69.417  1.00  0.00    -0.121 OA 
BRANCH  22  24
HETATM   24  O   UNL     1     -11.424   6.128  69.356  1.00  0.00    -0.423 OA 
BRANCH  24  25
HETATM   25  C   UNL     1     -11.369   6.239  70.787  1.00  0.00    -0.332 C  
BRANCH  25  26
HETATM   26  C   UNL     1     -12.433   7.278  71.183  1.00  0.00    -0.336 C  
BRANCH  26  27
HETATM   27  N   UNL     1     -12.007   8.326  72.116  1.00  0.00    -0.345 NA 
HETATM   28  C   UNL     1     -10.748   8.990  71.723  1.00  0.00    -0.367 C  
HETATM   29  C   UNL     1     -10.886   9.909  70.499  1.00  0.00    -0.326 C  
HETATM   30  O   UNL     1     -11.894  10.904  70.707  1.00  0.00    -0.333 OA 
HETATM   31  C   UNL     1     -13.157  10.302  71.013  1.00  0.00    -0.373 C  
HETATM   32  C   UNL     1     -13.056   9.370  72.236  1.00  0.00    -0.428 C  
ENDBRANCH  26  27
ENDBRANCH  25  26
ENDBRANCH  24  25
ENDBRANCH  22  24
ENDBRANCH  21  22
ENDBRANCH  20  21
ENDBRANCH  18  20
ENDBRANCH  16  17
ENDBRANCH   4  16
ENDBRANCH   2   3
TORSDOF 10
ENDMDL
MODEL       24
REMARK 921   NORMALIZED FREE ENERGY PREDICTED BY IDOCK:   -5.93 KCAL/MOL
REMARK 922        TOTAL FREE ENERGY PREDICTED BY IDOCK:  -10.93 KCAL/MOL
REMARK 923 INTER-LIGAND FREE ENERGY PREDICTED BY IDOCK:  -10.67 KCAL/MOL
REMARK 924 INTRA-LIGAND FREE ENERGY PREDICTED BY IDOCK:   -0.26 KCAL/MOL
REMARK 927      BINDING AFFINITY PREDICTED BY RF-SCORE:    0.00 PKD
ROOT
HETATM    1  C   UNL     1      -8.042   8.400  66.309  1.00  0.00    -0.105 C  
HETATM    2  O   UNL     1      -7.908   9.528  67.172  1.00  0.00    -0.095 OA 
ENDROOT
BRANCH   2   3
HETATM    3  C   UNL     1      -8.823   9.642  68.199  1.00  0.00    -0.119 A  
HETATM    4  C   UNL     1     -10.172  10.079  68.010  1.00  0.00    -0.216 A  
HETATM    5  C   UNL     1     -11.032  10.054  69.133  1.00  0.00    -0.220 A  
HETATM    6  C   UNL     1      -9.269   9.111  70.503  1.00  0.00    -0.286 A  
HETATM    7  O   UNL     1     -12.302  10.545  69.123  1.00  0.00    -0.724 OA 
HETATM    8  C   UNL     1      -8.364   9.153  69.448  1.00  0.00    -0.124 A  
HETATM    9  C   UNL     1     -10.568   9.548  70.340  1.00  0.00    -0.333 A  
HETATM   10  C   UNL     1     -11.289   9.359  71.602  1.00  0.00    -0.382 C  
HETATM   11  C   UNL     1      -6.941   8.706  69.632  1.00  0.00    -0.050 C  
HETATM   12  H   UNL     1     -12.879  10.528  69.877  1.00  0.00     0.000 HD 
HETATM   13  O   UNL     1     -10.383   8.830  72.492  1.00  0.00    -0.259 OA 
HETATM   14  C   UNL     1      -9.084   8.664  71.903  1.00  0.00    -0.256 C  
HETATM   15  O   UNL     1     -12.458   9.571  71.855  1.00  0.00    -0.369 OA 
BRANCH   4  16
HETATM   16  C   UNL     1     -10.573  10.628  66.655  1.00  0.00    -0.276 C  
BRANCH  16  17
HETATM   17  C   UNL     1     -11.272  11.945  66.561  1.00  0.00    -0.383 C  
HETATM   18  C   UNL     1     -11.807  12.498  65.456  1.00  0.00    -0.491 C  
HETATM   19  C   UNL     1     -11.855  11.850  64.097  1.00  0.00    -0.410 C  
BRANCH  18  20
HETATM   20  C   UNL     1     -12.398  13.883  65.545  1.00  0.00    -0.506 C  
BRANCH  20  21
HETATM   21  C   UNL     1     -12.148  14.654  64.255  1.00  0.00    -0.437 C  
BRANCH  21  22
HETATM   22  C   UNL     1     -11.195  15.791  64.494  1.00  0.00    -0.322 C  
HETATM   23  O   UNL     1     -11.353  16.946  64.130  1.00  0.00    -1.208 OA 
BRANCH  22  24
HETATM   24  O   UNL     1     -10.056  15.293  65.047  1.00  0.00    -0.328 OA 
BRANCH  24  25
HETATM   25  C   UNL     1      -9.802  15.802  66.366  1.00  0.00    -0.276 C  
BRANCH  25  26
HETATM   26  C   UNL     1      -8.632  16.792  66.230  1.00  0.00    -0.305 C  
BRANCH  26  27
HETATM   27  N   UNL     1      -8.986  18.207  66.091  1.00  0.00    -0.498 NA 
HETATM   28  C   UNL     1     -10.221  18.580  66.810  1.00  0.00    -0.393 C  
HETATM   29  C   UNL     1     -10.068  18.600  68.339  1.00  0.00    -0.383 C  
HETATM   30  O   UNL     1      -9.009  19.476  68.744  1.00  0.00    -0.364 OA 
HETATM   31  C   UNL     1      -7.770  19.102  68.131  1.00  0.00    -0.293 C  
HETATM   32  C   UNL     1      -7.887  19.069  66.595  1.00  0.00    -0.263 C  
ENDBRANCH  26  27
ENDBRANCH  25  26
ENDBRANCH  24  25
ENDBRANCH  22  24
ENDBRANCH  21  22
ENDBRANCH  20  21
ENDBRANCH  18  20
ENDBRANCH  16  17
ENDBRANCH   4  16
ENDBRANCH   2   3
TORSDOF 10
ENDMDL
MODEL       25
REMARK 921   NORMALIZED FREE ENERGY PREDICTED BY IDOCK:   -5.93 KCAL/MOL
REMARK 922        TOTAL FREE ENERGY PREDICTED BY IDOCK:  -10.93 KCAL/MOL
REMARK 923 INTER-LIGAND FREE ENERGY PREDICTED BY IDOCK:   -9.91 KCAL/MOL
REMARK 924 INTRA-LIGAND FREE ENERGY PREDICTED BY IDOCK:   -1.02 KCAL/MOL
REMARK 927      BINDING AFFINITY PREDICTED BY RF-SCORE:    0.00 PKD
ROOT
HETATM    1  C   UNL     1     -10.064  10.358  69.351  1.00  0.00    -0.229 C  
HETATM    2  O   UNL     1     -11.435  10.660  69.098  1.00  0.00    -0.259 OA 
ENDROOT
BRANCH   2   3
HETATM    3  C   UNL     1     -11.988  11.703  69.812  1.00  0.00    -0.332 A  
HETATM    4  C   UNL     1     -12.728  11.528  71.024  1.00  0.00    -0.426 A  
HETATM    5  C   UNL     1     -13.153  12.691  71.707  1.00  0.00    -0.360 A  
HETATM    6  C   UNL     1     -12.052  14.095  70.067  1.00  0.00    -0.409 A  
HETATM    7  O   UNL     1     -13.957  12.671  72.806  1.00  0.00    -0.642 OA 
HETATM    8  C   UNL     1     -11.644  12.991  69.328  1.00  0.00    -0.367 A  
HETATM    9  C   UNL     1     -12.784  13.941  71.226  1.00  0.00    -0.444 A  
HETATM   10  C   UNL     1     -13.043  15.265  71.799  1.00  0.00    -0.403 C  
HETATM   11  C   UNL     1     -10.874  13.159  68.048  1.00  0.00    -0.261 C  
HETATM   12  H   UNL     1     -14.242  13.452  73.264  1.00  0.00     0.000 HD 
HETATM   13  O   UNL     1     -12.472  16.177  70.942  1.00  0.00    -0.257 OA 
HETATM   14  C   UNL     1     -11.851  15.541  69.814  1.00  0.00    -0.359 C  
HETATM   15  O   UNL     1     -13.608  15.555  72.835  1.00  0.00    -0.510 OA 
BRANCH   4  16
HETATM   16  C   UNL     1     -13.092  10.119  71.452  1.00  0.00    -0.512 C  
BRANCH  16  17
HETATM   17  C   UNL     1     -12.029   9.196  71.953  1.00  0.00    -0.443 C  
HETATM   18  C   UNL     1     -12.070   7.850  71.965  1.00  0.00    -0.363 C  
HETATM   19  C   UNL     1     -13.189   7.010  71.408  1.00  0.00    -0.352 C  
BRANCH  18  20
HETATM   20  C   UNL     1     -10.929   7.089  72.595  1.00  0.00    -0.313 C  
BRANCH  20  21
HETATM   21  C   UNL     1      -9.852   8.050  73.083  1.00  0.00    -0.332 C  
BRANCH  21  22
HETATM   22  C   UNL     1      -8.714   8.112  72.102  1.00  0.00    -0.175 C  
HETATM   23  O   UNL     1      -7.921   9.033  71.984  1.00  0.00    -0.356 OA 
BRANCH  22  24
HETATM   24  O   UNL     1      -8.806   7.045  71.264  1.00  0.00    -0.133 OA 
BRANCH  24  25
HETATM   25  C   UNL     1      -7.829   7.070  70.211  1.00  0.00    -0.105 C  
BRANCH  25  26
HETATM   26  C   UNL     1      -8.571   6.671  68.923  1.00  0.00    -0.126 C  
BRANCH  26  27
HETATM   27  N   UNL     1      -9.735   5.795  69.085  1.00  0.00    -0.140 NA 
HETATM   28  C   UNL     1     -10.965   6.328  68.464  1.00  0.00    -0.340 C  
HETATM   29  C   UNL     1     -10.949   6.296  66.927  1.00  0.00    -0.329 C  
HETATM   30  O   UNL     1     -10.714   4.971  66.437  1.00  0.00    -0.300 OA 
HETATM   31  C   UNL     1      -9.487   4.442  66.952  1.00  0.00    -0.178 C  
HETATM   32  C   UNL     1      -9.466   4.460  68.492  1.00  0.00    -0.156 C  
ENDBRANCH  26  27
ENDBRANCH  25  26
ENDBRANCH  24  25
ENDBRANCH  22  24
ENDBRANCH  21  22
ENDBRANCH  20  21
ENDBRANCH  18  20
ENDBRANCH  16  17
ENDBRANCH   4  16
ENDBRANCH   2   3
TORSDOF 10
ENDMDL
MODEL       26
REMARK 921   NORMALIZED FREE ENERGY PREDICTED BY IDOCK:   -5.88 KCAL/MOL
REMARK 922        TOTAL FREE ENERGY PREDICTED BY IDOCK:  -10.86 KCAL/MOL
REMARK 923 INTER-LIGAND FREE ENERGY PREDICTED BY IDOCK:  -10.27 KCAL/MOL
REMARK 924 INTRA-LIGAND FREE ENERGY PREDICTED BY IDOCK:   -0.60 KCAL/MOL
REMARK 927      BINDING AFFINITY PREDICTED BY RF-SCORE:    0.00 PKD
ROOT
HETATM    1  C   UNL     1     -10.684   3.346  73.534  1.00  0.00    -0.214 C  
HETATM    2  O   UNL     1      -9.811   4.269  72.885  1.00  0.00    -0.128 OA 
ENDROOT
BRANCH   2   3
HETATM    3  C   UNL     1     -10.057   4.532  71.553  1.00  0.00    -0.169 A  
HETATM    4  C   UNL     1     -10.818   5.654  71.096  1.00  0.00    -0.288 A  
HETATM    5  C   UNL     1     -10.908   5.860  69.700  1.00  0.00    -0.374 A  
HETATM    6  C   UNL     1      -9.462   3.958  69.293  1.00  0.00    -0.256 A  
HETATM    7  O   UNL     1     -11.688   6.818  69.126  1.00  0.00    -0.601 OA 
HETATM    8  C   UNL     1      -9.372   3.678  70.652  1.00  0.00    -0.228 A  
HETATM    9  C   UNL     1     -10.210   5.025  68.837  1.00  0.00    -0.184 A  
HETATM   10  C   UNL     1     -10.096   5.090  67.378  1.00  0.00    -0.168 C  
HETATM   11  C   UNL     1      -8.584   2.498  71.147  1.00  0.00    -0.104 C  
HETATM   12  H   UNL     1     -11.748   6.956  68.188  1.00  0.00     0.000 HD 
HETATM   13  O   UNL     1      -9.295   4.036  67.003  1.00  0.00    -0.155 OA 
HETATM   14  C   UNL     1      -8.872   3.254  68.131  1.00  0.00    -0.124 C  
HETATM   15  O   UNL     1     -10.560   5.908  66.608  1.00  0.00    -0.263 OA 
BRANCH   4  16
HETATM   16  C   UNL     1     -11.555   6.495  72.121  1.00  0.00    -0.349 C  
BRANCH  16  17
HETATM   17  C   UNL     1     -11.645   7.975  71.943  1.00  0.00    -0.348 C  
HETATM   18  C   UNL     1     -12.764   8.697  71.740  1.00  0.00    -0.401 C  
HETATM   19  C   UNL     1     -14.163   8.141  71.715  1.00  0.00    -0.548 C  
BRANCH  18  20
HETATM   20  C   UNL     1     -12.642  10.181  71.495  1.00  0.00    -0.537 C  
BRANCH  20  21
HETATM   21  C   UNL     1     -11.534  10.468  70.490  1.00  0.00    -0.433 C  
BRANCH  21  22
HETATM   22  C   UNL     1     -11.901  11.633  69.615  1.00  0.00    -0.352 C  
HETATM   23  O   UNL     1     -12.263  12.733  70.002  1.00  0.00    -0.284 OA 
BRANCH  22  24
HETATM   24  O   UNL     1     -11.913  11.214  68.321  1.00  0.00    -0.592 OA 
BRANCH  24  25
HETATM   25  C   UNL     1     -10.616  11.255  67.703  1.00  0.00    -0.213 C  
BRANCH  25  26
HETATM   26  C   UNL     1     -10.861  11.437  66.195  1.00  0.00    -0.255 C  
BRANCH  26  27
HETATM   27  N   UNL     1     -10.425  12.709  65.611  1.00  0.00    -0.270 NA 
HETATM   28  C   UNL     1     -10.586  12.770  64.144  1.00  0.00    -0.415 C  
HETATM   29  C   UNL     1     -12.049  12.872  63.683  1.00  0.00    -0.535 C  
HETATM   30  O   UNL     1     -12.702  14.002  64.273  1.00  0.00    -0.661 OA 
HETATM   31  C   UNL     1     -12.640  13.944  65.703  1.00  0.00    -0.517 C  
HETATM   32  C   UNL     1     -11.186  13.838  66.201  1.00  0.00    -0.300 C  
ENDBRANCH  26  27
ENDBRANCH  25  26
ENDBRANCH  24  25
ENDBRANCH  22  24
ENDBRANCH  21  22
ENDBRANCH  20  21
ENDBRANCH  18  20
ENDBRANCH  16  17
ENDBRANCH   4  16
ENDBRANCH   2   3
TORSDOF 10
ENDMDL
MODEL       27
REMARK 921   NORMALIZED FREE ENERGY PREDICTED BY IDOCK:   -5.85 KCAL/MOL
REMARK 922        TOTAL FREE ENERGY PREDICTED BY IDOCK:  -10.81 KCAL/MOL
REMARK 923 INTER-LIGAND FREE ENERGY PREDICTED BY IDOCK:   -9.64 KCAL/MOL
REMARK 924 INTRA-LIGAND FREE ENERGY PREDICTED BY IDOCK:   -1.17 KCAL/MOL
REMARK 927      BINDING AFFINITY PREDICTED BY RF-SCORE:    0.00 PKD
ROOT
HETATM    1  C   UNL     1     -11.316  15.115  64.888  1.00  0.00    -0.399 C  
HETATM    2  O   UNL     1     -10.468  14.764  65.979  1.00  0.00    -0.280 OA 
ENDROOT
BRANCH   2   3
HETATM    3  C   UNL     1     -11.065  14.157  67.065  1.00  0.00    -0.307 A  
HETATM    4  C   UNL     1     -11.349  12.755  67.130  1.00  0.00    -0.365 A  
HETATM    5  C   UNL     1     -11.871  12.248  68.343  1.00  0.00    -0.304 A  
HETATM    6  C   UNL     1     -11.723  14.442  69.362  1.00  0.00    -0.362 A  
HETATM    7  O   UNL     1     -12.290  10.963  68.506  1.00  0.00    -0.807 OA 
HETATM    8  C   UNL     1     -11.249  15.008  68.184  1.00  0.00    -0.316 A  
HETATM    9  C   UNL     1     -12.020  13.096  69.432  1.00  0.00    -0.347 A  
HETATM   10  C   UNL     1     -12.467  12.784  70.793  1.00  0.00    -0.271 C  
HETATM   11  C   UNL     1     -10.953  16.479  68.097  1.00  0.00    -0.336 C  
HETATM   12  H   UNL     1     -12.641  10.623  69.320  1.00  0.00     0.000 HD 
HETATM   13  O   UNL     1     -12.443  13.969  71.491  1.00  0.00    -0.341 OA 
HETATM   14  C   UNL     1     -12.015  15.068  70.672  1.00  0.00    -0.318 C  
HETATM   15  O   UNL     1     -12.771  11.710  71.272  1.00  0.00    -0.393 OA 
BRANCH   4  16
HETATM   16  C   UNL     1     -11.166  11.921  65.878  1.00  0.00    -0.373 C  
BRANCH  16  17
HETATM   17  C   UNL     1     -10.184  10.795  65.871  1.00  0.00    -0.319 C  
HETATM   18  C   UNL     1      -9.600  10.240  64.792  1.00  0.00    -0.369 C  
HETATM   19  C   UNL     1      -9.787  10.700  63.370  1.00  0.00    -0.376 C  
BRANCH  18  20
HETATM   20  C   UNL     1      -8.696   9.047  64.982  1.00  0.00    -0.217 C  
BRANCH  20  21
HETATM   21  C   UNL     1      -9.182   8.187  66.142  1.00  0.00    -0.230 C  
BRANCH  21  22
HETATM   22  C   UNL     1      -8.108   8.046  67.183  1.00  0.00    -0.117 C  
HETATM   23  O   UNL     1      -7.089   7.382  67.075  1.00  0.00    -0.079 OA 
BRANCH  22  24
HETATM   24  O   UNL     1      -8.530   8.652  68.325  1.00  0.00    -0.128 OA 
BRANCH  24  25
HETATM   25  C   UNL     1      -9.900   8.362  68.643  1.00  0.00    -0.170 C  
BRANCH  25  26
HETATM   26  C   UNL     1      -9.988   8.318  70.179  1.00  0.00    -0.187 C  
BRANCH  26  27
HETATM   27  N   UNL     1     -11.311   8.051  70.751  1.00  0.00    -0.274 NA 
HETATM   28  C   UNL     1     -11.698   6.626  70.702  1.00  0.00    -0.394 C  
HETATM   29  C   UNL     1     -10.915   5.735  71.680  1.00  0.00    -0.246 C  
HETATM   30  O   UNL     1     -11.039   6.207  73.026  1.00  0.00    -0.255 OA 
HETATM   31  C   UNL     1     -10.599   7.566  73.138  1.00  0.00    -0.388 C  
HETATM   32  C   UNL     1     -11.361   8.489  72.168  1.00  0.00    -0.372 C  
ENDBRANCH  26  27
ENDBRANCH  25  26
ENDBRANCH  24  25
ENDBRANCH  22  24
ENDBRANCH  21  22
ENDBRANCH  20  21
ENDBRANCH  18  20
ENDBRANCH  16  17
ENDBRANCH   4  16
ENDBRANCH   2   3
TORSDOF 10
ENDMDL
MODEL       28
REMARK 921   NORMALIZED FREE ENERGY PREDICTED BY IDOCK:   -5.85 KCAL/MOL
REMARK 922        TOTAL FREE ENERGY PREDICTED BY IDOCK:  -10.81 KCAL/MOL
REMARK 923 INTER-LIGAND FREE ENERGY PREDICTED BY IDOCK:   -9.61 KCAL/MOL
REMARK 924 INTRA-LIGAND FREE ENERGY PREDICTED BY IDOCK:   -1.19 KCAL/MOL
REMARK 927      BINDING AFFINITY PREDICTED BY RF-SCORE:    0.00 PKD
ROOT
HETATM    1  C   UNL     1      -8.619   8.428  65.895  1.00  0.00    -0.158 C  
HETATM    2  O   UNL     1      -8.450   9.843  65.944  1.00  0.00    -0.125 OA 
ENDROOT
BRANCH   2   3
HETATM    3  C   UNL     1      -9.591  10.613  65.841  1.00  0.00    -0.205 A  
HETATM    4  C   UNL     1     -10.284  11.155  66.970  1.00  0.00    -0.251 A  
HETATM    5  C   UNL     1     -11.382  12.009  66.717  1.00  0.00    -0.339 A  
HETATM    6  C   UNL     1     -11.011  11.832  64.329  1.00  0.00    -0.419 A  
HETATM    7  O   UNL     1     -12.196  12.502  67.691  1.00  0.00    -0.401 OA 
HETATM    8  C   UNL     1      -9.951  10.952  64.512  1.00  0.00    -0.376 A  
HETATM    9  C   UNL     1     -11.701  12.346  65.408  1.00  0.00    -0.452 A  
HETATM   10  C   UNL     1     -12.736  13.258  64.914  1.00  0.00    -0.327 C  
HETATM   11  C   UNL     1      -9.219  10.368  63.337  1.00  0.00    -0.311 C  
HETATM   12  H   UNL     1     -12.933  13.076  67.522  1.00  0.00     0.000 HD 
HETATM   13  O   UNL     1     -12.645  13.243  63.542  1.00  0.00    -0.728 OA 
HETATM   14  C   UNL     1     -11.611  12.358  63.081  1.00  0.00    -0.212 C  
HETATM   15  O   UNL     1     -13.517  13.944  65.543  1.00  0.00    -0.657 OA 
BRANCH   4  16
HETATM   16  C   UNL     1      -9.864  10.710  68.358  1.00  0.00    -0.170 C  
BRANCH  16  17
HETATM   17  C   UNL     1     -10.787  10.914  69.515  1.00  0.00    -0.286 C  
HETATM   18  C   UNL     1     -11.305   9.960  70.312  1.00  0.00    -0.357 C  
HETATM   19  C   UNL     1     -10.996   8.489  70.219  1.00  0.00    -0.245 C  
BRANCH  18  20
HETATM   20  C   UNL     1     -12.293  10.356  71.382  1.00  0.00    -0.500 C  
BRANCH  20  21
HETATM   21  C   UNL     1     -13.274  11.390  70.845  1.00  0.00     0.134 C  
BRANCH  21  22
HETATM   22  C   UNL     1     -13.303  12.603  71.731  1.00  0.00    -0.310 C  
HETATM   23  O   UNL     1     -14.204  12.910  72.496  1.00  0.00    -0.526 OA 
BRANCH  22  24
HETATM   24  O   UNL     1     -12.233  13.386  71.427  1.00  0.00    -0.218 OA 
BRANCH  24  25
HETATM   25  C   UNL     1     -12.566  14.485  70.564  1.00  0.00    -0.351 C  
BRANCH  25  26
HETATM   26  C   UNL     1     -11.237  15.178  70.214  1.00  0.00    -0.277 C  
BRANCH  26  27
HETATM   27  N   UNL     1     -10.730  14.970  68.854  1.00  0.00    -0.232 NA 
HETATM   28  C   UNL     1     -11.072  16.064  67.923  1.00  0.00    -0.307 C  
HETATM   29  C   UNL     1     -10.302  17.368  68.186  1.00  0.00    -0.366 C  
HETATM   30  O   UNL     1      -8.886  17.151  68.153  1.00  0.00    -0.223 OA 
HETATM   31  C   UNL     1      -8.497  16.150  69.101  1.00  0.00    -0.239 C  
HETATM   32  C   UNL     1      -9.252  14.827  68.868  1.00  0.00    -0.177 C  
ENDBRANCH  26  27
ENDBRANCH  25  26
ENDBRANCH  24  25
ENDBRANCH  22  24
ENDBRANCH  21  22
ENDBRANCH  20  21
ENDBRANCH  18  20
ENDBRANCH  16  17
ENDBRANCH   4  16
ENDBRANCH   2   3
TORSDOF 10
ENDMDL
MODEL       29
REMARK 921   NORMALIZED FREE ENERGY PREDICTED BY IDOCK:   -5.84 KCAL/MOL
REMARK 922        TOTAL FREE ENERGY PREDICTED BY IDOCK:  -10.80 KCAL/MOL
REMARK 923 INTER-LIGAND FREE ENERGY PREDICTED BY IDOCK:   -9.66 KCAL/MOL
REMARK 924 INTRA-LIGAND FREE ENERGY PREDICTED BY IDOCK:   -1.14 KCAL/MOL
REMARK 927      BINDING AFFINITY PREDICTED BY RF-SCORE:    0.00 PKD
ROOT
HETATM    1  C   UNL     1      -9.712  10.061  63.987  1.00  0.00    -0.087 C  
HETATM    2  O   UNL     1     -10.708  10.553  64.881  1.00  0.00    -0.157 OA 
ENDROOT
BRANCH   2   3
HETATM    3  C   UNL     1     -10.726  11.913  65.111  1.00  0.00    -0.291 A  
HETATM    4  C   UNL     1      -9.785  12.585  65.956  1.00  0.00    -0.247 A  
HETATM    5  C   UNL     1      -9.856  13.996  66.024  1.00  0.00    -0.297 A  
HETATM    6  C   UNL     1     -11.658  14.016  64.403  1.00  0.00    -0.385 A  
HETATM    7  O   UNL     1      -9.102  14.750  66.869  1.00  0.00    -0.221 OA 
HETATM    8  C   UNL     1     -11.667  12.627  64.328  1.00  0.00    -0.446 A  
HETATM    9  C   UNL     1     -10.771  14.675  65.229  1.00  0.00    -0.396 A  
HETATM   10  C   UNL     1     -10.973  16.118  65.080  1.00  0.00    -0.316 C  
HETATM   11  C   UNL     1     -12.653  11.907  63.452  1.00  0.00    -0.555 C  
HETATM   12  H   UNL     1      -9.149  15.697  66.915  1.00  0.00     0.000 HD 
HETATM   13  O   UNL     1     -12.000  16.276  64.178  1.00  0.00    -0.838 OA 
HETATM   14  C   UNL     1     -12.511  15.015  63.719  1.00  0.00     0.468 C  
HETATM   15  O   UNL     1     -10.363  17.035  65.593  1.00  0.00    -0.542 OA 
BRANCH   4  16
HETATM   16  C   UNL     1      -8.839  11.748  66.794  1.00  0.00    -0.191 C  
BRANCH  16  17
HETATM   17  C   UNL     1      -9.362  10.975  67.961  1.00  0.00    -0.163 C  
HETATM   18  C   UNL     1      -8.690  10.653  69.082  1.00  0.00    -0.135 C  
HETATM   19  C   UNL     1      -7.280  11.073  69.400  1.00  0.00    -0.114 C  
BRANCH  18  20
HETATM   20  C   UNL     1      -9.367   9.787  70.117  1.00  0.00    -0.261 C  
BRANCH  20  21
HETATM   21  C   UNL     1     -10.798   9.476  69.700  1.00  0.00    -0.255 C  
BRANCH  21  22
HETATM   22  C   UNL     1     -11.749   9.737  70.834  1.00  0.00    -0.347 C  
HETATM   23  O   UNL     1     -11.874   9.051  71.836  1.00  0.00    -0.344 OA 
BRANCH  22  24
HETATM   24  O   UNL     1     -12.557  10.776  70.491  1.00  0.00    -0.329 OA 
BRANCH  24  25
HETATM   25  C   UNL     1     -12.646  11.781  71.514  1.00  0.00    -0.215 C  
BRANCH  25  26
HETATM   26  C   UNL     1     -12.294  13.119  70.838  1.00  0.00    -0.307 C  
BRANCH  26  27
HETATM   27  N   UNL     1     -13.241  14.220  71.035  1.00  0.00    -0.335 NA 
HETATM   28  C   UNL     1     -13.695  14.365  72.433  1.00  0.00    -0.490 C  
HETATM   29  C   UNL     1     -12.615  14.906  73.384  1.00  0.00    -0.483 C  
HETATM   30  O   UNL     1     -12.102  16.163  72.926  1.00  0.00    -0.475 OA 
HETATM   31  C   UNL     1     -11.577  16.051  71.598  1.00  0.00    -0.459 C  
HETATM   32  C   UNL     1     -12.633  15.508  70.617  1.00  0.00    -0.443 C  
ENDBRANCH  26  27
ENDBRANCH  25  26
ENDBRANCH  24  25
ENDBRANCH  22  24
ENDBRANCH  21  22
ENDBRANCH  20  21
ENDBRANCH  18  20
ENDBRANCH  16  17
ENDBRANCH   4  16
ENDBRANCH   2   3
TORSDOF 10
ENDMDL
MODEL       30
REMARK 921   NORMALIZED FREE ENERGY PREDICTED BY IDOCK:   -5.84 KCAL/MOL
REMARK 922        TOTAL FREE ENERGY PREDICTED BY IDOCK:  -10.79 KCAL/MOL
REMARK 923 INTER-LIGAND FREE ENERGY PREDICTED BY IDOCK:   -9.19 KCAL/MOL
REMARK 924 INTRA-LIGAND FREE ENERGY PREDICTED BY IDOCK:   -1.60 KCAL/MOL
REMARK 927      BINDING AFFINITY PREDICTED BY RF-SCORE:    0.00 PKD
ROOT
HETATM    1  C   UNL     1      -6.220   9.566  66.773  1.00  0.00    -0.065 C  
HETATM    2  O   UNL     1      -7.299  10.311  67.334  1.00  0.00    -0.091 OA 
ENDROOT
BRANCH   2   3
HETATM    3  C   UNL     1      -8.318   9.590  67.922  1.00  0.00    -0.115 A  
HETATM    4  C   UNL     1      -9.292   8.847  67.180  1.00  0.00    -0.182 A  
HETATM    5  C   UNL     1     -10.221   8.071  67.911  1.00  0.00    -0.212 A  
HETATM    6  C   UNL     1      -9.159   8.705  69.996  1.00  0.00    -0.157 A  
HETATM    7  O   UNL     1     -11.265   7.409  67.342  1.00  0.00    -0.548 OA 
HETATM    8  C   UNL     1      -8.247   9.520  69.336  1.00  0.00    -0.126 A  
HETATM    9  C   UNL     1     -10.116   8.000  69.294  1.00  0.00    -0.198 A  
HETATM   10  C   UNL     1     -10.910   7.214  70.243  1.00  0.00    -0.249 C  
HETATM   11  C   UNL     1      -7.224  10.313  70.101  1.00  0.00    -0.138 C  
HETATM   12  H   UNL     1     -11.889   6.888  67.833  1.00  0.00     0.000 HD 
HETATM   13  O   UNL     1     -10.412   7.495  71.494  1.00  0.00    -0.204 OA 
HETATM   14  C   UNL     1      -9.331   8.440  71.443  1.00  0.00    -0.190 C  
HETATM   15  O   UNL     1     -11.810   6.428  70.022  1.00  0.00    -0.404 OA 
BRANCH   4  16
HETATM   16  C   UNL     1      -9.329   9.008  65.673  1.00  0.00    -0.289 C  
BRANCH  16  17
HETATM   17  C   UNL     1      -9.844  10.275  65.072  1.00  0.00    -0.397 C  
HETATM   18  C   UNL     1      -9.674  10.694  63.804  1.00  0.00    -0.382 C  
HETATM   19  C   UNL     1      -8.972   9.919  62.720  1.00  0.00    -0.272 C  
BRANCH  18  20
HETATM   20  C   UNL     1     -10.199  12.052  63.405  1.00  0.00    -0.457 C  
BRANCH  20  21
HETATM   21  C   UNL     1     -11.722  12.056  63.403  1.00  0.00    -0.519 C  
BRANCH  21  22
HETATM   22  C   UNL     1     -12.249  13.243  64.160  1.00  0.00    -0.401 C  
HETATM   23  O   UNL     1     -12.631  14.293  63.669  1.00  0.00    -0.831 OA 
BRANCH  22  24
HETATM   24  O   UNL     1     -12.087  13.014  65.491  1.00  0.00    -0.400 OA 
BRANCH  24  25
HETATM   25  C   UNL     1     -11.460  14.109  66.178  1.00  0.00    -0.347 C  
BRANCH  25  26
HETATM   26  C   UNL     1     -11.989  14.073  67.623  1.00  0.00    -0.368 C  
BRANCH  26  27
HETATM   27  N   UNL     1     -10.994  13.851  68.677  1.00  0.00    -0.253 NA 
HETATM   28  C   UNL     1     -11.471  14.219  70.025  1.00  0.00    -0.219 C  
HETATM   29  C   UNL     1     -12.528  13.259  70.594  1.00  0.00    -0.298 C  
HETATM   30  O   UNL     1     -12.045  11.911  70.621  1.00  0.00    -0.373 OA 
HETATM   31  C   UNL     1     -11.643  11.482  69.315  1.00  0.00    -0.322 C  
HETATM   32  C   UNL     1     -10.584  12.425  68.711  1.00  0.00    -0.183 C  
ENDBRANCH  26  27
ENDBRANCH  25  26
ENDBRANCH  24  25
ENDBRANCH  22  24
ENDBRANCH  21  22
ENDBRANCH  20  21
ENDBRANCH  18  20
ENDBRANCH  16  17
ENDBRANCH   4  16
ENDBRANCH   2   3
TORSDOF 10
ENDMDL
MODEL       31
REMARK 921   NORMALIZED FREE ENERGY PREDICTED BY IDOCK:   -5.82 KCAL/MOL
REMARK 922        TOTAL FREE ENERGY PREDICTED BY IDOCK:  -10.77 KCAL/MOL
REMARK 923 INTER-LIGAND FREE ENERGY PREDICTED BY IDOCK:   -9.26 KCAL/MOL
REMARK 924 INTRA-LIGAND FREE ENERGY PREDICTED BY IDOCK:   -1.51 KCAL/MOL
REMARK 927      BINDING AFFINITY PREDICTED BY RF-SCORE:    0.00 PKD
ROOT
HETATM    1  C   UNL     1     -11.581  14.689  65.904  1.00  0.00    -0.327 C  
HETATM    2  O   UNL     1     -10.793  14.364  67.047  1.00  0.00    -0.288 OA 
ENDROOT
BRANCH   2   3
HETATM    3  C   UNL     1     -11.422  13.674  68.064  1.00  0.00    -0.310 A  
HETATM    4  C   UNL     1     -11.598  12.254  68.065  1.00  0.00    -0.408 A  
HETATM    5  C   UNL     1     -12.170  11.665  69.217  1.00  0.00    -0.164 A  
HETATM    6  C   UNL     1     -12.275  13.826  70.309  1.00  0.00    -0.429 A  
HETATM    7  O   UNL     1     -12.496  10.347  69.309  1.00  0.00    -0.699 OA 
HETATM    8  C   UNL     1     -11.758  14.468  69.189  1.00  0.00    -0.349 A  
HETATM    9  C   UNL     1     -12.469  12.460  70.316  1.00  0.00    -0.152 A  
HETATM   10  C   UNL     1     -12.993  12.067  71.627  1.00  0.00    -0.334 C  
HETATM   11  C   UNL     1     -11.575  15.960  69.169  1.00  0.00    -0.382 C  
HETATM   12  H   UNL     1     -12.880   9.951  70.083  1.00  0.00     0.000 HD 
HETATM   13  O   UNL     1     -13.117  13.224  72.360  1.00  0.00    -0.403 OA 
HETATM   14  C   UNL     1     -12.717  14.381  71.609  1.00  0.00    -0.344 C  
HETATM   15  O   UNL     1     -13.246  10.955  72.049  1.00  0.00    -0.492 OA 
BRANCH   4  16
HETATM   16  C   UNL     1     -11.253  11.481  66.808  1.00  0.00    -0.350 C  
BRANCH  16  17
HETATM   17  C   UNL     1     -10.412  10.249  66.898  1.00  0.00    -0.291 C  
HETATM   18  C   UNL     1      -9.738   9.656  65.894  1.00  0.00    -0.343 C  
HETATM   19  C   UNL     1      -9.656  10.170  64.481  1.00  0.00    -0.376 C  
BRANCH  18  20
HETATM   20  C   UNL     1      -9.010   8.363  66.166  1.00  0.00    -0.218 C  
BRANCH  20  21
HETATM   21  C   UNL     1      -9.990   7.279  66.597  1.00  0.00    -0.246 C  
BRANCH  21  22
HETATM   22  C   UNL     1      -9.311   6.274  67.485  1.00  0.00    -0.113 C  
HETATM   23  O   UNL     1      -8.120   6.007  67.484  1.00  0.00    -0.102 OA 
BRANCH  22  24
HETATM   24  O   UNL     1     -10.265   5.600  68.182  1.00  0.00    -0.160 OA 
BRANCH  24  25
HETATM   25  C   UNL     1     -11.247   6.466  68.773  1.00  0.00    -0.274 C  
BRANCH  25  26
HETATM   26  C   UNL     1     -10.716   6.834  70.170  1.00  0.00    -0.233 C  
BRANCH  26  27
HETATM   27  N   UNL     1     -10.654   8.263  70.490  1.00  0.00    -0.215 NA 
HETATM   28  C   UNL     1     -10.769   8.549  71.934  1.00  0.00    -0.324 C  
HETATM   29  C   UNL     1      -9.529   8.147  72.748  1.00  0.00    -0.279 C  
HETATM   30  O   UNL     1      -8.347   8.775  72.239  1.00  0.00    -0.367 OA 
HETATM   31  C   UNL     1      -8.150   8.459  70.856  1.00  0.00    -0.110 C  
HETATM   32  C   UNL     1      -9.377   8.847  70.009  1.00  0.00    -0.174 C  
ENDBRANCH  26  27
ENDBRANCH  25  26
ENDBRANCH  24  25
ENDBRANCH  22  24
ENDBRANCH  21  22
ENDBRANCH  20  21
ENDBRANCH  18  20
ENDBRANCH  16  17
ENDBRANCH   4  16
ENDBRANCH   2   3
TORSDOF 10
ENDMDL
MODEL       32
REMARK 921   NORMALIZED FREE ENERGY PREDICTED BY IDOCK:   -5.82 KCAL/MOL
REMARK 922        TOTAL FREE ENERGY PREDICTED BY IDOCK:  -10.77 KCAL/MOL
REMARK 923 INTER-LIGAND FREE ENERGY PREDICTED BY IDOCK:   -9.60 KCAL/MOL
REMARK 924 INTRA-LIGAND FREE ENERGY PREDICTED BY IDOCK:   -1.16 KCAL/MOL
REMARK 927      BINDING AFFINITY PREDICTED BY RF-SCORE:    0.00 PKD
ROOT
HETATM    1  C   UNL     1     -11.198  11.804  68.970  1.00  0.00    -0.265 C  
HETATM    2  O   UNL     1     -11.797  11.093  67.890  1.00  0.00    -0.601 OA 
ENDROOT
BRANCH   2   3
HETATM    3  C   UNL     1     -11.038  10.936  66.747  1.00  0.00    -0.126 A  
HETATM    4  C   UNL     1     -10.861  11.965  65.768  1.00  0.00    -0.341 A  
HETATM    5  C   UNL     1      -9.977  11.704  64.696  1.00  0.00    -0.253 A  
HETATM    6  C   UNL     1      -9.434   9.534  65.629  1.00  0.00    -0.326 A  
HETATM    7  O   UNL     1      -9.801  12.545  63.640  1.00  0.00    -0.638 OA 
HETATM    8  C   UNL     1     -10.322   9.714  66.683  1.00  0.00    -0.279 A  
HETATM    9  C   UNL     1      -9.268  10.510  64.667  1.00  0.00    -0.274 A  
HETATM   10  C   UNL     1      -8.257  10.057  63.708  1.00  0.00    -0.161 C  
HETATM   11  C   UNL     1     -10.526   8.640  67.714  1.00  0.00    -0.287 C  
HETATM   12  H   UNL     1      -9.207  12.370  62.920  1.00  0.00     0.000 HD 
HETATM   13  O   UNL     1      -7.863   8.805  64.120  1.00  0.00    -0.123 OA 
HETATM   14  C   UNL     1      -8.564   8.381  65.299  1.00  0.00    -0.150 C  
HETATM   15  O   UNL     1      -7.794  10.643  62.749  1.00  0.00    -0.147 OA 
BRANCH   4  16
HETATM   16  C   UNL     1     -11.695  13.226  65.884  1.00  0.00    -0.403 C  
BRANCH  16  17
HETATM   17  C   UNL     1     -11.035  14.529  66.199  1.00  0.00    -0.322 C  
HETATM   18  C   UNL     1     -11.025  15.634  65.431  1.00  0.00    -0.342 C  
HETATM   19  C   UNL     1     -11.743  15.785  64.115  1.00  0.00    -0.070 C  
BRANCH  18  20
HETATM   20  C   UNL     1     -10.226  16.832  65.882  1.00  0.00    -0.345 C  
BRANCH  20  21
HETATM   21  C   UNL     1     -10.641  17.252  67.286  1.00  0.00    -0.283 C  
BRANCH  21  22
HETATM   22  C   UNL     1      -9.449  17.298  68.200  1.00  0.00    -0.278 C  
HETATM   23  O   UNL     1      -8.291  17.482  67.858  1.00  0.00    -0.220 OA 
BRANCH  22  24
HETATM   24  O   UNL     1      -9.849  16.946  69.451  1.00  0.00    -0.185 OA 
BRANCH  24  25
HETATM   25  C   UNL     1     -10.726  15.808  69.463  1.00  0.00    -0.278 C  
BRANCH  25  26
HETATM   26  C   UNL     1     -11.134  15.591  70.931  1.00  0.00    -0.348 C  
BRANCH  26  27
HETATM   27  N   UNL     1     -12.511  15.949  71.286  1.00  0.00    -0.441 NA 
HETATM   28  C   UNL     1     -13.514  14.972  70.817  1.00  0.00    -0.270 C  
HETATM   29  C   UNL     1     -13.489  13.640  71.584  1.00  0.00    -0.322 C  
HETATM   30  O   UNL     1     -13.659  13.847  72.991  1.00  0.00    -0.628 OA 
HETATM   31  C   UNL     1     -12.656  14.729  73.506  1.00  0.00    -0.425 C  
HETATM   32  C   UNL     1     -12.650  16.076  72.758  1.00  0.00    -0.472 C  
ENDBRANCH  26  27
ENDBRANCH  25  26
ENDBRANCH  24  25
ENDBRANCH  22  24
ENDBRANCH  21  22
ENDBRANCH  20  21
ENDBRANCH  18  20
ENDBRANCH  16  17
ENDBRANCH   4  16
ENDBRANCH   2   3
TORSDOF 10
ENDMDL
MODEL       33
REMARK 921   NORMALIZED FREE ENERGY PREDICTED BY IDOCK:   -5.80 KCAL/MOL
REMARK 922        TOTAL FREE ENERGY PREDICTED BY IDOCK:  -10.73 KCAL/MOL
REMARK 923 INTER-LIGAND FREE ENERGY PREDICTED BY IDOCK:  -10.20 KCAL/MOL
REMARK 924 INTRA-LIGAND FREE ENERGY PREDICTED BY IDOCK:   -0.54 KCAL/MOL
REMARK 927      BINDING AFFINITY PREDICTED BY RF-SCORE:    0.00 PKD
ROOT
HETATM    1  C   UNL     1     -11.164  10.617  67.819  1.00  0.00    -0.313 C  
HETATM    2  O   UNL     1     -10.643  10.763  69.138  1.00  0.00    -0.200 OA 
ENDROOT
BRANCH   2   3
HETATM    3  C   UNL     1     -10.852   9.716  70.013  1.00  0.00    -0.264 A  
HETATM    4  C   UNL     1     -11.950   9.658  70.929  1.00  0.00    -0.391 A  
HETATM    5  C   UNL     1     -12.100   8.480  71.698  1.00  0.00    -0.321 A  
HETATM    6  C   UNL     1     -10.194   7.475  70.589  1.00  0.00    -0.202 A  
HETATM    7  O   UNL     1     -13.028   8.334  72.683  1.00  0.00    -0.593 OA 
HETATM    8  C   UNL     1      -9.968   8.622  69.837  1.00  0.00    -0.189 A  
HETATM    9  C   UNL     1     -11.236   7.412  71.491  1.00  0.00    -0.271 A  
HETATM   10  C   UNL     1     -11.244   6.084  72.110  1.00  0.00    -0.291 C  
HETATM   11  C   UNL     1      -8.814   8.702  68.877  1.00  0.00    -0.138 C  
HETATM   12  H   UNL     1     -13.129   7.544  73.199  1.00  0.00     0.000 HD 
HETATM   13  O   UNL     1     -10.182   5.397  71.569  1.00  0.00    -0.203 OA 
HETATM   14  C   UNL     1      -9.449   6.195  70.626  1.00  0.00    -0.168 C  
HETATM   15  O   UNL     1     -12.028   5.617  72.913  1.00  0.00    -0.172 OA 
BRANCH   4  16
HETATM   16  C   UNL     1     -12.824  10.886  71.090  1.00  0.00    -0.508 C  
BRANCH  16  17
HETATM   17  C   UNL     1     -12.242  12.247  70.887  1.00  0.00    -0.296 C  
HETATM   18  C   UNL     1     -12.693  13.404  71.407  1.00  0.00    -0.411 C  
HETATM   19  C   UNL     1     -13.856  13.534  72.356  1.00  0.00    -0.687 C  
BRANCH  18  20
HETATM   20  C   UNL     1     -12.018  14.695  71.015  1.00  0.00    -0.399 C  
BRANCH  20  21
HETATM   21  C   UNL     1     -11.962  14.829  69.499  1.00  0.00    -0.351 C  
BRANCH  21  22
HETATM   22  C   UNL     1     -10.614  15.326  69.060  1.00  0.00    -0.245 C  
HETATM   23  O   UNL     1     -10.158  16.439  69.271  1.00  0.00    -0.255 OA 
BRANCH  22  24
HETATM   24  O   UNL     1     -10.047  14.387  68.256  1.00  0.00    -0.226 OA 
BRANCH  24  25
HETATM   25  C   UNL     1      -9.645  14.908  66.979  1.00  0.00    -0.238 C  
BRANCH  25  26
HETATM   26  C   UNL     1      -9.807  13.757  65.971  1.00  0.00    -0.282 C  
BRANCH  26  27
HETATM   27  N   UNL     1     -10.560  14.059  64.749  1.00  0.00    -0.417 NA 
HETATM   28  C   UNL     1     -10.811  12.874  63.904  1.00  0.00    -0.367 C  
HETATM   29  C   UNL     1     -11.842  11.898  64.493  1.00  0.00    -0.224 C  
HETATM   30  O   UNL     1     -13.087  12.555  64.760  1.00  0.00    -0.853 OA 
HETATM   31  C   UNL     1     -12.902  13.667  65.644  1.00  0.00    -0.371 C  
HETATM   32  C   UNL     1     -11.872  14.667  65.086  1.00  0.00    -0.351 C  
ENDBRANCH  26  27
ENDBRANCH  25  26
ENDBRANCH  24  25
ENDBRANCH  22  24
ENDBRANCH  21  22
ENDBRANCH  20  21
ENDBRANCH  18  20
ENDBRANCH  16  17
ENDBRANCH   4  16
ENDBRANCH   2   3
TORSDOF 10
ENDMDL
MODEL       34
REMARK 921   NORMALIZED FREE ENERGY PREDICTED BY IDOCK:   -5.79 KCAL/MOL
REMARK 922        TOTAL FREE ENERGY PREDICTED BY IDOCK:  -10.72 KCAL/MOL
REMARK 923 INTER-LIGAND FREE ENERGY PREDICTED BY IDOCK:   -9.63 KCAL/MOL
REMARK 924 INTRA-LIGAND FREE ENERGY PREDICTED BY IDOCK:   -1.09 KCAL/MOL
REMARK 927      BINDING AFFINITY PREDICTED BY RF-SCORE:    0.00 PKD
ROOT
HETATM    1  C   UNL     1     -11.916  12.844  69.996  1.00  0.00    -0.309 C  
HETATM    2  O   UNL     1     -12.576  13.958  69.398  1.00  0.00    -0.178 OA 
ENDROOT
BRANCH   2   3
HETATM    3  C   UNL     1     -11.794  14.832  68.670  1.00  0.00    -0.300 A  
HETATM    4  C   UNL     1     -11.574  14.710  67.261  1.00  0.00    -0.404 A  
HETATM    5  C   UNL     1     -10.833  15.732  66.623  1.00  0.00    -0.241 A  
HETATM    6  C   UNL     1     -10.650  16.948  68.712  1.00  0.00    -0.355 A  
HETATM    7  O   UNL     1     -10.455  15.688  65.316  1.00  0.00    -0.379 OA 
HETATM    8  C   UNL     1     -11.334  15.954  69.403  1.00  0.00    -0.349 A  
HETATM    9  C   UNL     1     -10.413  16.834  67.357  1.00  0.00    -0.310 A  
HETATM   10  C   UNL     1      -9.705  18.033  66.901  1.00  0.00    -0.314 C  
HETATM   11  C   UNL     1     -11.566  16.063  70.884  1.00  0.00    -0.453 C  
HETATM   12  H   UNL     1      -9.958  16.374  64.887  1.00  0.00     0.000 HD 
HETATM   13  O   UNL     1      -9.519  18.821  68.013  1.00  0.00    -0.294 OA 
HETATM   14  C   UNL     1     -10.054  18.213  69.199  1.00  0.00    -0.178 C  
HETATM   15  O   UNL     1      -9.361  18.339  65.776  1.00  0.00    -0.460 OA 
BRANCH   4  16
HETATM   16  C   UNL     1     -12.062  13.459  66.557  1.00  0.00    -0.444 C  
BRANCH  16  17
HETATM   17  C   UNL     1     -11.090  12.386  66.188  1.00  0.00    -0.340 C  
HETATM   18  C   UNL     1     -10.945  11.810  64.979  1.00  0.00    -0.357 C  
HETATM   19  C   UNL     1     -11.708  12.191  63.738  1.00  0.00    -0.576 C  
BRANCH  18  20
HETATM   20  C   UNL     1      -9.962  10.676  64.823  1.00  0.00    -0.391 C  
BRANCH  20  21
HETATM   21  C   UNL     1      -9.122  10.519  66.083  1.00  0.00    -0.184 C  
BRANCH  21  22
HETATM   22  C   UNL     1      -9.504   9.268  66.823  1.00  0.00    -0.175 C  
HETATM   23  O   UNL     1     -10.279   8.411  66.428  1.00  0.00    -0.265 OA 
BRANCH  22  24
HETATM   24  O   UNL     1      -8.965   9.321  68.070  1.00  0.00    -0.128 OA 
BRANCH  24  25
HETATM   25  C   UNL     1      -9.684  10.191  68.958  1.00  0.00    -0.206 C  
BRANCH  25  26
HETATM   26  C   UNL     1     -10.721   9.312  69.680  1.00  0.00    -0.230 C  
BRANCH  26  27
HETATM   27  N   UNL     1     -10.212   8.438  70.740  1.00  0.00    -0.191 NA 
HETATM   28  C   UNL     1     -10.788   8.726  72.070  1.00  0.00    -0.358 C  
HETATM   29  C   UNL     1     -12.262   8.312  72.211  1.00  0.00    -0.370 C  
HETATM   30  O   UNL     1     -12.442   6.923  71.914  1.00  0.00    -0.336 OA 
HETATM   31  C   UNL     1     -11.968   6.612  70.599  1.00  0.00    -0.343 C  
HETATM   32  C   UNL     1     -10.493   7.016  70.420  1.00  0.00    -0.206 C  
ENDBRANCH  26  27
ENDBRANCH  25  26
ENDBRANCH  24  25
ENDBRANCH  22  24
ENDBRANCH  21  22
ENDBRANCH  20  21
ENDBRANCH  18  20
ENDBRANCH  16  17
ENDBRANCH   4  16
ENDBRANCH   2   3
TORSDOF 10
ENDMDL
MODEL       35
REMARK 921   NORMALIZED FREE ENERGY PREDICTED BY IDOCK:   -5.78 KCAL/MOL
REMARK 922        TOTAL FREE ENERGY PREDICTED BY IDOCK:  -10.70 KCAL/MOL
REMARK 923 INTER-LIGAND FREE ENERGY PREDICTED BY IDOCK:  -10.17 KCAL/MOL
REMARK 924 INTRA-LIGAND FREE ENERGY PREDICTED BY IDOCK:   -0.53 KCAL/MOL
REMARK 927      BINDING AFFINITY PREDICTED BY RF-SCORE:    0.00 PKD
ROOT
HETATM    1  C   UNL     1     -12.500   8.574  72.047  1.00  0.00    -0.363 C  
HETATM    2  O   UNL     1     -11.332   9.251  71.588  1.00  0.00    -0.358 OA 
ENDROOT
BRANCH   2   3
HETATM    3  C   UNL     1     -11.313   9.639  70.264  1.00  0.00    -0.257 A  
HETATM    4  C   UNL     1     -11.787  10.909  69.805  1.00  0.00    -0.419 A  
HETATM    5  C   UNL     1     -11.616  11.216  68.435  1.00  0.00    -0.306 A  
HETATM    6  C   UNL     1     -10.474   9.109  68.072  1.00  0.00    -0.276 A  
HETATM    7  O   UNL     1     -12.118  12.335  67.843  1.00  0.00    -0.466 OA 
HETATM    8  C   UNL     1     -10.652   8.732  69.398  1.00  0.00    -0.218 A  
HETATM    9  C   UNL     1     -10.944  10.322  67.611  1.00  0.00    -0.356 A  
HETATM   10  C   UNL     1     -10.590  10.457  66.196  1.00  0.00    -0.090 C  
HETATM   11  C   UNL     1     -10.168   7.398  69.894  1.00  0.00    -0.212 C  
HETATM   12  H   UNL     1     -12.003  12.541  66.923  1.00  0.00     0.000 HD 
HETATM   13  O   UNL     1      -9.934   9.299  65.847  1.00  0.00    -0.307 OA 
HETATM   14  C   UNL     1      -9.836   8.383  66.949  1.00  0.00    -0.245 C  
HETATM   15  O   UNL     1     -10.777  11.393  65.444  1.00  0.00    -0.277 OA 
BRANCH   4  16
HETATM   16  C   UNL     1     -12.521  11.804  70.783  1.00  0.00    -0.405 C  
BRANCH  16  17
HETATM   17  C   UNL     1     -12.309  13.283  70.744  1.00  0.00    -0.425 C  
HETATM   18  C   UNL     1     -13.052  14.221  71.360  1.00  0.00    -0.421 C  
HETATM   19  C   UNL     1     -14.220  13.945  72.270  1.00  0.00    -0.584 C  
BRANCH  18  20
HETATM   20  C   UNL     1     -12.730  15.677  71.128  1.00  0.00    -0.525 C  
BRANCH  20  21
HETATM   21  C   UNL     1     -11.300  15.835  70.630  1.00  0.00    -0.412 C  
BRANCH  21  22
HETATM   22  C   UNL     1     -11.283  16.148  69.160  1.00  0.00    -0.336 C  
HETATM   23  O   UNL     1     -11.734  15.440  68.272  1.00  0.00    -0.360 OA 
BRANCH  22  24
HETATM   24  O   UNL     1     -10.545  17.273  68.965  1.00  0.00    -0.323 OA 
BRANCH  24  25
HETATM   25  C   UNL     1     -10.352  17.587  67.577  1.00  0.00    -0.356 C  
BRANCH  25  26
HETATM   26  C   UNL     1      -8.901  18.083  67.443  1.00  0.00    -0.245 C  
BRANCH  26  27
HETATM   27  N   UNL     1      -8.579  19.349  68.108  1.00  0.00    -0.326 NA 
HETATM   28  C   UNL     1      -7.386  19.273  68.975  1.00  0.00    -0.345 C  
HETATM   29  C   UNL     1      -6.062  19.155  68.202  1.00  0.00    -0.217 C  
HETATM   30  O   UNL     1      -5.901  20.237  67.278  1.00  0.00    -0.169 OA 
HETATM   31  C   UNL     1      -7.001  20.301  66.363  1.00  0.00    -0.258 C  
HETATM   32  C   UNL     1      -8.347  20.418  67.104  1.00  0.00    -0.318 C  
ENDBRANCH  26  27
ENDBRANCH  25  26
ENDBRANCH  24  25
ENDBRANCH  22  24
ENDBRANCH  21  22
ENDBRANCH  20  21
ENDBRANCH  18  20
ENDBRANCH  16  17
ENDBRANCH   4  16
ENDBRANCH   2   3
TORSDOF 10
ENDMDL
MODEL       36
REMARK 921   NORMALIZED FREE ENERGY PREDICTED BY IDOCK:   -5.78 KCAL/MOL
REMARK 922        TOTAL FREE ENERGY PREDICTED BY IDOCK:  -10.70 KCAL/MOL
REMARK 923 INTER-LIGAND FREE ENERGY PREDICTED BY IDOCK:   -9.59 KCAL/MOL
REMARK 924 INTRA-LIGAND FREE ENERGY PREDICTED BY IDOCK:   -1.11 KCAL/MOL
REMARK 927      BINDING AFFINITY PREDICTED BY RF-SCORE:    0.00 PKD
ROOT
HETATM    1  C   UNL     1     -10.877  19.271  67.084  1.00  0.00    -0.440 C  
HETATM    2  O   UNL     1      -9.878  19.405  68.093  1.00  0.00    -0.343 OA 
ENDROOT
BRANCH   2   3
HETATM    3  C   UNL     1      -8.977  18.368  68.223  1.00  0.00    -0.312 A  
HETATM    4  C   UNL     1      -9.254  17.167  68.951  1.00  0.00    -0.200 A  
HETATM    5  C   UNL     1      -8.279  16.142  68.919  1.00  0.00    -0.229 A  
HETATM    6  C   UNL     1      -6.896  17.460  67.427  1.00  0.00    -0.183 A  
HETATM    7  O   UNL     1      -8.361  14.999  69.653  1.00  0.00    -0.401 OA 
HETATM    8  C   UNL     1      -7.796  18.519  67.455  1.00  0.00    -0.241 A  
HETATM    9  C   UNL     1      -7.140  16.304  68.140  1.00  0.00    -0.141 A  
HETATM   10  C   UNL     1      -6.044  15.362  67.899  1.00  0.00    -0.150 C  
HETATM   11  C   UNL     1      -7.516  19.791  66.703  1.00  0.00    -0.276 C  
HETATM   12  H   UNL     1      -7.706  14.311  69.632  1.00  0.00     0.000 HD 
HETATM   13  O   UNL     1      -5.161  16.001  67.060  1.00  0.00    -0.332 OA 
HETATM   14  C   UNL     1      -5.596  17.329  66.730  1.00  0.00    -0.189 C  
HETATM   15  O   UNL     1      -5.910  14.223  68.301  1.00  0.00    -0.097 OA 
BRANCH   4  16
HETATM   16  C   UNL     1     -10.520  17.099  69.782  1.00  0.00     0.077 C  
BRANCH  16  17
HETATM   17  C   UNL     1     -11.279  15.816  69.879  1.00  0.00    -0.335 C  
HETATM   18  C   UNL     1     -11.890  15.321  70.972  1.00  0.00    -0.394 C  
HETATM   19  C   UNL     1     -11.976  16.012  72.307  1.00  0.00    -0.633 C  
BRANCH  18  20
HETATM   20  C   UNL     1     -12.536  13.959  70.895  1.00  0.00    -0.447 C  
BRANCH  20  21
HETATM   21  C   UNL     1     -12.225  13.295  69.560  1.00  0.00    -0.233 C  
BRANCH  21  22
HETATM   22  C   UNL     1     -11.998  11.821  69.742  1.00  0.00    -0.322 C  
HETATM   23  O   UNL     1     -11.978  11.225  70.808  1.00  0.00    -0.339 OA 
BRANCH  22  24
HETATM   24  O   UNL     1     -11.665  11.283  68.538  1.00  0.00    -0.333 OA 
BRANCH  24  25
HETATM   25  C   UNL     1     -10.517  11.907  67.941  1.00  0.00    -0.204 C  
BRANCH  25  26
HETATM   26  C   UNL     1     -10.794  11.965  66.428  1.00  0.00    -0.279 C  
BRANCH  26  27
HETATM   27  N   UNL     1     -10.477  13.227  65.753  1.00  0.00    -0.280 NA 
HETATM   28  C   UNL     1     -10.445  13.118  64.281  1.00  0.00    -0.389 C  
HETATM   29  C   UNL     1     -11.832  12.935  63.642  1.00  0.00    -0.532 C  
HETATM   30  O   UNL     1     -12.719  13.996  64.013  1.00  0.00    -0.654 OA 
HETATM   31  C   UNL     1     -12.843  14.089  65.437  1.00  0.00    -0.410 C  
HETATM   32  C   UNL     1     -11.471  14.270  66.112  1.00  0.00    -0.355 C  
ENDBRANCH  26  27
ENDBRANCH  25  26
ENDBRANCH  24  25
ENDBRANCH  22  24
ENDBRANCH  21  22
ENDBRANCH  20  21
ENDBRANCH  18  20
ENDBRANCH  16  17
ENDBRANCH   4  16
ENDBRANCH   2   3
TORSDOF 10
ENDMDL
MODEL       37
REMARK 921   NORMALIZED FREE ENERGY PREDICTED BY IDOCK:   -5.76 KCAL/MOL
REMARK 922        TOTAL FREE ENERGY PREDICTED BY IDOCK:  -10.67 KCAL/MOL
REMARK 923 INTER-LIGAND FREE ENERGY PREDICTED BY IDOCK:   -9.44 KCAL/MOL
REMARK 924 INTRA-LIGAND FREE ENERGY PREDICTED BY IDOCK:   -1.23 KCAL/MOL
REMARK 927      BINDING AFFINITY PREDICTED BY RF-SCORE:    0.00 PKD
ROOT
HETATM    1  C   UNL     1     -11.595  12.144  66.878  1.00  0.00    -0.341 C  
HETATM    2  O   UNL     1     -10.953  12.007  68.144  1.00  0.00    -0.207 OA 
ENDROOT
BRANCH   2   3
HETATM    3  C   UNL     1     -11.542  12.646  69.216  1.00  0.00    -0.318 A  
HETATM    4  C   UNL     1     -12.242  11.960  70.259  1.00  0.00    -0.353 A  
HETATM    5  C   UNL     1     -12.710  12.729  71.350  1.00  0.00    -0.255 A  
HETATM    6  C   UNL     1     -11.725  14.731  70.404  1.00  0.00    -0.350 A  
HETATM    7  O   UNL     1     -13.484  12.227  72.351  1.00  0.00    -0.611 OA 
HETATM    8  C   UNL     1     -11.278  14.037  69.285  1.00  0.00    -0.304 A  
HETATM    9  C   UNL     1     -12.419  14.085  71.407  1.00  0.00    -0.438 A  
HETATM   10  C   UNL     1     -12.733  15.055  72.461  1.00  0.00    -0.353 C  
HETATM   11  C   UNL     1     -10.550  14.745  68.178  1.00  0.00    -0.241 C  
HETATM   12  H   UNL     1     -13.799  12.743  73.084  1.00  0.00     0.000 HD 
HETATM   13  O   UNL     1     -12.231  16.264  72.038  1.00  0.00    -0.468 OA 
HETATM   14  C   UNL     1     -11.606  16.166  70.749  1.00  0.00    -0.351 C  
HETATM   15  O   UNL     1     -13.286  14.875  73.528  1.00  0.00    -0.532 OA 
BRANCH   4  16
HETATM   16  C   UNL     1     -12.521  10.479  70.091  1.00  0.00    -0.297 C  
BRANCH  16  17
HETATM   17  C   UNL     1     -11.898   9.494  71.026  1.00  0.00    -0.408 C  
HETATM   18  C   UNL     1     -12.540   8.683  71.888  1.00  0.00    -0.411 C  
HETATM   19  C   UNL     1     -14.036   8.574  72.029  1.00  0.00    -0.494 C  
BRANCH  18  20
HETATM   20  C   UNL     1     -11.729   7.813  72.817  1.00  0.00    -0.312 C  
BRANCH  20  21
HETATM   21  C   UNL     1     -10.595   7.135  72.059  1.00  0.00    -0.237 C  
BRANCH  21  22
HETATM   22  C   UNL     1     -10.946   5.706  71.749  1.00  0.00    -0.226 C  
HETATM   23  O   UNL     1     -10.857   4.764  72.520  1.00  0.00    -0.201 OA 
BRANCH  22  24
HETATM   24  O   UNL     1     -11.231   5.609  70.422  1.00  0.00    -0.231 OA 
BRANCH  24  25
HETATM   25  C   UNL     1     -10.057   5.498  69.601  1.00  0.00    -0.239 C  
BRANCH  25  26
HETATM   26  C   UNL     1     -10.341   6.315  68.328  1.00  0.00    -0.194 C  
BRANCH  26  27
HETATM   27  N   UNL     1     -10.275   7.774  68.459  1.00  0.00    -0.200 NA 
HETATM   28  C   UNL     1      -8.978   8.262  68.971  1.00  0.00    -0.147 C  
HETATM   29  C   UNL     1      -7.826   8.138  67.961  1.00  0.00    -0.122 C  
HETATM   30  O   UNL     1      -8.132   8.816  66.737  1.00  0.00    -0.102 OA 
HETATM   31  C   UNL     1      -9.345   8.317  66.162  1.00  0.00    -0.188 C  
HETATM   32  C   UNL     1     -10.524   8.424  67.148  1.00  0.00    -0.310 C  
ENDBRANCH  26  27
ENDBRANCH  25  26
ENDBRANCH  24  25
ENDBRANCH  22  24
ENDBRANCH  21  22
ENDBRANCH  20  21
ENDBRANCH  18  20
ENDBRANCH  16  17
ENDBRANCH   4  16
ENDBRANCH   2   3
TORSDOF 10
ENDMDL
MODEL       38
REMARK 921   NORMALIZED FREE ENERGY PREDICTED BY IDOCK:   -5.76 KCAL/MOL
REMARK 922        TOTAL FREE ENERGY PREDICTED BY IDOCK:  -10.67 KCAL/MOL
REMARK 923 INTER-LIGAND FREE ENERGY PREDICTED BY IDOCK:   -9.03 KCAL/MOL
REMARK 924 INTRA-LIGAND FREE ENERGY PREDICTED BY IDOCK:   -1.64 KCAL/MOL
REMARK 927      BINDING AFFINITY PREDICTED BY RF-SCORE:    0.00 PKD
ROOT
HETATM    1  C   UNL     1     -11.030  10.432  67.335  1.00  0.00    -0.270 C  
HETATM    2  O   UNL     1     -10.447  11.007  68.503  1.00  0.00    -0.172 OA 
ENDROOT
BRANCH   2   3
HETATM    3  C   UNL     1     -11.288  11.710  69.341  1.00  0.00    -0.278 A  
HETATM    4  C   UNL     1     -11.985  11.117  70.442  1.00  0.00    -0.469 A  
HETATM    5  C   UNL     1     -12.736  11.973  71.280  1.00  0.00    -0.279 A  
HETATM    6  C   UNL     1     -12.021  13.905  70.002  1.00  0.00    -0.404 A  
HETATM    7  O   UNL     1     -13.534  11.532  72.291  1.00  0.00    -0.602 OA 
HETATM    8  C   UNL     1     -11.302  13.110  69.117  1.00  0.00    -0.335 A  
HETATM    9  C   UNL     1     -12.714  13.344  71.055  1.00  0.00    -0.387 A  
HETATM   10  C   UNL     1     -13.347  14.417  71.826  1.00  0.00    -0.366 C  
HETATM   11  C   UNL     1     -10.571  13.716  67.952  1.00  0.00    -0.255 C  
HETATM   12  H   UNL     1     -14.038  12.107  72.854  1.00  0.00     0.000 HD 
HETATM   13  O   UNL     1     -13.027  15.594  71.189  1.00  0.00    -0.480 OA 
HETATM   14  C   UNL     1     -12.222  15.372  70.021  1.00  0.00    -0.361 C  
HETATM   15  O   UNL     1     -14.000  14.344  72.849  1.00  0.00    -0.564 OA 
BRANCH   4  16
HETATM   16  C   UNL     1     -11.956   9.608  70.588  1.00  0.00    -0.304 C  
BRANCH  16  17
HETATM   17  C   UNL     1     -11.185   8.984  71.706  1.00  0.00    -0.448 C  
HETATM   18  C   UNL     1     -11.383   7.764  72.240  1.00  0.00    -0.374 C  
HETATM   19  C   UNL     1     -12.399   6.760  71.760  1.00  0.00    -0.400 C  
BRANCH  18  20
HETATM   20  C   UNL     1     -10.554   7.342  73.428  1.00  0.00    -0.435 C  
BRANCH  20  21
HETATM   21  C   UNL     1      -9.213   8.063  73.426  1.00  0.00    -0.332 C  
BRANCH  21  22
HETATM   22  C   UNL     1      -8.151   7.207  72.794  1.00  0.00    -0.106 C  
HETATM   23  O   UNL     1      -7.499   6.343  73.359  1.00  0.00    -0.086 OA 
BRANCH  22  24
HETATM   24  O   UNL     1      -7.927   7.658  71.531  1.00  0.00    -0.091 OA 
BRANCH  24  25
HETATM   25  C   UNL     1      -7.609   6.606  70.606  1.00  0.00    -0.095 C  
BRANCH  25  26
HETATM   26  C   UNL     1      -8.926   6.237  69.900  1.00  0.00    -0.141 C  
BRANCH  26  27
HETATM   27  N   UNL     1      -9.489   7.246  68.999  1.00  0.00    -0.148 NA 
HETATM   28  C   UNL     1      -8.593   7.603  67.880  1.00  0.00    -0.122 C  
HETATM   29  C   UNL     1      -8.452   6.499  66.820  1.00  0.00    -0.113 C  
HETATM   30  O   UNL     1      -9.728   6.117  66.294  1.00  0.00    -0.146 OA 
HETATM   31  C   UNL     1     -10.608   5.686  67.339  1.00  0.00    -0.237 C  
HETATM   32  C   UNL     1     -10.771   6.769  68.423  1.00  0.00    -0.232 C  
ENDBRANCH  26  27
ENDBRANCH  25  26
ENDBRANCH  24  25
ENDBRANCH  22  24
ENDBRANCH  21  22
ENDBRANCH  20  21
ENDBRANCH  18  20
ENDBRANCH  16  17
ENDBRANCH   4  16
ENDBRANCH   2   3
TORSDOF 10
ENDMDL
MODEL       39
REMARK 921   NORMALIZED FREE ENERGY PREDICTED BY IDOCK:   -5.74 KCAL/MOL
REMARK 922        TOTAL FREE ENERGY PREDICTED BY IDOCK:  -10.64 KCAL/MOL
REMARK 923 INTER-LIGAND FREE ENERGY PREDICTED BY IDOCK:   -9.15 KCAL/MOL
REMARK 924 INTRA-LIGAND FREE ENERGY PREDICTED BY IDOCK:   -1.49 KCAL/MOL
REMARK 927      BINDING AFFINITY PREDICTED BY RF-SCORE:    0.00 PKD
ROOT
HETATM    1  C   UNL     1      -8.467   9.016  65.994  1.00  0.00    -0.130 C  
HETATM    2  O   UNL     1      -8.326  10.067  66.948  1.00  0.00    -0.124 OA 
ENDROOT
BRANCH   2   3
HETATM    3  C   UNL     1      -9.167  10.035  68.042  1.00  0.00    -0.134 A  
HETATM    4  C   UNL     1     -10.569  10.311  67.970  1.00  0.00    -0.272 A  
HETATM    5  C   UNL     1     -11.331  10.144  69.150  1.00  0.00    -0.143 A  
HETATM    6  C   UNL     1      -9.368   9.378  70.348  1.00  0.00    -0.317 A  
HETATM    7  O   UNL     1     -12.647  10.477  69.254  1.00  0.00    -0.726 OA 
HETATM    8  C   UNL     1      -8.559   9.564  69.233  1.00  0.00    -0.149 A  
HETATM    9  C   UNL     1     -10.718   9.659  70.298  1.00  0.00    -0.335 A  
HETATM   10  C   UNL     1     -11.312   9.341  71.600  1.00  0.00    -0.397 C  
HETATM   11  C   UNL     1      -7.083   9.287  69.294  1.00  0.00    -0.057 C  
HETATM   12  H   UNL     1     -13.158  10.365  70.046  1.00  0.00     0.000 HD 
HETATM   13  O   UNL     1     -10.284   8.898  72.399  1.00  0.00    -0.251 OA 
HETATM   14  C   UNL     1      -9.024   8.910  71.710  1.00  0.00    -0.133 C  
HETATM   15  O   UNL     1     -12.476   9.401  71.946  1.00  0.00    -0.360 OA 
BRANCH   4  16
HETATM   16  C   UNL     1     -11.135  10.852  66.672  1.00  0.00    -0.155 C  
BRANCH  16  17
HETATM   17  C   UNL     1     -11.193  12.327  66.442  1.00  0.00    -0.370 C  
HETATM   18  C   UNL     1     -11.768  12.959  65.401  1.00  0.00    -0.413 C  
HETATM   19  C   UNL     1     -12.525  12.286  64.286  1.00  0.00    -0.508 C  
BRANCH  18  20
HETATM   20  C   UNL     1     -11.647  14.460  65.299  1.00  0.00    -0.353 C  
BRANCH  20  21
HETATM   21  C   UNL     1     -10.188  14.868  65.142  1.00  0.00    -0.409 C  
BRANCH  21  22
HETATM   22  C   UNL     1      -9.898  16.114  65.931  1.00  0.00    -0.353 C  
HETATM   23  O   UNL     1     -10.342  17.228  65.699  1.00  0.00    -0.580 OA 
BRANCH  22  24
HETATM   24  O   UNL     1      -8.940  15.830  66.853  1.00  0.00    -0.208 OA 
BRANCH  24  25
HETATM   25  C   UNL     1      -9.043  16.634  68.039  1.00  0.00    -0.218 C  
BRANCH  25  26
HETATM   26  C   UNL     1      -9.776  15.773  69.083  1.00  0.00    -0.250 C  
BRANCH  26  27
HETATM   27  N   UNL     1     -11.176  16.118  69.347  1.00  0.00    -0.331 NA 
HETATM   28  C   UNL     1     -12.135  15.106  68.858  1.00  0.00    -0.194 C  
HETATM   29  C   UNL     1     -12.131  13.803  69.673  1.00  0.00    -0.336 C  
HETATM   30  O   UNL     1     -12.385  14.056  71.060  1.00  0.00    -0.333 OA 
HETATM   31  C   UNL     1     -11.427  14.974  71.599  1.00  0.00    -0.313 C  
HETATM   32  C   UNL     1     -11.400  16.294  70.804  1.00  0.00    -0.299 C  
ENDBRANCH  26  27
ENDBRANCH  25  26
ENDBRANCH  24  25
ENDBRANCH  22  24
ENDBRANCH  21  22
ENDBRANCH  20  21
ENDBRANCH  18  20
ENDBRANCH  16  17
ENDBRANCH   4  16
ENDBRANCH   2   3
TORSDOF 10
ENDMDL
MODEL       40
REMARK 921   NORMALIZED FREE ENERGY PREDICTED BY IDOCK:   -5.73 KCAL/MOL
REMARK 922        TOTAL FREE ENERGY PREDICTED BY IDOCK:  -10.62 KCAL/MOL
REMARK 923 INTER-LIGAND FREE ENERGY PREDICTED BY IDOCK:  -10.32 KCAL/MOL
REMARK 924 INTRA-LIGAND FREE ENERGY PREDICTED BY IDOCK:   -0.31 KCAL/MOL
REMARK 927      BINDING AFFINITY PREDICTED BY RF-SCORE:    0.00 PKD
ROOT
HETATM    1  C   UNL     1     -14.305   8.155  71.509  1.00  0.00    -0.430 C  
HETATM    2  O   UNL     1     -13.189   8.603  72.274  1.00  0.00    -0.365 OA 
ENDROOT
BRANCH   2   3
HETATM    3  C   UNL     1     -11.966   8.641  71.634  1.00  0.00    -0.326 A  
HETATM    4  C   UNL     1     -11.457   9.802  70.970  1.00  0.00    -0.458 A  
HETATM    5  C   UNL     1     -10.147   9.732  70.442  1.00  0.00    -0.252 A  
HETATM    6  C   UNL     1      -9.883   7.483  71.304  1.00  0.00    -0.188 A  
HETATM    7  O   UNL     1      -9.581  10.718  69.692  1.00  0.00    -0.426 OA 
HETATM    8  C   UNL     1     -11.179   7.474  71.807  1.00  0.00    -0.281 A  
HETATM    9  C   UNL     1      -9.386   8.588  70.644  1.00  0.00    -0.202 A  
HETATM   10  C   UNL     1      -7.999   8.319  70.257  1.00  0.00    -0.102 C  
HETATM   11  C   UNL     1     -11.732   6.260  72.499  1.00  0.00    -0.245 C  
HETATM   12  H   UNL     1      -8.701  10.671  69.337  1.00  0.00     0.000 HD 
HETATM   13  O   UNL     1      -7.716   7.042  70.684  1.00  0.00    -0.092 OA 
HETATM   14  C   UNL     1      -8.843   6.428  71.327  1.00  0.00    -0.138 C  
HETATM   15  O   UNL     1      -7.201   9.053  69.706  1.00  0.00    -0.052 OA 
BRANCH   4  16
HETATM   16  C   UNL     1     -12.375  10.994  70.789  1.00  0.00    -0.496 C  
BRANCH  16  17
HETATM   17  C   UNL     1     -12.197  11.901  69.615  1.00  0.00    -0.216 C  
HETATM   18  C   UNL     1     -12.112  13.245  69.639  1.00  0.00    -0.331 C  
HETATM   19  C   UNL     1     -12.121  14.093  70.883  1.00  0.00    -0.416 C  
BRANCH  18  20
HETATM   20  C   UNL     1     -12.019  13.995  68.333  1.00  0.00    -0.378 C  
BRANCH  20  21
HETATM   21  C   UNL     1     -11.843  13.025  67.172  1.00  0.00    -0.431 C  
BRANCH  21  22
HETATM   22  C   UNL     1     -12.058  13.725  65.859  1.00  0.00    -0.433 C  
HETATM   23  O   UNL     1     -13.103  13.758  65.229  1.00  0.00    -0.756 OA 
BRANCH  22  24
HETATM   24  O   UNL     1     -10.859  14.186  65.413  1.00  0.00    -0.308 OA 
BRANCH  24  25
HETATM   25  C   UNL     1     -10.900  15.565  65.012  1.00  0.00    -0.450 C  
BRANCH  25  26
HETATM   26  C   UNL     1     -10.486  16.387  66.246  1.00  0.00    -0.293 C  
BRANCH  26  27
HETATM   27  N   UNL     1      -9.662  17.573  65.994  1.00  0.00    -0.516 NA 
HETATM   28  C   UNL     1     -10.413  18.842  66.081  1.00  0.00    -0.457 C  
HETATM   29  C   UNL     1     -10.819  19.227  67.513  1.00  0.00    -0.415 C  
HETATM   30  O   UNL     1      -9.677  19.298  68.375  1.00  0.00    -0.350 OA 
HETATM   31  C   UNL     1      -8.960  18.058  68.384  1.00  0.00    -0.279 C  
HETATM   32  C   UNL     1      -8.539  17.639  66.962  1.00  0.00    -0.237 C  
ENDBRANCH  26  27
ENDBRANCH  25  26
ENDBRANCH  24  25
ENDBRANCH  22  24
ENDBRANCH  21  22
ENDBRANCH  20  21
ENDBRANCH  18  20
ENDBRANCH  16  17
ENDBRANCH   4  16
ENDBRANCH   2   3
TORSDOF 10
ENDMDL
MODEL       41
REMARK 921   NORMALIZED FREE ENERGY PREDICTED BY IDOCK:   -5.72 KCAL/MOL
REMARK 922        TOTAL FREE ENERGY PREDICTED BY IDOCK:  -10.60 KCAL/MOL
REMARK 923 INTER-LIGAND FREE ENERGY PREDICTED BY IDOCK:  -10.11 KCAL/MOL
REMARK 924 INTRA-LIGAND FREE ENERGY PREDICTED BY IDOCK:   -0.49 KCAL/MOL
REMARK 927      BINDING AFFINITY PREDICTED BY RF-SCORE:    0.00 PKD
ROOT
HETATM    1  C   UNL     1     -11.130  12.419  68.923  1.00  0.00    -0.258 C  
HETATM    2  O   UNL     1     -11.956  11.688  68.019  1.00  0.00    -0.577 OA 
ENDROOT
BRANCH   2   3
HETATM    3  C   UNL     1     -11.408  11.361  66.795  1.00  0.00    -0.179 A  
HETATM    4  C   UNL     1     -11.543  12.175  65.626  1.00  0.00    -0.409 A  
HETATM    5  C   UNL     1     -10.846  11.773  64.463  1.00  0.00    -0.321 A  
HETATM    6  C   UNL     1      -9.876   9.897  65.654  1.00  0.00    -0.368 A  
HETATM    7  O   UNL     1     -10.972  12.387  63.255  1.00  0.00    -0.593 OA 
HETATM    8  C   UNL     1     -10.571  10.217  66.815  1.00  0.00    -0.252 A  
HETATM    9  C   UNL     1     -10.013  10.662  64.514  1.00  0.00    -0.410 A  
HETATM   10  C   UNL     1      -9.148  10.107  63.469  1.00  0.00    -0.275 C  
HETATM   11  C   UNL     1     -10.447   9.368  68.049  1.00  0.00    -0.278 C  
HETATM   12  H   UNL     1     -10.504  12.117  62.474  1.00  0.00     0.000 HD 
HETATM   13  O   UNL     1      -8.534   9.005  64.018  1.00  0.00    -0.180 OA 
HETATM   14  C   UNL     1      -8.948   8.778  65.374  1.00  0.00    -0.160 C  
HETATM   15  O   UNL     1      -8.945  10.517  62.343  1.00  0.00    -0.218 OA 
BRANCH   4  16
HETATM   16  C   UNL     1     -12.489  13.358  65.673  1.00  0.00    -0.519 C  
BRANCH  16  17
HETATM   17  C   UNL     1     -12.124  14.574  66.461  1.00  0.00    -0.330 C  
HETATM   18  C   UNL     1     -10.961  15.250  66.408  1.00  0.00    -0.299 C  
HETATM   19  C   UNL     1      -9.815  14.936  65.483  1.00  0.00    -0.348 C  
BRANCH  18  20
HETATM   20  C   UNL     1     -10.745  16.410  67.350  1.00  0.00    -0.278 C  
BRANCH  20  21
HETATM   21  C   UNL     1      -9.644  17.324  66.828  1.00  0.00    -0.279 C  
BRANCH  21  22
HETATM   22  C   UNL     1     -10.233  18.529  66.150  1.00  0.00    -0.398 C  
HETATM   23  O   UNL     1     -10.999  18.512  65.198  1.00  0.00    -0.571 OA 
BRANCH  22  24
HETATM   24  O   UNL     1      -9.653  19.644  66.669  1.00  0.00    -0.331 OA 
BRANCH  24  25
HETATM   25  C   UNL     1      -8.287  19.811  66.257  1.00  0.00    -0.357 C  
BRANCH  25  26
HETATM   26  C   UNL     1      -7.581  20.569  67.396  1.00  0.00    -0.339 C  
BRANCH  26  27
HETATM   27  N   UNL     1      -6.163  20.263  67.604  1.00  0.00    -0.214 NA 
HETATM   28  C   UNL     1      -5.630  20.775  68.883  1.00  0.00    -0.356 C  
HETATM   29  C   UNL     1      -6.143  20.017  70.118  1.00  0.00    -0.358 C  
HETATM   30  O   UNL     1      -5.862  18.616  70.022  1.00  0.00    -0.249 OA 
HETATM   31  C   UNL     1      -6.430  18.058  68.831  1.00  0.00    -0.229 C  
HETATM   32  C   UNL     1      -5.939  18.796  67.571  1.00  0.00    -0.179 C  
ENDBRANCH  26  27
ENDBRANCH  25  26
ENDBRANCH  24  25
ENDBRANCH  22  24
ENDBRANCH  21  22
ENDBRANCH  20  21
ENDBRANCH  18  20
ENDBRANCH  16  17
ENDBRANCH   4  16
ENDBRANCH   2   3
TORSDOF 10
ENDMDL
MODEL       42
REMARK 921   NORMALIZED FREE ENERGY PREDICTED BY IDOCK:   -5.71 KCAL/MOL
REMARK 922        TOTAL FREE ENERGY PREDICTED BY IDOCK:  -10.59 KCAL/MOL
REMARK 923 INTER-LIGAND FREE ENERGY PREDICTED BY IDOCK:   -9.65 KCAL/MOL
REMARK 924 INTRA-LIGAND FREE ENERGY PREDICTED BY IDOCK:   -0.94 KCAL/MOL
REMARK 927      BINDING AFFINITY PREDICTED BY RF-SCORE:    0.00 PKD
ROOT
HETATM    1  C   UNL     1     -10.956  11.497  63.390  1.00  0.00    -0.315 C  
HETATM    2  O   UNL     1      -9.945  11.589  64.391  1.00  0.00    -0.246 OA 
ENDROOT
BRANCH   2   3
HETATM    3  C   UNL     1     -10.064  10.751  65.481  1.00  0.00    -0.274 A  
HETATM    4  C   UNL     1     -10.930  11.014  66.590  1.00  0.00    -0.253 A  
HETATM    5  C   UNL     1     -11.031  10.022  67.592  1.00  0.00    -0.234 A  
HETATM    6  C   UNL     1      -9.539   8.570  66.351  1.00  0.00    -0.314 A  
HETATM    7  O   UNL     1     -11.727  10.186  68.751  1.00  0.00    -0.510 OA 
HETATM    8  C   UNL     1      -9.365   9.524  65.355  1.00  0.00    -0.324 A  
HETATM    9  C   UNL     1     -10.355   8.818  67.436  1.00  0.00    -0.349 A  
HETATM   10  C   UNL     1     -10.368   7.632  68.296  1.00  0.00    -0.198 C  
HETATM   11  C   UNL     1      -8.453   9.267  64.189  1.00  0.00    -0.203 C  
HETATM   12  H   UNL     1     -11.795   9.520  69.424  1.00  0.00     0.000 HD 
HETATM   13  O   UNL     1      -9.533   6.713  67.703  1.00  0.00    -0.125 OA 
HETATM   14  C   UNL     1      -8.947   7.220  66.494  1.00  0.00    -0.152 C  
HETATM   15  O   UNL     1     -10.998   7.431  69.315  1.00  0.00    -0.180 OA 
BRANCH   4  16
HETATM   16  C   UNL     1     -11.610  12.367  66.672  1.00  0.00    -0.447 C  
BRANCH  16  17
HETATM   17  C   UNL     1     -10.792  13.616  66.624  1.00  0.00    -0.283 C  
HETATM   18  C   UNL     1     -10.945  14.649  65.775  1.00  0.00    -0.330 C  
HETATM   19  C   UNL     1     -12.030  14.766  64.737  1.00  0.00    -0.408 C  
BRANCH  18  20
HETATM   20  C   UNL     1      -9.959  15.790  65.826  1.00  0.00    -0.389 C  
BRANCH  20  21
HETATM   21  C   UNL     1     -10.265  16.709  67.002  1.00  0.00    -0.290 C  
BRANCH  21  22
HETATM   22  C   UNL     1      -9.348  16.416  68.155  1.00  0.00    -0.209 C  
HETATM   23  O   UNL     1      -8.166  16.118  68.073  1.00  0.00    -0.148 OA 
BRANCH  22  24
HETATM   24  O   UNL     1     -10.086  16.385  69.297  1.00  0.00    -0.255 OA 
BRANCH  24  25
HETATM   25  C   UNL     1     -11.496  16.267  69.053  1.00  0.00    -0.268 C  
BRANCH  25  26
HETATM   26  C   UNL     1     -12.058  15.379  70.178  1.00  0.00    -0.369 C  
BRANCH  26  27
HETATM   27  N   UNL     1     -12.975  16.023  71.123  1.00  0.00    -0.289 NA 
HETATM   28  C   UNL     1     -14.103  15.161  71.531  1.00  0.00    -0.540 C  
HETATM   29  C   UNL     1     -13.698  14.005  72.459  1.00  0.00    -0.547 C  
HETATM   30  O   UNL     1     -13.031  14.488  73.631  1.00  0.00    -0.502 OA 
HETATM   31  C   UNL     1     -11.880  15.267  73.284  1.00  0.00    -0.364 C  
HETATM   32  C   UNL     1     -12.248  16.435  72.350  1.00  0.00    -0.339 C  
ENDBRANCH  26  27
ENDBRANCH  25  26
ENDBRANCH  24  25
ENDBRANCH  22  24
ENDBRANCH  21  22
ENDBRANCH  20  21
ENDBRANCH  18  20
ENDBRANCH  16  17
ENDBRANCH   4  16
ENDBRANCH   2   3
TORSDOF 10
ENDMDL
MODEL       43
REMARK 921   NORMALIZED FREE ENERGY PREDICTED BY IDOCK:   -5.70 KCAL/MOL
REMARK 922        TOTAL FREE ENERGY PREDICTED BY IDOCK:  -10.58 KCAL/MOL
REMARK 923 INTER-LIGAND FREE ENERGY PREDICTED BY IDOCK:   -9.47 KCAL/MOL
REMARK 924 INTRA-LIGAND FREE ENERGY PREDICTED BY IDOCK:   -1.11 KCAL/MOL
REMARK 927      BINDING AFFINITY PREDICTED BY RF-SCORE:    0.00 PKD
ROOT
HETATM    1  C   UNL     1     -10.787   6.025  68.687  1.00  0.00    -0.307 C  
HETATM    2  O   UNL     1     -10.112   6.691  69.752  1.00  0.00    -0.177 OA 
ENDROOT
BRANCH   2   3
HETATM    3  C   UNL     1     -10.574   7.944  70.099  1.00  0.00    -0.237 A  
HETATM    4  C   UNL     1     -10.136   9.151  69.466  1.00  0.00    -0.202 A  
HETATM    5  C   UNL     1     -10.766  10.358  69.850  1.00  0.00    -0.279 A  
HETATM    6  C   UNL     1     -12.242   9.150  71.345  1.00  0.00    -0.407 A  
HETATM    7  O   UNL     1     -10.374  11.587  69.415  1.00  0.00    -0.426 OA 
HETATM    8  C   UNL     1     -11.632   7.938  71.041  1.00  0.00    -0.299 A  
HETATM    9  C   UNL     1     -11.816  10.324  70.758  1.00  0.00    -0.459 A  
HETATM   10  C   UNL     1     -12.655  11.423  71.243  1.00  0.00    -0.374 C  
HETATM   11  C   UNL     1     -12.075   6.663  71.703  1.00  0.00    -0.404 C  
HETATM   12  H   UNL     1     -10.796  12.397  69.672  1.00  0.00     0.000 HD 
HETATM   13  O   UNL     1     -13.549  10.868  72.130  1.00  0.00    -0.280 OA 
HETATM   14  C   UNL     1     -13.350   9.454  72.280  1.00  0.00    -0.461 C  
HETATM   15  O   UNL     1     -12.636  12.597  70.931  1.00  0.00    -0.338 OA 
BRANCH   4  16
HETATM   16  C   UNL     1      -8.970   9.080  68.500  1.00  0.00    -0.133 C  
BRANCH  16  17
HETATM   17  C   UNL     1      -9.125   9.598  67.107  1.00  0.00    -0.152 C  
HETATM   18  C   UNL     1      -9.097   8.876  65.970  1.00  0.00    -0.265 C  
HETATM   19  C   UNL     1      -8.962   7.378  65.895  1.00  0.00    -0.114 C  
BRANCH  18  20
HETATM   20  C   UNL     1      -9.185   9.594  64.645  1.00  0.00    -0.293 C  
BRANCH  20  21
HETATM   21  C   UNL     1     -10.163  10.759  64.734  1.00  0.00    -0.403 C  
BRANCH  21  22
HETATM   22  C   UNL     1     -10.063  11.629  63.512  1.00  0.00    -0.425 C  
HETATM   23  O   UNL     1      -9.389  11.396  62.521  1.00  0.00    -0.317 OA 
BRANCH  22  24
HETATM   24  O   UNL     1     -10.722  12.793  63.755  1.00  0.00    -0.413 OA 
BRANCH  24  25
HETATM   25  C   UNL     1     -11.700  12.678  64.801  1.00  0.00    -0.352 C  
BRANCH  25  26
HETATM   26  C   UNL     1     -11.483  13.885  65.731  1.00  0.00    -0.321 C  
BRANCH  26  27
HETATM   27  N   UNL     1     -10.138  14.467  65.744  1.00  0.00    -0.324 NA 
HETATM   28  C   UNL     1     -10.133  15.943  65.712  1.00  0.00    -0.361 C  
HETATM   29  C   UNL     1     -10.604  16.595  67.022  1.00  0.00    -0.247 C  
HETATM   30  O   UNL     1      -9.822  16.149  68.135  1.00  0.00    -0.223 OA 
HETATM   31  C   UNL     1      -9.861  14.722  68.253  1.00  0.00    -0.222 C  
HETATM   32  C   UNL     1      -9.398  14.034  66.955  1.00  0.00    -0.250 C  
ENDBRANCH  26  27
ENDBRANCH  25  26
ENDBRANCH  24  25
ENDBRANCH  22  24
ENDBRANCH  21  22
ENDBRANCH  20  21
ENDBRANCH  18  20
ENDBRANCH  16  17
ENDBRANCH   4  16
ENDBRANCH   2   3
TORSDOF 10
ENDMDL
MODEL       44
REMARK 921   NORMALIZED FREE ENERGY PREDICTED BY IDOCK:   -5.70 KCAL/MOL
REMARK 922        TOTAL FREE ENERGY PREDICTED BY IDOCK:  -10.57 KCAL/MOL
REMARK 923 INTER-LIGAND FREE ENERGY PREDICTED BY IDOCK:   -9.12 KCAL/MOL
REMARK 924 INTRA-LIGAND FREE ENERGY PREDICTED BY IDOCK:   -1.45 KCAL/MOL
REMARK 927      BINDING AFFINITY PREDICTED BY RF-SCORE:    0.00 PKD
ROOT
HETATM    1  C   UNL     1      -9.149   8.339  67.197  1.00  0.00    -0.139 C  
HETATM    2  O   UNL     1      -8.809   9.688  66.880  1.00  0.00    -0.130 OA 
ENDROOT
BRANCH   2   3
HETATM    3  C   UNL     1      -9.847  10.530  66.538  1.00  0.00    -0.206 A  
HETATM    4  C   UNL     1     -10.583  11.306  67.490  1.00  0.00    -0.257 A  
HETATM    5  C   UNL     1     -11.555  12.204  66.991  1.00  0.00    -0.337 A  
HETATM    6  C   UNL     1     -10.980  11.613  64.712  1.00  0.00    -0.351 A  
HETATM    7  O   UNL     1     -12.401  12.918  67.784  1.00  0.00    -0.174 OA 
HETATM    8  C   UNL     1     -10.042  10.682  65.142  1.00  0.00    -0.374 A  
HETATM    9  C   UNL     1     -11.711  12.353  65.619  1.00  0.00    -0.468 A  
HETATM   10  C   UNL     1     -12.592  13.263  64.882  1.00  0.00    -0.384 C  
HETATM   11  C   UNL     1      -9.267   9.854  64.156  1.00  0.00    -0.312 C  
HETATM   12  H   UNL     1     -13.054  13.521  67.450  1.00  0.00     0.000 HD 
HETATM   13  O   UNL     1     -12.373  13.019  63.546  1.00  0.00    -0.654 OA 
HETATM   14  C   UNL     1     -11.400  11.984  63.341  1.00  0.00    -0.397 C  
HETATM   15  O   UNL     1     -13.352  14.109  65.311  1.00  0.00    -0.715 OA 
BRANCH   4  16
HETATM   16  C   UNL     1     -10.347  11.055  68.966  1.00  0.00    -0.229 C  
BRANCH  16  17
HETATM   17  C   UNL     1     -11.231  10.108  69.711  1.00  0.00    -0.325 C  
HETATM   18  C   UNL     1     -12.163  10.427  70.629  1.00  0.00    -0.441 C  
HETATM   19  C   UNL     1     -12.536  11.828  71.037  1.00  0.00    -0.411 C  
BRANCH  18  20
HETATM   20  C   UNL     1     -12.899   9.318  71.340  1.00  0.00    -0.398 C  
BRANCH  20  21
HETATM   21  C   UNL     1     -11.927   8.454  72.132  1.00  0.00    -0.438 C  
BRANCH  21  22
HETATM   22  C   UNL     1     -11.916   7.047  71.605  1.00  0.00    -0.329 C  
HETATM   23  O   UNL     1     -12.142   6.713  70.452  1.00  0.00    -0.374 OA 
BRANCH  22  24
HETATM   24  O   UNL     1     -11.765   6.193  72.652  1.00  0.00    -0.246 OA 
BRANCH  24  25
HETATM   25  C   UNL     1     -10.620   6.497  73.466  1.00  0.00    -0.290 C  
BRANCH  25  26
HETATM   26  C   UNL     1      -9.422   5.791  72.807  1.00  0.00    -0.145 C  
BRANCH  26  27
HETATM   27  N   UNL     1      -8.132   6.484  72.884  1.00  0.00    -0.105 NA 
HETATM   28  C   UNL     1      -7.065   5.831  72.099  1.00  0.00    -0.087 C  
HETATM   29  C   UNL     1      -7.237   5.975  70.578  1.00  0.00    -0.083 C  
HETATM   30  O   UNL     1      -7.327   7.352  70.193  1.00  0.00    -0.075 OA 
HETATM   31  C   UNL     1      -8.403   8.007  70.873  1.00  0.00    -0.119 C  
HETATM   32  C   UNL     1      -8.265   7.881  72.402  1.00  0.00    -0.132 C  
ENDBRANCH  26  27
ENDBRANCH  25  26
ENDBRANCH  24  25
ENDBRANCH  22  24
ENDBRANCH  21  22
ENDBRANCH  20  21
ENDBRANCH  18  20
ENDBRANCH  16  17
ENDBRANCH   4  16
ENDBRANCH   2   3
TORSDOF 10
ENDMDL
MODEL       45
REMARK 921   NORMALIZED FREE ENERGY PREDICTED BY IDOCK:   -5.69 KCAL/MOL
REMARK 922        TOTAL FREE ENERGY PREDICTED BY IDOCK:  -10.56 KCAL/MOL
REMARK 923 INTER-LIGAND FREE ENERGY PREDICTED BY IDOCK:   -9.22 KCAL/MOL
REMARK 924 INTRA-LIGAND FREE ENERGY PREDICTED BY IDOCK:   -1.34 KCAL/MOL
REMARK 927      BINDING AFFINITY PREDICTED BY RF-SCORE:    0.00 PKD
ROOT
HETATM    1  C   UNL     1      -7.130  10.959  65.979  1.00  0.00    -0.067 C  
HETATM    2  O   UNL     1      -8.220  11.313  66.828  1.00  0.00    -0.147 OA 
ENDROOT
BRANCH   2   3
HETATM    3  C   UNL     1      -9.183  12.145  66.295  1.00  0.00    -0.183 A  
HETATM    4  C   UNL     1      -9.158  13.570  66.426  1.00  0.00    -0.064 A  
HETATM    5  C   UNL     1     -10.153  14.309  65.745  1.00  0.00    -0.335 A  
HETATM    6  C   UNL     1     -11.062  12.272  64.797  1.00  0.00    -0.356 A  
HETATM    7  O   UNL     1     -10.315  15.655  65.872  1.00  0.00    -0.305 OA 
HETATM    8  C   UNL     1     -10.136  11.488  65.476  1.00  0.00    -0.286 A  
HETATM    9  C   UNL     1     -11.061  13.645  64.930  1.00  0.00    -0.356 A  
HETATM   10  C   UNL     1     -12.120  14.200  64.082  1.00  0.00    -0.406 C  
HETATM   11  C   UNL     1     -10.155   9.990  65.356  1.00  0.00    -0.317 C  
HETATM   12  H   UNL     1     -10.983  16.151  65.414  1.00  0.00     0.000 HD 
HETATM   13  O   UNL     1     -12.739  13.129  63.482  1.00  0.00    -0.711 OA 
HETATM   14  C   UNL     1     -12.164  11.878  63.888  1.00  0.00    -0.392 C  
HETATM   15  O   UNL     1     -12.411  15.363  63.882  1.00  0.00    -0.695 OA 
BRANCH   4  16
HETATM   16  C   UNL     1      -8.133  14.193  67.353  1.00  0.00    -0.205 C  
BRANCH  16  17
HETATM   17  C   UNL     1      -7.652  15.586  67.103  1.00  0.00    -0.253 C  
HETATM   18  C   UNL     1      -7.102  16.423  68.002  1.00  0.00    -0.146 C  
HETATM   19  C   UNL     1      -6.808  16.083  69.440  1.00  0.00    -0.215 C  
BRANCH  18  20
HETATM   20  C   UNL     1      -6.756  17.829  67.577  1.00  0.00    -0.185 C  
BRANCH  20  21
HETATM   21  C   UNL     1      -7.989  18.541  67.035  1.00  0.00    -0.243 C  
BRANCH  21  22
HETATM   22  C   UNL     1      -8.998  18.761  68.127  1.00  0.00    -0.308 C  
HETATM   23  O   UNL     1      -8.908  19.578  69.030  1.00  0.00    -0.340 OA 
BRANCH  22  24
HETATM   24  O   UNL     1      -9.952  17.796  68.035  1.00  0.00    -0.300 OA 
BRANCH  24  25
HETATM   25  C   UNL     1     -10.474  17.397  69.313  1.00  0.00    -0.171 C  
BRANCH  25  26
HETATM   26  C   UNL     1     -10.672  15.873  69.243  1.00  0.00    -0.259 C  
BRANCH  26  27
HETATM   27  N   UNL     1     -12.054  15.398  69.118  1.00  0.00    -0.287 NA 
HETATM   28  C   UNL     1     -12.159  14.017  68.606  1.00  0.00    -0.297 C  
HETATM   29  C   UNL     1     -11.710  12.945  69.613  1.00  0.00    -0.299 C  
HETATM   30  O   UNL     1     -12.440  13.047  70.841  1.00  0.00    -0.367 OA 
HETATM   31  C   UNL     1     -12.301  14.351  71.416  1.00  0.00    -0.360 C  
HETATM   32  C   UNL     1     -12.741  15.452  70.433  1.00  0.00    -0.362 C  
ENDBRANCH  26  27
ENDBRANCH  25  26
ENDBRANCH  24  25
ENDBRANCH  22  24
ENDBRANCH  21  22
ENDBRANCH  20  21
ENDBRANCH  18  20
ENDBRANCH  16  17
ENDBRANCH   4  16
ENDBRANCH   2   3
TORSDOF 10
ENDMDL
MODEL       46
REMARK 921   NORMALIZED FREE ENERGY PREDICTED BY IDOCK:   -5.67 KCAL/MOL
REMARK 922        TOTAL FREE ENERGY PREDICTED BY IDOCK:  -10.53 KCAL/MOL
REMARK 923 INTER-LIGAND FREE ENERGY PREDICTED BY IDOCK:   -9.79 KCAL/MOL
REMARK 924 INTRA-LIGAND FREE ENERGY PREDICTED BY IDOCK:   -0.74 KCAL/MOL
REMARK 927      BINDING AFFINITY PREDICTED BY RF-SCORE:    0.00 PKD
ROOT
HETATM    1  C   UNL     1      -7.878  10.551  69.253  1.00  0.00    -0.144 C  
HETATM    2  O   UNL     1      -9.048   9.961  68.690  1.00  0.00    -0.126 OA 
ENDROOT
BRANCH   2   3
HETATM    3  C   UNL     1     -10.098   9.712  69.550  1.00  0.00    -0.209 A  
HETATM    4  C   UNL     1     -11.123  10.666  69.845  1.00  0.00    -0.364 A  
HETATM    5  C   UNL     1     -12.195  10.245  70.665  1.00  0.00    -0.329 A  
HETATM    6  C   UNL     1     -11.269   8.008  70.781  1.00  0.00    -0.275 A  
HETATM    7  O   UNL     1     -13.175  11.076  71.115  1.00  0.00    -0.280 OA 
HETATM    8  C   UNL     1     -10.168   8.375  70.016  1.00  0.00    -0.202 A  
HETATM    9  C   UNL     1     -12.254   8.923  71.090  1.00  0.00    -0.303 A  
HETATM   10  C   UNL     1     -13.292   8.250  71.875  1.00  0.00    -0.342 C  
HETATM   11  C   UNL     1      -9.079   7.386  69.704  1.00  0.00    -0.140 C  
HETATM   12  H   UNL     1     -13.895  10.793  71.666  1.00  0.00     0.000 HD 
HETATM   13  O   UNL     1     -12.879   6.948  72.030  1.00  0.00    -0.279 OA 
HETATM   14  C   UNL     1     -11.610   6.707  71.402  1.00  0.00    -0.313 C  
HETATM   15  O   UNL     1     -14.343   8.693  72.296  1.00  0.00    -0.451 OA 
BRANCH   4  16
HETATM   16  C   UNL     1     -10.954  12.087  69.344  1.00  0.00    -0.128 C  
BRANCH  16  17
HETATM   17  C   UNL     1     -11.305  12.426  67.932  1.00  0.00    -0.344 C  
HETATM   18  C   UNL     1     -11.617  13.643  67.448  1.00  0.00    -0.389 C  
HETATM   19  C   UNL     1     -11.611  14.922  68.243  1.00  0.00    -0.356 C  
BRANCH  18  20
HETATM   20  C   UNL     1     -12.030  13.771  66.002  1.00  0.00    -0.443 C  
BRANCH  20  21
HETATM   21  C   UNL     1     -10.864  14.263  65.155  1.00  0.00    -0.387 C  
BRANCH  21  22
HETATM   22  C   UNL     1     -11.073  15.694  64.745  1.00  0.00    -0.412 C  
HETATM   23  O   UNL     1     -11.955  16.105  64.007  1.00  0.00    -0.897 OA 
BRANCH  22  24
HETATM   24  O   UNL     1     -10.029  16.434  65.206  1.00  0.00    -0.519 OA 
BRANCH  24  25
HETATM   25  C   UNL     1     -10.442  17.557  66.001  1.00  0.00    -0.274 C  
BRANCH  25  26
HETATM   26  C   UNL     1      -9.462  17.633  67.185  1.00  0.00    -0.267 C  
BRANCH  26  27
HETATM   27  N   UNL     1      -8.935  18.961  67.513  1.00  0.00    -0.283 NA 
HETATM   28  C   UNL     1      -7.927  18.945  68.593  1.00  0.00    -0.346 C  
HETATM   29  C   UNL     1      -6.580  18.332  68.177  1.00  0.00    -0.205 C  
HETATM   30  O   UNL     1      -6.033  19.005  67.036  1.00  0.00    -0.169 OA 
HETATM   31  C   UNL     1      -6.948  18.976  65.934  1.00  0.00    -0.268 C  
HETATM   32  C   UNL     1      -8.312  19.580  66.316  1.00  0.00    -0.345 C  
ENDBRANCH  26  27
ENDBRANCH  25  26
ENDBRANCH  24  25
ENDBRANCH  22  24
ENDBRANCH  21  22
ENDBRANCH  20  21
ENDBRANCH  18  20
ENDBRANCH  16  17
ENDBRANCH   4  16
ENDBRANCH   2   3
TORSDOF 10
ENDMDL
MODEL       47
REMARK 921   NORMALIZED FREE ENERGY PREDICTED BY IDOCK:   -5.66 KCAL/MOL
REMARK 922        TOTAL FREE ENERGY PREDICTED BY IDOCK:  -10.51 KCAL/MOL
REMARK 923 INTER-LIGAND FREE ENERGY PREDICTED BY IDOCK:   -9.66 KCAL/MOL
REMARK 924 INTRA-LIGAND FREE ENERGY PREDICTED BY IDOCK:   -0.85 KCAL/MOL
REMARK 927      BINDING AFFINITY PREDICTED BY RF-SCORE:    0.00 PKD
ROOT
HETATM    1  C   UNL     1     -13.325  12.939  72.420  1.00  0.00    -0.421 C  
HETATM    2  O   UNL     1     -13.636  11.897  71.497  1.00  0.00     0.011 OA 
ENDROOT
BRANCH   2   3
HETATM    3  C   UNL     1     -12.579  11.335  70.809  1.00  0.00    -0.332 A  
HETATM    4  C   UNL     1     -11.783  12.051  69.860  1.00  0.00    -0.374 A  
HETATM    5  C   UNL     1     -10.668  11.383  69.303  1.00  0.00    -0.151 A  
HETATM    6  C   UNL     1     -11.113   9.432  70.670  1.00  0.00    -0.351 A  
HETATM    7  O   UNL     1      -9.894  11.902  68.310  1.00  0.00    -0.190 OA 
HETATM    8  C   UNL     1     -12.246  10.020  71.221  1.00  0.00    -0.498 A  
HETATM    9  C   UNL     1     -10.348  10.104  69.739  1.00  0.00    -0.297 A  
HETATM   10  C   UNL     1      -9.214   9.256  69.363  1.00  0.00    -0.159 C  
HETATM   11  C   UNL     1     -13.098   9.278  72.212  1.00  0.00    -0.517 C  
HETATM   12  H   UNL     1      -9.146  11.453  67.936  1.00  0.00     0.000 HD 
HETATM   13  O   UNL     1      -9.352   8.085  70.071  1.00  0.00    -0.156 OA 
HETATM   14  C   UNL     1     -10.527   8.091  70.897  1.00  0.00    -0.202 C  
HETATM   15  O   UNL     1      -8.289   9.500  68.614  1.00  0.00    -0.114 OA 
BRANCH   4  16
HETATM   16  C   UNL     1     -12.229  13.438  69.441  1.00  0.00    -0.246 C  
BRANCH  16  17
HETATM   17  C   UNL     1     -11.211  14.484  69.124  1.00  0.00    -0.294 C  
HETATM   18  C   UNL     1     -10.956  15.602  69.829  1.00  0.00    -0.307 C  
HETATM   19  C   UNL     1     -11.620  15.982  71.126  1.00  0.00    -0.492 C  
BRANCH  18  20
HETATM   20  C   UNL     1      -9.942  16.587  69.298  1.00  0.00    -0.244 C  
BRANCH  20  21
HETATM   21  C   UNL     1     -10.600  17.559  68.329  1.00  0.00    -0.354 C  
BRANCH  21  22
HETATM   22  C   UNL     1      -9.731  17.773  67.121  1.00  0.00    -0.288 C  
HETATM   23  O   UNL     1      -8.908  18.664  66.980  1.00  0.00    -0.269 OA 
BRANCH  22  24
HETATM   24  O   UNL     1     -10.120  16.905  66.149  1.00  0.00    -0.314 OA 
BRANCH  24  25
HETATM   25  C   UNL     1      -9.122  15.918  65.844  1.00  0.00    -0.269 C  
BRANCH  25  26
HETATM   26  C   UNL     1      -9.842  14.558  65.849  1.00  0.00    -0.321 C  
BRANCH  26  27
HETATM   27  N   UNL     1     -10.457  14.140  64.585  1.00  0.00    -0.414 NA 
HETATM   28  C   UNL     1     -10.445  12.677  64.379  1.00  0.00    -0.373 C  
HETATM   29  C   UNL     1     -11.416  11.913  65.293  1.00  0.00    -0.253 C  
HETATM   30  O   UNL     1     -12.756  12.395  65.146  1.00  0.00    -0.630 OA 
HETATM   31  C   UNL     1     -12.831  13.800  65.416  1.00  0.00    -0.410 C  
HETATM   32  C   UNL     1     -11.867  14.599  64.518  1.00  0.00    -0.431 C  
ENDBRANCH  26  27
ENDBRANCH  25  26
ENDBRANCH  24  25
ENDBRANCH  22  24
ENDBRANCH  21  22
ENDBRANCH  20  21
ENDBRANCH  18  20
ENDBRANCH  16  17
ENDBRANCH   4  16
ENDBRANCH   2   3
TORSDOF 10
ENDMDL
MODEL       48
REMARK 921   NORMALIZED FREE ENERGY PREDICTED BY IDOCK:   -5.65 KCAL/MOL
REMARK 922        TOTAL FREE ENERGY PREDICTED BY IDOCK:  -10.49 KCAL/MOL
REMARK 923 INTER-LIGAND FREE ENERGY PREDICTED BY IDOCK:   -9.46 KCAL/MOL
REMARK 924 INTRA-LIGAND FREE ENERGY PREDICTED BY IDOCK:   -1.03 KCAL/MOL
REMARK 927      BINDING AFFINITY PREDICTED BY RF-SCORE:    0.00 PKD
ROOT
HETATM    1  C   UNL     1     -10.783   5.616  66.445  1.00  0.00    -0.161 C  
HETATM    2  O   UNL     1     -11.176   6.859  67.024  1.00  0.00    -0.369 OA 
ENDROOT
BRANCH   2   3
HETATM    3  C   UNL     1     -10.220   7.540  67.751  1.00  0.00    -0.201 A  
HETATM    4  C   UNL     1      -9.415   8.592  67.208  1.00  0.00    -0.199 A  
HETATM    5  C   UNL     1      -8.545   9.273  68.090  1.00  0.00    -0.125 A  
HETATM    6  C   UNL     1      -9.348   7.951  69.956  1.00  0.00    -0.157 A  
HETATM    7  O   UNL     1      -7.646  10.214  67.688  1.00  0.00    -0.090 OA 
HETATM    8  C   UNL     1     -10.192   7.216  69.130  1.00  0.00    -0.196 A  
HETATM    9  C   UNL     1      -8.552   8.954  69.442  1.00  0.00    -0.133 A  
HETATM   10  C   UNL     1      -7.801   9.567  70.540  1.00  0.00    -0.157 C  
HETATM   11  C   UNL     1     -11.037   6.103  69.683  1.00  0.00    -0.489 C  
HETATM   12  H   UNL     1      -7.062  10.671  68.281  1.00  0.00     0.000 HD 
HETATM   13  O   UNL     1      -8.159   8.888  71.682  1.00  0.00    -0.280 OA 
HETATM   14  C   UNL     1      -9.103   7.841  71.412  1.00  0.00    -0.134 C  
HETATM   15  O   UNL     1      -7.034  10.509  70.513  1.00  0.00    -0.307 OA 
BRANCH   4  16
HETATM   16  C   UNL     1      -9.472   8.850  65.715  1.00  0.00    -0.272 C  
BRANCH  16  17
HETATM   17  C   UNL     1     -10.058  10.125  65.201  1.00  0.00    -0.329 C  
HETATM   18  C   UNL     1      -9.940  10.622  63.955  1.00  0.00    -0.401 C  
HETATM   19  C   UNL     1      -9.234   9.943  62.812  1.00  0.00    -0.292 C  
BRANCH  18  20
HETATM   20  C   UNL     1     -10.534  11.976  63.649  1.00  0.00    -0.494 C  
BRANCH  20  21
HETATM   21  C   UNL     1     -10.830  12.732  64.937  1.00  0.00    -0.326 C  
BRANCH  21  22
HETATM   22  C   UNL     1     -12.308  12.949  65.097  1.00  0.00    -0.493 C  
HETATM   23  O   UNL     1     -13.187  12.389  64.461  1.00  0.00    -0.834 OA 
BRANCH  22  24
HETATM   24  O   UNL     1     -12.503  13.984  65.958  1.00  0.00    -0.468 OA 
BRANCH  24  25
HETATM   25  C   UNL     1     -11.351  14.267  66.768  1.00  0.00    -0.348 C  
BRANCH  25  26
HETATM   26  C   UNL     1     -11.886  14.738  68.132  1.00  0.00    -0.287 C  
BRANCH  26  27
HETATM   27  N   UNL     1     -11.193  14.226  69.318  1.00  0.00    -0.265 NA 
HETATM   28  C   UNL     1     -10.571  15.283  70.141  1.00  0.00    -0.257 C  
HETATM   29  C   UNL     1     -11.583  16.151  70.906  1.00  0.00    -0.371 C  
HETATM   30  O   UNL     1     -12.432  15.351  71.736  1.00  0.00    -0.321 OA 
HETATM   31  C   UNL     1     -13.119  14.359  70.966  1.00  0.00    -0.353 C  
HETATM   32  C   UNL     1     -12.135  13.470  70.182  1.00  0.00    -0.354 C  
ENDBRANCH  26  27
ENDBRANCH  25  26
ENDBRANCH  24  25
ENDBRANCH  22  24
ENDBRANCH  21  22
ENDBRANCH  20  21
ENDBRANCH  18  20
ENDBRANCH  16  17
ENDBRANCH   4  16
ENDBRANCH   2   3
TORSDOF 10
ENDMDL
MODEL       49
REMARK 921   NORMALIZED FREE ENERGY PREDICTED BY IDOCK:   -5.63 KCAL/MOL
REMARK 922        TOTAL FREE ENERGY PREDICTED BY IDOCK:  -10.45 KCAL/MOL
REMARK 923 INTER-LIGAND FREE ENERGY PREDICTED BY IDOCK:   -8.75 KCAL/MOL
REMARK 924 INTRA-LIGAND FREE ENERGY PREDICTED BY IDOCK:   -1.70 KCAL/MOL
REMARK 927      BINDING AFFINITY PREDICTED BY RF-SCORE:    0.00 PKD
ROOT
HETATM    1  C   UNL     1     -11.248  15.005  71.685  1.00  0.00    -0.151 C  
HETATM    2  O   UNL     1     -12.303  14.683  70.782  1.00  0.00    -0.285 OA 
ENDROOT
BRANCH   2   3
HETATM    3  C   UNL     1     -11.969  13.932  69.673  1.00  0.00    -0.342 A  
HETATM    4  C   UNL     1     -12.131  12.512  69.602  1.00  0.00    -0.272 A  
HETATM    5  C   UNL     1     -11.843  11.880  68.370  1.00  0.00    -0.289 A  
HETATM    6  C   UNL     1     -11.357  14.023  67.348  1.00  0.00    -0.350 A  
HETATM    7  O   UNL     1     -11.846  10.530  68.194  1.00  0.00    -0.762 OA 
HETATM    8  C   UNL     1     -11.583  14.696  68.543  1.00  0.00    -0.346 A  
HETATM    9  C   UNL     1     -11.489  12.652  67.270  1.00  0.00    -0.402 A  
HETATM   10  C   UNL     1     -11.220  12.231  65.893  1.00  0.00    -0.340 C  
HETATM   11  C   UNL     1     -11.409  16.186  68.636  1.00  0.00    -0.365 C  
HETATM   12  H   UNL     1     -11.653  10.106  67.366  1.00  0.00     0.000 HD 
HETATM   13  O   UNL     1     -10.911  13.372  65.191  1.00  0.00    -0.291 OA 
HETATM   14  C   UNL     1     -10.944  14.542  66.023  1.00  0.00    -0.324 C  
HETATM   15  O   UNL     1     -11.281  11.119  65.406  1.00  0.00    -0.080 OA 
BRANCH   4  16
HETATM   16  C   UNL     1     -12.506  11.762  70.865  1.00  0.00    -0.416 C  
BRANCH  16  17
HETATM   17  C   UNL     1     -11.746  10.537  71.258  1.00  0.00    -0.241 C  
HETATM   18  C   UNL     1     -12.249   9.419  71.815  1.00  0.00    -0.465 C  
HETATM   19  C   UNL     1     -13.707   9.169  72.095  1.00  0.00    -0.531 C  
BRANCH  18  20
HETATM   20  C   UNL     1     -11.303   8.316  72.223  1.00  0.00    -0.446 C  
BRANCH  20  21
HETATM   21  C   UNL     1     -10.255   8.085  71.143  1.00  0.00    -0.225 C  
BRANCH  21  22
HETATM   22  C   UNL     1     -10.883   7.493  69.912  1.00  0.00    -0.240 C  
HETATM   23  O   UNL     1     -11.666   6.556  69.889  1.00  0.00    -0.406 OA 
BRANCH  22  24
HETATM   24  O   UNL     1     -10.319   8.071  68.818  1.00  0.00    -0.207 OA 
BRANCH  24  25
HETATM   25  C   UNL     1      -9.052   7.493  68.467  1.00  0.00    -0.134 C  
BRANCH  25  26
HETATM   26  C   UNL     1      -8.077   8.669  68.280  1.00  0.00    -0.118 C  
BRANCH  26  27
HETATM   27  N   UNL     1      -8.659   9.934  67.821  1.00  0.00    -0.121 NA 
HETATM   28  C   UNL     1      -8.300  11.089  68.668  1.00  0.00    -0.153 C  
HETATM   29  C   UNL     1      -6.832  11.527  68.532  1.00  0.00    -0.074 C  
HETATM   30  O   UNL     1      -6.502  11.824  67.170  1.00  0.00    -0.118 OA 
HETATM   31  C   UNL     1      -6.761  10.700  66.321  1.00  0.00    -0.129 C  
HETATM   32  C   UNL     1      -8.224  10.231  66.433  1.00  0.00    -0.129 C  
ENDBRANCH  26  27
ENDBRANCH  25  26
ENDBRANCH  24  25
ENDBRANCH  22  24
ENDBRANCH  21  22
ENDBRANCH  20  21
ENDBRANCH  18  20
ENDBRANCH  16  17
ENDBRANCH   4  16
ENDBRANCH   2   3
TORSDOF 10
ENDMDL
MODEL       50
REMARK 921   NORMALIZED FREE ENERGY PREDICTED BY IDOCK:   -5.62 KCAL/MOL
REMARK 922        TOTAL FREE ENERGY PREDICTED BY IDOCK:  -10.45 KCAL/MOL
REMARK 923 INTER-LIGAND FREE ENERGY PREDICTED BY IDOCK:   -9.90 KCAL/MOL
REMARK 924 INTRA-LIGAND FREE ENERGY PREDICTED BY IDOCK:   -0.55 KCAL/MOL
REMARK 927      BINDING AFFINITY PREDICTED BY RF-SCORE:    0.00 PKD
ROOT
HETATM    1  C   UNL     1     -13.812   9.088  71.824  1.00  0.00    -0.399 C  
HETATM    2  O   UNL     1     -12.400   9.028  72.019  1.00  0.00    -0.350 OA 
ENDROOT
BRANCH   2   3
HETATM    3  C   UNL     1     -11.649   8.492  70.992  1.00  0.00    -0.279 A  
HETATM    4  C   UNL     1     -10.994   9.283  69.996  1.00  0.00    -0.254 A  
HETATM    5  C   UNL     1     -10.174   8.611  69.060  1.00  0.00    -0.207 A  
HETATM    6  C   UNL     1     -10.602   6.493  70.158  1.00  0.00    -0.277 A  
HETATM    7  O   UNL     1      -9.584   9.222  67.996  1.00  0.00    -0.140 OA 
HETATM    8  C   UNL     1     -11.454   7.091  71.079  1.00  0.00    -0.343 A  
HETATM    9  C   UNL     1      -9.979   7.241  69.180  1.00  0.00    -0.170 A  
HETATM   10  C   UNL     1      -9.128   6.355  68.381  1.00  0.00    -0.118 C  
HETATM   11  C   UNL     1     -12.157   6.273  72.126  1.00  0.00    -0.304 C  
HETATM   12  H   UNL     1      -9.033   8.770  67.368  1.00  0.00     0.000 HD 
HETATM   13  O   UNL     1      -9.288   5.091  68.899  1.00  0.00    -0.113 OA 
HETATM   14  C   UNL     1     -10.213   5.073  69.998  1.00  0.00    -0.269 C  
HETATM   15  O   UNL     1      -8.381   6.632  67.463  1.00  0.00    -0.120 OA 
BRANCH   4  16
HETATM   16  C   UNL     1     -11.287  10.770  69.943  1.00  0.00    -0.385 C  
BRANCH  16  17
HETATM   17  C   UNL     1     -11.845  11.375  68.697  1.00  0.00    -0.377 C  
HETATM   18  C   UNL     1     -11.248  12.285  67.904  1.00  0.00    -0.328 C  
HETATM   19  C   UNL     1      -9.856  12.826  68.099  1.00  0.00    -0.226 C  
BRANCH  18  20
HETATM   20  C   UNL     1     -12.011  12.845  66.729  1.00  0.00    -0.418 C  
BRANCH  20  21
HETATM   21  C   UNL     1     -11.051  13.406  65.688  1.00  0.00    -0.298 C  
BRANCH  21  22
HETATM   22  C   UNL     1     -11.787  14.264  64.696  1.00  0.00    -0.448 C  
HETATM   23  O   UNL     1     -12.623  13.875  63.895  1.00  0.00    -0.697 OA 
BRANCH  22  24
HETATM   24  O   UNL     1     -11.258  15.516  64.731  1.00  0.00    -0.422 OA 
BRANCH  24  25
HETATM   25  C   UNL     1     -10.029  15.588  65.472  1.00  0.00    -0.341 C  
BRANCH  25  26
HETATM   26  C   UNL     1     -10.180  16.768  66.448  1.00  0.00    -0.323 C  
BRANCH  26  27
HETATM   27  N   UNL     1      -9.449  17.993  66.109  1.00  0.00    -0.499 NA 
HETATM   28  C   UNL     1     -10.190  19.230  66.429  1.00  0.00    -0.449 C  
HETATM   29  C   UNL     1     -10.299  19.517  67.935  1.00  0.00    -0.444 C  
HETATM   30  O   UNL     1      -9.006  19.574  68.548  1.00  0.00    -0.349 OA 
HETATM   31  C   UNL     1      -8.278  18.360  68.331  1.00  0.00    -0.312 C  
HETATM   32  C   UNL     1      -8.152  18.038  66.829  1.00  0.00    -0.242 C  
ENDBRANCH  26  27
ENDBRANCH  25  26
ENDBRANCH  24  25
ENDBRANCH  22  24
ENDBRANCH  21  22
ENDBRANCH  20  21
ENDBRANCH  18  20
ENDBRANCH  16  17
ENDBRANCH   4  16
ENDBRANCH   2   3
TORSDOF 10
ENDMDL
MODEL       51
REMARK 921   NORMALIZED FREE ENERGY PREDICTED BY IDOCK:   -5.62 KCAL/MOL
REMARK 922        TOTAL FREE ENERGY PREDICTED BY IDOCK:  -10.44 KCAL/MOL
REMARK 923 INTER-LIGAND FREE ENERGY PREDICTED BY IDOCK:   -9.38 KCAL/MOL
REMARK 924 INTRA-LIGAND FREE ENERGY PREDICTED BY IDOCK:   -1.07 KCAL/MOL
REMARK 927      BINDING AFFINITY PREDICTED BY RF-SCORE:    0.00 PKD
ROOT
HETATM    1  C   UNL     1     -14.092  13.704  72.209  1.00  0.00    -0.505 C  
HETATM    2  O   UNL     1     -12.715  13.407  71.983  1.00  0.00    -0.234 OA 
ENDROOT
BRANCH   2   3
HETATM    3  C   UNL     1     -12.254  13.526  70.687  1.00  0.00    -0.358 A  
HETATM    4  C   UNL     1     -12.271  12.452  69.740  1.00  0.00    -0.198 A  
HETATM    5  C   UNL     1     -11.861  12.739  68.417  1.00  0.00    -0.310 A  
HETATM    6  C   UNL     1     -11.541  15.073  68.988  1.00  0.00    -0.342 A  
HETATM    7  O   UNL     1     -11.721  11.794  67.448  1.00  0.00    -0.532 OA 
HETATM    8  C   UNL     1     -11.891  14.844  70.314  1.00  0.00    -0.358 A  
HETATM    9  C   UNL     1     -11.532  14.043  68.070  1.00  0.00    -0.342 A  
HETATM   10  C   UNL     1     -11.155  14.584  66.761  1.00  0.00    -0.325 C  
HETATM   11  C   UNL     1     -11.870  15.958  71.322  1.00  0.00    -0.502 C  
HETATM   12  H   UNL     1     -11.447  11.986  66.560  1.00  0.00     0.000 HD 
HETATM   13  O   UNL     1     -10.926  15.927  66.947  1.00  0.00    -0.283 OA 
HETATM   14  C   UNL     1     -11.117  16.322  68.314  1.00  0.00    -0.346 C  
HETATM   15  O   UNL     1     -11.081  14.015  65.689  1.00  0.00    -0.296 OA 
BRANCH   4  16
HETATM   16  C   UNL     1     -12.632  11.063  70.228  1.00  0.00    -0.321 C  
BRANCH  16  17
HETATM   17  C   UNL     1     -11.699  10.326  71.133  1.00  0.00    -0.430 C  
HETATM   18  C   UNL     1     -10.572   9.679  70.778  1.00  0.00    -0.392 C  
HETATM   19  C   UNL     1     -10.001   9.631  69.386  1.00  0.00    -0.207 C  
BRANCH  18  20
HETATM   20  C   UNL     1      -9.805   8.915  71.830  1.00  0.00    -0.386 C  
BRANCH  20  21
HETATM   21  C   UNL     1     -10.750   8.060  72.664  1.00  0.00    -0.426 C  
BRANCH  21  22
HETATM   22  C   UNL     1     -11.107   6.797  71.931  1.00  0.00    -0.247 C  
HETATM   23  O   UNL     1     -12.147   6.169  72.053  1.00  0.00    -0.318 OA 
BRANCH  22  24
HETATM   24  O   UNL     1     -10.020   6.383  71.227  1.00  0.00    -0.181 OA 
BRANCH  24  25
HETATM   25  C   UNL     1     -10.042   4.978  70.931  1.00  0.00    -0.232 C  
BRANCH  25  26
HETATM   26  C   UNL     1      -9.796   4.849  69.417  1.00  0.00    -0.211 C  
BRANCH  26  27
HETATM   27  N   UNL     1      -9.825   6.094  68.643  1.00  0.00    -0.134 NA 
HETATM   28  C   UNL     1      -8.517   6.456  68.060  1.00  0.00    -0.118 C  
HETATM   29  C   UNL     1      -8.084   5.550  66.896  1.00  0.00    -0.101 C  
HETATM   30  O   UNL     1      -9.071   5.530  65.858  1.00  0.00    -0.155 OA 
HETATM   31  C   UNL     1     -10.342   5.107  66.363  1.00  0.00    -0.288 C  
HETATM   32  C   UNL     1     -10.807   5.992  67.535  1.00  0.00    -0.302 C  
ENDBRANCH  26  27
ENDBRANCH  25  26
ENDBRANCH  24  25
ENDBRANCH  22  24
ENDBRANCH  21  22
ENDBRANCH  20  21
ENDBRANCH  18  20
ENDBRANCH  16  17
ENDBRANCH   4  16
ENDBRANCH   2   3
TORSDOF 10
ENDMDL
MODEL       52
REMARK 921   NORMALIZED FREE ENERGY PREDICTED BY IDOCK:   -5.60 KCAL/MOL
REMARK 922        TOTAL FREE ENERGY PREDICTED BY IDOCK:  -10.41 KCAL/MOL
REMARK 923 INTER-LIGAND FREE ENERGY PREDICTED BY IDOCK:   -9.15 KCAL/MOL
REMARK 924 INTRA-LIGAND FREE ENERGY PREDICTED BY IDOCK:   -1.26 KCAL/MOL
REMARK 927      BINDING AFFINITY PREDICTED BY RF-SCORE:    0.00 PKD
ROOT
HETATM    1  C   UNL     1     -12.232  12.297  69.326  1.00  0.00    -0.044 C  
HETATM    2  O   UNL     1     -11.333  11.581  70.170  1.00  0.00    -0.215 OA 
ENDROOT
BRANCH   2   3
HETATM    3  C   UNL     1     -11.185  10.231  69.923  1.00  0.00    -0.299 A  
HETATM    4  C   UNL     1     -10.350   9.704  68.886  1.00  0.00    -0.220 A  
HETATM    5  C   UNL     1     -10.211   8.299  68.808  1.00  0.00    -0.210 A  
HETATM    6  C   UNL     1     -11.605   8.019  70.771  1.00  0.00    -0.251 A  
HETATM    7  O   UNL     1      -9.543   7.660  67.809  1.00  0.00    -0.140 OA 
HETATM    8  C   UNL     1     -11.815   9.389  70.873  1.00  0.00    -0.365 A  
HETATM    9  C   UNL     1     -10.819   7.496  69.764  1.00  0.00    -0.234 A  
HETATM   10  C   UNL     1     -10.756   6.041  69.925  1.00  0.00    -0.325 C  
HETATM   11  C   UNL     1     -12.695   9.958  71.951  1.00  0.00    -0.501 C  
HETATM   12  H   UNL     1      -9.449   6.717  67.756  1.00  0.00     0.000 HD 
HETATM   13  O   UNL     1     -11.532   5.737  71.020  1.00  0.00    -0.167 OA 
HETATM   14  C   UNL     1     -12.126   6.908  71.600  1.00  0.00    -0.353 C  
HETATM   15  O   UNL     1     -10.131   5.224  69.278  1.00  0.00    -0.194 OA 
BRANCH   4  16
HETATM   16  C   UNL     1      -9.745  10.667  67.884  1.00  0.00    -0.177 C  
BRANCH  16  17
HETATM   17  C   UNL     1     -10.384  10.848  66.546  1.00  0.00    -0.299 C  
HETATM   18  C   UNL     1      -9.802  10.677  65.344  1.00  0.00    -0.325 C  
HETATM   19  C   UNL     1      -8.389  10.205  65.122  1.00  0.00    -0.163 C  
BRANCH  18  20
HETATM   20  C   UNL     1     -10.591  10.994  64.097  1.00  0.00    -0.412 C  
BRANCH  20  21
HETATM   21  C   UNL     1     -10.548  12.487  63.802  1.00  0.00    -0.471 C  
BRANCH  21  22
HETATM   22  C   UNL     1     -11.860  13.134  64.148  1.00  0.00    -0.429 C  
HETATM   23  O   UNL     1     -12.952  12.589  64.133  1.00  0.00    -0.740 OA 
BRANCH  22  24
HETATM   24  O   UNL     1     -11.651  14.465  64.331  1.00  0.00    -0.380 OA 
BRANCH  24  25
HETATM   25  C   UNL     1     -10.516  14.747  65.166  1.00  0.00    -0.418 C  
BRANCH  25  26
HETATM   26  C   UNL     1     -11.023  14.692  66.618  1.00  0.00    -0.323 C  
BRANCH  26  27
HETATM   27  N   UNL     1     -11.225  15.979  67.290  1.00  0.00    -0.125 NA 
HETATM   28  C   UNL     1     -11.462  15.856  68.743  1.00  0.00    -0.393 C  
HETATM   29  C   UNL     1     -10.215  15.449  69.543  1.00  0.00    -0.270 C  
HETATM   30  O   UNL     1      -9.134  16.361  69.321  1.00  0.00    -0.235 OA 
HETATM   31  C   UNL     1      -8.815  16.453  67.928  1.00  0.00    -0.184 C  
HETATM   32  C   UNL     1     -10.044  16.857  67.093  1.00  0.00    -0.287 C  
ENDBRANCH  26  27
ENDBRANCH  25  26
ENDBRANCH  24  25
ENDBRANCH  22  24
ENDBRANCH  21  22
ENDBRANCH  20  21
ENDBRANCH  18  20
ENDBRANCH  16  17
ENDBRANCH   4  16
ENDBRANCH   2   3
TORSDOF 10
ENDMDL
MODEL       53
REMARK 921   NORMALIZED FREE ENERGY PREDICTED BY IDOCK:   -5.57 KCAL/MOL
REMARK 922        TOTAL FREE ENERGY PREDICTED BY IDOCK:  -10.37 KCAL/MOL
REMARK 923 INTER-LIGAND FREE ENERGY PREDICTED BY IDOCK:   -9.89 KCAL/MOL
REMARK 924 INTRA-LIGAND FREE ENERGY PREDICTED BY IDOCK:   -0.48 KCAL/MOL
REMARK 927      BINDING AFFINITY PREDICTED BY RF-SCORE:    0.00 PKD
ROOT
HETATM    1  C   UNL     1      -8.359  11.006  68.199  1.00  0.00    -0.130 C  
HETATM    2  O   UNL     1      -9.718  10.658  67.940  1.00  0.00    -0.158 OA 
ENDROOT
BRANCH   2   3
HETATM    3  C   UNL     1     -10.436  11.508  67.122  1.00  0.00    -0.224 A  
HETATM    4  C   UNL     1     -11.036  12.724  67.579  1.00  0.00    -0.280 A  
HETATM    5  C   UNL     1     -11.657  13.551  66.614  1.00  0.00    -0.363 A  
HETATM    6  C   UNL     1     -11.003  12.030  64.843  1.00  0.00    -0.356 A  
HETATM    7  O   UNL     1     -12.361  14.675  66.922  1.00  0.00    -0.475 OA 
HETATM    8  C   UNL     1     -10.415  11.155  65.750  1.00  0.00    -0.305 A  
HETATM    9  C   UNL     1     -11.603  13.197  65.272  1.00  0.00    -0.350 A  
HETATM   10  C   UNL     1     -12.106  13.924  64.103  1.00  0.00    -0.425 C  
HETATM   11  C   UNL     1      -9.789   9.870  65.287  1.00  0.00    -0.373 C  
HETATM   12  H   UNL     1     -12.778  15.230  66.275  1.00  0.00     0.000 HD 
HETATM   13  O   UNL     1     -11.807  13.150  63.006  1.00  0.00    -0.347 OA 
HETATM   14  C   UNL     1     -11.140  11.932  63.372  1.00  0.00    -0.383 C  
HETATM   15  O   UNL     1     -12.648  15.010  64.051  1.00  0.00    -0.817 OA 
BRANCH   4  16
HETATM   16  C   UNL     1     -11.053  13.009  69.068  1.00  0.00    -0.281 C  
BRANCH  16  17
HETATM   17  C   UNL     1     -11.897  12.174  69.976  1.00  0.00    -0.383 C  
HETATM   18  C   UNL     1     -12.543  12.586  71.082  1.00  0.00    -0.349 C  
HETATM   19  C   UNL     1     -12.586  14.005  71.585  1.00  0.00    -0.403 C  
BRANCH  18  20
HETATM   20  C   UNL     1     -13.279  11.570  71.921  1.00  0.00    -0.479 C  
BRANCH  20  21
HETATM   21  C   UNL     1     -13.542  10.304  71.117  1.00  0.00    -0.079 C  
BRANCH  21  22
HETATM   22  C   UNL     1     -13.444   9.088  71.996  1.00  0.00    -0.442 C  
HETATM   23  O   UNL     1     -14.370   8.556  72.587  1.00  0.00    -0.473 OA 
BRANCH  22  24
HETATM   24  O   UNL     1     -12.130   8.770  72.148  1.00  0.00    -0.347 OA 
BRANCH  24  25
HETATM   25  C   UNL     1     -11.537   8.240  70.951  1.00  0.00    -0.262 C  
BRANCH  25  26
HETATM   26  C   UNL     1     -11.226   6.761  71.240  1.00  0.00    -0.276 C  
BRANCH  26  27
HETATM   27  N   UNL     1      -9.810   6.406  71.383  1.00  0.00    -0.176 NA 
HETATM   28  C   UNL     1      -8.897   7.560  71.252  1.00  0.00    -0.133 C  
HETATM   29  C   UNL     1      -8.944   8.527  72.446  1.00  0.00    -0.214 C  
HETATM   30  O   UNL     1      -8.666   7.847  73.676  1.00  0.00    -0.220 OA 
HETATM   31  C   UNL     1      -9.582   6.765  73.884  1.00  0.00    -0.230 C  
HETATM   32  C   UNL     1      -9.564   5.776  72.704  1.00  0.00    -0.153 C  
ENDBRANCH  26  27
ENDBRANCH  25  26
ENDBRANCH  24  25
ENDBRANCH  22  24
ENDBRANCH  21  22
ENDBRANCH  20  21
ENDBRANCH  18  20
ENDBRANCH  16  17
ENDBRANCH   4  16
ENDBRANCH   2   3
TORSDOF 10
ENDMDL
MODEL       54
REMARK 921   NORMALIZED FREE ENERGY PREDICTED BY IDOCK:   -5.57 KCAL/MOL
REMARK 922        TOTAL FREE ENERGY PREDICTED BY IDOCK:  -10.36 KCAL/MOL
REMARK 923 INTER-LIGAND FREE ENERGY PREDICTED BY IDOCK:   -9.20 KCAL/MOL
REMARK 924 INTRA-LIGAND FREE ENERGY PREDICTED BY IDOCK:   -1.16 KCAL/MOL
REMARK 927      BINDING AFFINITY PREDICTED BY RF-SCORE:    0.00 PKD
ROOT
HETATM    1  C   UNL     1      -6.156   9.699  66.880  1.00  0.00    -0.063 C  
HETATM    2  O   UNL     1      -7.303  10.377  67.389  1.00  0.00    -0.091 OA 
ENDROOT
BRANCH   2   3
HETATM    3  C   UNL     1      -8.303   9.596  67.930  1.00  0.00    -0.117 A  
HETATM    4  C   UNL     1      -9.296   8.927  67.146  1.00  0.00    -0.182 A  
HETATM    5  C   UNL     1     -10.202   8.077  67.822  1.00  0.00    -0.222 A  
HETATM    6  C   UNL     1      -9.081   8.503  69.928  1.00  0.00    -0.150 A  
HETATM    7  O   UNL     1     -11.261   7.469  67.219  1.00  0.00    -0.521 OA 
HETATM    8  C   UNL     1      -8.190   9.385  69.327  1.00  0.00    -0.111 A  
HETATM    9  C   UNL     1     -10.056   7.867  69.187  1.00  0.00    -0.197 A  
HETATM   10  C   UNL     1     -10.820   6.986  70.074  1.00  0.00    -0.261 C  
HETATM   11  C   UNL     1      -7.147  10.101  70.138  1.00  0.00    -0.162 C  
HETATM   12  H   UNL     1     -11.870   6.899  67.673  1.00  0.00     0.000 HD 
HETATM   13  O   UNL     1     -10.286   7.142  71.332  1.00  0.00    -0.198 OA 
HETATM   14  C   UNL     1      -9.210   8.092  71.345  1.00  0.00    -0.144 C  
HETATM   15  O   UNL     1     -11.725   6.221  69.801  1.00  0.00    -0.403 OA 
BRANCH   4  16
HETATM   16  C   UNL     1      -9.379   9.238  65.664  1.00  0.00    -0.308 C  
BRANCH  16  17
HETATM   17  C   UNL     1     -10.220  10.378  65.189  1.00  0.00    -0.326 C  
HETATM   18  C   UNL     1     -10.231  10.912  63.953  1.00  0.00    -0.418 C  
HETATM   19  C   UNL     1      -9.428  10.409  62.782  1.00  0.00    -0.351 C  
BRANCH  18  20
HETATM   20  C   UNL     1     -11.091  12.123  63.686  1.00  0.00    -0.528 C  
BRANCH  20  21
HETATM   21  C   UNL     1     -11.924  12.467  64.915  1.00  0.00    -0.458 C  
BRANCH  21  22
HETATM   22  C   UNL     1     -12.487  13.855  64.801  1.00  0.00    -0.354 C  
HETATM   23  O   UNL     1     -12.607  14.497  63.769  1.00  0.00    -0.825 OA 
BRANCH  22  24
HETATM   24  O   UNL     1     -12.698  14.340  66.054  1.00  0.00    -0.430 OA 
BRANCH  24  25
HETATM   25  C   UNL     1     -11.679  13.948  66.988  1.00  0.00    -0.397 C  
BRANCH  25  26
HETATM   26  C   UNL     1     -11.172  15.245  67.645  1.00  0.00    -0.320 C  
BRANCH  26  27
HETATM   27  N   UNL     1     -10.648  16.273  66.741  1.00  0.00    -0.290 NA 
HETATM   28  C   UNL     1     -10.444  17.583  67.393  1.00  0.00    -0.342 C  
HETATM   29  C   UNL     1      -9.262  17.611  68.375  1.00  0.00    -0.288 C  
HETATM   30  O   UNL     1      -8.045  17.213  67.733  1.00  0.00    -0.187 OA 
HETATM   31  C   UNL     1      -8.171  15.909  67.152  1.00  0.00    -0.203 C  
HETATM   32  C   UNL     1      -9.350  15.843  66.164  1.00  0.00    -0.350 C  
ENDBRANCH  26  27
ENDBRANCH  25  26
ENDBRANCH  24  25
ENDBRANCH  22  24
ENDBRANCH  21  22
ENDBRANCH  20  21
ENDBRANCH  18  20
ENDBRANCH  16  17
ENDBRANCH   4  16
ENDBRANCH   2   3
TORSDOF 10
ENDMDL
MODEL       55
REMARK 921   NORMALIZED FREE ENERGY PREDICTED BY IDOCK:   -5.56 KCAL/MOL
REMARK 922        TOTAL FREE ENERGY PREDICTED BY IDOCK:  -10.36 KCAL/MOL
REMARK 923 INTER-LIGAND FREE ENERGY PREDICTED BY IDOCK:   -9.45 KCAL/MOL
REMARK 924 INTRA-LIGAND FREE ENERGY PREDICTED BY IDOCK:   -0.91 KCAL/MOL
REMARK 927      BINDING AFFINITY PREDICTED BY RF-SCORE:    0.00 PKD
ROOT
HETATM    1  C   UNL     1      -7.314   8.049  68.324  1.00  0.00    -0.095 C  
HETATM    2  O   UNL     1      -7.583   9.302  68.949  1.00  0.00    -0.074 OA 
ENDROOT
BRANCH   2   3
HETATM    3  C   UNL     1      -8.847   9.482  69.473  1.00  0.00    -0.179 A  
HETATM    4  C   UNL     1      -9.943  10.022  68.726  1.00  0.00    -0.181 A  
HETATM    5  C   UNL     1     -11.209  10.058  69.354  1.00  0.00    -0.188 A  
HETATM    6  C   UNL     1     -10.299   8.978  71.324  1.00  0.00    -0.383 A  
HETATM    7  O   UNL     1     -12.308  10.645  68.806  1.00  0.00    -0.814 OA 
HETATM    8  C   UNL     1      -9.021   8.955  70.777  1.00  0.00    -0.254 A  
HETATM    9  C   UNL     1     -11.360   9.514  70.623  1.00  0.00    -0.364 A  
HETATM   10  C   UNL     1     -12.575   9.375  71.431  1.00  0.00    -0.348 C  
HETATM   11  C   UNL     1      -7.859   8.399  71.551  1.00  0.00    -0.146 C  
HETATM   12  H   UNL     1     -13.159  10.669  69.227  1.00  0.00     0.000 HD 
HETATM   13  O   UNL     1     -12.192   8.775  72.608  1.00  0.00    -0.333 OA 
HETATM   14  C   UNL     1     -10.781   8.513  72.645  1.00  0.00    -0.135 C  
HETATM   15  O   UNL     1     -13.719   9.675  71.152  1.00  0.00    -0.304 OA 
BRANCH   4  16
HETATM   16  C   UNL     1      -9.666  10.604  67.354  1.00  0.00    -0.192 C  
BRANCH  16  17
HETATM   17  C   UNL     1      -9.484  12.079  67.194  1.00  0.00    -0.187 C  
HETATM   18  C   UNL     1     -10.291  12.923  66.524  1.00  0.00    -0.272 C  
HETATM   19  C   UNL     1     -11.583  12.540  65.851  1.00  0.00    -0.454 C  
BRANCH  18  20
HETATM   20  C   UNL     1      -9.891  14.373  66.400  1.00  0.00    -0.309 C  
BRANCH  20  21
HETATM   21  C   UNL     1     -10.199  14.895  65.003  1.00  0.00    -0.365 C  
BRANCH  21  22
HETATM   22  C   UNL     1     -10.808  16.267  65.071  1.00  0.00    -0.320 C  
HETATM   23  O   UNL     1     -11.364  16.850  64.154  1.00  0.00    -1.208 OA 
BRANCH  22  24
HETATM   24  O   UNL     1     -10.502  16.816  66.277  1.00  0.00    -0.307 OA 
BRANCH  24  25
HETATM   25  C   UNL     1     -10.262  18.231  66.207  1.00  0.00    -0.401 C  
BRANCH  25  26
HETATM   26  C   UNL     1      -8.771  18.433  66.530  1.00  0.00    -0.278 C  
BRANCH  26  27
HETATM   27  N   UNL     1      -8.317  17.965  67.843  1.00  0.00    -0.241 NA 
HETATM   28  C   UNL     1      -7.169  17.038  67.774  1.00  0.00    -0.152 C  
HETATM   29  C   UNL     1      -5.847  17.716  67.377  1.00  0.00    -0.143 C  
HETATM   30  O   UNL     1      -5.527  18.792  68.266  1.00  0.00    -0.186 OA 
HETATM   31  C   UNL     1      -6.583  19.759  68.304  1.00  0.00    -0.268 C  
HETATM   32  C   UNL     1      -7.926  19.114  68.696  1.00  0.00    -0.363 C  
ENDBRANCH  26  27
ENDBRANCH  25  26
ENDBRANCH  24  25
ENDBRANCH  22  24
ENDBRANCH  21  22
ENDBRANCH  20  21
ENDBRANCH  18  20
ENDBRANCH  16  17
ENDBRANCH   4  16
ENDBRANCH   2   3
TORSDOF 10
ENDMDL
MODEL       56
REMARK 921   NORMALIZED FREE ENERGY PREDICTED BY IDOCK:   -5.54 KCAL/MOL
REMARK 922        TOTAL FREE ENERGY PREDICTED BY IDOCK:  -10.32 KCAL/MOL
REMARK 923 INTER-LIGAND FREE ENERGY PREDICTED BY IDOCK:   -9.10 KCAL/MOL
REMARK 924 INTRA-LIGAND FREE ENERGY PREDICTED BY IDOCK:   -1.21 KCAL/MOL
REMARK 927      BINDING AFFINITY PREDICTED BY RF-SCORE:    0.00 PKD
ROOT
HETATM    1  C   UNL     1      -9.080  11.147  62.696  1.00  0.00    -0.330 C  
HETATM    2  O   UNL     1     -10.156  10.648  63.487  1.00  0.00    -0.323 OA 
ENDROOT
BRANCH   2   3
HETATM    3  C   UNL     1     -10.399  11.285  64.686  1.00  0.00    -0.315 A  
HETATM    4  C   UNL     1      -9.623  11.066  65.869  1.00  0.00    -0.255 A  
HETATM    5  C   UNL     1      -9.917  11.861  67.002  1.00  0.00    -0.202 A  
HETATM    6  C   UNL     1     -11.608  13.070  65.756  1.00  0.00    -0.396 A  
HETATM    7  O   UNL     1      -9.337  11.682  68.221  1.00  0.00    -0.181 OA 
HETATM    8  C   UNL     1     -11.396  12.292  64.624  1.00  0.00    -0.375 A  
HETATM    9  C   UNL     1     -10.881  12.856  66.909  1.00  0.00    -0.278 A  
HETATM   10  C   UNL     1     -11.299  13.836  67.916  1.00  0.00    -0.299 C  
HETATM   11  C   UNL     1     -12.208  12.503  63.377  1.00  0.00    -0.613 C  
HETATM   12  H   UNL     1      -9.535  12.215  68.981  1.00  0.00     0.000 HD 
HETATM   13  O   UNL     1     -12.286  14.596  67.333  1.00  0.00    -0.289 OA 
HETATM   14  C   UNL     1     -12.568  14.174  65.990  1.00  0.00    -0.375 C  
HETATM   15  O   UNL     1     -10.868  14.012  69.039  1.00  0.00    -0.251 OA 
BRANCH   4  16
HETATM   16  C   UNL     1      -8.605   9.943  65.869  1.00  0.00    -0.149 C  
BRANCH  16  17
HETATM   17  C   UNL     1      -8.972   8.606  66.426  1.00  0.00    -0.197 C  
HETATM   18  C   UNL     1      -8.793   7.409  65.835  1.00  0.00    -0.149 C  
HETATM   19  C   UNL     1      -8.123   7.189  64.505  1.00  0.00    -0.069 C  
BRANCH  18  20
HETATM   20  C   UNL     1      -9.311   6.169  66.523  1.00  0.00    -0.171 C  
BRANCH  20  21
HETATM   21  C   UNL     1     -10.569   6.487  67.320  1.00  0.00    -0.383 C  
BRANCH  21  22
HETATM   22  C   UNL     1     -10.470   5.927  68.711  1.00  0.00    -0.249 C  
HETATM   23  O   UNL     1      -9.552   5.250  69.147  1.00  0.00    -0.125 OA 
BRANCH  22  24
HETATM   24  O   UNL     1     -11.642   6.168  69.359  1.00  0.00    -0.372 OA 
BRANCH  24  25
HETATM   25  C   UNL     1     -11.500   6.190  70.788  1.00  0.00    -0.251 C  
BRANCH  25  26
HETATM   26  C   UNL     1     -12.635   7.084  71.321  1.00  0.00    -0.373 C  
BRANCH  26  27
HETATM   27  N   UNL     1     -12.248   8.141  72.261  1.00  0.00    -0.349 NA 
HETATM   28  C   UNL     1     -10.971   8.799  71.915  1.00  0.00    -0.365 C  
HETATM   29  C   UNL     1     -11.056   9.705  70.676  1.00  0.00    -0.319 C  
HETATM   30  O   UNL     1     -12.071  10.704  70.831  1.00  0.00    -0.330 OA 
HETATM   31  C   UNL     1     -13.346  10.106  71.090  1.00  0.00    -0.295 C  
HETATM   32  C   UNL     1     -13.299   9.187  72.325  1.00  0.00    -0.477 C  
ENDBRANCH  26  27
ENDBRANCH  25  26
ENDBRANCH  24  25
ENDBRANCH  22  24
ENDBRANCH  21  22
ENDBRANCH  20  21
ENDBRANCH  18  20
ENDBRANCH  16  17
ENDBRANCH   4  16
ENDBRANCH   2   3
TORSDOF 10
ENDMDL
MODEL       57
REMARK 921   NORMALIZED FREE ENERGY PREDICTED BY IDOCK:   -5.53 KCAL/MOL
REMARK 922        TOTAL FREE ENERGY PREDICTED BY IDOCK:  -10.31 KCAL/MOL
REMARK 923 INTER-LIGAND FREE ENERGY PREDICTED BY IDOCK:   -9.52 KCAL/MOL
REMARK 924 INTRA-LIGAND FREE ENERGY PREDICTED BY IDOCK:   -0.79 KCAL/MOL
REMARK 927      BINDING AFFINITY PREDICTED BY RF-SCORE:    0.00 PKD
ROOT
HETATM    1  C   UNL     1      -7.466   8.651  66.386  1.00  0.00    -0.087 C  
HETATM    2  O   UNL     1      -7.566   9.825  67.190  1.00  0.00    -0.091 OA 
ENDROOT
BRANCH   2   3
HETATM    3  C   UNL     1      -8.669   9.927  68.013  1.00  0.00    -0.125 A  
HETATM    4  C   UNL     1      -9.962  10.336  67.555  1.00  0.00    -0.226 A  
HETATM    5  C   UNL     1     -11.028  10.301  68.484  1.00  0.00    -0.247 A  
HETATM    6  C   UNL     1      -9.557   9.401  70.187  1.00  0.00    -0.275 A  
HETATM    7  O   UNL     1     -12.279  10.767  68.217  1.00  0.00    -0.815 OA 
HETATM    8  C   UNL     1      -8.461   9.455  69.333  1.00  0.00    -0.142 A  
HETATM    9  C   UNL     1     -10.805   9.812  69.765  1.00  0.00    -0.285 A  
HETATM   10  C   UNL     1     -11.759   9.615  70.859  1.00  0.00    -0.334 C  
HETATM   11  C   UNL     1      -7.095   9.037  69.802  1.00  0.00    -0.055 C  
HETATM   12  H   UNL     1     -12.995  10.743  68.841  1.00  0.00     0.000 HD 
HETATM   13  O   UNL     1     -11.040   9.110  71.917  1.00  0.00    -0.364 OA 
HETATM   14  C   UNL     1      -9.646   8.966  71.600  1.00  0.00    -0.293 C  
HETATM   15  O   UNL     1     -12.960   9.806  70.873  1.00  0.00    -0.308 OA 
BRANCH   4  16
HETATM   16  C   UNL     1     -10.094  10.869  66.142  1.00  0.00    -0.291 C  
BRANCH  16  17
HETATM   17  C   UNL     1     -10.925  12.082  65.878  1.00  0.00    -0.342 C  
HETATM   18  C   UNL     1     -11.391  12.497  64.684  1.00  0.00    -0.363 C  
HETATM   19  C   UNL     1     -11.208  11.768  63.380  1.00  0.00    -0.440 C  
BRANCH  18  20
HETATM   20  C   UNL     1     -12.144  13.803  64.607  1.00  0.00    -0.452 C  
BRANCH  20  21
HETATM   21  C   UNL     1     -11.579  14.805  65.605  1.00  0.00    -0.290 C  
BRANCH  21  22
HETATM   22  C   UNL     1     -11.100  16.042  64.900  1.00  0.00    -0.370 C  
HETATM   23  O   UNL     1     -11.647  16.583  63.951  1.00  0.00    -1.175 OA 
BRANCH  22  24
HETATM   24  O   UNL     1      -9.876  16.374  65.391  1.00  0.00    -0.515 OA 
BRANCH  24  25
HETATM   25  C   UNL     1      -9.930  17.406  66.389  1.00  0.00    -0.316 C  
BRANCH  25  26
HETATM   26  C   UNL     1      -8.498  17.559  66.932  1.00  0.00    -0.239 C  
BRANCH  26  27
HETATM   27  N   UNL     1      -8.329  17.412  68.381  1.00  0.00    -0.255 NA 
HETATM   28  C   UNL     1      -8.917  16.169  68.920  1.00  0.00    -0.247 C  
HETATM   29  C   UNL     1      -8.143  14.898  68.535  1.00  0.00    -0.147 C  
HETATM   30  O   UNL     1      -6.772  14.981  68.941  1.00  0.00    -0.092 OA 
HETATM   31  C   UNL     1      -6.137  16.134  68.376  1.00  0.00    -0.109 C  
HETATM   32  C   UNL     1      -6.889  17.429  68.739  1.00  0.00    -0.228 C  
ENDBRANCH  26  27
ENDBRANCH  25  26
ENDBRANCH  24  25
ENDBRANCH  22  24
ENDBRANCH  21  22
ENDBRANCH  20  21
ENDBRANCH  18  20
ENDBRANCH  16  17
ENDBRANCH   4  16
ENDBRANCH   2   3
TORSDOF 10
ENDMDL
MODEL       58
REMARK 921   NORMALIZED FREE ENERGY PREDICTED BY IDOCK:   -5.53 KCAL/MOL
REMARK 922        TOTAL FREE ENERGY PREDICTED BY IDOCK:  -10.31 KCAL/MOL
REMARK 923 INTER-LIGAND FREE ENERGY PREDICTED BY IDOCK:   -9.54 KCAL/MOL
REMARK 924 INTRA-LIGAND FREE ENERGY PREDICTED BY IDOCK:   -0.77 KCAL/MOL
REMARK 927      BINDING AFFINITY PREDICTED BY RF-SCORE:    0.00 PKD
ROOT
HETATM    1  C   UNL     1     -13.729  14.448  72.102  1.00  0.00    -0.463 C  
HETATM    2  O   UNL     1     -12.360  14.257  71.751  1.00  0.00    -0.338 OA 
ENDROOT
BRANCH   2   3
HETATM    3  C   UNL     1     -12.102  13.716  70.508  1.00  0.00    -0.339 A  
HETATM    4  C   UNL     1     -12.331  12.342  70.180  1.00  0.00    -0.209 A  
HETATM    5  C   UNL     1     -12.118  11.943  68.840  1.00  0.00    -0.155 A  
HETATM    6  C   UNL     1     -11.571  14.221  68.216  1.00  0.00    -0.358 A  
HETATM    7  O   UNL     1     -12.189  10.652  68.416  1.00  0.00    -0.822 OA 
HETATM    8  C   UNL     1     -11.722  14.664  69.525  1.00  0.00    -0.366 A  
HETATM    9  C   UNL     1     -11.770  12.894  67.890  1.00  0.00    -0.405 A  
HETATM   10  C   UNL     1     -11.571  12.730  66.447  1.00  0.00    -0.378 C  
HETATM   11  C   UNL     1     -11.477  16.102  69.886  1.00  0.00    -0.286 C  
HETATM   12  H   UNL     1     -12.046  10.384  67.516  1.00  0.00     0.000 HD 
HETATM   13  O   UNL     1     -11.235  13.971  65.957  1.00  0.00    -0.304 OA 
HETATM   14  C   UNL     1     -11.184  14.963  66.994  1.00  0.00    -0.344 C  
HETATM   15  O   UNL     1     -11.701  11.733  65.764  1.00  0.00    -0.359 OA 
BRANCH   4  16
HETATM   16  C   UNL     1     -12.694  11.383  71.297  1.00  0.00    -0.498 C  
BRANCH  16  17
HETATM   17  C   UNL     1     -12.065  10.028  71.349  1.00  0.00    -0.498 C  
HETATM   18  C   UNL     1     -12.593   8.914  71.890  1.00  0.00    -0.439 C  
HETATM   19  C   UNL     1     -13.965   8.811  72.501  1.00  0.00    -0.430 C  
BRANCH  18  20
HETATM   20  C   UNL     1     -11.764   7.653  71.923  1.00  0.00    -0.328 C  
BRANCH  20  21
HETATM   21  C   UNL     1     -10.716   7.732  73.025  1.00  0.00    -0.446 C  
BRANCH  21  22
HETATM   22  C   UNL     1      -9.356   8.002  72.445  1.00  0.00    -0.208 C  
HETATM   23  O   UNL     1      -8.445   8.593  73.003  1.00  0.00    -0.398 OA 
BRANCH  22  24
HETATM   24  O   UNL     1      -9.357   7.616  71.141  1.00  0.00    -0.153 OA 
BRANCH  24  25
HETATM   25  C   UNL     1      -8.101   7.063  70.716  1.00  0.00    -0.113 C  
BRANCH  25  26
HETATM   26  C   UNL     1      -8.211   5.540  70.913  1.00  0.00    -0.118 C  
BRANCH  26  27
HETATM   27  N   UNL     1      -9.496   4.927  70.566  1.00  0.00    -0.154 NA 
HETATM   28  C   UNL     1      -9.425   4.033  69.393  1.00  0.00    -0.189 C  
HETATM   29  C   UNL     1      -8.683   2.714  69.660  1.00  0.00    -0.076 C  
HETATM   30  O   UNL     1      -9.267   2.002  70.757  1.00  0.00    -0.091 OA 
HETATM   31  C   UNL     1      -9.284   2.805  71.942  1.00  0.00    -0.099 C  
HETATM   32  C   UNL     1     -10.020   4.139  71.710  1.00  0.00    -0.176 C  
ENDBRANCH  26  27
ENDBRANCH  25  26
ENDBRANCH  24  25
ENDBRANCH  22  24
ENDBRANCH  21  22
ENDBRANCH  20  21
ENDBRANCH  18  20
ENDBRANCH  16  17
ENDBRANCH   4  16
ENDBRANCH   2   3
TORSDOF 10
ENDMDL
MODEL       59
REMARK 921   NORMALIZED FREE ENERGY PREDICTED BY IDOCK:   -5.50 KCAL/MOL
REMARK 922        TOTAL FREE ENERGY PREDICTED BY IDOCK:  -10.25 KCAL/MOL
REMARK 923 INTER-LIGAND FREE ENERGY PREDICTED BY IDOCK:   -9.31 KCAL/MOL
REMARK 924 INTRA-LIGAND FREE ENERGY PREDICTED BY IDOCK:   -0.94 KCAL/MOL
REMARK 927      BINDING AFFINITY PREDICTED BY RF-SCORE:    0.00 PKD
ROOT
HETATM    1  C   UNL     1     -10.261  12.870  68.219  1.00  0.00    -0.245 C  
HETATM    2  O   UNL     1     -11.282  13.865  68.220  1.00  0.00    -0.249 OA 
ENDROOT
BRANCH   2   3
HETATM    3  C   UNL     1     -10.991  15.059  67.591  1.00  0.00    -0.305 A  
HETATM    4  C   UNL     1     -11.283  15.320  66.214  1.00  0.00    -0.223 A  
HETATM    5  C   UNL     1     -11.024  16.621  65.725  1.00  0.00     0.019 A  
HETATM    6  C   UNL     1     -10.314  17.344  67.926  1.00  0.00    -0.369 A  
HETATM    7  O   UNL     1     -11.147  16.974  64.416  1.00  0.00    -1.149 OA 
HETATM    8  C   UNL     1     -10.506  16.073  68.456  1.00  0.00    -0.258 A  
HETATM    9  C   UNL     1     -10.571  17.603  66.596  1.00  0.00    -0.211 A  
HETATM   10  C   UNL     1     -10.307  19.021  66.334  1.00  0.00    -0.448 C  
HETATM   11  C   UNL     1     -10.197  15.781  69.897  1.00  0.00    -0.277 C  
HETATM   12  H   UNL     1     -10.973  17.848  64.087  1.00  0.00     0.000 HD 
HETATM   13  O   UNL     1      -9.875  19.562  67.523  1.00  0.00    -0.324 OA 
HETATM   14  C   UNL     1      -9.820  18.582  68.571  1.00  0.00    -0.381 C  
HETATM   15  O   UNL     1     -10.459  19.652  65.306  1.00  0.00    -0.339 OA 
BRANCH   4  16
HETATM   16  C   UNL     1     -11.759  14.172  65.346  1.00  0.00    -0.347 C  
BRANCH  16  17
HETATM   17  C   UNL     1     -10.766  13.340  64.601  1.00  0.00    -0.415 C  
HETATM   18  C   UNL     1     -11.033  12.314  63.771  1.00  0.00    -0.495 C  
HETATM   19  C   UNL     1     -12.412  11.846  63.385  1.00  0.00    -0.582 C  
BRANCH  18  20
HETATM   20  C   UNL     1      -9.885  11.536  63.176  1.00  0.00    -0.413 C  
BRANCH  20  21
HETATM   21  C   UNL     1      -9.607  10.284  63.998  1.00  0.00    -0.365 C  
BRANCH  21  22
HETATM   22  C   UNL     1      -8.180  10.267  64.471  1.00  0.00    -0.158 C  
HETATM   23  O   UNL     1      -7.191  10.183  63.759  1.00  0.00    -0.131 OA 
BRANCH  22  24
HETATM   24  O   UNL     1      -8.176  10.205  65.829  1.00  0.00    -0.132 OA 
BRANCH  24  25
HETATM   25  C   UNL     1      -7.316   9.174  66.343  1.00  0.00    -0.092 C  
BRANCH  25  26
HETATM   26  C   UNL     1      -8.238   8.033  66.808  1.00  0.00    -0.111 C  
BRANCH  26  27
HETATM   27  N   UNL     1      -9.258   8.381  67.802  1.00  0.00    -0.131 NA 
HETATM   28  C   UNL     1     -10.635   8.074  67.366  1.00  0.00    -0.267 C  
HETATM   29  C   UNL     1     -10.953   6.570  67.326  1.00  0.00    -0.400 C  
HETATM   30  O   UNL     1     -10.716   5.955  68.597  1.00  0.00    -0.248 OA 
HETATM   31  C   UNL     1      -9.365   6.160  69.025  1.00  0.00    -0.128 C  
HETATM   32  C   UNL     1      -9.009   7.658  69.074  1.00  0.00    -0.137 C  
ENDBRANCH  26  27
ENDBRANCH  25  26
ENDBRANCH  24  25
ENDBRANCH  22  24
ENDBRANCH  21  22
ENDBRANCH  20  21
ENDBRANCH  18  20
ENDBRANCH  16  17
ENDBRANCH   4  16
ENDBRANCH   2   3
TORSDOF 10
ENDMDL
MODEL       60
REMARK 921   NORMALIZED FREE ENERGY PREDICTED BY IDOCK:   -5.48 KCAL/MOL
REMARK 922        TOTAL FREE ENERGY PREDICTED BY IDOCK:  -10.22 KCAL/MOL
REMARK 923 INTER-LIGAND FREE ENERGY PREDICTED BY IDOCK:   -9.45 KCAL/MOL
REMARK 924 INTRA-LIGAND FREE ENERGY PREDICTED BY IDOCK:   -0.77 KCAL/MOL
REMARK 927      BINDING AFFINITY PREDICTED BY RF-SCORE:    0.00 PKD
ROOT
HETATM    1  C   UNL     1     -14.031  14.357  72.379  1.00  0.00    -0.486 C  
HETATM    2  O   UNL     1     -12.672  13.985  72.162  1.00  0.00    -0.314 OA 
ENDROOT
BRANCH   2   3
HETATM    3  C   UNL     1     -12.344  13.517  70.906  1.00  0.00    -0.356 A  
HETATM    4  C   UNL     1     -12.536  12.160  70.493  1.00  0.00    -0.282 A  
HETATM    5  C   UNL     1     -12.251  11.838  69.146  1.00  0.00    -0.108 A  
HETATM    6  C   UNL     1     -11.709  14.153  68.674  1.00  0.00    -0.385 A  
HETATM    7  O   UNL     1     -12.281  10.572  68.648  1.00  0.00    -0.794 OA 
HETATM    8  C   UNL     1     -11.931  14.522  69.996  1.00  0.00    -0.388 A  
HETATM    9  C   UNL     1     -11.871  12.845  68.267  1.00  0.00    -0.372 A  
HETATM   10  C   UNL     1     -11.598  12.763  66.830  1.00  0.00    -0.370 C  
HETATM   11  C   UNL     1     -11.726  15.941  70.448  1.00  0.00    -0.371 C  
HETATM   12  H   UNL     1     -12.090  10.356  67.744  1.00  0.00     0.000 HD 
HETATM   13  O   UNL     1     -11.257  14.033  66.425  1.00  0.00    -0.308 OA 
HETATM   14  C   UNL     1     -11.273  14.967  67.516  1.00  0.00    -0.328 C  
HETATM   15  O   UNL     1     -11.679  11.804  66.087  1.00  0.00    -0.462 OA 
BRANCH   4  16
HETATM   16  C   UNL     1     -12.939  11.136  71.536  1.00  0.00    -0.542 C  
BRANCH  16  17
HETATM   17  C   UNL     1     -12.147   9.879  71.690  1.00  0.00    -0.457 C  
HETATM   18  C   UNL     1     -12.632   8.628  71.804  1.00  0.00    -0.396 C  
HETATM   19  C   UNL     1     -14.089   8.252  71.734  1.00  0.00    -0.510 C  
BRANCH  18  20
HETATM   20  C   UNL     1     -11.671   7.489  72.040  1.00  0.00    -0.333 C  
BRANCH  20  21
HETATM   21  C   UNL     1     -11.606   6.582  70.818  1.00  0.00    -0.437 C  
BRANCH  21  22
HETATM   22  C   UNL     1     -10.179   6.288  70.451  1.00  0.00    -0.200 C  
HETATM   23  O   UNL     1      -9.196   6.564  71.121  1.00  0.00    -0.155 OA 
BRANCH  22  24
HETATM   24  O   UNL     1     -10.149   5.805  69.180  1.00  0.00    -0.165 OA 
BRANCH  24  25
HETATM   25  C   UNL     1      -8.838   5.389  68.766  1.00  0.00    -0.103 C  
BRANCH  25  26
HETATM   26  C   UNL     1      -8.340   6.454  67.772  1.00  0.00    -0.118 C  
BRANCH  26  27
HETATM   27  N   UNL     1      -9.159   6.663  66.574  1.00  0.00    -0.146 NA 
HETATM   28  C   UNL     1      -9.166   8.062  66.100  1.00  0.00    -0.163 C  
HETATM   29  C   UNL     1      -7.837   8.511  65.471  1.00  0.00    -0.104 C  
HETATM   30  O   UNL     1      -7.459   7.653  64.389  1.00  0.00    -0.085 OA 
HETATM   31  C   UNL     1      -7.361   6.291  64.821  1.00  0.00    -0.075 C  
HETATM   32  C   UNL     1      -8.676   5.807  65.461  1.00  0.00    -0.138 C  
ENDBRANCH  26  27
ENDBRANCH  25  26
ENDBRANCH  24  25
ENDBRANCH  22  24
ENDBRANCH  21  22
ENDBRANCH  20  21
ENDBRANCH  18  20
ENDBRANCH  16  17
ENDBRANCH   4  16
ENDBRANCH   2   3
TORSDOF 10
ENDMDL
MODEL       61
REMARK 921   NORMALIZED FREE ENERGY PREDICTED BY IDOCK:   -5.46 KCAL/MOL
REMARK 922        TOTAL FREE ENERGY PREDICTED BY IDOCK:  -10.20 KCAL/MOL
REMARK 923 INTER-LIGAND FREE ENERGY PREDICTED BY IDOCK:   -8.98 KCAL/MOL
REMARK 924 INTRA-LIGAND FREE ENERGY PREDICTED BY IDOCK:   -1.22 KCAL/MOL
REMARK 927      BINDING AFFINITY PREDICTED BY RF-SCORE:    0.00 PKD
ROOT
HETATM    1  C   UNL     1     -11.310   6.136  69.275  1.00  0.00    -0.291 C  
HETATM    2  O   UNL     1      -9.949   6.523  69.098  1.00  0.00    -0.142 OA 
ENDROOT
BRANCH   2   3
HETATM    3  C   UNL     1      -9.719   7.749  68.507  1.00  0.00    -0.160 A  
HETATM    4  C   UNL     1      -9.722   8.987  69.227  1.00  0.00    -0.168 A  
HETATM    5  C   UNL     1      -9.372  10.159  68.516  1.00  0.00    -0.151 A  
HETATM    6  C   UNL     1      -8.957   8.859  66.513  1.00  0.00    -0.187 A  
HETATM    7  O   UNL     1      -9.442  11.411  69.044  1.00  0.00    -0.385 OA 
HETATM    8  C   UNL     1      -9.334   7.680  67.145  1.00  0.00    -0.180 A  
HETATM    9  C   UNL     1      -8.975  10.062  67.189  1.00  0.00    -0.146 A  
HETATM   10  C   UNL     1      -8.506  11.116  66.285  1.00  0.00    -0.168 C  
HETATM   11  C   UNL     1      -9.344   6.373  66.401  1.00  0.00    -0.176 C  
HETATM   12  H   UNL     1      -9.207  12.198  68.567  1.00  0.00     0.000 HD 
HETATM   13  O   UNL     1      -8.241  10.506  65.081  1.00  0.00    -0.161 OA 
HETATM   14  C   UNL     1      -8.519   9.098  65.118  1.00  0.00    -0.167 C  
HETATM   15  O   UNL     1      -8.329  12.297  66.511  1.00  0.00    -0.083 OA 
BRANCH   4  16
HETATM   16  C   UNL     1     -10.187   8.984  70.670  1.00  0.00    -0.284 C  
BRANCH  16  17
HETATM   17  C   UNL     1     -11.227   9.958  71.119  1.00  0.00    -0.404 C  
HETATM   18  C   UNL     1     -12.432   9.667  71.646  1.00  0.00    -0.494 C  
HETATM   19  C   UNL     1     -12.938   8.279  71.941  1.00  0.00    -0.371 C  
BRANCH  18  20
HETATM   20  C   UNL     1     -13.385  10.794  71.959  1.00  0.00    -0.403 C  
BRANCH  20  21
HETATM   21  C   UNL     1     -12.973  12.062  71.223  1.00  0.00    -0.315 C  
BRANCH  21  22
HETATM   22  C   UNL     1     -13.368  13.282  72.006  1.00  0.00    -0.489 C  
HETATM   23  O   UNL     1     -14.374  13.401  72.687  1.00  0.00    -0.709 OA 
BRANCH  22  24
HETATM   24  O   UNL     1     -12.500  14.286  71.710  1.00  0.00    -0.340 OA 
BRANCH  24  25
HETATM   25  C   UNL     1     -13.016  15.207  70.736  1.00  0.00    -0.414 C  
BRANCH  25  26
HETATM   26  C   UNL     1     -11.849  15.533  69.787  1.00  0.00    -0.359 C  
BRANCH  26  27
HETATM   27  N   UNL     1     -11.085  14.392  69.275  1.00  0.00    -0.265 NA 
HETATM   28  C   UNL     1     -11.810  13.607  68.255  1.00  0.00    -0.369 C  
HETATM   29  C   UNL     1     -11.953  14.326  66.904  1.00  0.00    -0.438 C  
HETATM   30  O   UNL     1     -10.676  14.708  66.380  1.00  0.00    -0.298 OA 
HETATM   31  C   UNL     1      -9.967  15.540  67.307  1.00  0.00    -0.238 C  
HETATM   32  C   UNL     1      -9.807  14.851  68.675  1.00  0.00    -0.225 C  
ENDBRANCH  26  27
ENDBRANCH  25  26
ENDBRANCH  24  25
ENDBRANCH  22  24
ENDBRANCH  21  22
ENDBRANCH  20  21
ENDBRANCH  18  20
ENDBRANCH  16  17
ENDBRANCH   4  16
ENDBRANCH   2   3
TORSDOF 10
ENDMDL
MODEL       62
REMARK 921   NORMALIZED FREE ENERGY PREDICTED BY IDOCK:   -5.45 KCAL/MOL
REMARK 922        TOTAL FREE ENERGY PREDICTED BY IDOCK:  -10.18 KCAL/MOL
REMARK 923 INTER-LIGAND FREE ENERGY PREDICTED BY IDOCK:   -9.14 KCAL/MOL
REMARK 924 INTRA-LIGAND FREE ENERGY PREDICTED BY IDOCK:   -1.04 KCAL/MOL
REMARK 927      BINDING AFFINITY PREDICTED BY RF-SCORE:    0.00 PKD
ROOT
HETATM    1  C   UNL     1      -9.089  10.703  65.191  1.00  0.00    -0.201 C  
HETATM    2  O   UNL     1     -10.277  10.039  65.616  1.00  0.00    -0.267 OA 
ENDROOT
BRANCH   2   3
HETATM    3  C   UNL     1     -10.522  10.002  66.974  1.00  0.00    -0.238 A  
HETATM    4  C   UNL     1     -11.280  10.999  67.667  1.00  0.00    -0.373 A  
HETATM    5  C   UNL     1     -11.540  10.786  69.041  1.00  0.00    -0.299 A  
HETATM    6  C   UNL     1     -10.409   8.644  68.957  1.00  0.00    -0.226 A  
HETATM    7  O   UNL     1     -12.149  11.700  69.845  1.00  0.00    -0.307 OA 
HETATM    8  C   UNL     1     -10.084   8.817  67.616  1.00  0.00    -0.273 A  
HETATM    9  C   UNL     1     -11.121   9.606  69.643  1.00  0.00    -0.223 A  
HETATM   10  C   UNL     1     -11.338   9.141  71.015  1.00  0.00    -0.309 C  
HETATM   11  C   UNL     1      -9.281   7.784  66.876  1.00  0.00    -0.187 C  
HETATM   12  H   UNL     1     -12.324  11.557  70.768  1.00  0.00     0.000 HD 
HETATM   13  O   UNL     1     -10.722   7.915  71.112  1.00  0.00    -0.223 OA 
HETATM   14  C   UNL     1     -10.090   7.532  69.881  1.00  0.00    -0.193 C  
HETATM   15  O   UNL     1     -11.960   9.671  71.915  1.00  0.00    -0.370 OA 
BRANCH   4  16
HETATM   16  C   UNL     1     -11.676  12.257  66.920  1.00  0.00    -0.404 C  
BRANCH  16  17
HETATM   17  C   UNL     1     -10.833  13.486  67.032  1.00  0.00    -0.287 C  
HETATM   18  C   UNL     1     -10.349  14.227  66.017  1.00  0.00    -0.318 C  
HETATM   19  C   UNL     1     -10.624  13.984  64.556  1.00  0.00    -0.332 C  
BRANCH  18  20
HETATM   20  C   UNL     1      -9.439  15.389  66.330  1.00  0.00    -0.342 C  
BRANCH  20  21
HETATM   21  C   UNL     1     -10.188  16.707  66.187  1.00  0.00    -0.360 C  
BRANCH  21  22
HETATM   22  C   UNL     1     -10.529  17.272  67.537  1.00  0.00    -0.356 C  
HETATM   23  O   UNL     1     -10.746  16.625  68.550  1.00  0.00    -0.314 OA 
BRANCH  22  24
HETATM   24  O   UNL     1     -10.709  18.614  67.412  1.00  0.00    -0.431 OA 
BRANCH  24  25
HETATM   25  C   UNL     1     -10.025  19.171  66.278  1.00  0.00    -0.401 C  
BRANCH  25  26
HETATM   26  C   UNL     1      -8.985  20.156  66.841  1.00  0.00    -0.344 C  
BRANCH  26  27
HETATM   27  N   UNL     1      -7.602  19.976  66.388  1.00  0.00    -0.286 NA 
HETATM   28  C   UNL     1      -6.662  20.962  66.958  1.00  0.00    -0.330 C  
HETATM   29  C   UNL     1      -6.372  20.753  68.453  1.00  0.00    -0.280 C  
HETATM   30  O   UNL     1      -5.876  19.433  68.706  1.00  0.00    -0.211 OA 
HETATM   31  C   UNL     1      -6.796  18.439  68.240  1.00  0.00    -0.238 C  
HETATM   32  C   UNL     1      -7.113  18.620  66.743  1.00  0.00    -0.214 C  
ENDBRANCH  26  27
ENDBRANCH  25  26
ENDBRANCH  24  25
ENDBRANCH  22  24
ENDBRANCH  21  22
ENDBRANCH  20  21
ENDBRANCH  18  20
ENDBRANCH  16  17
ENDBRANCH   4  16
ENDBRANCH   2   3
TORSDOF 10
ENDMDL
MODEL       63
REMARK 921   NORMALIZED FREE ENERGY PREDICTED BY IDOCK:   -5.43 KCAL/MOL
REMARK 922        TOTAL FREE ENERGY PREDICTED BY IDOCK:  -10.14 KCAL/MOL
REMARK 923 INTER-LIGAND FREE ENERGY PREDICTED BY IDOCK:   -8.38 KCAL/MOL
REMARK 924 INTRA-LIGAND FREE ENERGY PREDICTED BY IDOCK:   -1.77 KCAL/MOL
REMARK 927      BINDING AFFINITY PREDICTED BY RF-SCORE:    0.00 PKD
ROOT
HETATM    1  C   UNL     1     -11.357  15.313  64.863  1.00  0.00    -0.384 C  
HETATM    2  O   UNL     1     -10.495  14.852  65.902  1.00  0.00    -0.284 OA 
ENDROOT
BRANCH   2   3
HETATM    3  C   UNL     1     -11.098  14.319  67.024  1.00  0.00    -0.312 A  
HETATM    4  C   UNL     1     -11.495  12.948  67.132  1.00  0.00    -0.388 A  
HETATM    5  C   UNL     1     -12.009  12.511  68.375  1.00  0.00    -0.221 A  
HETATM    6  C   UNL     1     -11.639  14.705  69.336  1.00  0.00    -0.342 A  
HETATM    7  O   UNL     1     -12.527  11.269  68.583  1.00  0.00    -0.515 OA 
HETATM    8  C   UNL     1     -11.166  15.205  68.128  1.00  0.00    -0.326 A  
HETATM    9  C   UNL     1     -12.045  13.391  69.449  1.00  0.00    -0.321 A  
HETATM   10  C   UNL     1     -12.462  13.144  70.832  1.00  0.00    -0.323 C  
HETATM   11  C   UNL     1     -10.753  16.644  67.996  1.00  0.00    -0.350 C  
HETATM   12  H   UNL     1     -12.872  10.976  69.418  1.00  0.00     0.000 HD 
HETATM   13  O   UNL     1     -12.312  14.337  71.501  1.00  0.00    -0.341 OA 
HETATM   14  C   UNL     1     -11.827  15.380  70.641  1.00  0.00    -0.351 C  
HETATM   15  O   UNL     1     -12.835  12.109  71.347  1.00  0.00    -0.376 OA 
BRANCH   4  16
HETATM   16  C   UNL     1     -11.431  12.076  65.893  1.00  0.00    -0.392 C  
BRANCH  16  17
HETATM   17  C   UNL     1     -10.428  10.971  65.812  1.00  0.00    -0.290 C  
HETATM   18  C   UNL     1      -9.861  10.476  64.695  1.00  0.00    -0.404 C  
HETATM   19  C   UNL     1     -10.092  10.996  63.301  1.00  0.00    -0.400 C  
BRANCH  18  20
HETATM   20  C   UNL     1      -8.930   9.294  64.810  1.00  0.00    -0.217 C  
BRANCH  20  21
HETATM   21  C   UNL     1      -7.545   9.747  65.251  1.00  0.00    -0.119 C  
BRANCH  21  22
HETATM   22  C   UNL     1      -7.246   9.261  66.642  1.00  0.00    -0.082 C  
HETATM   23  O   UNL     1      -6.433   9.748  67.412  1.00  0.00    -0.067 OA 
BRANCH  22  24
HETATM   24  O   UNL     1      -7.919   8.097  66.847  1.00  0.00    -0.101 OA 
BRANCH  24  25
HETATM   25  C   UNL     1      -7.478   7.391  68.018  1.00  0.00    -0.105 C  
BRANCH  25  26
HETATM   26  C   UNL     1      -8.732   7.155  68.878  1.00  0.00    -0.128 C  
BRANCH  26  27
HETATM   27  N   UNL     1      -8.719   7.733  70.225  1.00  0.00    -0.142 NA 
HETATM   28  C   UNL     1      -8.401   9.176  70.245  1.00  0.00    -0.173 C  
HETATM   29  C   UNL     1      -9.528  10.067  69.697  1.00  0.00    -0.223 C  
HETATM   30  O   UNL     1     -10.754   9.848  70.404  1.00  0.00    -0.279 OA 
HETATM   31  C   UNL     1     -11.144   8.471  70.344  1.00  0.00    -0.231 C  
HETATM   32  C   UNL     1     -10.036   7.546  70.883  1.00  0.00    -0.191 C  
ENDBRANCH  26  27
ENDBRANCH  25  26
ENDBRANCH  24  25
ENDBRANCH  22  24
ENDBRANCH  21  22
ENDBRANCH  20  21
ENDBRANCH  18  20
ENDBRANCH  16  17
ENDBRANCH   4  16
ENDBRANCH   2   3
TORSDOF 10
ENDMDL
MODEL       64
REMARK 921   NORMALIZED FREE ENERGY PREDICTED BY IDOCK:   -5.40 KCAL/MOL
REMARK 922        TOTAL FREE ENERGY PREDICTED BY IDOCK:  -10.10 KCAL/MOL
REMARK 923 INTER-LIGAND FREE ENERGY PREDICTED BY IDOCK:   -9.37 KCAL/MOL
REMARK 924 INTRA-LIGAND FREE ENERGY PREDICTED BY IDOCK:   -0.74 KCAL/MOL
REMARK 927      BINDING AFFINITY PREDICTED BY RF-SCORE:    0.00 PKD
ROOT
HETATM    1  C   UNL     1      -7.094  10.189  68.631  1.00  0.00    -0.074 C  
HETATM    2  O   UNL     1      -8.164   9.411  68.100  1.00  0.00    -0.116 OA 
ENDROOT
BRANCH   2   3
HETATM    3  C   UNL     1      -9.040   8.850  69.006  1.00  0.00    -0.137 A  
HETATM    4  C   UNL     1     -10.235   9.497  69.456  1.00  0.00    -0.225 A  
HETATM    5  C   UNL     1     -11.095   8.767  70.309  1.00  0.00    -0.222 A  
HETATM    6  C   UNL     1      -9.646   6.829  70.164  1.00  0.00    -0.165 A  
HETATM    7  O   UNL     1     -12.202   9.296  70.899  1.00  0.00    -0.380 OA 
HETATM    8  C   UNL     1      -8.741   7.510  69.358  1.00  0.00    -0.137 A  
HETATM    9  C   UNL     1     -10.792   7.447  70.620  1.00  0.00    -0.258 A  
HETATM   10  C   UNL     1     -11.560   6.485  71.415  1.00  0.00    -0.318 C  
HETATM   11  C   UNL     1      -7.477   6.847  68.885  1.00  0.00    -0.096 C  
HETATM   12  H   UNL     1     -12.779   8.806  71.472  1.00  0.00     0.000 HD 
HETATM   13  O   UNL     1     -10.831   5.319  71.426  1.00  0.00    -0.189 OA 
HETATM   14  C   UNL     1      -9.603   5.446  70.692  1.00  0.00    -0.172 C  
HETATM   15  O   UNL     1     -12.645   6.623  71.946  1.00  0.00    -0.350 OA 
BRANCH   4  16
HETATM   16  C   UNL     1     -10.463  10.945  69.070  1.00  0.00    -0.244 C  
BRANCH  16  17
HETATM   17  C   UNL     1     -10.905  11.287  67.685  1.00  0.00    -0.286 C  
HETATM   18  C   UNL     1     -11.552  12.402  67.296  1.00  0.00    -0.435 C  
HETATM   19  C   UNL     1     -11.903  13.560  68.192  1.00  0.00    -0.400 C  
BRANCH  18  20
HETATM   20  C   UNL     1     -11.994  12.527  65.858  1.00  0.00    -0.472 C  
BRANCH  20  21
HETATM   21  C   UNL     1     -11.026  13.406  65.077  1.00  0.00    -0.328 C  
BRANCH  21  22
HETATM   22  C   UNL     1     -11.723  14.634  64.561  1.00  0.00    -0.401 C  
HETATM   23  O   UNL     1     -12.553  14.663  63.666  1.00  0.00    -0.773 OA 
BRANCH  22  24
HETATM   24  O   UNL     1     -11.165  15.726  65.149  1.00  0.00    -0.320 OA 
BRANCH  24  25
HETATM   25  C   UNL     1      -9.842  15.480  65.654  1.00  0.00    -0.342 C  
BRANCH  25  26
HETATM   26  C   UNL     1      -9.341  16.818  66.224  1.00  0.00    -0.279 C  
BRANCH  26  27
HETATM   27  N   UNL     1     -10.360  17.716  66.777  1.00  0.00    -0.339 NA 
HETATM   28  C   UNL     1     -10.161  18.025  68.207  1.00  0.00    -0.395 C  
HETATM   29  C   UNL     1      -8.964  18.949  68.483  1.00  0.00    -0.351 C  
HETATM   30  O   UNL     1      -9.074  20.175  67.750  1.00  0.00    -0.335 OA 
HETATM   31  C   UNL     1      -9.190  19.926  66.344  1.00  0.00    -0.380 C  
HETATM   32  C   UNL     1     -10.380  18.999  66.031  1.00  0.00    -0.446 C  
ENDBRANCH  26  27
ENDBRANCH  25  26
ENDBRANCH  24  25
ENDBRANCH  22  24
ENDBRANCH  21  22
ENDBRANCH  20  21
ENDBRANCH  18  20
ENDBRANCH  16  17
ENDBRANCH   4  16
ENDBRANCH   2   3
TORSDOF 10
ENDMDL
MODEL       65
REMARK 921   NORMALIZED FREE ENERGY PREDICTED BY IDOCK:   -5.38 KCAL/MOL
REMARK 922        TOTAL FREE ENERGY PREDICTED BY IDOCK:  -10.07 KCAL/MOL
REMARK 923 INTER-LIGAND FREE ENERGY PREDICTED BY IDOCK:   -8.60 KCAL/MOL
REMARK 924 INTRA-LIGAND FREE ENERGY PREDICTED BY IDOCK:   -1.47 KCAL/MOL
REMARK 927      BINDING AFFINITY PREDICTED BY RF-SCORE:    0.00 PKD
ROOT
HETATM    1  C   UNL     1      -7.037  12.412  67.598  1.00  0.00    -0.133 C  
HETATM    2  O   UNL     1      -8.272  11.719  67.762  1.00  0.00    -0.130 OA 
ENDROOT
BRANCH   2   3
HETATM    3  C   UNL     1      -9.227  11.900  66.782  1.00  0.00    -0.194 A  
HETATM    4  C   UNL     1      -9.355  11.052  65.637  1.00  0.00    -0.239 A  
HETATM    5  C   UNL     1     -10.441  11.291  64.762  1.00  0.00    -0.323 A  
HETATM    6  C   UNL     1     -11.244  13.074  66.195  1.00  0.00    -0.320 A  
HETATM    7  O   UNL     1     -10.618  10.637  63.582  1.00  0.00    -0.493 OA 
HETATM    8  C   UNL     1     -10.173  12.916  67.068  1.00  0.00    -0.243 A  
HETATM    9  C   UNL     1     -11.368  12.276  65.076  1.00  0.00    -0.376 A  
HETATM   10  C   UNL     1     -12.596  12.649  64.367  1.00  0.00    -0.387 C  
HETATM   11  C   UNL     1     -10.020  13.804  68.271  1.00  0.00    -0.243 C  
HETATM   12  H   UNL     1     -11.347  10.798  62.994  1.00  0.00     0.000 HD 
HETATM   13  O   UNL     1     -13.158  13.683  65.080  1.00  0.00    -0.750 OA 
HETATM   14  C   UNL     1     -12.369  14.037  66.227  1.00  0.00    -0.448 C  
HETATM   15  O   UNL     1     -13.086  12.155  63.371  1.00  0.00    -0.752 OA 
BRANCH   4  16
HETATM   16  C   UNL     1      -8.278  10.016  65.379  1.00  0.00    -0.149 C  
BRANCH  16  17
HETATM   17  C   UNL     1      -8.451   8.620  65.883  1.00  0.00    -0.158 C  
HETATM   18  C   UNL     1      -7.656   7.973  66.755  1.00  0.00    -0.094 C  
HETATM   19  C   UNL     1      -6.455   8.568  67.442  1.00  0.00    -0.058 C  
BRANCH  18  20
HETATM   20  C   UNL     1      -7.948   6.528  67.078  1.00  0.00    -0.112 C  
BRANCH  20  21
HETATM   21  C   UNL     1      -9.440   6.247  66.964  1.00  0.00    -0.146 C  
BRANCH  21  22
HETATM   22  C   UNL     1      -9.784   4.937  67.617  1.00  0.00    -0.159 C  
HETATM   23  O   UNL     1      -9.798   3.846  67.068  1.00  0.00    -0.201 OA 
BRANCH  22  24
HETATM   24  O   UNL     1     -10.226   5.185  68.878  1.00  0.00    -0.189 OA 
BRANCH  24  25
HETATM   25  C   UNL     1     -11.160   6.275  68.944  1.00  0.00    -0.362 C  
BRANCH  25  26
HETATM   26  C   UNL     1     -11.216   6.710  70.419  1.00  0.00    -0.344 C  
BRANCH  26  27
HETATM   27  N   UNL     1     -11.274   8.152  70.673  1.00  0.00    -0.263 NA 
HETATM   28  C   UNL     1     -11.019   8.513  72.083  1.00  0.00    -0.357 C  
HETATM   29  C   UNL     1      -9.556   8.330  72.516  1.00  0.00    -0.295 C  
HETATM   30  O   UNL     1      -8.668   9.075  71.674  1.00  0.00    -0.331 OA 
HETATM   31  C   UNL     1      -8.824   8.699  70.301  1.00  0.00    -0.152 C  
HETATM   32  C   UNL     1     -10.282   8.867  69.832  1.00  0.00    -0.200 C  
ENDBRANCH  26  27
ENDBRANCH  25  26
ENDBRANCH  24  25
ENDBRANCH  22  24
ENDBRANCH  21  22
ENDBRANCH  20  21
ENDBRANCH  18  20
ENDBRANCH  16  17
ENDBRANCH   4  16
ENDBRANCH   2   3
TORSDOF 10
ENDMDL
MODEL       66
REMARK 921   NORMALIZED FREE ENERGY PREDICTED BY IDOCK:   -5.37 KCAL/MOL
REMARK 922        TOTAL FREE ENERGY PREDICTED BY IDOCK:  -10.05 KCAL/MOL
REMARK 923 INTER-LIGAND FREE ENERGY PREDICTED BY IDOCK:   -9.38 KCAL/MOL
REMARK 924 INTRA-LIGAND FREE ENERGY PREDICTED BY IDOCK:   -0.67 KCAL/MOL
REMARK 927      BINDING AFFINITY PREDICTED BY RF-SCORE:    0.00 PKD
ROOT
HETATM    1  C   UNL     1     -10.835   5.819  66.519  1.00  0.00    -0.153 C  
HETATM    2  O   UNL     1     -11.195   7.050  67.143  1.00  0.00    -0.315 OA 
ENDROOT
BRANCH   2   3
HETATM    3  C   UNL     1     -10.202   7.714  67.835  1.00  0.00    -0.198 A  
HETATM    4  C   UNL     1      -9.404   8.757  67.266  1.00  0.00    -0.181 A  
HETATM    5  C   UNL     1      -8.491   9.421  68.117  1.00  0.00    -0.120 A  
HETATM    6  C   UNL     1      -9.241   8.102  70.007  1.00  0.00    -0.155 A  
HETATM    7  O   UNL     1      -7.594  10.350  67.685  1.00  0.00    -0.089 OA 
HETATM    8  C   UNL     1     -10.126   7.383  69.211  1.00  0.00    -0.186 A  
HETATM    9  C   UNL     1      -8.451   9.096  69.467  1.00  0.00    -0.128 A  
HETATM   10  C   UNL     1      -7.648   9.692  70.538  1.00  0.00    -0.132 C  
HETATM   11  C   UNL     1     -10.966   6.280  69.792  1.00  0.00    -0.444 C  
HETATM   12  H   UNL     1      -6.981  10.797  68.257  1.00  0.00     0.000 HD 
HETATM   13  O   UNL     1      -7.972   9.014  71.690  1.00  0.00    -0.326 OA 
HETATM   14  C   UNL     1      -8.942   7.982  71.452  1.00  0.00    -0.141 C  
HETATM   15  O   UNL     1      -6.869  10.624  70.485  1.00  0.00    -0.309 OA 
BRANCH   4  16
HETATM   16  C   UNL     1      -9.514   9.022  65.777  1.00  0.00    -0.305 C  
BRANCH  16  17
HETATM   17  C   UNL     1     -10.076  10.319  65.292  1.00  0.00    -0.359 C  
HETATM   18  C   UNL     1      -9.995  10.816  64.043  1.00  0.00    -0.403 C  
HETATM   19  C   UNL     1      -9.363  10.117  62.869  1.00  0.00    -0.320 C  
BRANCH  18  20
HETATM   20  C   UNL     1     -10.554  12.191  63.766  1.00  0.00    -0.482 C  
BRANCH  20  21
HETATM   21  C   UNL     1     -10.376  13.094  64.979  1.00  0.00    -0.346 C  
BRANCH  21  22
HETATM   22  C   UNL     1     -11.358  14.232  64.941  1.00  0.00    -0.372 C  
HETATM   23  O   UNL     1     -12.556  14.136  64.729  1.00  0.00    -0.608 OA 
BRANCH  22  24
HETATM   24  O   UNL     1     -10.668  15.401  65.027  1.00  0.00    -0.405 OA 
BRANCH  24  25
HETATM   25  C   UNL     1      -9.625  15.367  66.014  1.00  0.00    -0.347 C  
BRANCH  25  26
HETATM   26  C   UNL     1      -9.296  16.834  66.347  1.00  0.00    -0.278 C  
BRANCH  26  27
HETATM   27  N   UNL     1     -10.407  17.658  66.833  1.00  0.00    -0.335 NA 
HETATM   28  C   UNL     1     -10.265  18.065  68.246  1.00  0.00    -0.395 C  
HETATM   29  C   UNL     1      -9.167  19.114  68.483  1.00  0.00    -0.376 C  
HETATM   30  O   UNL     1      -9.381  20.281  67.679  1.00  0.00    -0.363 OA 
HETATM   31  C   UNL     1      -9.447  19.943  66.289  1.00  0.00    -0.410 C  
HETATM   32  C   UNL     1     -10.536  18.889  66.014  1.00  0.00    -0.403 C  
ENDBRANCH  26  27
ENDBRANCH  25  26
ENDBRANCH  24  25
ENDBRANCH  22  24
ENDBRANCH  21  22
ENDBRANCH  20  21
ENDBRANCH  18  20
ENDBRANCH  16  17
ENDBRANCH   4  16
ENDBRANCH   2   3
TORSDOF 10
ENDMDL
MODEL       67
REMARK 921   NORMALIZED FREE ENERGY PREDICTED BY IDOCK:   -5.36 KCAL/MOL
REMARK 922        TOTAL FREE ENERGY PREDICTED BY IDOCK:  -10.03 KCAL/MOL
REMARK 923 INTER-LIGAND FREE ENERGY PREDICTED BY IDOCK:   -8.61 KCAL/MOL
REMARK 924 INTRA-LIGAND FREE ENERGY PREDICTED BY IDOCK:   -1.42 KCAL/MOL
REMARK 927      BINDING AFFINITY PREDICTED BY RF-SCORE:    0.00 PKD
ROOT
HETATM    1  C   UNL     1      -6.876  11.029  66.223  1.00  0.00    -0.096 C  
HETATM    2  O   UNL     1      -8.094  10.293  66.314  1.00  0.00    -0.121 OA 
ENDROOT
BRANCH   2   3
HETATM    3  C   UNL     1      -9.266  11.000  66.142  1.00  0.00    -0.190 A  
HETATM    4  C   UNL     1      -9.828  11.855  67.143  1.00  0.00    -0.206 A  
HETATM    5  C   UNL     1     -10.980  12.599  66.799  1.00  0.00    -0.262 A  
HETATM    6  C   UNL     1     -10.914  11.717  64.542  1.00  0.00    -0.376 A  
HETATM    7  O   UNL     1     -11.680  13.361  67.683  1.00  0.00    -0.318 OA 
HETATM    8  C   UNL     1      -9.807  10.928  64.834  1.00  0.00    -0.339 A  
HETATM    9  C   UNL     1     -11.478  12.530  65.504  1.00  0.00    -0.389 A  
HETATM   10  C   UNL     1     -12.601  13.257  64.905  1.00  0.00    -0.384 C  
HETATM   11  C   UNL     1      -9.211  10.019  63.797  1.00  0.00    -0.314 C  
HETATM   12  H   UNL     1     -12.454  13.861  67.452  1.00  0.00     0.000 HD 
HETATM   13  O   UNL     1     -12.687  12.832  63.600  1.00  0.00    -0.707 OA 
HETATM   14  C   UNL     1     -11.689  11.848  63.287  1.00  0.00    -0.302 C  
HETATM   15  O   UNL     1     -13.320  14.101  65.403  1.00  0.00    -0.705 OA 
BRANCH   4  16
HETATM   16  C   UNL     1      -9.216  11.844  68.531  1.00  0.00    -0.136 C  
BRANCH  16  17
HETATM   17  C   UNL     1      -9.354  10.633  69.395  1.00  0.00    -0.082 C  
HETATM   18  C   UNL     1     -10.423  10.288  70.137  1.00  0.00    -0.259 C  
HETATM   19  C   UNL     1     -11.725  11.043  70.187  1.00  0.00    -0.442 C  
BRANCH  18  20
HETATM   20  C   UNL     1     -10.339   9.065  71.017  1.00  0.00    -0.348 C  
BRANCH  20  21
HETATM   21  C   UNL     1     -11.693   8.768  71.649  1.00  0.00    -0.402 C  
BRANCH  21  22
HETATM   22  C   UNL     1     -11.946   7.287  71.688  1.00  0.00    -0.308 C  
HETATM   23  O   UNL     1     -13.041   6.747  71.680  1.00  0.00    -0.328 OA 
BRANCH  22  24
HETATM   24  O   UNL     1     -10.761   6.651  71.890  1.00  0.00    -0.217 OA 
BRANCH  24  25
HETATM   25  C   UNL     1     -10.660   5.408  71.176  1.00  0.00    -0.206 C  
BRANCH  25  26
HETATM   26  C   UNL     1      -9.716   5.667  69.988  1.00  0.00    -0.173 C  
BRANCH  26  27
HETATM   27  N   UNL     1     -10.165   5.182  68.679  1.00  0.00    -0.154 NA 
HETATM   28  C   UNL     1     -11.057   6.125  67.975  1.00  0.00    -0.214 C  
HETATM   29  C   UNL     1     -10.343   7.380  67.448  1.00  0.00    -0.270 C  
HETATM   30  O   UNL     1      -9.254   7.034  66.585  1.00  0.00    -0.148 OA 
HETATM   31  C   UNL     1      -8.318   6.181  67.254  1.00  0.00    -0.105 C  
HETATM   32  C   UNL     1      -9.000   4.912  67.799  1.00  0.00    -0.109 C  
ENDBRANCH  26  27
ENDBRANCH  25  26
ENDBRANCH  24  25
ENDBRANCH  22  24
ENDBRANCH  21  22
ENDBRANCH  20  21
ENDBRANCH  18  20
ENDBRANCH  16  17
ENDBRANCH   4  16
ENDBRANCH   2   3
TORSDOF 10
ENDMDL
MODEL       68
REMARK 921   NORMALIZED FREE ENERGY PREDICTED BY IDOCK:   -5.35 KCAL/MOL
REMARK 922        TOTAL FREE ENERGY PREDICTED BY IDOCK:  -10.02 KCAL/MOL
REMARK 923 INTER-LIGAND FREE ENERGY PREDICTED BY IDOCK:   -8.86 KCAL/MOL
REMARK 924 INTRA-LIGAND FREE ENERGY PREDICTED BY IDOCK:   -1.17 KCAL/MOL
REMARK 927      BINDING AFFINITY PREDICTED BY RF-SCORE:    0.00 PKD
ROOT
HETATM    1  C   UNL     1      -8.289   9.316  68.285  1.00  0.00    -0.120 C  
HETATM    2  O   UNL     1      -8.623   9.828  69.573  1.00  0.00    -0.148 OA 
ENDROOT
BRANCH   2   3
HETATM    3  C   UNL     1      -9.782   9.354  70.154  1.00  0.00    -0.235 A  
HETATM    4  C   UNL     1     -11.066   9.955  69.961  1.00  0.00    -0.335 A  
HETATM    5  C   UNL     1     -12.186   9.308  70.533  1.00  0.00     0.050 A  
HETATM    6  C   UNL     1     -10.773   7.517  71.352  1.00  0.00    -0.243 A  
HETATM    7  O   UNL     1     -13.445   9.826  70.524  1.00  0.00    -0.606 OA 
HETATM    8  C   UNL     1      -9.629   8.128  70.850  1.00  0.00    -0.187 A  
HETATM    9  C   UNL     1     -12.015   8.096  71.190  1.00  0.00    -0.296 A  
HETATM   10  C   UNL     1     -13.024   7.219  71.791  1.00  0.00    -0.326 C  
HETATM   11  C   UNL     1      -8.272   7.514  71.051  1.00  0.00    -0.108 C  
HETATM   12  H   UNL     1     -14.197   9.391  70.908  1.00  0.00     0.000 HD 
HETATM   13  O   UNL     1     -12.343   6.146  72.316  1.00  0.00    -0.271 OA 
HETATM   14  C   UNL     1     -10.925   6.256  72.114  1.00  0.00    -0.257 C  
HETATM   15  O   UNL     1     -14.232   7.345  71.815  1.00  0.00    -0.407 OA 
BRANCH   4  16
HETATM   16  C   UNL     1     -11.141  11.288  69.242  1.00  0.00    -0.314 C  
BRANCH  16  17
HETATM   17  C   UNL     1     -11.424  11.327  67.775  1.00  0.00    -0.350 C  
HETATM   18  C   UNL     1     -10.607  11.787  66.808  1.00  0.00    -0.273 C  
HETATM   19  C   UNL     1      -9.207  12.299  67.024  1.00  0.00    -0.205 C  
BRANCH  18  20
HETATM   20  C   UNL     1     -11.108  11.824  65.385  1.00  0.00    -0.336 C  
BRANCH  20  21
HETATM   21  C   UNL     1     -12.445  12.549  65.308  1.00  0.00    -0.390 C  
BRANCH  21  22
HETATM   22  C   UNL     1     -12.398  13.639  64.274  1.00  0.00    -0.335 C  
HETATM   23  O   UNL     1     -12.447  13.480  63.064  1.00  0.00    -0.709 OA 
BRANCH  22  24
HETATM   24  O   UNL     1     -12.138  14.818  64.899  1.00  0.00    -0.384 OA 
BRANCH  24  25
HETATM   25  C   UNL     1     -10.787  15.269  64.709  1.00  0.00    -0.358 C  
BRANCH  25  26
HETATM   26  C   UNL     1     -10.274  15.696  66.096  1.00  0.00    -0.311 C  
BRANCH  26  27
HETATM   27  N   UNL     1     -11.275  16.217  67.031  1.00  0.00    -0.013 NA 
HETATM   28  C   UNL     1     -11.660  15.252  68.081  1.00  0.00    -0.330 C  
HETATM   29  C   UNL     1     -10.565  15.009  69.133  1.00  0.00    -0.251 C  
HETATM   30  O   UNL     1     -10.157  16.235  69.751  1.00  0.00    -0.225 OA 
HETATM   31  C   UNL     1      -9.699  17.177  68.774  1.00  0.00    -0.277 C  
HETATM   32  C   UNL     1     -10.771  17.443  67.700  1.00  0.00    -0.310 C  
ENDBRANCH  26  27
ENDBRANCH  25  26
ENDBRANCH  24  25
ENDBRANCH  22  24
ENDBRANCH  21  22
ENDBRANCH  20  21
ENDBRANCH  18  20
ENDBRANCH  16  17
ENDBRANCH   4  16
ENDBRANCH   2   3
TORSDOF 10
ENDMDL
MODEL       69
REMARK 921   NORMALIZED FREE ENERGY PREDICTED BY IDOCK:   -5.35 KCAL/MOL
REMARK 922        TOTAL FREE ENERGY PREDICTED BY IDOCK:  -10.01 KCAL/MOL
REMARK 923 INTER-LIGAND FREE ENERGY PREDICTED BY IDOCK:   -9.37 KCAL/MOL
REMARK 924 INTRA-LIGAND FREE ENERGY PREDICTED BY IDOCK:   -0.65 KCAL/MOL
REMARK 927      BINDING AFFINITY PREDICTED BY RF-SCORE:    0.00 PKD
ROOT
HETATM    1  C   UNL     1     -10.548  10.526  66.328  1.00  0.00    -0.133 C  
HETATM    2  O   UNL     1     -11.635  11.359  66.727  1.00  0.00    -0.465 OA 
ENDROOT
BRANCH   2   3
HETATM    3  C   UNL     1     -11.489  12.716  66.525  1.00  0.00    -0.353 A  
HETATM    4  C   UNL     1     -10.806  13.583  67.437  1.00  0.00    -0.279 A  
HETATM    5  C   UNL     1     -10.643  14.936  67.058  1.00  0.00    -0.289 A  
HETATM    6  C   UNL     1     -11.720  14.503  64.929  1.00  0.00    -0.402 A  
HETATM    7  O   UNL     1     -10.115  15.890  67.872  1.00  0.00    -0.230 OA 
HETATM    8  C   UNL     1     -11.948  13.173  65.264  1.00  0.00    -0.437 A  
HETATM    9  C   UNL     1     -11.080  15.354  65.807  1.00  0.00    -0.260 A  
HETATM   10  C   UNL     1     -10.955  16.671  65.177  1.00  0.00    -0.151 C  
HETATM   11  C   UNL     1     -12.672  12.252  64.322  1.00  0.00    -0.413 C  
HETATM   12  H   UNL     1     -10.006  16.799  67.617  1.00  0.00     0.000 HD 
HETATM   13  O   UNL     1     -11.550  16.569  63.941  1.00  0.00    -1.175 OA 
HETATM   14  C   UNL     1     -12.082  15.256  63.707  1.00  0.00     0.376 C  
HETATM   15  O   UNL     1     -10.413  17.674  65.598  1.00  0.00    -0.606 OA 
BRANCH   4  16
HETATM   16  C   UNL     1     -10.383  13.029  68.783  1.00  0.00    -0.146 C  
BRANCH  16  17
HETATM   17  C   UNL     1     -11.351  12.234  69.598  1.00  0.00    -0.207 C  
HETATM   18  C   UNL     1     -12.103  12.681  70.621  1.00  0.00    -0.315 C  
HETATM   19  C   UNL     1     -12.153  14.107  71.104  1.00  0.00    -0.392 C  
BRANCH  18  20
HETATM   20  C   UNL     1     -12.961  11.700  71.382  1.00  0.00    -0.426 C  
BRANCH  20  21
HETATM   21  C   UNL     1     -13.009  10.360  70.660  1.00  0.00    -0.357 C  
BRANCH  21  22
HETATM   22  C   UNL     1     -13.055   9.227  71.646  1.00  0.00    -0.382 C  
HETATM   23  O   UNL     1     -13.754   9.178  72.646  1.00  0.00    -0.470 OA 
BRANCH  22  24
HETATM   24  O   UNL     1     -12.079   8.336  71.328  1.00  0.00    -0.288 OA 
BRANCH  24  25
HETATM   25  C   UNL     1     -11.601   7.594  72.462  1.00  0.00    -0.330 C  
BRANCH  25  26
HETATM   26  C   UNL     1     -11.317   6.168  71.959  1.00  0.00    -0.297 C  
BRANCH  26  27
HETATM   27  N   UNL     1      -9.948   5.675  72.132  1.00  0.00    -0.175 NA 
HETATM   28  C   UNL     1      -9.680   4.413  71.413  1.00  0.00    -0.178 C  
HETATM   29  C   UNL     1      -9.603   4.572  69.886  1.00  0.00    -0.199 C  
HETATM   30  O   UNL     1      -8.617   5.542  69.513  1.00  0.00    -0.103 OA 
HETATM   31  C   UNL     1      -8.882   6.808  70.127  1.00  0.00    -0.141 C  
HETATM   32  C   UNL     1      -8.969   6.686  71.661  1.00  0.00    -0.141 C  
ENDBRANCH  26  27
ENDBRANCH  25  26
ENDBRANCH  24  25
ENDBRANCH  22  24
ENDBRANCH  21  22
ENDBRANCH  20  21
ENDBRANCH  18  20
ENDBRANCH  16  17
ENDBRANCH   4  16
ENDBRANCH   2   3
TORSDOF 10
ENDMDL
MODEL       70
REMARK 921   NORMALIZED FREE ENERGY PREDICTED BY IDOCK:   -5.31 KCAL/MOL
REMARK 922        TOTAL FREE ENERGY PREDICTED BY IDOCK:   -9.96 KCAL/MOL
REMARK 923 INTER-LIGAND FREE ENERGY PREDICTED BY IDOCK:   -9.29 KCAL/MOL
REMARK 924 INTRA-LIGAND FREE ENERGY PREDICTED BY IDOCK:   -0.67 KCAL/MOL
REMARK 927      BINDING AFFINITY PREDICTED BY RF-SCORE:    0.00 PKD
ROOT
HETATM    1  C   UNL     1      -8.035  10.736  68.978  1.00  0.00    -0.137 C  
HETATM    2  O   UNL     1      -8.172  10.387  67.602  1.00  0.00    -0.110 OA 
ENDROOT
BRANCH   2   3
HETATM    3  C   UNL     1      -8.631   9.116  67.322  1.00  0.00    -0.118 A  
HETATM    4  C   UNL     1     -10.011   8.740  67.391  1.00  0.00    -0.267 A  
HETATM    5  C   UNL     1     -10.355   7.431  66.980  1.00  0.00    -0.314 A  
HETATM    6  C   UNL     1      -8.049   6.976  66.388  1.00  0.00    -0.112 A  
HETATM    7  O   UNL     1     -11.605   6.907  67.098  1.00  0.00    -0.653 OA 
HETATM    8  C   UNL     1      -7.642   8.235  66.818  1.00  0.00    -0.091 A  
HETATM    9  C   UNL     1      -9.372   6.594  66.467  1.00  0.00    -0.191 A  
HETATM   10  C   UNL     1      -9.504   5.241  65.921  1.00  0.00    -0.142 C  
HETATM   11  C   UNL     1      -6.196   8.641  66.761  1.00  0.00    -0.059 C  
HETATM   12  H   UNL     1     -11.836   6.028  66.823  1.00  0.00     0.000 HD 
HETATM   13  O   UNL     1      -8.239   4.847  65.550  1.00  0.00    -0.110 OA 
HETATM   14  C   UNL     1      -7.257   5.857  65.829  1.00  0.00    -0.075 C  
HETATM   15  O   UNL     1     -10.506   4.571  65.766  1.00  0.00    -0.280 OA 
BRANCH   4  16
HETATM   16  C   UNL     1     -11.001   9.725  67.981  1.00  0.00    -0.236 C  
BRANCH  16  17
HETATM   17  C   UNL     1     -11.344  10.973  67.235  1.00  0.00    -0.265 C  
HETATM   18  C   UNL     1     -11.711  12.155  67.766  1.00  0.00    -0.390 C  
HETATM   19  C   UNL     1     -11.784  12.461  69.239  1.00  0.00    -0.386 C  
BRANCH  18  20
HETATM   20  C   UNL     1     -12.105  13.281  66.841  1.00  0.00    -0.389 C  
BRANCH  20  21
HETATM   21  C   UNL     1     -12.370  12.752  65.438  1.00  0.00    -0.528 C  
BRANCH  21  22
HETATM   22  C   UNL     1     -11.988  13.775  64.405  1.00  0.00    -0.445 C  
HETATM   23  O   UNL     1     -12.569  13.979  63.351  1.00  0.00    -0.845 OA 
BRANCH  22  24
HETATM   24  O   UNL     1     -10.799  14.329  64.764  1.00  0.00    -0.390 OA 
BRANCH  24  25
HETATM   25  C   UNL     1     -10.851  15.761  64.859  1.00  0.00    -0.413 C  
BRANCH  25  26
HETATM   26  C   UNL     1      -9.682  16.178  65.770  1.00  0.00    -0.290 C  
BRANCH  26  27
HETATM   27  N   UNL     1      -9.478  17.618  65.954  1.00  0.00    -0.522 NA 
HETATM   28  C   UNL     1     -10.396  18.222  66.941  1.00  0.00    -0.385 C  
HETATM   29  C   UNL     1     -10.092  17.828  68.395  1.00  0.00    -0.376 C  
HETATM   30  O   UNL     1      -8.743  18.152  68.750  1.00  0.00    -0.294 OA 
HETATM   31  C   UNL     1      -7.811  17.521  67.864  1.00  0.00    -0.218 C  
HETATM   32  C   UNL     1      -8.088  17.892  66.395  1.00  0.00    -0.261 C  
ENDBRANCH  26  27
ENDBRANCH  25  26
ENDBRANCH  24  25
ENDBRANCH  22  24
ENDBRANCH  21  22
ENDBRANCH  20  21
ENDBRANCH  18  20
ENDBRANCH  16  17
ENDBRANCH   4  16
ENDBRANCH   2   3
TORSDOF 10
ENDMDL
MODEL       71
REMARK 921   NORMALIZED FREE ENERGY PREDICTED BY IDOCK:   -5.30 KCAL/MOL
REMARK 922        TOTAL FREE ENERGY PREDICTED BY IDOCK:   -9.94 KCAL/MOL
REMARK 923 INTER-LIGAND FREE ENERGY PREDICTED BY IDOCK:   -8.98 KCAL/MOL
REMARK 924 INTRA-LIGAND FREE ENERGY PREDICTED BY IDOCK:   -0.97 KCAL/MOL
REMARK 927      BINDING AFFINITY PREDICTED BY RF-SCORE:    0.00 PKD
ROOT
HETATM    1  C   UNL     1      -9.118   8.637  67.151  1.00  0.00    -0.133 C  
HETATM    2  O   UNL     1      -8.777   9.963  66.749  1.00  0.00    -0.128 OA 
ENDROOT
BRANCH   2   3
HETATM    3  C   UNL     1      -9.821  10.811  66.440  1.00  0.00    -0.209 A  
HETATM    4  C   UNL     1     -10.486  11.630  67.408  1.00  0.00    -0.239 A  
HETATM    5  C   UNL     1     -11.473  12.528  66.938  1.00  0.00    -0.353 A  
HETATM    6  C   UNL     1     -11.046  11.852  64.650  1.00  0.00    -0.373 A  
HETATM    7  O   UNL     1     -12.259  13.281  67.756  1.00  0.00    -0.287 OA 
HETATM    8  C   UNL     1     -10.097  10.920  65.054  1.00  0.00    -0.362 A  
HETATM    9  C   UNL     1     -11.710  12.634  65.574  1.00  0.00    -0.446 A  
HETATM   10  C   UNL     1     -12.620  13.534  64.860  1.00  0.00    -0.342 C  
HETATM   11  C   UNL     1      -9.396  10.046  64.052  1.00  0.00    -0.324 C  
HETATM   12  H   UNL     1     -12.922  13.884  67.441  1.00  0.00     0.000 HD 
HETATM   13  O   UNL     1     -12.486  13.242  63.523  1.00  0.00    -0.728 OA 
HETATM   14  C   UNL     1     -11.542  12.184  63.295  1.00  0.00    -0.332 C  
HETATM   15  O   UNL     1     -13.340  14.406  65.305  1.00  0.00    -0.574 OA 
BRANCH   4  16
HETATM   16  C   UNL     1     -10.165  11.424  68.875  1.00  0.00    -0.184 C  
BRANCH  16  17
HETATM   17  C   UNL     1     -11.235  10.972  69.815  1.00  0.00    -0.339 C  
HETATM   18  C   UNL     1     -11.133  10.009  70.750  1.00  0.00    -0.407 C  
HETATM   19  C   UNL     1      -9.880   9.236  71.068  1.00  0.00    -0.355 C  
BRANCH  18  20
HETATM   20  C   UNL     1     -12.357   9.634  71.550  1.00  0.00    -0.477 C  
BRANCH  20  21
HETATM   21  C   UNL     1     -12.143   8.304  72.261  1.00  0.00    -0.439 C  
BRANCH  21  22
HETATM   22  C   UNL     1     -13.077   7.258  71.722  1.00  0.00    -0.317 C  
HETATM   23  O   UNL     1     -14.187   7.462  71.254  1.00  0.00    -0.407 OA 
BRANCH  22  24
HETATM   24  O   UNL     1     -12.550   6.032  71.982  1.00  0.00    -0.100 OA 
BRANCH  24  25
HETATM   25  C   UNL     1     -11.121   5.992  71.842  1.00  0.00    -0.277 C  
BRANCH  25  26
HETATM   26  C   UNL     1     -10.840   5.500  70.411  1.00  0.00    -0.204 C  
BRANCH  26  27
HETATM   27  N   UNL     1      -9.516   5.808  69.863  1.00  0.00    -0.147 NA 
HETATM   28  C   UNL     1      -8.402   5.373  70.730  1.00  0.00    -0.116 C  
HETATM   29  C   UNL     1      -8.209   3.849  70.775  1.00  0.00    -0.066 C  
HETATM   30  O   UNL     1      -8.017   3.310  69.462  1.00  0.00    -0.049 OA 
HETATM   31  C   UNL     1      -9.116   3.641  68.604  1.00  0.00    -0.142 C  
HETATM   32  C   UNL     1      -9.341   5.164  68.537  1.00  0.00    -0.125 C  
ENDBRANCH  26  27
ENDBRANCH  25  26
ENDBRANCH  24  25
ENDBRANCH  22  24
ENDBRANCH  21  22
ENDBRANCH  20  21
ENDBRANCH  18  20
ENDBRANCH  16  17
ENDBRANCH   4  16
ENDBRANCH   2   3
TORSDOF 10
ENDMDL
MODEL       72
REMARK 921   NORMALIZED FREE ENERGY PREDICTED BY IDOCK:   -5.29 KCAL/MOL
REMARK 922        TOTAL FREE ENERGY PREDICTED BY IDOCK:   -9.92 KCAL/MOL
REMARK 923 INTER-LIGAND FREE ENERGY PREDICTED BY IDOCK:   -9.02 KCAL/MOL
REMARK 924 INTRA-LIGAND FREE ENERGY PREDICTED BY IDOCK:   -0.90 KCAL/MOL
REMARK 927      BINDING AFFINITY PREDICTED BY RF-SCORE:    0.00 PKD
ROOT
HETATM    1  C   UNL     1     -10.377   7.198  66.998  1.00  0.00    -0.298 C  
HETATM    2  O   UNL     1      -9.677   7.575  68.182  1.00  0.00    -0.149 OA 
ENDROOT
BRANCH   2   3
HETATM    3  C   UNL     1     -10.323   8.442  69.041  1.00  0.00    -0.218 A  
HETATM    4  C   UNL     1     -10.402   9.855  68.827  1.00  0.00    -0.222 A  
HETATM    5  C   UNL     1     -11.180  10.612  69.733  1.00  0.00    -0.297 A  
HETATM    6  C   UNL     1     -11.816   8.598  70.921  1.00  0.00    -0.257 A  
HETATM    7  O   UNL     1     -11.251  11.971  69.715  1.00  0.00    -0.465 OA 
HETATM    8  C   UNL     1     -11.033   7.805  70.090  1.00  0.00    -0.246 A  
HETATM    9  C   UNL     1     -11.885   9.964  70.738  1.00  0.00    -0.415 A  
HETATM   10  C   UNL     1     -12.801  10.525  71.735  1.00  0.00    -0.454 C  
HETATM   11  C   UNL     1     -10.932   6.321  70.307  1.00  0.00    -0.400 C  
HETATM   12  H   UNL     1     -11.773  12.480  70.323  1.00  0.00     0.000 HD 
HETATM   13  O   UNL     1     -13.236   9.469  72.502  1.00  0.00    -0.408 OA 
HETATM   14  C   UNL     1     -12.653   8.225  72.085  1.00  0.00    -0.337 C  
HETATM   15  O   UNL     1     -13.169  11.675  71.876  1.00  0.00    -0.485 OA 
BRANCH   4  16
HETATM   16  C   UNL     1      -9.580  10.464  67.709  1.00  0.00    -0.169 C  
BRANCH  16  17
HETATM   17  C   UNL     1     -10.129  11.607  66.918  1.00  0.00    -0.238 C  
HETATM   18  C   UNL     1     -10.306  11.654  65.584  1.00  0.00    -0.306 C  
HETATM   19  C   UNL     1     -10.034  10.520  64.631  1.00  0.00    -0.415 C  
BRANCH  18  20
HETATM   20  C   UNL     1     -10.796  12.936  64.956  1.00  0.00    -0.323 C  
BRANCH  20  21
HETATM   21  C   UNL     1     -11.325  13.885  66.023  1.00  0.00    -0.324 C  
BRANCH  21  22
HETATM   22  C   UNL     1     -11.074  15.315  65.633  1.00  0.00    -0.308 C  
HETATM   23  O   UNL     1     -11.035  15.749  64.492  1.00  0.00    -0.450 OA 
BRANCH  22  24
HETATM   24  O   UNL     1     -10.744  16.017  66.750  1.00  0.00    -0.317 OA 
BRANCH  24  25
HETATM   25  C   UNL     1     -10.541  15.181  67.901  1.00  0.00    -0.257 C  
BRANCH  25  26
HETATM   26  C   UNL     1      -9.383  15.810  68.694  1.00  0.00    -0.206 C  
BRANCH  26  27
HETATM   27  N   UNL     1      -8.070  15.173  68.551  1.00  0.00    -0.138 NA 
HETATM   28  C   UNL     1      -7.585  15.128  67.156  1.00  0.00    -0.168 C  
HETATM   29  C   UNL     1      -7.163  16.498  66.601  1.00  0.00    -0.210 C  
HETATM   30  O   UNL     1      -6.162  17.106  67.425  1.00  0.00    -0.130 OA 
HETATM   31  C   UNL     1      -6.620  17.244  68.775  1.00  0.00    -0.197 C  
HETATM   32  C   UNL     1      -7.055  15.888  69.364  1.00  0.00    -0.215 C  
ENDBRANCH  26  27
ENDBRANCH  25  26
ENDBRANCH  24  25
ENDBRANCH  22  24
ENDBRANCH  21  22
ENDBRANCH  20  21
ENDBRANCH  18  20
ENDBRANCH  16  17
ENDBRANCH   4  16
ENDBRANCH   2   3
TORSDOF 10
ENDMDL
MODEL       73
REMARK 921   NORMALIZED FREE ENERGY PREDICTED BY IDOCK:   -5.29 KCAL/MOL
REMARK 922        TOTAL FREE ENERGY PREDICTED BY IDOCK:   -9.92 KCAL/MOL
REMARK 923 INTER-LIGAND FREE ENERGY PREDICTED BY IDOCK:   -9.16 KCAL/MOL
REMARK 924 INTRA-LIGAND FREE ENERGY PREDICTED BY IDOCK:   -0.76 KCAL/MOL
REMARK 927      BINDING AFFINITY PREDICTED BY RF-SCORE:    0.00 PKD
ROOT
HETATM    1  C   UNL     1      -9.993   4.262  74.025  1.00  0.00    -0.145 C  
HETATM    2  O   UNL     1      -9.254   5.116  73.153  1.00  0.00    -0.126 OA 
ENDROOT
BRANCH   2   3
HETATM    3  C   UNL     1      -9.659   5.165  71.835  1.00  0.00    -0.150 A  
HETATM    4  C   UNL     1     -10.727   5.994  71.366  1.00  0.00    -0.314 A  
HETATM    5  C   UNL     1     -10.971   6.023  69.973  1.00  0.00    -0.380 A  
HETATM    6  C   UNL     1      -9.097   4.537  69.581  1.00  0.00    -0.166 A  
HETATM    7  O   UNL     1     -12.021   6.676  69.403  1.00  0.00    -0.611 OA 
HETATM    8  C   UNL     1      -8.836   4.433  70.942  1.00  0.00    -0.146 A  
HETATM    9  C   UNL     1     -10.137   5.316  69.116  1.00  0.00    -0.289 A  
HETATM   10  C   UNL     1     -10.151   5.256  67.652  1.00  0.00    -0.171 C  
HETATM   11  C   UNL     1      -7.723   3.560  71.452  1.00  0.00    -0.056 C  
HETATM   12  H   UNL     1     -12.185   6.696  68.468  1.00  0.00     0.000 HD 
HETATM   13  O   UNL     1      -9.124   4.417  67.287  1.00  0.00    -0.119 OA 
HETATM   14  C   UNL     1      -8.424   3.896  68.428  1.00  0.00    -0.092 C  
HETATM   15  O   UNL     1     -10.875   5.838  66.868  1.00  0.00    -0.295 OA 
BRANCH   4  16
HETATM   16  C   UNL     1     -11.587   6.713  72.386  1.00  0.00    -0.281 C  
BRANCH  16  17
HETATM   17  C   UNL     1     -11.846   8.177  72.243  1.00  0.00    -0.441 C  
HETATM   18  C   UNL     1     -13.015   8.762  71.919  1.00  0.00    -0.421 C  
HETATM   19  C   UNL     1     -14.316   8.038  71.697  1.00  0.00    -0.581 C  
BRANCH  18  20
HETATM   20  C   UNL     1     -13.057  10.260  71.737  1.00  0.00    -0.570 C  
BRANCH  20  21
HETATM   21  C   UNL     1     -11.955  10.714  70.789  1.00  0.00    -0.477 C  
BRANCH  21  22
HETATM   22  C   UNL     1     -12.195  12.126  70.335  1.00  0.00    -0.294 C  
HETATM   23  O   UNL     1     -12.590  13.046  71.035  1.00  0.00    -0.364 OA 
BRANCH  22  24
HETATM   24  O   UNL     1     -12.048  12.177  68.984  1.00  0.00    -0.267 OA 
BRANCH  24  25
HETATM   25  C   UNL     1     -10.673  12.222  68.569  1.00  0.00    -0.237 C  
BRANCH  25  26
HETATM   26  C   UNL     1     -10.302  13.712  68.461  1.00  0.00    -0.243 C  
BRANCH  26  27
HETATM   27  N   UNL     1     -11.325  14.602  67.905  1.00  0.00    -0.301 NA 
HETATM   28  C   UNL     1     -11.756  15.662  68.840  1.00  0.00    -0.384 C  
HETATM   29  C   UNL     1     -10.699  16.753  69.070  1.00  0.00    -0.331 C  
HETATM   30  O   UNL     1     -10.294  17.354  67.835  1.00  0.00    -0.334 OA 
HETATM   31  C   UNL     1      -9.793  16.370  66.923  1.00  0.00    -0.261 C  
HETATM   32  C   UNL     1     -10.827  15.256  66.670  1.00  0.00    -0.310 C  
ENDBRANCH  26  27
ENDBRANCH  25  26
ENDBRANCH  24  25
ENDBRANCH  22  24
ENDBRANCH  21  22
ENDBRANCH  20  21
ENDBRANCH  18  20
ENDBRANCH  16  17
ENDBRANCH   4  16
ENDBRANCH   2   3
TORSDOF 10
ENDMDL
MODEL       74
REMARK 921   NORMALIZED FREE ENERGY PREDICTED BY IDOCK:   -5.27 KCAL/MOL
REMARK 922        TOTAL FREE ENERGY PREDICTED BY IDOCK:   -9.89 KCAL/MOL
REMARK 923 INTER-LIGAND FREE ENERGY PREDICTED BY IDOCK:   -8.71 KCAL/MOL
REMARK 924 INTRA-LIGAND FREE ENERGY PREDICTED BY IDOCK:   -1.18 KCAL/MOL
REMARK 927      BINDING AFFINITY PREDICTED BY RF-SCORE:    0.00 PKD
ROOT
HETATM    1  C   UNL     1     -11.908  14.135  64.073  1.00  0.00    -0.271 C  
HETATM    2  O   UNL     1     -10.762  14.200  64.919  1.00  0.00    -0.382 OA 
ENDROOT
BRANCH   2   3
HETATM    3  C   UNL     1     -10.989  14.404  66.265  1.00  0.00    -0.318 A  
HETATM    4  C   UNL     1     -11.305  13.352  67.182  1.00  0.00    -0.344 A  
HETATM    5  C   UNL     1     -11.414  13.687  68.552  1.00  0.00    -0.312 A  
HETATM    6  C   UNL     1     -10.823  15.987  68.070  1.00  0.00    -0.335 A  
HETATM    7  O   UNL     1     -11.817  12.812  69.514  1.00  0.00    -0.308 OA 
HETATM    8  C   UNL     1     -10.744  15.729  66.706  1.00  0.00    -0.293 A  
HETATM    9  C   UNL     1     -11.146  14.986  68.963  1.00  0.00    -0.270 A  
HETATM   10  C   UNL     1     -11.125  15.541  70.319  1.00  0.00    -0.328 C  
HETATM   11  C   UNL     1     -10.422  16.825  65.729  1.00  0.00    -0.305 C  
HETATM   12  H   UNL     1     -11.891  13.036  70.433  1.00  0.00     0.000 HD 
HETATM   13  O   UNL     1     -10.809  16.873  70.189  1.00  0.00    -0.180 OA 
HETATM   14  C   UNL     1     -10.627  17.252  68.815  1.00  0.00    -0.305 C  
HETATM   15  O   UNL     1     -11.304  14.977  71.381  1.00  0.00    -0.336 OA 
BRANCH   4  16
HETATM   16  C   UNL     1     -11.594  11.971  66.627  1.00  0.00    -0.389 C  
BRANCH  16  17
HETATM   17  C   UNL     1     -10.508  10.946  66.577  1.00  0.00    -0.308 C  
HETATM   18  C   UNL     1      -9.951  10.414  65.473  1.00  0.00    -0.348 C  
HETATM   19  C   UNL     1     -10.284  10.805  64.057  1.00  0.00    -0.390 C  
BRANCH  18  20
HETATM   20  C   UNL     1      -8.921   9.322  65.626  1.00  0.00    -0.243 C  
BRANCH  20  21
HETATM   21  C   UNL     1      -9.523   8.117  66.338  1.00  0.00    -0.285 C  
BRANCH  21  22
HETATM   22  C   UNL     1      -8.745   7.793  67.582  1.00  0.00    -0.126 C  
HETATM   23  O   UNL     1      -7.715   7.139  67.632  1.00  0.00    -0.107 OA 
BRANCH  22  24
HETATM   24  O   UNL     1      -9.458   8.215  68.660  1.00  0.00    -0.146 OA 
BRANCH  24  25
HETATM   25  C   UNL     1      -8.856   7.848  69.912  1.00  0.00    -0.141 C  
BRANCH  25  26
HETATM   26  C   UNL     1      -9.928   7.072  70.697  1.00  0.00    -0.186 C  
BRANCH  26  27
HETATM   27  N   UNL     1     -10.442   7.712  71.911  1.00  0.00    -0.211 NA 
HETATM   28  C   UNL     1     -10.793   9.135  71.724  1.00  0.00    -0.345 C  
HETATM   29  C   UNL     1     -12.056   9.357  70.875  1.00  0.00    -0.255 C  
HETATM   30  O   UNL     1     -13.182   8.666  71.429  1.00  0.00    -0.310 OA 
HETATM   31  C   UNL     1     -12.915   7.265  71.555  1.00  0.00    -0.389 C  
HETATM   32  C   UNL     1     -11.652   7.004  72.398  1.00  0.00    -0.245 C  
ENDBRANCH  26  27
ENDBRANCH  25  26
ENDBRANCH  24  25
ENDBRANCH  22  24
ENDBRANCH  21  22
ENDBRANCH  20  21
ENDBRANCH  18  20
ENDBRANCH  16  17
ENDBRANCH   4  16
ENDBRANCH   2   3
TORSDOF 10
ENDMDL
MODEL       75
REMARK 921   NORMALIZED FREE ENERGY PREDICTED BY IDOCK:   -5.25 KCAL/MOL
REMARK 922        TOTAL FREE ENERGY PREDICTED BY IDOCK:   -9.86 KCAL/MOL
REMARK 923 INTER-LIGAND FREE ENERGY PREDICTED BY IDOCK:   -8.48 KCAL/MOL
REMARK 924 INTRA-LIGAND FREE ENERGY PREDICTED BY IDOCK:   -1.37 KCAL/MOL
REMARK 927      BINDING AFFINITY PREDICTED BY RF-SCORE:    0.00 PKD
ROOT
HETATM    1  C   UNL     1      -9.079  13.966  67.371  1.00  0.00    -0.217 C  
HETATM    2  O   UNL     1     -10.469  13.737  67.154  1.00  0.00    -0.269 OA 
ENDROOT
BRANCH   2   3
HETATM    3  C   UNL     1     -11.164  13.106  68.166  1.00  0.00    -0.271 A  
HETATM    4  C   UNL     1     -11.251  11.683  68.298  1.00  0.00    -0.320 A  
HETATM    5  C   UNL     1     -11.911  11.169  69.438  1.00  0.00    -0.345 A  
HETATM    6  C   UNL     1     -12.274  13.414  70.279  1.00  0.00    -0.405 A  
HETATM    7  O   UNL     1     -12.163   9.846  69.633  1.00  0.00    -0.446 OA 
HETATM    8  C   UNL     1     -11.675  13.979  69.159  1.00  0.00    -0.375 A  
HETATM    9  C   UNL     1     -12.382  12.044  70.409  1.00  0.00    -0.317 A  
HETATM   10  C   UNL     1     -13.024  11.743  71.691  1.00  0.00    -0.362 C  
HETATM   11  C   UNL     1     -11.584  15.471  69.001  1.00  0.00    -0.377 C  
HETATM   12  H   UNL     1     -12.606   9.501  70.399  1.00  0.00     0.000 HD 
HETATM   13  O   UNL     1     -13.303  12.955  72.280  1.00  0.00    -0.534 OA 
HETATM   14  C   UNL     1     -12.893  14.059  71.459  1.00  0.00    -0.362 C  
HETATM   15  O   UNL     1     -13.254  10.663  72.198  1.00  0.00    -0.464 OA 
BRANCH   4  16
HETATM   16  C   UNL     1     -10.718  10.818  67.172  1.00  0.00    -0.324 C  
BRANCH  16  17
HETATM   17  C   UNL     1     -10.571   9.345  67.371  1.00  0.00    -0.326 C  
HETATM   18  C   UNL     1      -9.782   8.510  66.668  1.00  0.00    -0.318 C  
HETATM   19  C   UNL     1      -8.838   8.926  65.571  1.00  0.00    -0.238 C  
BRANCH  18  20
HETATM   20  C   UNL     1      -9.836   7.031  66.963  1.00  0.00    -0.239 C  
BRANCH  20  21
HETATM   21  C   UNL     1     -11.124   6.679  67.694  1.00  0.00    -0.357 C  
BRANCH  21  22
HETATM   22  C   UNL     1     -10.824   6.100  69.048  1.00  0.00    -0.350 C  
HETATM   23  O   UNL     1     -10.339   5.001  69.265  1.00  0.00    -0.213 OA 
BRANCH  22  24
HETATM   24  O   UNL     1     -11.323   6.937  69.997  1.00  0.00    -0.298 OA 
BRANCH  24  25
HETATM   25  C   UNL     1     -10.473   7.052  71.150  1.00  0.00    -0.211 C  
BRANCH  25  26
HETATM   26  C   UNL     1      -9.366   8.053  70.773  1.00  0.00    -0.157 C  
BRANCH  26  27
HETATM   27  N   UNL     1      -7.985   7.611  70.988  1.00  0.00    -0.093 NA 
HETATM   28  C   UNL     1      -7.271   7.281  69.738  1.00  0.00    -0.082 C  
HETATM   29  C   UNL     1      -6.918   8.508  68.882  1.00  0.00    -0.062 C  
HETATM   30  O   UNL     1      -6.145   9.456  69.627  1.00  0.00    -0.038 OA 
HETATM   31  C   UNL     1      -6.836   9.867  70.812  1.00  0.00    -0.024 C  
HETATM   32  C   UNL     1      -7.209   8.660  71.695  1.00  0.00    -0.091 C  
ENDBRANCH  26  27
ENDBRANCH  25  26
ENDBRANCH  24  25
ENDBRANCH  22  24
ENDBRANCH  21  22
ENDBRANCH  20  21
ENDBRANCH  18  20
ENDBRANCH  16  17
ENDBRANCH   4  16
ENDBRANCH   2   3
TORSDOF 10
ENDMDL
MODEL       76
REMARK 921   NORMALIZED FREE ENERGY PREDICTED BY IDOCK:   -5.25 KCAL/MOL
REMARK 922        TOTAL FREE ENERGY PREDICTED BY IDOCK:   -9.85 KCAL/MOL
REMARK 923 INTER-LIGAND FREE ENERGY PREDICTED BY IDOCK:   -8.70 KCAL/MOL
REMARK 924 INTRA-LIGAND FREE ENERGY PREDICTED BY IDOCK:   -1.15 KCAL/MOL
REMARK 927      BINDING AFFINITY PREDICTED BY RF-SCORE:    0.00 PKD
ROOT
HETATM    1  C   UNL     1      -7.396   9.022  68.339  1.00  0.00    -0.078 C  
HETATM    2  O   UNL     1      -7.724   9.887  69.425  1.00  0.00    -0.094 OA 
ENDROOT
BRANCH   2   3
HETATM    3  C   UNL     1      -9.016   9.824  69.906  1.00  0.00    -0.229 A  
HETATM    4  C   UNL     1     -10.141  10.391  69.226  1.00  0.00    -0.248 A  
HETATM    5  C   UNL     1     -11.423  10.167  69.780  1.00  0.00    -0.228 A  
HETATM    6  C   UNL     1     -10.460   8.804  71.538  1.00  0.00    -0.373 A  
HETATM    7  O   UNL     1     -12.563  10.738  69.302  1.00  0.00    -0.681 OA 
HETATM    8  C   UNL     1      -9.171   9.025  71.066  1.00  0.00    -0.331 A  
HETATM    9  C   UNL     1     -11.552   9.361  70.903  1.00  0.00    -0.380 A  
HETATM   10  C   UNL     1     -12.768   8.935  71.601  1.00  0.00    -0.349 C  
HETATM   11  C   UNL     1      -7.979   8.444  71.773  1.00  0.00    -0.173 C  
HETATM   12  H   UNL     1     -13.423  10.587  69.674  1.00  0.00     0.000 HD 
HETATM   13  O   UNL     1     -12.358   8.148  72.652  1.00  0.00    -0.300 OA 
HETATM   14  C   UNL     1     -10.928   8.030  72.710  1.00  0.00    -0.382 C  
HETATM   15  O   UNL     1     -13.930   9.166  71.327  1.00  0.00    -0.302 OA 
BRANCH   4  16
HETATM   16  C   UNL     1      -9.888  11.268  68.015  1.00  0.00    -0.186 C  
BRANCH  16  17
HETATM   17  C   UNL     1      -9.613  12.726  68.197  1.00  0.00    -0.223 C  
HETATM   18  C   UNL     1      -8.444  13.359  67.982  1.00  0.00    -0.173 C  
HETATM   19  C   UNL     1      -7.191  12.713  67.450  1.00  0.00    -0.138 C  
BRANCH  18  20
HETATM   20  C   UNL     1      -8.338  14.829  68.306  1.00  0.00    -0.148 C  
BRANCH  20  21
HETATM   21  C   UNL     1      -7.506  15.549  67.253  1.00  0.00    -0.258 C  
BRANCH  21  22
HETATM   22  C   UNL     1      -8.221  16.776  66.761  1.00  0.00    -0.235 C  
HETATM   23  O   UNL     1      -8.338  17.828  67.368  1.00  0.00    -0.218 OA 
BRANCH  22  24
HETATM   24  O   UNL     1      -8.849  16.471  65.594  1.00  0.00    -0.428 OA 
BRANCH  24  25
HETATM   25  C   UNL     1     -10.259  16.249  65.754  1.00  0.00    -0.367 C  
BRANCH  25  26
HETATM   26  C   UNL     1     -10.581  14.947  65.000  1.00  0.00    -0.422 C  
BRANCH  26  27
HETATM   27  N   UNL     1     -11.985  14.729  64.642  1.00  0.00    -0.449 NA 
HETATM   28  C   UNL     1     -12.165  14.058  63.338  1.00  0.00     0.185 C  
HETATM   29  C   UNL     1     -11.766  12.573  63.345  1.00  0.00    -0.488 C  
HETATM   30  O   UNL     1     -12.485  11.846  64.348  1.00  0.00    -0.261 OA 
HETATM   31  C   UNL     1     -12.276  12.417  65.645  1.00  0.00    -0.250 C  
HETATM   32  C   UNL     1     -12.663  13.908  65.676  1.00  0.00    -0.495 C  
ENDBRANCH  26  27
ENDBRANCH  25  26
ENDBRANCH  24  25
ENDBRANCH  22  24
ENDBRANCH  21  22
ENDBRANCH  20  21
ENDBRANCH  18  20
ENDBRANCH  16  17
ENDBRANCH   4  16
ENDBRANCH   2   3
TORSDOF 10
ENDMDL
MODEL       77
REMARK 921   NORMALIZED FREE ENERGY PREDICTED BY IDOCK:   -5.23 KCAL/MOL
REMARK 922        TOTAL FREE ENERGY PREDICTED BY IDOCK:   -9.83 KCAL/MOL
REMARK 923 INTER-LIGAND FREE ENERGY PREDICTED BY IDOCK:   -8.84 KCAL/MOL
REMARK 924 INTRA-LIGAND FREE ENERGY PREDICTED BY IDOCK:   -1.00 KCAL/MOL
REMARK 927      BINDING AFFINITY PREDICTED BY RF-SCORE:    0.00 PKD
ROOT
HETATM    1  C   UNL     1     -14.004  13.370  72.220  1.00  0.00    -0.507 C  
HETATM    2  O   UNL     1     -12.603  13.348  71.953  1.00  0.00    -0.206 OA 
ENDROOT
BRANCH   2   3
HETATM    3  C   UNL     1     -12.218  13.357  70.628  1.00  0.00    -0.350 A  
HETATM    4  C   UNL     1     -12.285  12.209  69.777  1.00  0.00    -0.212 A  
HETATM    5  C   UNL     1     -11.954  12.383  68.413  1.00  0.00    -0.216 A  
HETATM    6  C   UNL     1     -11.607  14.756  68.768  1.00  0.00    -0.347 A  
HETATM    7  O   UNL     1     -11.867  11.360  67.520  1.00  0.00    -0.614 OA 
HETATM    8  C   UNL     1     -11.880  14.639  70.126  1.00  0.00    -0.365 A  
HETATM    9  C   UNL     1     -11.649  13.653  67.939  1.00  0.00    -0.376 A  
HETATM   10  C   UNL     1     -11.349  14.081  66.571  1.00  0.00    -0.336 C  
HETATM   11  C   UNL     1     -11.804  15.834  71.035  1.00  0.00    -0.460 C  
HETATM   12  H   UNL     1     -11.645  11.477  66.604  1.00  0.00     0.000 HD 
HETATM   13  O   UNL     1     -11.114  15.435  66.630  1.00  0.00    -0.312 OA 
HETATM   14  C   UNL     1     -11.226  15.943  67.968  1.00  0.00    -0.319 C  
HETATM   15  O   UNL     1     -11.336  13.426  65.547  1.00  0.00    -0.292 OA 
BRANCH   4  16
HETATM   16  C   UNL     1     -12.614  10.866  70.398  1.00  0.00    -0.376 C  
BRANCH  16  17
HETATM   17  C   UNL     1     -11.560  10.112  71.143  1.00  0.00    -0.430 C  
HETATM   18  C   UNL     1     -10.694   9.217  70.632  1.00  0.00    -0.331 C  
HETATM   19  C   UNL     1     -10.585   8.849  69.175  1.00  0.00    -0.211 C  
BRANCH  18  20
HETATM   20  C   UNL     1      -9.756   8.492  71.564  1.00  0.00    -0.303 C  
BRANCH  20  21
HETATM   21  C   UNL     1     -10.491   8.047  72.822  1.00  0.00    -0.415 C  
BRANCH  21  22
HETATM   22  C   UNL     1     -11.194   6.739  72.590  1.00  0.00    -0.255 C  
HETATM   23  O   UNL     1     -12.055   6.528  71.750  1.00  0.00    -0.338 OA 
BRANCH  22  24
HETATM   24  O   UNL     1     -10.826   5.871  73.570  1.00  0.00    -0.265 OA 
BRANCH  24  25
HETATM   25  C   UNL     1     -11.206   4.513  73.291  1.00  0.00    -0.298 C  
BRANCH  25  26
HETATM   26  C   UNL     1      -9.896   3.714  73.171  1.00  0.00    -0.128 C  
BRANCH  26  27
HETATM   27  N   UNL     1      -9.647   3.057  71.884  1.00  0.00    -0.141 NA 
HETATM   28  C   UNL     1      -9.764   3.966  70.726  1.00  0.00    -0.185 C  
HETATM   29  C   UNL     1      -8.616   4.983  70.615  1.00  0.00    -0.114 C  
HETATM   30  O   UNL     1      -7.344   4.327  70.569  1.00  0.00    -0.047 OA 
HETATM   31  C   UNL     1      -7.152   3.493  71.717  1.00  0.00    -0.035 C  
HETATM   32  C   UNL     1      -8.287   2.461  71.862  1.00  0.00    -0.057 C  
ENDBRANCH  26  27
ENDBRANCH  25  26
ENDBRANCH  24  25
ENDBRANCH  22  24
ENDBRANCH  21  22
ENDBRANCH  20  21
ENDBRANCH  18  20
ENDBRANCH  16  17
ENDBRANCH   4  16
ENDBRANCH   2   3
TORSDOF 10
ENDMDL
MODEL       78
REMARK 921   NORMALIZED FREE ENERGY PREDICTED BY IDOCK:   -5.22 KCAL/MOL
REMARK 922        TOTAL FREE ENERGY PREDICTED BY IDOCK:   -9.81 KCAL/MOL
REMARK 923 INTER-LIGAND FREE ENERGY PREDICTED BY IDOCK:   -9.21 KCAL/MOL
REMARK 924 INTRA-LIGAND FREE ENERGY PREDICTED BY IDOCK:   -0.60 KCAL/MOL
REMARK 927      BINDING AFFINITY PREDICTED BY RF-SCORE:    0.00 PKD
ROOT
HETATM    1  C   UNL     1     -10.610   7.254  68.273  1.00  0.00    -0.172 C  
HETATM    2  O   UNL     1     -11.237   6.082  68.789  1.00  0.00    -0.331 OA 
ENDROOT
BRANCH   2   3
HETATM    3  C   UNL     1     -10.769   5.602  69.996  1.00  0.00    -0.320 A  
HETATM    4  C   UNL     1     -11.394   5.879  71.253  1.00  0.00    -0.238 A  
HETATM    5  C   UNL     1     -10.869   5.241  72.401  1.00  0.00    -0.224 A  
HETATM    6  C   UNL     1      -9.249   4.056  71.041  1.00  0.00    -0.203 A  
HETATM    7  O   UNL     1     -11.292   5.498  73.669  1.00  0.00    -0.443 OA 
HETATM    8  C   UNL     1      -9.693   4.686  69.883  1.00  0.00    -0.279 A  
HETATM    9  C   UNL     1      -9.830   4.330  72.263  1.00  0.00    -0.227 A  
HETATM   10  C   UNL     1      -9.182   3.505  73.286  1.00  0.00    -0.101 C  
HETATM   11  C   UNL     1      -9.042   4.413  68.557  1.00  0.00    -0.168 C  
HETATM   12  H   UNL     1     -10.939   5.070  74.439  1.00  0.00     0.000 HD 
HETATM   13  O   UNL     1      -8.211   2.775  72.639  1.00  0.00    -0.064 OA 
HETATM   14  C   UNL     1      -8.160   3.073  71.235  1.00  0.00    -0.062 C  
HETATM   15  O   UNL     1      -9.435   3.414  74.471  1.00  0.00    -0.094 OA 
BRANCH   4  16
HETATM   16  C   UNL     1     -12.512   6.902  71.296  1.00  0.00    -0.409 C  
BRANCH  16  17
HETATM   17  C   UNL     1     -12.188   8.360  71.261  1.00  0.00    -0.305 C  
HETATM   18  C   UNL     1     -12.999   9.376  71.614  1.00  0.00    -0.471 C  
HETATM   19  C   UNL     1     -14.387   9.223  72.178  1.00  0.00    -0.179 C  
BRANCH  18  20
HETATM   20  C   UNL     1     -12.520  10.794  71.426  1.00  0.00    -0.478 C  
BRANCH  20  21
HETATM   21  C   UNL     1     -12.264  11.080  69.952  1.00  0.00    -0.408 C  
BRANCH  21  22
HETATM   22  C   UNL     1     -11.750  12.480  69.765  1.00  0.00    -0.285 C  
HETATM   23  O   UNL     1     -12.188  13.482  70.310  1.00  0.00    -0.336 OA 
BRANCH  22  24
HETATM   24  O   UNL     1     -10.820  12.471  68.773  1.00  0.00    -0.242 OA 
BRANCH  24  25
HETATM   25  C   UNL     1     -11.212  11.678  67.641  1.00  0.00    -0.281 C  
BRANCH  25  26
HETATM   26  C   UNL     1     -11.800  12.657  66.610  1.00  0.00    -0.380 C  
BRANCH  26  27
HETATM   27  N   UNL     1     -10.871  13.181  65.604  1.00  0.00    -0.275 NA 
HETATM   28  C   UNL     1     -10.827  12.378  64.365  1.00  0.00    -0.337 C  
HETATM   29  C   UNL     1     -12.092  12.501  63.500  1.00  0.00    -0.562 C  
HETATM   30  O   UNL     1     -12.359  13.867  63.162  1.00  0.00    -0.696 OA 
HETATM   31  C   UNL     1     -12.489  14.673  64.340  1.00  0.00    -0.288 C  
HETATM   32  C   UNL     1     -11.239  14.571  65.234  1.00  0.00    -0.352 C  
ENDBRANCH  26  27
ENDBRANCH  25  26
ENDBRANCH  24  25
ENDBRANCH  22  24
ENDBRANCH  21  22
ENDBRANCH  20  21
ENDBRANCH  18  20
ENDBRANCH  16  17
ENDBRANCH   4  16
ENDBRANCH   2   3
TORSDOF 10
ENDMDL
MODEL       79
REMARK 921   NORMALIZED FREE ENERGY PREDICTED BY IDOCK:   -5.19 KCAL/MOL
REMARK 922        TOTAL FREE ENERGY PREDICTED BY IDOCK:   -9.76 KCAL/MOL
REMARK 923 INTER-LIGAND FREE ENERGY PREDICTED BY IDOCK:   -8.19 KCAL/MOL
REMARK 924 INTRA-LIGAND FREE ENERGY PREDICTED BY IDOCK:   -1.57 KCAL/MOL
REMARK 927      BINDING AFFINITY PREDICTED BY RF-SCORE:    0.00 PKD
ROOT
HETATM    1  C   UNL     1      -9.014   8.172  65.834  1.00  0.00    -0.151 C  
HETATM    2  O   UNL     1      -8.713   9.565  65.781  1.00  0.00    -0.135 OA 
ENDROOT
BRANCH   2   3
HETATM    3  C   UNL     1      -9.783  10.435  65.734  1.00  0.00    -0.228 A  
HETATM    4  C   UNL     1     -10.394  11.001  66.898  1.00  0.00    -0.279 A  
HETATM    5  C   UNL     1     -11.418  11.957  66.702  1.00  0.00    -0.314 A  
HETATM    6  C   UNL     1     -11.131  11.819  64.299  1.00  0.00    -0.420 A  
HETATM    7  O   UNL     1     -12.158  12.489  67.713  1.00  0.00    -0.409 OA 
HETATM    8  C   UNL     1     -10.149  10.844  64.426  1.00  0.00    -0.402 A  
HETATM    9  C   UNL     1     -11.742  12.359  65.412  1.00  0.00    -0.452 A  
HETATM   10  C   UNL     1     -12.705  13.373  64.975  1.00  0.00    -0.360 C  
HETATM   11  C   UNL     1      -9.504  10.233  63.214  1.00  0.00    -0.342 C  
HETATM   12  H   UNL     1     -12.846  13.131  67.581  1.00  0.00     0.000 HD 
HETATM   13  O   UNL     1     -12.654  13.390  63.600  1.00  0.00    -0.718 OA 
HETATM   14  C   UNL     1     -11.716  12.433  63.085  1.00  0.00    -0.238 C  
HETATM   15  O   UNL     1     -13.405  14.106  65.646  1.00  0.00    -0.602 OA 
BRANCH   4  16
HETATM   16  C   UNL     1      -9.977  10.481  68.259  1.00  0.00    -0.176 C  
BRANCH  16  17
HETATM   17  C   UNL     1      -8.740  11.007  68.911  1.00  0.00    -0.122 C  
HETATM   18  C   UNL     1      -7.684  10.288  69.337  1.00  0.00    -0.146 C  
HETATM   19  C   UNL     1      -7.526   8.798  69.177  1.00  0.00    -0.076 C  
BRANCH  18  20
HETATM   20  C   UNL     1      -6.559  10.994  70.053  1.00  0.00    -0.134 C  
BRANCH  20  21
HETATM   21  C   UNL     1      -5.763  11.853  69.080  1.00  0.00    -0.053 C  
BRANCH  21  22
HETATM   22  C   UNL     1      -5.946  13.312  69.389  1.00  0.00    -0.100 C  
HETATM   23  O   UNL     1      -6.155  13.789  70.494  1.00  0.00    -0.168 OA 
BRANCH  22  24
HETATM   24  O   UNL     1      -5.994  14.000  68.217  1.00  0.00    -0.097 OA 
BRANCH  24  25
HETATM   25  C   UNL     1      -7.325  14.114  67.686  1.00  0.00    -0.176 C  
BRANCH  25  26
HETATM   26  C   UNL     1      -7.545  15.608  67.388  1.00  0.00    -0.198 C  
BRANCH  26  27
HETATM   27  N   UNL     1      -8.610  15.934  66.435  1.00  0.00    -0.312 NA 
HETATM   28  C   UNL     1      -9.923  15.363  66.800  1.00  0.00    -0.249 C  
HETATM   29  C   UNL     1     -10.579  16.038  68.015  1.00  0.00    -0.295 C  
HETATM   30  O   UNL     1     -10.723  17.449  67.810  1.00  0.00    -0.373 OA 
HETATM   31  C   UNL     1      -9.458  18.060  67.531  1.00  0.00    -0.262 C  
HETATM   32  C   UNL     1      -8.769  17.405  66.319  1.00  0.00    -0.207 C  
ENDBRANCH  26  27
ENDBRANCH  25  26
ENDBRANCH  24  25
ENDBRANCH  22  24
ENDBRANCH  21  22
ENDBRANCH  20  21
ENDBRANCH  18  20
ENDBRANCH  16  17
ENDBRANCH   4  16
ENDBRANCH   2   3
TORSDOF 10
ENDMDL
MODEL       80
REMARK 921   NORMALIZED FREE ENERGY PREDICTED BY IDOCK:   -5.17 KCAL/MOL
REMARK 922        TOTAL FREE ENERGY PREDICTED BY IDOCK:   -9.74 KCAL/MOL
REMARK 923 INTER-LIGAND FREE ENERGY PREDICTED BY IDOCK:   -8.89 KCAL/MOL
REMARK 924 INTRA-LIGAND FREE ENERGY PREDICTED BY IDOCK:   -0.84 KCAL/MOL
REMARK 927      BINDING AFFINITY PREDICTED BY RF-SCORE:    0.00 PKD
ROOT
HETATM    1  C   UNL     1     -12.378  12.481  64.634  1.00  0.00    -0.474 C  
HETATM    2  O   UNL     1     -11.155  12.768  65.310  1.00  0.00    -0.279 OA 
ENDROOT
BRANCH   2   3
HETATM    3  C   UNL     1     -11.250  13.401  66.533  1.00  0.00    -0.307 A  
HETATM    4  C   UNL     1     -11.454  12.708  67.768  1.00  0.00    -0.375 A  
HETATM    5  C   UNL     1     -11.431  13.470  68.959  1.00  0.00    -0.303 A  
HETATM    6  C   UNL     1     -10.933  15.481  67.701  1.00  0.00    -0.315 A  
HETATM    7  O   UNL     1     -11.721  12.961  70.188  1.00  0.00    -0.488 OA 
HETATM    8  C   UNL     1     -10.986  14.793  66.494  1.00  0.00    -0.325 A  
HETATM    9  C   UNL     1     -11.147  14.828  68.898  1.00  0.00    -0.264 A  
HETATM   10  C   UNL     1     -11.000  15.793  69.991  1.00  0.00    -0.338 C  
HETATM   11  C   UNL     1     -10.783  15.508  65.187  1.00  0.00    -0.460 C  
HETATM   12  H   UNL     1     -11.706  13.473  70.988  1.00  0.00     0.000 HD 
HETATM   13  O   UNL     1     -10.723  17.006  69.405  1.00  0.00    -0.322 OA 
HETATM   14  C   UNL     1     -10.686  16.916  67.973  1.00  0.00    -0.364 C  
HETATM   15  O   UNL     1     -11.062  15.607  71.191  1.00  0.00    -0.348 OA 
BRANCH   4  16
HETATM   16  C   UNL     1     -11.772  11.226  67.723  1.00  0.00    -0.254 C  
BRANCH  16  17
HETATM   17  C   UNL     1     -10.679  10.237  67.476  1.00  0.00    -0.348 C  
HETATM   18  C   UNL     1      -9.870   9.682  68.398  1.00  0.00    -0.170 C  
HETATM   19  C   UNL     1      -9.958   9.914  69.883  1.00  0.00    -0.292 C  
BRANCH  18  20
HETATM   20  C   UNL     1      -8.762   8.764  67.941  1.00  0.00    -0.136 C  
BRANCH  20  21
HETATM   21  C   UNL     1      -9.236   7.889  66.789  1.00  0.00    -0.206 C  
BRANCH  21  22
HETATM   22  C   UNL     1     -10.183   6.831  67.281  1.00  0.00    -0.210 C  
HETATM   23  O   UNL     1     -11.115   6.356  66.652  1.00  0.00    -0.292 OA 
BRANCH  22  24
HETATM   24  O   UNL     1      -9.927   6.600  68.597  1.00  0.00    -0.141 OA 
BRANCH  24  25
HETATM   25  C   UNL     1     -10.978   5.876  69.256  1.00  0.00    -0.327 C  
BRANCH  25  26
HETATM   26  C   UNL     1     -11.296   6.654  70.546  1.00  0.00    -0.358 C  
BRANCH  26  27
HETATM   27  N   UNL     1     -11.244   5.893  71.797  1.00  0.00    -0.269 NA 
HETATM   28  C   UNL     1     -10.150   4.902  71.841  1.00  0.00    -0.199 C  
HETATM   29  C   UNL     1      -8.751   5.527  71.972  1.00  0.00    -0.131 C  
HETATM   30  O   UNL     1      -8.665   6.371  73.126  1.00  0.00    -0.123 OA 
HETATM   31  C   UNL     1      -9.661   7.399  73.088  1.00  0.00    -0.231 C  
HETATM   32  C   UNL     1     -11.078   6.809  72.954  1.00  0.00    -0.243 C  
ENDBRANCH  26  27
ENDBRANCH  25  26
ENDBRANCH  24  25
ENDBRANCH  22  24
ENDBRANCH  21  22
ENDBRANCH  20  21
ENDBRANCH  18  20
ENDBRANCH  16  17
ENDBRANCH   4  16
ENDBRANCH   2   3
TORSDOF 10
ENDMDL
MODEL       81
REMARK 921   NORMALIZED FREE ENERGY PREDICTED BY IDOCK:   -5.17 KCAL/MOL
REMARK 922        TOTAL FREE ENERGY PREDICTED BY IDOCK:   -9.73 KCAL/MOL
REMARK 923 INTER-LIGAND FREE ENERGY PREDICTED BY IDOCK:   -8.69 KCAL/MOL
REMARK 924 INTRA-LIGAND FREE ENERGY PREDICTED BY IDOCK:   -1.04 KCAL/MOL
REMARK 927      BINDING AFFINITY PREDICTED BY RF-SCORE:    0.00 PKD
ROOT
HETATM    1  C   UNL     1      -8.745   8.646  67.586  1.00  0.00    -0.136 C  
HETATM    2  O   UNL     1     -10.170   8.648  67.654  1.00  0.00    -0.208 OA 
ENDROOT
BRANCH   2   3
HETATM    3  C   UNL     1     -10.751   9.493  68.577  1.00  0.00    -0.182 A  
HETATM    4  C   UNL     1     -11.087  10.857  68.299  1.00  0.00    -0.324 A  
HETATM    5  C   UNL     1     -11.770  11.581  69.304  1.00  0.00    -0.330 A  
HETATM    6  C   UNL     1     -11.834   9.616  70.722  1.00  0.00    -0.378 A  
HETATM    7  O   UNL     1     -12.051  12.910  69.219  1.00  0.00    -0.268 OA 
HETATM    8  C   UNL     1     -11.125   8.865  69.792  1.00  0.00    -0.099 A  
HETATM    9  C   UNL     1     -12.147  10.937  70.476  1.00  0.00    -0.464 A  
HETATM   10  C   UNL     1     -12.915  11.458  71.610  1.00  0.00    -0.418 C  
HETATM   11  C   UNL     1     -10.756   7.435  70.072  1.00  0.00    -0.258 C  
HETATM   12  H   UNL     1     -12.509  13.396  69.893  1.00  0.00     0.000 HD 
HETATM   13  O   UNL     1     -13.017  10.427  72.516  1.00  0.00    -0.123 OA 
HETATM   14  C   UNL     1     -12.348   9.242  72.060  1.00  0.00    -0.363 C  
HETATM   15  O   UNL     1     -13.417  12.554  71.758  1.00  0.00    -0.363 OA 
BRANCH   4  16
HETATM   16  C   UNL     1     -10.615  11.467  66.995  1.00  0.00    -0.277 C  
BRANCH  16  17
HETATM   17  C   UNL     1      -9.678  12.631  67.014  1.00  0.00    -0.225 C  
HETATM   18  C   UNL     1      -9.902  13.856  66.502  1.00  0.00    -0.296 C  
HETATM   19  C   UNL     1     -11.186  14.306  65.856  1.00  0.00    -0.319 C  
BRANCH  18  20
HETATM   20  C   UNL     1      -8.794  14.880  66.542  1.00  0.00    -0.256 C  
BRANCH  20  21
HETATM   21  C   UNL     1      -7.752  14.498  67.585  1.00  0.00    -0.194 C  
BRANCH  21  22
HETATM   22  C   UNL     1      -6.798  15.635  67.823  1.00  0.00    -0.159 C  
HETATM   23  O   UNL     1      -6.437  16.051  68.912  1.00  0.00    -0.116 OA 
BRANCH  22  24
HETATM   24  O   UNL     1      -6.523  16.225  66.629  1.00  0.00    -0.273 OA 
BRANCH  24  25
HETATM   25  C   UNL     1      -6.226  17.625  66.748  1.00  0.00    -0.170 C  
BRANCH  25  26
HETATM   26  C   UNL     1      -7.539  18.373  66.454  1.00  0.00    -0.252 C  
BRANCH  26  27
HETATM   27  N   UNL     1      -8.128  19.121  67.569  1.00  0.00    -0.269 NA 
HETATM   28  C   UNL     1      -8.863  20.329  67.145  1.00  0.00    -0.346 C  
HETATM   29  C   UNL     1     -10.191  20.030  66.430  1.00  0.00    -0.478 C  
HETATM   30  O   UNL     1     -11.049  19.222  67.243  1.00  0.00    -0.442 OA 
HETATM   31  C   UNL     1     -10.403  17.998  67.615  1.00  0.00    -0.388 C  
HETATM   32  C   UNL     1      -9.066  18.260  68.332  1.00  0.00    -0.316 C  
ENDBRANCH  26  27
ENDBRANCH  25  26
ENDBRANCH  24  25
ENDBRANCH  22  24
ENDBRANCH  21  22
ENDBRANCH  20  21
ENDBRANCH  18  20
ENDBRANCH  16  17
ENDBRANCH   4  16
ENDBRANCH   2   3
TORSDOF 10
ENDMDL
MODEL       82
REMARK 921   NORMALIZED FREE ENERGY PREDICTED BY IDOCK:   -5.15 KCAL/MOL
REMARK 922        TOTAL FREE ENERGY PREDICTED BY IDOCK:   -9.70 KCAL/MOL
REMARK 923 INTER-LIGAND FREE ENERGY PREDICTED BY IDOCK:   -8.37 KCAL/MOL
REMARK 924 INTRA-LIGAND FREE ENERGY PREDICTED BY IDOCK:   -1.33 KCAL/MOL
REMARK 927      BINDING AFFINITY PREDICTED BY RF-SCORE:    0.00 PKD
ROOT
HETATM    1  C   UNL     1     -13.363   9.319  72.473  1.00  0.00    -0.391 C  
HETATM    2  O   UNL     1     -12.967   8.561  71.331  1.00  0.00    -0.308 OA 
ENDROOT
BRANCH   2   3
HETATM    3  C   UNL     1     -11.620   8.539  71.032  1.00  0.00    -0.279 A  
HETATM    4  C   UNL     1     -10.905   9.668  70.518  1.00  0.00    -0.371 A  
HETATM    5  C   UNL     1      -9.507   9.537  70.350  1.00  0.00    -0.262 A  
HETATM    6  C   UNL     1      -9.575   7.292  71.263  1.00  0.00    -0.164 A  
HETATM    7  O   UNL     1      -8.724  10.486  69.769  1.00  0.00    -0.390 OA 
HETATM    8  C   UNL     1     -10.957   7.345  71.409  1.00  0.00    -0.258 A  
HETATM    9  C   UNL     1      -8.876   8.366  70.749  1.00  0.00    -0.171 A  
HETATM   10  C   UNL     1      -7.448   8.035  70.740  1.00  0.00    -0.072 C  
HETATM   11  C   UNL     1     -11.723   6.165  71.940  1.00  0.00    -0.337 C  
HETATM   12  H   UNL     1      -7.785  10.399  69.656  1.00  0.00     0.000 HD 
HETATM   13  O   UNL     1      -7.342   6.755  71.231  1.00  0.00    -0.079 OA 
HETATM   14  C   UNL     1      -8.624   6.197  71.561  1.00  0.00    -0.131 C  
HETATM   15  O   UNL     1      -6.504   8.727  70.412  1.00  0.00    -0.037 OA 
BRANCH   4  16
HETATM   16  C   UNL     1     -11.693  10.893  70.098  1.00  0.00    -0.433 C  
BRANCH  16  17
HETATM   17  C   UNL     1     -11.950  11.153  68.649  1.00  0.00    -0.289 C  
HETATM   18  C   UNL     1     -11.573  12.237  67.945  1.00  0.00    -0.416 C  
HETATM   19  C   UNL     1     -10.755  13.381  68.482  1.00  0.00    -0.278 C  
BRANCH  18  20
HETATM   20  C   UNL     1     -12.004  12.358  66.503  1.00  0.00    -0.325 C  
BRANCH  20  21
HETATM   21  C   UNL     1     -11.170  13.410  65.784  1.00  0.00    -0.305 C  
BRANCH  21  22
HETATM   22  C   UNL     1     -11.374  13.323  64.297  1.00  0.00    -0.393 C  
HETATM   23  O   UNL     1     -12.380  13.658  63.692  1.00  0.00    -0.691 OA 
BRANCH  22  24
HETATM   24  O   UNL     1     -10.315  12.666  63.753  1.00  0.00    -0.415 OA 
BRANCH  24  25
HETATM   25  C   UNL     1     -10.596  11.287  63.464  1.00  0.00    -0.369 C  
BRANCH  25  26
HETATM   26  C   UNL     1      -9.450  10.471  64.088  1.00  0.00    -0.293 C  
BRANCH  26  27
HETATM   27  N   UNL     1      -9.560  10.180  65.521  1.00  0.00    -0.229 NA 
HETATM   28  C   UNL     1      -9.504   8.738  65.836  1.00  0.00    -0.208 C  
HETATM   29  C   UNL     1      -8.111   8.115  65.650  1.00  0.00    -0.119 C  
HETATM   30  O   UNL     1      -7.126   8.803  66.429  1.00  0.00    -0.080 OA 
HETATM   31  C   UNL     1      -7.089  10.197  66.100  1.00  0.00    -0.114 C  
HETATM   32  C   UNL     1      -8.471  10.855  66.272  1.00  0.00    -0.166 C  
ENDBRANCH  26  27
ENDBRANCH  25  26
ENDBRANCH  24  25
ENDBRANCH  22  24
ENDBRANCH  21  22
ENDBRANCH  20  21
ENDBRANCH  18  20
ENDBRANCH  16  17
ENDBRANCH   4  16
ENDBRANCH   2   3
TORSDOF 10
ENDMDL
MODEL       83
REMARK 921   NORMALIZED FREE ENERGY PREDICTED BY IDOCK:   -5.15 KCAL/MOL
REMARK 922        TOTAL FREE ENERGY PREDICTED BY IDOCK:   -9.70 KCAL/MOL
REMARK 923 INTER-LIGAND FREE ENERGY PREDICTED BY IDOCK:   -8.88 KCAL/MOL
REMARK 924 INTRA-LIGAND FREE ENERGY PREDICTED BY IDOCK:   -0.82 KCAL/MOL
REMARK 927      BINDING AFFINITY PREDICTED BY RF-SCORE:    0.00 PKD
ROOT
HETATM    1  C   UNL     1     -13.281  10.194  71.742  1.00  0.00    -0.438 C  
HETATM    2  O   UNL     1     -11.869  10.178  71.545  1.00  0.00    -0.362 OA 
ENDROOT
BRANCH   2   3
HETATM    3  C   UNL     1     -11.409   9.641  70.359  1.00  0.00    -0.277 A  
HETATM    4  C   UNL     1     -11.306  10.386  69.142  1.00  0.00    -0.286 A  
HETATM    5  C   UNL     1     -10.724   9.740  68.026  1.00  0.00    -0.247 A  
HETATM    6  C   UNL     1     -10.305   7.755  69.352  1.00  0.00    -0.219 A  
HETATM    7  O   UNL     1     -10.665  10.288  66.781  1.00  0.00    -0.217 OA 
HETATM    8  C   UNL     1     -10.907   8.320  70.471  1.00  0.00    -0.245 A  
HETATM    9  C   UNL     1     -10.217   8.455  68.166  1.00  0.00    -0.253 A  
HETATM   10  C   UNL     1      -9.515   7.625  67.183  1.00  0.00    -0.155 C  
HETATM   11  C   UNL     1     -11.031   7.548  71.755  1.00  0.00    -0.268 C  
HETATM   12  H   UNL     1     -10.275   9.855  66.032  1.00  0.00     0.000 HD 
HETATM   13  O   UNL     1      -9.224   6.438  67.813  1.00  0.00    -0.116 OA 
HETATM   14  C   UNL     1      -9.703   6.415  69.166  1.00  0.00    -0.136 C  
HETATM   15  O   UNL     1      -9.194   7.895  66.042  1.00  0.00    -0.172 OA 
BRANCH   4  16
HETATM   16  C   UNL     1     -11.905  11.777  69.091  1.00  0.00    -0.389 C  
BRANCH  16  17
HETATM   17  C   UNL     1     -11.042  12.948  68.751  1.00  0.00    -0.305 C  
HETATM   18  C   UNL     1     -11.089  13.686  67.625  1.00  0.00    -0.293 C  
HETATM   19  C   UNL     1     -12.080  13.501  66.507  1.00  0.00    -0.460 C  
BRANCH  18  20
HETATM   20  C   UNL     1     -10.070  14.781  67.425  1.00  0.00    -0.231 C  
BRANCH  20  21
HETATM   21  C   UNL     1     -10.759  16.092  67.069  1.00  0.00    -0.277 C  
BRANCH  21  22
HETATM   22  C   UNL     1     -10.824  16.999  68.265  1.00  0.00    -0.341 C  
HETATM   23  O   UNL     1     -10.948  16.644  69.427  1.00  0.00    -0.301 OA 
BRANCH  22  24
HETATM   24  O   UNL     1     -10.877  18.286  67.830  1.00  0.00    -0.386 OA 
BRANCH  24  25
HETATM   25  C   UNL     1     -10.411  18.444  66.480  1.00  0.00    -0.400 C  
BRANCH  25  26
HETATM   26  C   UNL     1      -9.324  19.533  66.522  1.00  0.00    -0.370 C  
BRANCH  26  27
HETATM   27  N   UNL     1      -7.935  19.075  66.412  1.00  0.00    -0.279 NA 
HETATM   28  C   UNL     1      -6.959  20.176  66.284  1.00  0.00    -0.252 C  
HETATM   29  C   UNL     1      -6.762  20.984  67.577  1.00  0.00    -0.368 C  
HETATM   30  O   UNL     1      -6.373  20.137  68.665  1.00  0.00    -0.273 OA 
HETATM   31  C   UNL     1      -7.334  19.097  68.877  1.00  0.00    -0.344 C  
HETATM   32  C   UNL     1      -7.560  18.267  67.599  1.00  0.00    -0.220 C  
ENDBRANCH  26  27
ENDBRANCH  25  26
ENDBRANCH  24  25
ENDBRANCH  22  24
ENDBRANCH  21  22
ENDBRANCH  20  21
ENDBRANCH  18  20
ENDBRANCH  16  17
ENDBRANCH   4  16
ENDBRANCH   2   3
TORSDOF 10
ENDMDL
MODEL       84
REMARK 921   NORMALIZED FREE ENERGY PREDICTED BY IDOCK:   -5.13 KCAL/MOL
REMARK 922        TOTAL FREE ENERGY PREDICTED BY IDOCK:   -9.67 KCAL/MOL
REMARK 923 INTER-LIGAND FREE ENERGY PREDICTED BY IDOCK:   -8.78 KCAL/MOL
REMARK 924 INTRA-LIGAND FREE ENERGY PREDICTED BY IDOCK:   -0.89 KCAL/MOL
REMARK 927      BINDING AFFINITY PREDICTED BY RF-SCORE:    0.00 PKD
ROOT
HETATM    1  C   UNL     1     -12.921  15.552  71.078  1.00  0.00    -0.489 C  
HETATM    2  O   UNL     1     -11.638  15.070  70.684  1.00  0.00    -0.276 OA 
ENDROOT
BRANCH   2   3
HETATM    3  C   UNL     1     -11.500  14.654  69.375  1.00  0.00    -0.296 A  
HETATM    4  C   UNL     1     -11.978  13.394  68.891  1.00  0.00    -0.362 A  
HETATM    5  C   UNL     1     -11.861  13.138  67.505  1.00  0.00    -0.360 A  
HETATM    6  C   UNL     1     -10.924  15.344  67.142  1.00  0.00    -0.317 A  
HETATM    7  O   UNL     1     -12.170  11.944  66.929  1.00  0.00    -0.493 OA 
HETATM    8  C   UNL     1     -10.972  15.637  68.501  1.00  0.00    -0.303 A  
HETATM    9  C   UNL     1     -11.363  14.126  66.665  1.00  0.00    -0.352 A  
HETATM   10  C   UNL     1     -11.219  14.113  65.207  1.00  0.00    -0.326 C  
HETATM   11  C   UNL     1     -10.467  16.952  69.026  1.00  0.00    -0.341 C  
HETATM   12  H   UNL     1     -12.091  11.771  65.999  1.00  0.00     0.000 HD 
HETATM   13  O   UNL     1     -10.674  15.327  64.860  1.00  0.00    -0.419 OA 
HETATM   14  C   UNL     1     -10.429  16.155  66.007  1.00  0.00    -0.338 C  
HETATM   15  O   UNL     1     -11.537  13.250  64.413  1.00  0.00    -0.350 OA 
BRANCH   4  16
HETATM   16  C   UNL     1     -12.490  12.380  69.895  1.00  0.00     0.019 C  
BRANCH  16  17
HETATM   17  C   UNL     1     -11.709  11.134  70.158  1.00  0.00    -0.439 C  
HETATM   18  C   UNL     1     -12.039  10.138  71.002  1.00  0.00    -0.476 C  
HETATM   19  C   UNL     1     -13.311  10.066  71.806  1.00  0.00    -0.492 C  
BRANCH  18  20
HETATM   20  C   UNL     1     -11.074   8.994  71.198  1.00  0.00    -0.371 C  
BRANCH  20  21
HETATM   21  C   UNL     1     -10.523   8.526  69.857  1.00  0.00    -0.219 C  
BRANCH  21  22
HETATM   22  C   UNL     1      -9.026   8.661  69.824  1.00  0.00    -0.145 C  
HETATM   23  O   UNL     1      -8.343   9.263  70.637  1.00  0.00    -0.183 OA 
BRANCH  22  24
HETATM   24  O   UNL     1      -8.571   8.133  68.656  1.00  0.00    -0.126 OA 
BRANCH  24  25
HETATM   25  C   UNL     1      -7.651   8.997  67.969  1.00  0.00    -0.092 C  
BRANCH  25  26
HETATM   26  C   UNL     1      -8.508   9.965  67.134  1.00  0.00    -0.121 C  
BRANCH  26  27
HETATM   27  N   UNL     1      -9.489   9.356  66.231  1.00  0.00    -0.194 NA 
HETATM   28  C   UNL     1      -9.820  10.199  65.064  1.00  0.00    -0.322 C  
HETATM   29  C   UNL     1      -8.687  10.300  64.029  1.00  0.00    -0.202 C  
HETATM   30  O   UNL     1      -8.286   9.004  63.571  1.00  0.00    -0.160 OA 
HETATM   31  C   UNL     1      -7.879   8.174  64.666  1.00  0.00    -0.136 C  
HETATM   32  C   UNL     1      -8.990   8.053  65.726  1.00  0.00    -0.102 C  
ENDBRANCH  26  27
ENDBRANCH  25  26
ENDBRANCH  24  25
ENDBRANCH  22  24
ENDBRANCH  21  22
ENDBRANCH  20  21
ENDBRANCH  18  20
ENDBRANCH  16  17
ENDBRANCH   4  16
ENDBRANCH   2   3
TORSDOF 10
ENDMDL
MODEL       85
REMARK 921   NORMALIZED FREE ENERGY PREDICTED BY IDOCK:   -5.12 KCAL/MOL
REMARK 922        TOTAL FREE ENERGY PREDICTED BY IDOCK:   -9.66 KCAL/MOL
REMARK 923 INTER-LIGAND FREE ENERGY PREDICTED BY IDOCK:   -8.56 KCAL/MOL
REMARK 924 INTRA-LIGAND FREE ENERGY PREDICTED BY IDOCK:   -1.10 KCAL/MOL
REMARK 927      BINDING AFFINITY PREDICTED BY RF-SCORE:    0.00 PKD
ROOT
HETATM    1  C   UNL     1     -11.752  12.703  69.376  1.00  0.00    -0.325 C  
HETATM    2  O   UNL     1     -12.445  13.886  68.983  1.00  0.00    -0.209 OA 
ENDROOT
BRANCH   2   3
HETATM    3  C   UNL     1     -11.719  14.837  68.295  1.00  0.00    -0.311 A  
HETATM    4  C   UNL     1     -11.603  14.866  66.869  1.00  0.00    -0.286 A  
HETATM    5  C   UNL     1     -10.911  15.955  66.289  1.00  0.00    -0.200 A  
HETATM    6  C   UNL     1     -10.575  16.947  68.475  1.00  0.00    -0.367 A  
HETATM    7  O   UNL     1     -10.630  16.050  64.961  1.00  0.00    -0.551 OA 
HETATM    8  C   UNL     1     -11.206  15.881  69.106  1.00  0.00    -0.334 A  
HETATM    9  C   UNL     1     -10.438  16.977  67.102  1.00  0.00    -0.291 A  
HETATM   10  C   UNL     1      -9.765  18.222  66.724  1.00  0.00    -0.322 C  
HETATM   11  C   UNL     1     -11.328  15.832  70.603  1.00  0.00    -0.412 C  
HETATM   12  H   UNL     1     -10.165  16.781  64.571  1.00  0.00     0.000 HD 
HETATM   13  O   UNL     1      -9.499  18.892  67.896  1.00  0.00    -0.292 OA 
HETATM   14  C   UNL     1      -9.945  18.159  69.048  1.00  0.00    -0.280 C  
HETATM   15  O   UNL     1      -9.505  18.647  65.615  1.00  0.00    -0.326 OA 
BRANCH   4  16
HETATM   16  C   UNL     1     -12.141  13.691  66.076  1.00  0.00    -0.480 C  
BRANCH  16  17
HETATM   17  C   UNL     1     -11.212  12.615  65.616  1.00  0.00    -0.344 C  
HETATM   18  C   UNL     1     -11.346  11.847  64.518  1.00  0.00    -0.382 C  
HETATM   19  C   UNL     1     -12.448  11.975  63.499  1.00  0.00    -0.654 C  
BRANCH  18  20
HETATM   20  C   UNL     1     -10.343  10.748  64.267  1.00  0.00    -0.401 C  
BRANCH  20  21
HETATM   21  C   UNL     1      -9.269  10.748  65.346  1.00  0.00    -0.234 C  
BRANCH  21  22
HETATM   22  C   UNL     1      -9.455   9.584  66.279  1.00  0.00    -0.210 C  
HETATM   23  O   UNL     1      -9.907   8.491  65.978  1.00  0.00    -0.212 OA 
BRANCH  22  24
HETATM   24  O   UNL     1      -9.181   9.997  67.546  1.00  0.00    -0.137 OA 
BRANCH  24  25
HETATM   25  C   UNL     1      -9.008  11.420  67.649  1.00  0.00    -0.140 C  
BRANCH  25  26
HETATM   26  C   UNL     1      -7.835  11.644  68.620  1.00  0.00    -0.132 C  
BRANCH  26  27
HETATM   27  N   UNL     1      -6.740  12.491  68.138  1.00  0.00    -0.070 NA 
HETATM   28  C   UNL     1      -7.120  13.909  67.973  1.00  0.00    -0.144 C  
HETATM   29  C   UNL     1      -7.329  14.654  69.301  1.00  0.00    -0.149 C  
HETATM   30  O   UNL     1      -6.164  14.575  70.130  1.00  0.00    -0.146 OA 
HETATM   31  C   UNL     1      -5.804  13.212  70.383  1.00  0.00    -0.156 C  
HETATM   32  C   UNL     1      -5.589  12.432  69.072  1.00  0.00    -0.064 C  
ENDBRANCH  26  27
ENDBRANCH  25  26
ENDBRANCH  24  25
ENDBRANCH  22  24
ENDBRANCH  21  22
ENDBRANCH  20  21
ENDBRANCH  18  20
ENDBRANCH  16  17
ENDBRANCH   4  16
ENDBRANCH   2   3
TORSDOF 10
ENDMDL
MODEL       86
REMARK 921   NORMALIZED FREE ENERGY PREDICTED BY IDOCK:   -5.12 KCAL/MOL
REMARK 922        TOTAL FREE ENERGY PREDICTED BY IDOCK:   -9.65 KCAL/MOL
REMARK 923 INTER-LIGAND FREE ENERGY PREDICTED BY IDOCK:   -8.45 KCAL/MOL
REMARK 924 INTRA-LIGAND FREE ENERGY PREDICTED BY IDOCK:   -1.20 KCAL/MOL
REMARK 927      BINDING AFFINITY PREDICTED BY RF-SCORE:    0.00 PKD
ROOT
HETATM    1  C   UNL     1     -10.313   6.989  67.492  1.00  0.00    -0.225 C  
HETATM    2  O   UNL     1      -9.638   7.587  68.597  1.00  0.00    -0.149 OA 
ENDROOT
BRANCH   2   3
HETATM    3  C   UNL     1     -10.377   8.437  69.395  1.00  0.00    -0.215 A  
HETATM    4  C   UNL     1     -10.441   9.853  69.197  1.00  0.00    -0.235 A  
HETATM    5  C   UNL     1     -11.315  10.592  70.026  1.00  0.00    -0.324 A  
HETATM    6  C   UNL     1     -12.063   8.556  71.108  1.00  0.00    -0.283 A  
HETATM    7  O   UNL     1     -11.392  11.951  70.022  1.00  0.00    -0.493 OA 
HETATM    8  C   UNL     1     -11.191   7.781  70.352  1.00  0.00    -0.246 A  
HETATM    9  C   UNL     1     -12.120   9.925  70.940  1.00  0.00    -0.431 A  
HETATM   10  C   UNL     1     -13.140  10.466  71.842  1.00  0.00    -0.458 C  
HETATM   11  C   UNL     1     -11.106   6.294  70.555  1.00  0.00    -0.399 C  
HETATM   12  H   UNL     1     -11.979  12.448  70.579  1.00  0.00     0.000 HD 
HETATM   13  O   UNL     1     -13.649   9.396  72.542  1.00  0.00    -0.459 OA 
HETATM   14  C   UNL     1     -13.017   8.161  72.170  1.00  0.00    -0.261 C  
HETATM   15  O   UNL     1     -13.528  11.612  71.962  1.00  0.00    -0.411 OA 
BRANCH   4  16
HETATM   16  C   UNL     1      -9.507  10.484  68.182  1.00  0.00    -0.157 C  
BRANCH  16  17
HETATM   17  C   UNL     1      -8.365  11.328  68.646  1.00  0.00    -0.146 C  
HETATM   18  C   UNL     1      -7.228  11.588  67.972  1.00  0.00    -0.085 C  
HETATM   19  C   UNL     1      -6.919  11.117  66.576  1.00  0.00    -0.126 C  
BRANCH  18  20
HETATM   20  C   UNL     1      -6.147  12.398  68.647  1.00  0.00    -0.065 C  
BRANCH  20  21
HETATM   21  C   UNL     1      -5.818  13.637  67.825  1.00  0.00    -0.111 C  
BRANCH  21  22
HETATM   22  C   UNL     1      -6.921  14.652  67.930  1.00  0.00    -0.159 C  
HETATM   23  O   UNL     1      -7.197  15.309  68.922  1.00  0.00    -0.120 OA 
BRANCH  22  24
HETATM   24  O   UNL     1      -7.660  14.607  66.790  1.00  0.00     0.124 OA 
BRANCH  24  25
HETATM   25  C   UNL     1      -8.659  15.638  66.726  1.00  0.00    -0.274 C  
BRANCH  25  26
HETATM   26  C   UNL     1      -9.827  15.058  65.907  1.00  0.00    -0.338 C  
BRANCH  26  27
HETATM   27  N   UNL     1     -10.237  13.689  66.232  1.00  0.00    -0.289 NA 
HETATM   28  C   UNL     1     -11.566  13.607  66.871  1.00  0.00    -0.367 C  
HETATM   29  C   UNL     1     -12.733  13.904  65.916  1.00  0.00    -0.421 C  
HETATM   30  O   UNL     1     -12.707  13.036  64.777  1.00  0.00    -0.651 OA 
HETATM   31  C   UNL     1     -11.461  13.141  64.078  1.00  0.00    -0.406 C  
HETATM   32  C   UNL     1     -10.266  12.852  65.007  1.00  0.00    -0.269 C  
ENDBRANCH  26  27
ENDBRANCH  25  26
ENDBRANCH  24  25
ENDBRANCH  22  24
ENDBRANCH  21  22
ENDBRANCH  20  21
ENDBRANCH  18  20
ENDBRANCH  16  17
ENDBRANCH   4  16
ENDBRANCH   2   3
TORSDOF 10
ENDMDL
MODEL       87
REMARK 921   NORMALIZED FREE ENERGY PREDICTED BY IDOCK:   -5.12 KCAL/MOL
REMARK 922        TOTAL FREE ENERGY PREDICTED BY IDOCK:   -9.65 KCAL/MOL
REMARK 923 INTER-LIGAND FREE ENERGY PREDICTED BY IDOCK:   -8.13 KCAL/MOL
REMARK 924 INTRA-LIGAND FREE ENERGY PREDICTED BY IDOCK:   -1.52 KCAL/MOL
REMARK 927      BINDING AFFINITY PREDICTED BY RF-SCORE:    0.00 PKD
ROOT
HETATM    1  C   UNL     1     -11.964  16.054  71.892  1.00  0.00    -0.525 C  
HETATM    2  O   UNL     1     -12.803  15.445  70.913  1.00  0.00    -0.418 OA 
ENDROOT
BRANCH   2   3
HETATM    3  C   UNL     1     -12.478  14.163  70.520  1.00  0.00    -0.361 A  
HETATM    4  C   UNL     1     -11.598  13.869  69.430  1.00  0.00    -0.350 A  
HETATM    5  C   UNL     1     -11.271  12.513  69.199  1.00  0.00    -0.239 A  
HETATM    6  C   UNL     1     -12.580  11.836  71.123  1.00  0.00    -0.412 A  
HETATM    7  O   UNL     1     -10.539  12.083  68.134  1.00  0.00    -0.196 OA 
HETATM    8  C   UNL     1     -12.972  13.145  71.374  1.00  0.00    -0.386 A  
HETATM    9  C   UNL     1     -11.748  11.536  70.063  1.00  0.00    -0.414 A  
HETATM   10  C   UNL     1     -11.486  10.095  70.065  1.00  0.00    -0.277 C  
HETATM   11  C   UNL     1     -13.903  13.469  72.509  1.00  0.00    -0.624 C  
HETATM   12  H   UNL     1     -10.320  11.173  67.979  1.00  0.00     0.000 HD 
HETATM   13  O   UNL     1     -12.194   9.571  71.121  1.00  0.00    -0.308 OA 
HETATM   14  C   UNL     1     -12.932  10.581  71.827  1.00  0.00    -0.476 C  
HETATM   15  O   UNL     1     -10.767   9.446  69.330  1.00  0.00    -0.223 OA 
BRANCH   4  16
HETATM   16  C   UNL     1     -11.146  15.009  68.538  1.00  0.00    -0.279 C  
BRANCH  16  17
HETATM   17  C   UNL     1      -9.741  15.510  68.625  1.00  0.00    -0.208 C  
HETATM   18  C   UNL     1      -9.346  16.796  68.690  1.00  0.00    -0.252 C  
HETATM   19  C   UNL     1     -10.267  17.986  68.750  1.00  0.00    -0.362 C  
BRANCH  18  20
HETATM   20  C   UNL     1      -7.870  17.109  68.684  1.00  0.00    -0.265 C  
BRANCH  20  21
HETATM   21  C   UNL     1      -7.191  16.462  67.484  1.00  0.00    -0.171 C  
BRANCH  21  22
HETATM   22  C   UNL     1      -6.083  15.550  67.929  1.00  0.00    -0.147 C  
HETATM   23  O   UNL     1      -5.143  15.862  68.644  1.00  0.00    -0.091 OA 
BRANCH  22  24
HETATM   24  O   UNL     1      -6.213  14.362  67.280  1.00  0.00    -0.301 OA 
BRANCH  24  25
HETATM   25  C   UNL     1      -6.859  13.355  68.075  1.00  0.00    -0.132 C  
BRANCH  25  26
HETATM   26  C   UNL     1      -6.685  12.027  67.316  1.00  0.00    -0.144 C  
BRANCH  26  27
HETATM   27  N   UNL     1      -7.790  11.068  67.414  1.00  0.00    -0.115 NA 
HETATM   28  C   UNL     1      -8.172  10.475  66.116  1.00  0.00    -0.151 C  
HETATM   29  C   UNL     1      -7.141   9.479  65.561  1.00  0.00    -0.090 C  
HETATM   30  O   UNL     1      -6.877   8.428  66.497  1.00  0.00    -0.065 OA 
HETATM   31  C   UNL     1      -6.425   8.955  67.749  1.00  0.00    -0.060 C  
HETATM   32  C   UNL     1      -7.434   9.961  68.336  1.00  0.00    -0.082 C  
ENDBRANCH  26  27
ENDBRANCH  25  26
ENDBRANCH  24  25
ENDBRANCH  22  24
ENDBRANCH  21  22
ENDBRANCH  20  21
ENDBRANCH  18  20
ENDBRANCH  16  17
ENDBRANCH   4  16
ENDBRANCH   2   3
TORSDOF 10
ENDMDL
MODEL       88
REMARK 921   NORMALIZED FREE ENERGY PREDICTED BY IDOCK:   -5.11 KCAL/MOL
REMARK 922        TOTAL FREE ENERGY PREDICTED BY IDOCK:   -9.63 KCAL/MOL
REMARK 923 INTER-LIGAND FREE ENERGY PREDICTED BY IDOCK:   -8.39 KCAL/MOL
REMARK 924 INTRA-LIGAND FREE ENERGY PREDICTED BY IDOCK:   -1.25 KCAL/MOL
REMARK 927      BINDING AFFINITY PREDICTED BY RF-SCORE:    0.00 PKD
ROOT
HETATM    1  C   UNL     1      -7.620   6.548  65.815  1.00  0.00    -0.085 C  
HETATM    2  O   UNL     1      -8.878   7.219  65.856  1.00  0.00    -0.158 OA 
ENDROOT
BRANCH   2   3
HETATM    3  C   UNL     1      -9.301   7.681  67.086  1.00  0.00    -0.146 A  
HETATM    4  C   UNL     1      -9.147   9.037  67.517  1.00  0.00    -0.145 A  
HETATM    5  C   UNL     1      -9.716   9.397  68.760  1.00  0.00    -0.156 A  
HETATM    6  C   UNL     1     -10.611   7.162  69.037  1.00  0.00    -0.225 A  
HETATM    7  O   UNL     1      -9.550  10.617  69.342  1.00  0.00    -0.344 OA 
HETATM    8  C   UNL     1     -10.037   6.736  67.844  1.00  0.00    -0.189 A  
HETATM    9  C   UNL     1     -10.453   8.461  69.474  1.00  0.00    -0.225 A  
HETATM   10  C   UNL     1     -11.185   8.625  70.733  1.00  0.00    -0.261 C  
HETATM   11  C   UNL     1     -10.183   5.313  67.381  1.00  0.00    -0.240 C  
HETATM   12  H   UNL     1      -9.932  10.859  70.177  1.00  0.00     0.000 HD 
HETATM   13  O   UNL     1     -11.743   7.401  71.020  1.00  0.00    -0.284 OA 
HETATM   14  C   UNL     1     -11.417   6.415  70.029  1.00  0.00    -0.428 C  
HETATM   15  O   UNL     1     -11.335   9.625  71.407  1.00  0.00    -0.361 OA 
BRANCH   4  16
HETATM   16  C   UNL     1      -8.311   9.975  66.670  1.00  0.00    -0.125 C  
BRANCH  16  17
HETATM   17  C   UNL     1      -8.979  11.000  65.813  1.00  0.00    -0.208 C  
HETATM   18  C   UNL     1      -9.319  10.871  64.516  1.00  0.00    -0.256 C  
HETATM   19  C   UNL     1      -9.139   9.624  63.691  1.00  0.00    -0.214 C  
BRANCH  18  20
HETATM   20  C   UNL     1      -9.912  12.056  63.794  1.00  0.00    -0.368 C  
BRANCH  20  21
HETATM   21  C   UNL     1     -11.424  11.912  63.684  1.00  0.00    -0.551 C  
BRANCH  21  22
HETATM   22  C   UNL     1     -12.084  13.262  63.664  1.00  0.00    -0.485 C  
HETATM   23  O   UNL     1     -12.748  13.721  62.748  1.00  0.00    -0.407 OA 
BRANCH  22  24
HETATM   24  O   UNL     1     -11.694  13.951  64.769  1.00  0.00    -0.352 OA 
BRANCH  24  25
HETATM   25  C   UNL     1     -12.291  13.459  65.980  1.00  0.00    -0.413 C  
BRANCH  25  26
HETATM   26  C   UNL     1     -11.269  13.714  67.102  1.00  0.00    -0.309 C  
BRANCH  26  27
HETATM   27  N   UNL     1     -10.383  14.869  66.928  1.00  0.00    -0.261 NA 
HETATM   28  C   UNL     1     -10.625  15.951  67.905  1.00  0.00    -0.300 C  
HETATM   29  C   UNL     1     -10.171  15.610  69.334  1.00  0.00    -0.261 C  
HETATM   30  O   UNL     1      -8.785  15.252  69.367  1.00  0.00    -0.232 OA 
HETATM   31  C   UNL     1      -8.517  14.151  68.490  1.00  0.00    -0.157 C  
HETATM   32  C   UNL     1      -8.962  14.456  67.048  1.00  0.00    -0.240 C  
ENDBRANCH  26  27
ENDBRANCH  25  26
ENDBRANCH  24  25
ENDBRANCH  22  24
ENDBRANCH  21  22
ENDBRANCH  20  21
ENDBRANCH  18  20
ENDBRANCH  16  17
ENDBRANCH   4  16
ENDBRANCH   2   3
TORSDOF 10
ENDMDL
MODEL       89
REMARK 921   NORMALIZED FREE ENERGY PREDICTED BY IDOCK:   -5.09 KCAL/MOL
REMARK 922        TOTAL FREE ENERGY PREDICTED BY IDOCK:   -9.61 KCAL/MOL
REMARK 923 INTER-LIGAND FREE ENERGY PREDICTED BY IDOCK:   -8.84 KCAL/MOL
REMARK 924 INTRA-LIGAND FREE ENERGY PREDICTED BY IDOCK:   -0.77 KCAL/MOL
REMARK 927      BINDING AFFINITY PREDICTED BY RF-SCORE:    0.00 PKD
ROOT
HETATM    1  C   UNL     1     -11.928  15.872  71.197  1.00  0.00    -0.427 C  
HETATM    2  O   UNL     1     -10.759  15.400  70.529  1.00  0.00    -0.311 OA 
ENDROOT
BRANCH   2   3
HETATM    3  C   UNL     1     -10.901  15.026  69.208  1.00  0.00    -0.261 A  
HETATM    4  C   UNL     1     -11.589  13.843  68.791  1.00  0.00    -0.370 A  
HETATM    5  C   UNL     1     -11.748  13.632  67.402  1.00  0.00    -0.381 A  
HETATM    6  C   UNL     1     -10.659  15.745  66.925  1.00  0.00    -0.317 A  
HETATM    7  O   UNL     1     -12.280  12.500  66.865  1.00  0.00    -0.511 OA 
HETATM    8  C   UNL     1     -10.434  15.986  68.275  1.00  0.00    -0.269 A  
HETATM    9  C   UNL     1     -11.303  14.598  66.508  1.00  0.00    -0.353 A  
HETATM   10  C   UNL     1     -11.422  14.630  65.047  1.00  0.00    -0.386 C  
HETATM   11  C   UNL     1      -9.706  17.220  68.729  1.00  0.00    -0.280 C  
HETATM   12  H   UNL     1     -12.387  12.359  65.932  1.00  0.00     0.000 HD 
HETATM   13  O   UNL     1     -10.820  15.796  64.634  1.00  0.00    -0.488 OA 
HETATM   14  C   UNL     1     -10.289  16.547  65.736  1.00  0.00    -0.341 C  
HETATM   15  O   UNL     1     -11.966  13.837  64.305  1.00  0.00    -0.415 OA 
BRANCH   4  16
HETATM   16  C   UNL     1     -12.021  12.846  69.848  1.00  0.00    -0.377 C  
BRANCH  16  17
HETATM   17  C   UNL     1     -11.391  11.492  69.897  1.00  0.00    -0.267 C  
HETATM   18  C   UNL     1     -11.700  10.487  70.739  1.00  0.00    -0.454 C  
HETATM   19  C   UNL     1     -12.800  10.523  71.766  1.00  0.00    -0.559 C  
BRANCH  18  20
HETATM   20  C   UNL     1     -10.887   9.217  70.691  1.00  0.00    -0.321 C  
BRANCH  20  21
HETATM   21  C   UNL     1      -9.696   9.379  69.756  1.00  0.00    -0.215 C  
BRANCH  21  22
HETATM   22  C   UNL     1      -8.430   8.928  70.427  1.00  0.00    -0.166 C  
HETATM   23  O   UNL     1      -7.808   9.550  71.274  1.00  0.00    -0.312 OA 
BRANCH  22  24
HETATM   24  O   UNL     1      -8.005   7.785  69.825  1.00  0.00    -0.110 OA 
BRANCH  24  25
HETATM   25  C   UNL     1      -7.030   7.069  70.601  1.00  0.00    -0.062 C  
BRANCH  25  26
HETATM   26  C   UNL     1      -7.473   5.595  70.600  1.00  0.00    -0.085 C  
BRANCH  26  27
HETATM   27  N   UNL     1      -7.564   4.939  71.908  1.00  0.00    -0.094 NA 
HETATM   28  C   UNL     1      -8.077   5.821  72.975  1.00  0.00    -0.118 C  
HETATM   29  C   UNL     1      -9.576   6.142  72.850  1.00  0.00    -0.154 C  
HETATM   30  O   UNL     1     -10.362   4.945  72.813  1.00  0.00    -0.175 OA 
HETATM   31  C   UNL     1      -9.950   4.091  71.739  1.00  0.00    -0.170 C  
HETATM   32  C   UNL     1      -8.450   3.751  71.831  1.00  0.00    -0.090 C  
ENDBRANCH  26  27
ENDBRANCH  25  26
ENDBRANCH  24  25
ENDBRANCH  22  24
ENDBRANCH  21  22
ENDBRANCH  20  21
ENDBRANCH  18  20
ENDBRANCH  16  17
ENDBRANCH   4  16
ENDBRANCH   2   3
TORSDOF 10
ENDMDL
MODEL       90
REMARK 921   NORMALIZED FREE ENERGY PREDICTED BY IDOCK:   -5.07 KCAL/MOL
REMARK 922        TOTAL FREE ENERGY PREDICTED BY IDOCK:   -9.57 KCAL/MOL
REMARK 923 INTER-LIGAND FREE ENERGY PREDICTED BY IDOCK:   -8.87 KCAL/MOL
REMARK 924 INTRA-LIGAND FREE ENERGY PREDICTED BY IDOCK:   -0.70 KCAL/MOL
REMARK 927      BINDING AFFINITY PREDICTED BY RF-SCORE:    0.00 PKD
ROOT
HETATM    1  C   UNL     1      -7.476  14.316  68.808  1.00  0.00    -0.129 C  
HETATM    2  O   UNL     1      -8.856  14.674  68.853  1.00  0.00    -0.179 OA 
ENDROOT
BRANCH   2   3
HETATM    3  C   UNL     1      -9.585  14.502  67.694  1.00  0.00    -0.214 A  
HETATM    4  C   UNL     1     -10.182  13.259  67.313  1.00  0.00    -0.240 A  
HETATM    5  C   UNL     1     -10.987  13.248  66.150  1.00  0.00    -0.279 A  
HETATM    6  C   UNL     1     -10.658  15.632  65.861  1.00  0.00    -0.354 A  
HETATM    7  O   UNL     1     -11.521  12.118  65.611  1.00  0.00    -0.347 OA 
HETATM    8  C   UNL     1      -9.822  15.697  66.969  1.00  0.00    -0.237 A  
HETATM    9  C   UNL     1     -11.224  14.436  65.470  1.00  0.00    -0.330 A  
HETATM   10  C   UNL     1     -12.072  14.677  64.299  1.00  0.00    -0.415 C  
HETATM   11  C   UNL     1      -9.180  16.994  67.378  1.00  0.00    -0.234 C  
HETATM   12  H   UNL     1     -12.062  12.110  64.831  1.00  0.00     0.000 HD 
HETATM   13  O   UNL     1     -11.966  16.018  64.012  1.00  0.00    -0.796 OA 
HETATM   14  C   UNL     1     -11.081  16.694  64.919  1.00  0.00    -0.129 C  
HETATM   15  O   UNL     1     -12.778  13.897  63.690  1.00  0.00    -0.754 OA 
BRANCH   4  16
HETATM   16  C   UNL     1      -9.845  12.018  68.115  1.00  0.00    -0.201 C  
BRANCH  16  17
HETATM   17  C   UNL     1     -10.808  11.508  69.138  1.00  0.00    -0.241 C  
HETATM   18  C   UNL     1     -10.584  10.538  70.044  1.00  0.00    -0.223 C  
HETATM   19  C   UNL     1      -9.277   9.815  70.238  1.00  0.00    -0.225 C  
BRANCH  18  20
HETATM   20  C   UNL     1     -11.715  10.100  70.942  1.00  0.00    -0.468 C  
BRANCH  20  21
HETATM   21  C   UNL     1     -11.243   9.023  71.909  1.00  0.00    -0.438 C  
BRANCH  21  22
HETATM   22  C   UNL     1     -11.992   7.740  71.681  1.00  0.00    -0.297 C  
HETATM   23  O   UNL     1     -13.190   7.639  71.469  1.00  0.00    -0.343 OA 
BRANCH  22  24
HETATM   24  O   UNL     1     -11.145   6.699  71.904  1.00  0.00    -0.236 OA 
BRANCH  24  25
HETATM   25  C   UNL     1     -10.965   5.863  70.749  1.00  0.00    -0.273 C  
BRANCH  25  26
HETATM   26  C   UNL     1      -9.691   6.366  70.046  1.00  0.00    -0.165 C  
BRANCH  26  27
HETATM   27  N   UNL     1      -9.283   5.642  68.838  1.00  0.00    -0.117 NA 
HETATM   28  C   UNL     1     -10.399   5.366  67.910  1.00  0.00    -0.160 C  
HETATM   29  C   UNL     1     -10.925   6.613  67.183  1.00  0.00    -0.408 C  
HETATM   30  O   UNL     1      -9.877   7.280  66.469  1.00  0.00    -0.193 OA 
HETATM   31  C   UNL     1      -8.804   7.639  67.347  1.00  0.00    -0.124 C  
HETATM   32  C   UNL     1      -8.252   6.412  68.097  1.00  0.00    -0.116 C  
ENDBRANCH  26  27
ENDBRANCH  25  26
ENDBRANCH  24  25
ENDBRANCH  22  24
ENDBRANCH  21  22
ENDBRANCH  20  21
ENDBRANCH  18  20
ENDBRANCH  16  17
ENDBRANCH   4  16
ENDBRANCH   2   3
TORSDOF 10
ENDMDL
MODEL       91
REMARK 921   NORMALIZED FREE ENERGY PREDICTED BY IDOCK:   -5.06 KCAL/MOL
REMARK 922        TOTAL FREE ENERGY PREDICTED BY IDOCK:   -9.56 KCAL/MOL
REMARK 923 INTER-LIGAND FREE ENERGY PREDICTED BY IDOCK:   -9.05 KCAL/MOL
REMARK 924 INTRA-LIGAND FREE ENERGY PREDICTED BY IDOCK:   -0.52 KCAL/MOL
REMARK 927      BINDING AFFINITY PREDICTED BY RF-SCORE:    0.00 PKD
ROOT
HETATM    1  C   UNL     1      -7.324   7.263  67.814  1.00  0.00    -0.093 C  
HETATM    2  O   UNL     1      -8.127   6.219  68.360  1.00  0.00    -0.110 OA 
ENDROOT
BRANCH   2   3
HETATM    3  C   UNL     1      -8.693   5.333  67.467  1.00  0.00    -0.106 A  
HETATM    4  C   UNL     1      -9.976   5.530  66.862  1.00  0.00    -0.204 A  
HETATM    5  C   UNL     1     -10.392   4.593  65.888  1.00  0.00    -0.283 A  
HETATM    6  C   UNL     1      -8.286   3.408  66.081  1.00  0.00    -0.103 A  
HETATM    7  O   UNL     1     -11.628   4.595  65.317  1.00  0.00    -1.093 OA 
HETATM    8  C   UNL     1      -7.840   4.270  67.076  1.00  0.00    -0.097 A  
HETATM    9  C   UNL     1      -9.529   3.574  65.505  1.00  0.00    -0.147 A  
HETATM   10  C   UNL     1      -9.712   2.545  64.477  1.00  0.00    -0.067 C  
HETATM   11  C   UNL     1      -6.500   4.072  67.727  1.00  0.00    -0.038 C  
HETATM   12  H   UNL     1     -11.907   3.966  64.662  1.00  0.00     0.000 HD 
HETATM   13  O   UNL     1      -8.571   1.777  64.489  1.00  0.00    -0.086 OA 
HETATM   14  C   UNL     1      -7.631   2.224  65.479  1.00  0.00    -0.072 C  
HETATM   15  O   UNL     1     -10.643   2.381  63.714  1.00  0.00    -0.144 OA 
BRANCH   4  16
HETATM   16  C   UNL     1     -10.846   6.665  67.365  1.00  0.00    -0.434 C  
BRANCH  16  17
HETATM   17  C   UNL     1     -11.152   6.780  68.822  1.00  0.00    -0.234 C  
HETATM   18  C   UNL     1     -10.923   7.845  69.614  1.00  0.00    -0.114 C  
HETATM   19  C   UNL     1     -10.360   9.164  69.154  1.00  0.00    -0.223 C  
BRANCH  18  20
HETATM   20  C   UNL     1     -11.223   7.738  71.089  1.00  0.00    -0.285 C  
BRANCH  20  21
HETATM   21  C   UNL     1     -11.199   9.115  71.740  1.00  0.00    -0.451 C  
BRANCH  21  22
HETATM   22  C   UNL     1     -12.595   9.641  71.919  1.00  0.00    -0.396 C  
HETATM   23  O   UNL     1     -13.492   9.094  72.542  1.00  0.00    -0.464 OA 
BRANCH  22  24
HETATM   24  O   UNL     1     -12.742  10.749  71.144  1.00  0.00    -0.366 OA 
BRANCH  24  25
HETATM   25  C   UNL     1     -13.123  11.914  71.895  1.00  0.00    -0.369 C  
BRANCH  25  26
HETATM   26  C   UNL     1     -12.570  13.126  71.123  1.00  0.00    -0.314 C  
BRANCH  26  27
HETATM   27  N   UNL     1     -13.406  14.330  71.112  1.00  0.00    -0.330 NA 
HETATM   28  C   UNL     1     -13.942  14.689  72.440  1.00  0.00    -0.476 C  
HETATM   29  C   UNL     1     -12.881  15.237  73.410  1.00  0.00    -0.543 C  
HETATM   30  O   UNL     1     -12.206  16.371  72.854  1.00  0.00    -0.505 OA 
HETATM   31  C   UNL     1     -11.602  16.046  71.597  1.00  0.00    -0.459 C  
HETATM   32  C   UNL     1     -12.636  15.491  70.600  1.00  0.00    -0.443 C  
ENDBRANCH  26  27
ENDBRANCH  25  26
ENDBRANCH  24  25
ENDBRANCH  22  24
ENDBRANCH  21  22
ENDBRANCH  20  21
ENDBRANCH  18  20
ENDBRANCH  16  17
ENDBRANCH   4  16
ENDBRANCH   2   3
TORSDOF 10
ENDMDL
MODEL       92
REMARK 921   NORMALIZED FREE ENERGY PREDICTED BY IDOCK:   -5.06 KCAL/MOL
REMARK 922        TOTAL FREE ENERGY PREDICTED BY IDOCK:   -9.55 KCAL/MOL
REMARK 923 INTER-LIGAND FREE ENERGY PREDICTED BY IDOCK:   -8.43 KCAL/MOL
REMARK 924 INTRA-LIGAND FREE ENERGY PREDICTED BY IDOCK:   -1.13 KCAL/MOL
REMARK 927      BINDING AFFINITY PREDICTED BY RF-SCORE:    0.00 PKD
ROOT
HETATM    1  C   UNL     1     -13.830   9.879  71.334  1.00  0.00    -0.021 C  
HETATM    2  O   UNL     1     -12.831  10.742  71.873  1.00  0.00    -0.436 OA 
ENDROOT
BRANCH   2   3
HETATM    3  C   UNL     1     -12.311  11.702  71.028  1.00  0.00    -0.301 A  
HETATM    4  C   UNL     1     -11.454  11.401  69.922  1.00  0.00    -0.353 A  
HETATM    5  C   UNL     1     -11.075  12.470  69.078  1.00  0.00    -0.234 A  
HETATM    6  C   UNL     1     -12.436  14.010  70.362  1.00  0.00    -0.418 A  
HETATM    7  O   UNL     1     -10.179  12.348  68.060  1.00  0.00    -0.206 OA 
HETATM    8  C   UNL     1     -12.809  13.010  71.252  1.00  0.00    -0.370 A  
HETATM    9  C   UNL     1     -11.594  13.738  69.303  1.00  0.00    -0.362 A  
HETATM   10  C   UNL     1     -11.403  14.967  68.527  1.00  0.00    -0.298 C  
HETATM   11  C   UNL     1     -13.701  13.311  72.424  1.00  0.00    -0.678 C  
HETATM   12  H   UNL     1      -9.924  13.065  67.493  1.00  0.00     0.000 HD 
HETATM   13  O   UNL     1     -12.126  15.947  69.166  1.00  0.00    -0.339 OA 
HETATM   14  C   UNL     1     -12.786  15.449  70.341  1.00  0.00    -0.362 C  
HETATM   15  O   UNL     1     -10.777  15.134  67.499  1.00  0.00    -0.271 OA 
BRANCH   4  16
HETATM   16  C   UNL     1     -10.931   9.985  69.776  1.00  0.00    -0.317 C  
BRANCH  16  17
HETATM   17  C   UNL     1     -10.844   9.361  68.422  1.00  0.00    -0.156 C  
HETATM   18  C   UNL     1      -9.720   9.030  67.756  1.00  0.00    -0.190 C  
HETATM   19  C   UNL     1      -8.320   9.177  68.290  1.00  0.00    -0.120 C  
BRANCH  18  20
HETATM   20  C   UNL     1      -9.835   8.485  66.354  1.00  0.00    -0.327 C  
BRANCH  20  21
HETATM   21  C   UNL     1      -9.142   7.133  66.249  1.00  0.00    -0.182 C  
BRANCH  21  22
HETATM   22  C   UNL     1      -9.944   6.071  66.947  1.00  0.00    -0.169 C  
HETATM   23  O   UNL     1     -11.058   5.688  66.625  1.00  0.00    -0.202 OA 
BRANCH  22  24
HETATM   24  O   UNL     1      -9.292   5.714  68.085  1.00  0.00    -0.110 OA 
BRANCH  24  25
HETATM   25  C   UNL     1     -10.147   5.077  69.048  1.00  0.00    -0.168 C  
BRANCH  25  26
HETATM   26  C   UNL     1     -10.338   6.086  70.194  1.00  0.00    -0.224 C  
BRANCH  26  27
HETATM   27  N   UNL     1     -11.270   5.699  71.257  1.00  0.00    -0.149 NA 
HETATM   28  C   UNL     1     -10.622   4.992  72.380  1.00  0.00    -0.215 C  
HETATM   29  C   UNL     1      -9.740   5.895  73.258  1.00  0.00    -0.152 C  
HETATM   30  O   UNL     1     -10.483   7.006  73.771  1.00  0.00    -0.364 OA 
HETATM   31  C   UNL     1     -11.065   7.771  72.709  1.00  0.00    -0.398 C  
HETATM   32  C   UNL     1     -11.956   6.896  71.806  1.00  0.00    -0.333 C  
ENDBRANCH  26  27
ENDBRANCH  25  26
ENDBRANCH  24  25
ENDBRANCH  22  24
ENDBRANCH  21  22
ENDBRANCH  20  21
ENDBRANCH  18  20
ENDBRANCH  16  17
ENDBRANCH   4  16
ENDBRANCH   2   3
TORSDOF 10
ENDMDL
MODEL       93
REMARK 921   NORMALIZED FREE ENERGY PREDICTED BY IDOCK:   -5.05 KCAL/MOL
REMARK 922        TOTAL FREE ENERGY PREDICTED BY IDOCK:   -9.54 KCAL/MOL
REMARK 923 INTER-LIGAND FREE ENERGY PREDICTED BY IDOCK:   -8.59 KCAL/MOL
REMARK 924 INTRA-LIGAND FREE ENERGY PREDICTED BY IDOCK:   -0.95 KCAL/MOL
REMARK 927      BINDING AFFINITY PREDICTED BY RF-SCORE:    0.00 PKD
ROOT
HETATM    1  C   UNL     1     -11.272   6.252  69.347  1.00  0.00    -0.420 C  
HETATM    2  O   UNL     1     -11.271   5.917  70.733  1.00  0.00    -0.287 OA 
ENDROOT
BRANCH   2   3
HETATM    3  C   UNL     1     -10.118   6.187  71.442  1.00  0.00    -0.194 A  
HETATM    4  C   UNL     1      -9.946   7.351  72.258  1.00  0.00    -0.206 A  
HETATM    5  C   UNL     1      -8.752   7.454  73.009  1.00  0.00    -0.139 A  
HETATM    6  C   UNL     1      -8.024   5.284  72.210  1.00  0.00    -0.106 A  
HETATM    7  O   UNL     1      -8.409   8.552  73.736  1.00  0.00    -0.362 OA 
HETATM    8  C   UNL     1      -9.157   5.146  71.416  1.00  0.00    -0.171 A  
HETATM    9  C   UNL     1      -7.836   6.410  72.986  1.00  0.00    -0.105 A  
HETATM   10  C   UNL     1      -6.582   6.264  73.730  1.00  0.00    -0.071 C  
HETATM   11  C   UNL     1      -9.348   3.934  70.547  1.00  0.00    -0.224 C  
HETATM   12  H   UNL     1      -7.608   8.622  74.241  1.00  0.00     0.000 HD 
HETATM   13  O   UNL     1      -6.045   5.055  73.353  1.00  0.00    -0.034 OA 
HETATM   14  C   UNL     1      -6.864   4.381  72.385  1.00  0.00    -0.055 C  
HETATM   15  O   UNL     1      -6.088   7.009  74.553  1.00  0.00    -0.080 OA 
BRANCH   4  16
HETATM   16  C   UNL     1     -11.000   8.439  72.198  1.00  0.00    -0.411 C  
BRANCH  16  17
HETATM   17  C   UNL     1     -10.897   9.519  71.171  1.00  0.00    -0.425 C  
HETATM   18  C   UNL     1     -11.817  10.465  70.900  1.00  0.00    -0.475 C  
HETATM   19  C   UNL     1     -13.118  10.648  71.636  1.00  0.00    -0.555 C  
BRANCH  18  20
HETATM   20  C   UNL     1     -11.567  11.422  69.760  1.00  0.00    -0.407 C  
BRANCH  20  21
HETATM   21  C   UNL     1     -10.531  10.852  68.801  1.00  0.00    -0.224 C  
BRANCH  21  22
HETATM   22  C   UNL     1     -11.037  10.898  67.386  1.00  0.00    -0.307 C  
HETATM   23  O   UNL     1     -10.549  10.312  66.432  1.00  0.00    -0.193 OA 
BRANCH  22  24
HETATM   24  O   UNL     1     -12.033  11.821  67.313  1.00  0.00    -0.618 OA 
BRANCH  24  25
HETATM   25  C   UNL     1     -11.874  12.735  66.216  1.00  0.00    -0.423 C  
BRANCH  25  26
HETATM   26  C   UNL     1     -11.808  14.144  66.834  1.00  0.00    -0.431 C  
BRANCH  26  27
HETATM   27  N   UNL     1     -10.686  14.409  67.738  1.00  0.00    -0.246 NA 
HETATM   28  C   UNL     1      -9.378  14.465  67.054  1.00  0.00    -0.242 C  
HETATM   29  C   UNL     1      -9.185  15.717  66.183  1.00  0.00    -0.350 C  
HETATM   30  O   UNL     1      -9.365  16.915  66.948  1.00  0.00    -0.227 OA 
HETATM   31  C   UNL     1     -10.656  16.941  67.568  1.00  0.00    -0.307 C  
HETATM   32  C   UNL     1     -10.885  15.698  68.448  1.00  0.00    -0.290 C  
ENDBRANCH  26  27
ENDBRANCH  25  26
ENDBRANCH  24  25
ENDBRANCH  22  24
ENDBRANCH  21  22
ENDBRANCH  20  21
ENDBRANCH  18  20
ENDBRANCH  16  17
ENDBRANCH   4  16
ENDBRANCH   2   3
TORSDOF 10
ENDMDL
MODEL       94
REMARK 921   NORMALIZED FREE ENERGY PREDICTED BY IDOCK:   -5.03 KCAL/MOL
REMARK 922        TOTAL FREE ENERGY PREDICTED BY IDOCK:   -9.52 KCAL/MOL
REMARK 923 INTER-LIGAND FREE ENERGY PREDICTED BY IDOCK:   -9.08 KCAL/MOL
REMARK 924 INTRA-LIGAND FREE ENERGY PREDICTED BY IDOCK:   -0.44 KCAL/MOL
REMARK 927      BINDING AFFINITY PREDICTED BY RF-SCORE:    0.00 PKD
ROOT
HETATM    1  C   UNL     1     -12.970   6.959  71.635  1.00  0.00    -0.307 C  
HETATM    2  O   UNL     1     -11.953   6.724  70.663  1.00  0.00    -0.386 OA 
ENDROOT
BRANCH   2   3
HETATM    3  C   UNL     1     -10.700   7.236  70.932  1.00  0.00    -0.234 A  
HETATM    4  C   UNL     1     -10.305   8.572  70.604  1.00  0.00    -0.232 A  
HETATM    5  C   UNL     1      -9.025   8.999  71.027  1.00  0.00    -0.241 A  
HETATM    6  C   UNL     1      -8.639   6.870  72.119  1.00  0.00    -0.119 A  
HETATM    7  O   UNL     1      -8.479  10.199  70.688  1.00  0.00    -0.325 OA 
HETATM    8  C   UNL     1      -9.868   6.378  71.694  1.00  0.00    -0.184 A  
HETATM    9  C   UNL     1      -8.237   8.149  71.793  1.00  0.00    -0.165 A  
HETATM   10  C   UNL     1      -6.925   8.397  72.396  1.00  0.00    -0.088 C  
HETATM   11  C   UNL     1     -10.294   4.974  72.023  1.00  0.00    -0.276 C  
HETATM   12  H   UNL     1      -7.619  10.486  70.972  1.00  0.00     0.000 HD 
HETATM   13  O   UNL     1      -6.573   7.240  73.051  1.00  0.00    -0.063 OA 
HETATM   14  C   UNL     1      -7.571   6.217  72.911  1.00  0.00    -0.096 C  
HETATM   15  O   UNL     1      -6.257   9.412  72.386  1.00  0.00    -0.296 OA 
BRANCH   4  16
HETATM   16  C   UNL     1     -11.234   9.412  69.750  1.00  0.00    -0.139 C  
BRANCH  16  17
HETATM   17  C   UNL     1     -11.632  10.778  70.205  1.00  0.00    -0.427 C  
HETATM   18  C   UNL     1     -12.559  11.082  71.133  1.00  0.00    -0.522 C  
HETATM   19  C   UNL     1     -13.339  10.078  71.942  1.00  0.00    -0.516 C  
BRANCH  18  20
HETATM   20  C   UNL     1     -12.884  12.532  71.396  1.00  0.00    -0.359 C  
BRANCH  20  21
HETATM   21  C   UNL     1     -12.154  13.430  70.406  1.00  0.00    -0.405 C  
BRANCH  21  22
HETATM   22  C   UNL     1     -12.499  14.873  70.647  1.00  0.00    -0.352 C  
HETATM   23  O   UNL     1     -13.293  15.291  71.475  1.00  0.00    -0.400 OA 
BRANCH  22  24
HETATM   24  O   UNL     1     -11.897  15.627  69.688  1.00  0.00    -0.334 OA 
BRANCH  24  25
HETATM   25  C   UNL     1     -11.404  14.848  68.587  1.00  0.00    -0.292 C  
BRANCH  25  26
HETATM   26  C   UNL     1     -10.805  15.849  67.583  1.00  0.00    -0.312 C  
BRANCH  26  27
HETATM   27  N   UNL     1     -10.083  16.991  68.151  1.00  0.00    -0.292 NA 
HETATM   28  C   UNL     1      -8.652  17.026  67.785  1.00  0.00    -0.213 C  
HETATM   29  C   UNL     1      -8.397  17.388  66.313  1.00  0.00    -0.236 C  
HETATM   30  O   UNL     1      -8.997  18.643  65.974  1.00  0.00    -0.489 OA 
HETATM   31  C   UNL     1     -10.405  18.629  66.239  1.00  0.00    -0.444 C  
HETATM   32  C   UNL     1     -10.700  18.267  67.707  1.00  0.00    -0.333 C  
ENDBRANCH  26  27
ENDBRANCH  25  26
ENDBRANCH  24  25
ENDBRANCH  22  24
ENDBRANCH  21  22
ENDBRANCH  20  21
ENDBRANCH  18  20
ENDBRANCH  16  17
ENDBRANCH   4  16
ENDBRANCH   2   3
TORSDOF 10
ENDMDL
MODEL       95
REMARK 921   NORMALIZED FREE ENERGY PREDICTED BY IDOCK:   -5.02 KCAL/MOL
REMARK 922        TOTAL FREE ENERGY PREDICTED BY IDOCK:   -9.50 KCAL/MOL
REMARK 923 INTER-LIGAND FREE ENERGY PREDICTED BY IDOCK:   -8.97 KCAL/MOL
REMARK 924 INTRA-LIGAND FREE ENERGY PREDICTED BY IDOCK:   -0.53 KCAL/MOL
REMARK 927      BINDING AFFINITY PREDICTED BY RF-SCORE:    0.00 PKD
ROOT
HETATM    1  C   UNL     1     -13.620   7.132  71.385  1.00  0.00    -0.275 C  
HETATM    2  O   UNL     1     -12.442   6.660  70.733  1.00  0.00    -0.314 OA 
ENDROOT
BRANCH   2   3
HETATM    3  C   UNL     1     -11.232   7.071  71.255  1.00  0.00    -0.264 A  
HETATM    4  C   UNL     1     -10.465   8.152  70.716  1.00  0.00    -0.223 A  
HETATM    5  C   UNL     1      -9.292   8.532  71.409  1.00  0.00    -0.211 A  
HETATM    6  C   UNL     1      -9.728   6.875  73.123  1.00  0.00    -0.200 A  
HETATM    7  O   UNL     1      -8.412   9.465  70.950  1.00  0.00    -0.246 OA 
HETATM    8  C   UNL     1     -10.867   6.427  72.464  1.00  0.00    -0.268 A  
HETATM    9  C   UNL     1      -8.968   7.904  72.604  1.00  0.00    -0.251 A  
HETATM   10  C   UNL     1      -7.857   8.175  73.520  1.00  0.00    -0.180 C  
HETATM   11  C   UNL     1     -11.679   5.287  73.012  1.00  0.00    -0.217 C  
HETATM   12  H   UNL     1      -7.625   9.720  71.415  1.00  0.00     0.000 HD 
HETATM   13  O   UNL     1      -7.977   7.277  74.555  1.00  0.00    -0.140 OA 
HETATM   14  C   UNL     1      -9.104   6.404  74.381  1.00  0.00    -0.174 C  
HETATM   15  O   UNL     1      -6.998   9.032  73.450  1.00  0.00    -0.336 OA 
BRANCH   4  16
HETATM   16  C   UNL     1     -10.898   8.760  69.396  1.00  0.00    -0.123 C  
BRANCH  16  17
HETATM   17  C   UNL     1     -10.967  10.245  69.248  1.00  0.00    -0.284 C  
HETATM   18  C   UNL     1     -11.739  11.092  69.955  1.00  0.00    -0.437 C  
HETATM   19  C   UNL     1     -12.647  10.697  71.090  1.00  0.00    -0.526 C  
BRANCH  18  20
HETATM   20  C   UNL     1     -11.734  12.558  69.598  1.00  0.00    -0.372 C  
BRANCH  20  21
HETATM   21  C   UNL     1     -10.836  12.811  68.394  1.00  0.00    -0.272 C  
BRANCH  21  22
HETATM   22  C   UNL     1     -11.657  12.983  67.147  1.00  0.00    -0.358 C  
HETATM   23  O   UNL     1     -12.256  12.097  66.557  1.00  0.00    -0.584 OA 
BRANCH  22  24
HETATM   24  O   UNL     1     -11.498  14.256  66.696  1.00  0.00    -0.336 OA 
BRANCH  24  25
HETATM   25  C   UNL     1     -10.121  14.657  66.617  1.00  0.00    -0.273 C  
BRANCH  25  26
HETATM   26  C   UNL     1     -10.125  16.134  66.183  1.00  0.00    -0.338 C  
BRANCH  26  27
HETATM   27  N   UNL     1     -10.755  17.084  67.104  1.00  0.00    -0.237 NA 
HETATM   28  C   UNL     1     -10.253  16.985  68.489  1.00  0.00    -0.324 C  
HETATM   29  C   UNL     1      -8.819  17.511  68.669  1.00  0.00    -0.255 C  
HETATM   30  O   UNL     1      -8.704  18.868  68.224  1.00  0.00    -0.310 OA 
HETATM   31  C   UNL     1      -9.108  18.998  66.856  1.00  0.00    -0.303 C  
HETATM   32  C   UNL     1     -10.541  18.477  66.638  1.00  0.00    -0.342 C  
ENDBRANCH  26  27
ENDBRANCH  25  26
ENDBRANCH  24  25
ENDBRANCH  22  24
ENDBRANCH  21  22
ENDBRANCH  20  21
ENDBRANCH  18  20
ENDBRANCH  16  17
ENDBRANCH   4  16
ENDBRANCH   2   3
TORSDOF 10
ENDMDL
MODEL       96
REMARK 921   NORMALIZED FREE ENERGY PREDICTED BY IDOCK:   -5.02 KCAL/MOL
REMARK 922        TOTAL FREE ENERGY PREDICTED BY IDOCK:   -9.49 KCAL/MOL
REMARK 923 INTER-LIGAND FREE ENERGY PREDICTED BY IDOCK:   -8.35 KCAL/MOL
REMARK 924 INTRA-LIGAND FREE ENERGY PREDICTED BY IDOCK:   -1.14 KCAL/MOL
REMARK 927      BINDING AFFINITY PREDICTED BY RF-SCORE:    0.00 PKD
ROOT
HETATM    1  C   UNL     1      -8.704   8.439  65.654  1.00  0.00    -0.172 C  
HETATM    2  O   UNL     1     -10.051   8.573  66.103  1.00  0.00    -0.221 OA 
ENDROOT
BRANCH   2   3
HETATM    3  C   UNL     1     -10.251   8.650  67.466  1.00  0.00    -0.245 A  
HETATM    4  C   UNL     1     -10.297   9.883  68.191  1.00  0.00    -0.232 A  
HETATM    5  C   UNL     1     -10.609   9.822  69.569  1.00  0.00    -0.233 A  
HETATM    6  C   UNL     1     -10.897   7.420  69.431  1.00  0.00    -0.184 A  
HETATM    7  O   UNL     1     -10.577  10.901  70.399  1.00  0.00    -0.346 OA 
HETATM    8  C   UNL     1     -10.554   7.410  68.084  1.00  0.00    -0.216 A  
HETATM    9  C   UNL     1     -10.925   8.599  70.146  1.00  0.00    -0.234 A  
HETATM   10  C   UNL     1     -11.345   8.306  71.519  1.00  0.00    -0.268 C  
HETATM   11  C   UNL     1     -10.493   6.123  67.311  1.00  0.00    -0.317 C  
HETATM   12  H   UNL     1     -10.787  10.860  71.324  1.00  0.00     0.000 HD 
HETATM   13  O   UNL     1     -11.534   6.946  71.586  1.00  0.00    -0.252 OA 
HETATM   14  C   UNL     1     -11.252   6.301  70.334  1.00  0.00    -0.373 C  
HETATM   15  O   UNL     1     -11.541   9.074  72.441  1.00  0.00    -0.272 OA 
BRANCH   4  16
HETATM   16  C   UNL     1      -9.919  11.161  67.468  1.00  0.00    -0.204 C  
BRANCH  16  17
HETATM   17  C   UNL     1     -10.987  12.104  67.017  1.00  0.00    -0.319 C  
HETATM   18  C   UNL     1     -11.277  12.447  65.747  1.00  0.00    -0.370 C  
HETATM   19  C   UNL     1     -10.606  11.885  64.521  1.00  0.00    -0.358 C  
BRANCH  18  20
HETATM   20  C   UNL     1     -12.340  13.488  65.495  1.00  0.00    -0.524 C  
BRANCH  20  21
HETATM   21  C   UNL     1     -11.985  14.329  64.276  1.00  0.00    -0.449 C  
BRANCH  21  22
HETATM   22  C   UNL     1     -11.389  15.644  64.694  1.00  0.00    -0.349 C  
HETATM   23  O   UNL     1     -11.168  16.595  63.961  1.00  0.00    -1.052 OA 
BRANCH  22  24
HETATM   24  O   UNL     1     -10.994  15.546  65.992  1.00  0.00    -0.316 OA 
BRANCH  24  25
HETATM   25  C   UNL     1     -10.545  16.796  66.539  1.00  0.00    -0.198 C  
BRANCH  25  26
HETATM   26  C   UNL     1      -9.281  16.481  67.358  1.00  0.00    -0.216 C  
BRANCH  26  27
HETATM   27  N   UNL     1      -9.119  15.093  67.802  1.00  0.00    -0.178 NA 
HETATM   28  C   UNL     1      -7.814  14.506  67.436  1.00  0.00    -0.199 C  
HETATM   29  C   UNL     1      -6.631  15.072  68.238  1.00  0.00    -0.113 C  
HETATM   30  O   UNL     1      -6.836  14.916  69.647  1.00  0.00    -0.158 OA 
HETATM   31  C   UNL     1      -8.056  15.542  70.062  1.00  0.00     0.373 C  
HETATM   32  C   UNL     1      -9.265  15.000  69.276  1.00  0.00    -0.159 C  
ENDBRANCH  26  27
ENDBRANCH  25  26
ENDBRANCH  24  25
ENDBRANCH  22  24
ENDBRANCH  21  22
ENDBRANCH  20  21
ENDBRANCH  18  20
ENDBRANCH  16  17
ENDBRANCH   4  16
ENDBRANCH   2   3
TORSDOF 10
ENDMDL
MODEL       97
REMARK 921   NORMALIZED FREE ENERGY PREDICTED BY IDOCK:   -4.96 KCAL/MOL
REMARK 922        TOTAL FREE ENERGY PREDICTED BY IDOCK:   -9.40 KCAL/MOL
REMARK 923 INTER-LIGAND FREE ENERGY PREDICTED BY IDOCK:   -8.75 KCAL/MOL
REMARK 924 INTRA-LIGAND FREE ENERGY PREDICTED BY IDOCK:   -0.65 KCAL/MOL
REMARK 927      BINDING AFFINITY PREDICTED BY RF-SCORE:    0.00 PKD
ROOT
HETATM    1  C   UNL     1     -10.628  10.876  67.064  1.00  0.00    -0.257 C  
HETATM    2  O   UNL     1     -11.856  11.595  67.163  1.00  0.00    -0.608 OA 
ENDROOT
BRANCH   2   3
HETATM    3  C   UNL     1     -11.916  12.603  68.103  1.00  0.00    -0.222 A  
HETATM    4  C   UNL     1     -12.265  12.386  69.474  1.00  0.00    -0.145 A  
HETATM    5  C   UNL     1     -12.190  13.492  70.353  1.00  0.00    -0.356 A  
HETATM    6  C   UNL     1     -11.368  14.901  68.561  1.00  0.00    -0.314 A  
HETATM    7  O   UNL     1     -12.599  13.455  71.651  1.00  0.00    -0.287 OA 
HETATM    8  C   UNL     1     -11.463  13.864  67.640  1.00  0.00    -0.354 A  
HETATM    9  C   UNL     1     -11.721  14.711  69.881  1.00  0.00    -0.349 A  
HETATM   10  C   UNL     1     -11.491  15.959  70.613  1.00  0.00    -0.400 C  
HETATM   11  C   UNL     1     -11.109  14.078  66.195  1.00  0.00    -0.302 C  
HETATM   12  H   UNL     1     -12.548  14.197  72.241  1.00  0.00     0.000 HD 
HETATM   13  O   UNL     1     -11.026  16.870  69.693  1.00  0.00    -0.236 OA 
HETATM   14  C   UNL     1     -10.940  16.307  68.375  1.00  0.00    -0.351 C  
HETATM   15  O   UNL     1     -11.629  16.189  71.799  1.00  0.00    -0.459 OA 
BRANCH   4  16
HETATM   16  C   UNL     1     -12.781  11.020  69.882  1.00  0.00    -0.103 C  
BRANCH  16  17
HETATM   17  C   UNL     1     -11.955  10.148  70.772  1.00  0.00    -0.442 C  
HETATM   18  C   UNL     1     -12.400   9.158  71.570  1.00  0.00    -0.421 C  
HETATM   19  C   UNL     1     -13.830   8.698  71.668  1.00  0.00    -0.440 C  
BRANCH  18  20
HETATM   20  C   UNL     1     -11.417   8.444  72.465  1.00  0.00    -0.422 C  
BRANCH  20  21
HETATM   21  C   UNL     1      -9.995   8.635  71.956  1.00  0.00    -0.399 C  
BRANCH  21  22
HETATM   22  C   UNL     1      -9.005   8.020  72.906  1.00  0.00    -0.239 C  
HETATM   23  O   UNL     1      -8.059   8.593  73.424  1.00  0.00    -0.411 OA 
BRANCH  22  24
HETATM   24  O   UNL     1      -9.244   6.683  72.973  1.00  0.00    -0.132 OA 
BRANCH  24  25
HETATM   25  C   UNL     1      -8.282   5.902  72.246  1.00  0.00    -0.111 C  
BRANCH  25  26
HETATM   26  C   UNL     1      -9.087   4.876  71.429  1.00  0.00    -0.142 C  
BRANCH  26  27
HETATM   27  N   UNL     1      -8.656   4.661  70.044  1.00  0.00    -0.076 NA 
HETATM   28  C   UNL     1      -9.776   4.459  69.103  1.00  0.00    -0.170 C  
HETATM   29  C   UNL     1     -10.592   5.732  68.824  1.00  0.00    -0.251 C  
HETATM   30  O   UNL     1      -9.756   6.788  68.337  1.00  0.00    -0.128 OA 
HETATM   31  C   UNL     1      -8.697   7.074  69.259  1.00  0.00    -0.136 C  
HETATM   32  C   UNL     1      -7.859   5.818  69.564  1.00  0.00    -0.093 C  
ENDBRANCH  26  27
ENDBRANCH  25  26
ENDBRANCH  24  25
ENDBRANCH  22  24
ENDBRANCH  21  22
ENDBRANCH  20  21
ENDBRANCH  18  20
ENDBRANCH  16  17
ENDBRANCH   4  16
ENDBRANCH   2   3
TORSDOF 10
ENDMDL
MODEL       98
REMARK 921   NORMALIZED FREE ENERGY PREDICTED BY IDOCK:   -4.96 KCAL/MOL
REMARK 922        TOTAL FREE ENERGY PREDICTED BY IDOCK:   -9.40 KCAL/MOL
REMARK 923 INTER-LIGAND FREE ENERGY PREDICTED BY IDOCK:   -8.44 KCAL/MOL
REMARK 924 INTRA-LIGAND FREE ENERGY PREDICTED BY IDOCK:   -0.96 KCAL/MOL
REMARK 927      BINDING AFFINITY PREDICTED BY RF-SCORE:    0.00 PKD
ROOT
HETATM    1  C   UNL     1     -12.754  14.121  73.041  1.00  0.00    -0.209 C  
HETATM    2  O   UNL     1     -13.516  13.323  72.137  1.00  0.00    -0.485 OA 
ENDROOT
BRANCH   2   3
HETATM    3  C   UNL     1     -12.870  12.873  71.004  1.00  0.00    -0.184 A  
HETATM    4  C   UNL     1     -12.658  11.487  70.713  1.00  0.00    -0.390 A  
HETATM    5  C   UNL     1     -12.071  11.162  69.468  1.00  0.00    -0.326 A  
HETATM    6  C   UNL     1     -12.021  13.503  68.842  1.00  0.00    -0.378 A  
HETATM    7  O   UNL     1     -11.711   9.899  69.109  1.00  0.00    -0.471 OA 
HETATM    8  C   UNL     1     -12.554  13.888  70.067  1.00  0.00    -0.226 A  
HETATM    9  C   UNL     1     -11.793  12.172  68.557  1.00  0.00    -0.365 A  
HETATM   10  C   UNL     1     -11.259  12.069  67.196  1.00  0.00    -0.316 C  
HETATM   11  C   UNL     1     -12.776  15.339  70.391  1.00  0.00    -0.400 C  
HETATM   12  H   UNL     1     -11.317   9.680  68.273  1.00  0.00     0.000 HD 
HETATM   13  O   UNL     1     -11.165  13.354  66.716  1.00  0.00    -0.296 OA 
HETATM   14  C   UNL     1     -11.594  14.323  67.685  1.00  0.00    -0.368 C  
HETATM   15  O   UNL     1     -10.977  11.074  66.556  1.00  0.00    -0.249 OA 
BRANCH   4  16
HETATM   16  C   UNL     1     -12.983  10.465  71.784  1.00  0.00    -0.580 C  
BRANCH  16  17
HETATM   17  C   UNL     1     -11.953   9.463  72.194  1.00  0.00    -0.240 C  
HETATM   18  C   UNL     1     -12.049   8.123  72.103  1.00  0.00    -0.408 C  
HETATM   19  C   UNL     1     -13.208   7.375  71.501  1.00  0.00    -0.426 C  
BRANCH  18  20
HETATM   20  C   UNL     1     -10.932   7.271  72.654  1.00  0.00    -0.341 C  
BRANCH  20  21
HETATM   21  C   UNL     1     -11.327   5.800  72.641  1.00  0.00    -0.349 C  
BRANCH  21  22
HETATM   22  C   UNL     1     -10.147   4.937  72.292  1.00  0.00    -0.191 C  
HETATM   23  O   UNL     1     -10.186   3.747  72.021  1.00  0.00    -0.165 OA 
BRANCH  22  24
HETATM   24  O   UNL     1      -9.011   5.662  72.478  1.00  0.00    -0.133 OA 
BRANCH  24  25
HETATM   25  C   UNL     1      -7.966   5.318  71.554  1.00  0.00    -0.114 C  
BRANCH  25  26
HETATM   26  C   UNL     1      -8.262   6.093  70.257  1.00  0.00    -0.124 C  
BRANCH  26  27
HETATM   27  N   UNL     1      -7.256   7.073  69.838  1.00  0.00    -0.077 NA 
HETATM   28  C   UNL     1      -7.374   7.469  68.420  1.00  0.00    -0.099 C  
HETATM   29  C   UNL     1      -8.596   8.353  68.122  1.00  0.00    -0.139 C  
HETATM   30  O   UNL     1      -8.599   9.529  68.939  1.00  0.00    -0.122 OA 
HETATM   31  C   UNL     1      -8.565   9.190  70.330  1.00  0.00    -0.209 C  
HETATM   32  C   UNL     1      -7.352   8.301  70.666  1.00  0.00    -0.057 C  
ENDBRANCH  26  27
ENDBRANCH  25  26
ENDBRANCH  24  25
ENDBRANCH  22  24
ENDBRANCH  21  22
ENDBRANCH  20  21
ENDBRANCH  18  20
ENDBRANCH  16  17
ENDBRANCH   4  16
ENDBRANCH   2   3
TORSDOF 10
ENDMDL
MODEL       99
REMARK 921   NORMALIZED FREE ENERGY PREDICTED BY IDOCK:   -4.94 KCAL/MOL
REMARK 922        TOTAL FREE ENERGY PREDICTED BY IDOCK:   -9.37 KCAL/MOL
REMARK 923 INTER-LIGAND FREE ENERGY PREDICTED BY IDOCK:   -8.88 KCAL/MOL
REMARK 924 INTRA-LIGAND FREE ENERGY PREDICTED BY IDOCK:   -0.49 KCAL/MOL
REMARK 927      BINDING AFFINITY PREDICTED BY RF-SCORE:    0.00 PKD
ROOT
HETATM    1  C   UNL     1      -9.537   6.747  66.755  1.00  0.00    -0.166 C  
HETATM    2  O   UNL     1     -10.296   7.219  67.867  1.00  0.00    -0.180 OA 
ENDROOT
BRANCH   2   3
HETATM    3  C   UNL     1      -9.598   7.510  69.022  1.00  0.00    -0.153 A  
HETATM    4  C   UNL     1      -8.918   8.750  69.242  1.00  0.00    -0.144 A  
HETATM    5  C   UNL     1      -8.327   8.957  70.511  1.00  0.00    -0.159 A  
HETATM    6  C   UNL     1      -9.162   6.817  71.284  1.00  0.00    -0.154 A  
HETATM    7  O   UNL     1      -7.557  10.036  70.819  1.00  0.00    -0.390 OA 
HETATM    8  C   UNL     1      -9.726   6.537  70.044  1.00  0.00    -0.178 A  
HETATM    9  C   UNL     1      -8.486   7.999  71.504  1.00  0.00    -0.147 A  
HETATM   10  C   UNL     1      -8.032   8.028  72.897  1.00  0.00    -0.151 C  
HETATM   11  C   UNL     1     -10.436   5.237  69.794  1.00  0.00    -0.340 C  
HETATM   12  H   UNL     1      -7.161  10.175  71.671  1.00  0.00     0.000 HD 
HETATM   13  O   UNL     1      -8.436   6.841  73.463  1.00  0.00    -0.119 OA 
HETATM   14  C   UNL     1      -9.128   6.005  72.523  1.00  0.00    -0.135 C  
HETATM   15  O   UNL     1      -7.448   8.911  73.495  1.00  0.00    -0.371 OA 
BRANCH   4  16
HETATM   16  C   UNL     1      -8.789   9.721  68.085  1.00  0.00    -0.119 C  
BRANCH  16  17
HETATM   17  C   UNL     1      -9.832  10.769  67.873  1.00  0.00    -0.185 C  
HETATM   18  C   UNL     1     -10.446  11.073  66.713  1.00  0.00    -0.300 C  
HETATM   19  C   UNL     1     -10.233  10.359  65.405  1.00  0.00    -0.329 C  
BRANCH  18  20
HETATM   20  C   UNL     1     -11.416  12.229  66.681  1.00  0.00    -0.431 C  
BRANCH  20  21
HETATM   21  C   UNL     1     -11.621  12.713  65.251  1.00  0.00    -0.389 C  
BRANCH  21  22
HETATM   22  C   UNL     1     -12.347  14.029  65.237  1.00  0.00    -0.465 C  
HETATM   23  O   UNL     1     -13.535  14.194  65.466  1.00  0.00    -0.643 OA 
BRANCH  22  24
HETATM   24  O   UNL     1     -11.498  14.986  64.776  1.00  0.00    -0.400 OA 
BRANCH  24  25
HETATM   25  C   UNL     1     -10.400  15.241  65.666  1.00  0.00    -0.366 C  
BRANCH  25  26
HETATM   26  C   UNL     1     -10.660  16.624  66.289  1.00  0.00    -0.205 C  
BRANCH  26  27
HETATM   27  N   UNL     1      -9.916  17.749  65.715  1.00  0.00    -0.559 NA 
HETATM   28  C   UNL     1     -10.615  19.044  65.840  1.00  0.00    -0.393 C  
HETATM   29  C   UNL     1     -10.657  19.592  67.276  1.00  0.00    -0.490 C  
HETATM   30  O   UNL     1      -9.339  19.717  67.823  1.00  0.00    -0.324 OA 
HETATM   31  C   UNL     1      -8.649  18.463  67.795  1.00  0.00    -0.267 C  
HETATM   32  C   UNL     1      -8.590  17.882  66.370  1.00  0.00    -0.227 C  
ENDBRANCH  26  27
ENDBRANCH  25  26
ENDBRANCH  24  25
ENDBRANCH  22  24
ENDBRANCH  21  22
ENDBRANCH  20  21
ENDBRANCH  18  20
ENDBRANCH  16  17
ENDBRANCH   4  16
ENDBRANCH   2   3
TORSDOF 10
ENDMDL
MODEL      100
REMARK 921   NORMALIZED FREE ENERGY PREDICTED BY IDOCK:   -4.93 KCAL/MOL
REMARK 922        TOTAL FREE ENERGY PREDICTED BY IDOCK:   -9.35 KCAL/MOL
REMARK 923 INTER-LIGAND FREE ENERGY PREDICTED BY IDOCK:   -8.67 KCAL/MOL
REMARK 924 INTRA-LIGAND FREE ENERGY PREDICTED BY IDOCK:   -0.69 KCAL/MOL
REMARK 927      BINDING AFFINITY PREDICTED BY RF-SCORE:    0.00 PKD
ROOT
HETATM    1  C   UNL     1     -10.877   5.881  68.688  1.00  0.00    -0.261 C  
HETATM    2  O   UNL     1     -11.004   6.945  69.629  1.00  0.00    -0.245 OA 
ENDROOT
BRANCH   2   3
HETATM    3  C   UNL     1      -9.881   7.713  69.860  1.00  0.00    -0.184 A  
HETATM    4  C   UNL     1      -9.541   8.870  69.090  1.00  0.00    -0.162 A  
HETATM    5  C   UNL     1      -8.416   9.623  69.499  1.00  0.00    -0.159 A  
HETATM    6  C   UNL     1      -8.083   8.154  71.398  1.00  0.00    -0.132 A  
HETATM    7  O   UNL     1      -7.916  10.676  68.797  1.00  0.00    -0.117 OA 
HETATM    8  C   UNL     1      -9.153   7.350  71.021  1.00  0.00    -0.152 A  
HETATM    9  C   UNL     1      -7.733   9.262  70.653  1.00  0.00    -0.170 A  
HETATM   10  C   UNL     1      -6.599   9.924  71.302  1.00  0.00     0.230 C  
HETATM   11  C   UNL     1      -9.517   6.126  71.815  1.00  0.00    -0.162 C  
HETATM   12  H   UNL     1      -7.160  11.182  69.071  1.00  0.00     0.000 HD 
HETATM   13  O   UNL     1      -6.291   9.172  72.411  1.00  0.00    -0.270 OA 
HETATM   14  C   UNL     1      -7.149   8.028  72.541  1.00  0.00    -0.091 C  
HETATM   15  O   UNL     1      -6.031  10.953  70.990  1.00  0.00    -0.342 OA 
BRANCH   4  16
HETATM   16  C   UNL     1     -10.343   9.167  67.838  1.00  0.00    -0.285 C  
BRANCH  16  17
HETATM   17  C   UNL     1     -11.002  10.498  67.674  1.00  0.00    -0.375 C  
HETATM   18  C   UNL     1     -10.846  11.354  66.646  1.00  0.00    -0.339 C  
HETATM   19  C   UNL     1     -10.010  11.096  65.420  1.00  0.00    -0.309 C  
BRANCH  18  20
HETATM   20  C   UNL     1     -11.533  12.696  66.701  1.00  0.00    -0.409 C  
BRANCH  20  21
HETATM   21  C   UNL     1     -12.406  12.901  65.470  1.00  0.00    -0.517 C  
BRANCH  21  22
HETATM   22  C   UNL     1     -12.313  14.320  64.984  1.00  0.00    -0.428 C  
HETATM   23  O   UNL     1     -12.777  14.751  63.940  1.00  0.00    -0.794 OA 
BRANCH  22  24
HETATM   24  O   UNL     1     -11.494  15.011  65.821  1.00  0.00    -0.327 OA 
BRANCH  24  25
HETATM   25  C   UNL     1     -10.867  16.140  65.191  1.00  0.00    -0.361 C  
BRANCH  25  26
HETATM   26  C   UNL     1      -9.865  16.705  66.213  1.00  0.00    -0.310 C  
BRANCH  26  27
HETATM   27  N   UNL     1     -10.433  17.281  67.436  1.00  0.00    -0.347 NA 
HETATM   28  C   UNL     1      -9.596  17.064  68.634  1.00  0.00    -0.275 C  
HETATM   29  C   UNL     1      -8.303  17.895  68.647  1.00  0.00    -0.270 C  
HETATM   30  O   UNL     1      -8.584  19.294  68.519  1.00  0.00    -0.345 OA 
HETATM   31  C   UNL     1      -9.329  19.563  67.326  1.00  0.00    -0.318 C  
HETATM   32  C   UNL     1     -10.632  18.743  67.276  1.00  0.00    -0.442 C  
ENDBRANCH  26  27
ENDBRANCH  25  26
ENDBRANCH  24  25
ENDBRANCH  22  24
ENDBRANCH  21  22
ENDBRANCH  20  21
ENDBRANCH  18  20
ENDBRANCH  16  17
ENDBRANCH   4  16
ENDBRANCH   2   3
TORSDOF 10
ENDMDL
MODEL      101
REMARK 921   NORMALIZED FREE ENERGY PREDICTED BY IDOCK:   -4.93 KCAL/MOL
REMARK 922        TOTAL FREE ENERGY PREDICTED BY IDOCK:   -9.35 KCAL/MOL
REMARK 923 INTER-LIGAND FREE ENERGY PREDICTED BY IDOCK:   -9.24 KCAL/MOL
REMARK 924 INTRA-LIGAND FREE ENERGY PREDICTED BY IDOCK:   -0.10 KCAL/MOL
REMARK 927      BINDING AFFINITY PREDICTED BY RF-SCORE:    0.00 PKD
ROOT
HETATM    1  C   UNL     1      -9.132  12.775  68.285  1.00  0.00    -0.180 C  
HETATM    2  O   UNL     1     -10.503  12.396  68.184  1.00  0.00    -0.206 OA 
ENDROOT
BRANCH   2   3
HETATM    3  C   UNL     1     -11.009  11.605  69.196  1.00  0.00    -0.219 A  
HETATM    4  C   UNL     1     -11.897  12.089  70.209  1.00  0.00    -0.356 A  
HETATM    5  C   UNL     1     -12.419  11.147  71.126  1.00  0.00    -0.393 A  
HETATM    6  C   UNL     1     -11.275   9.345  69.979  1.00  0.00    -0.217 A  
HETATM    7  O   UNL     1     -13.182  11.484  72.202  1.00  0.00    -0.576 OA 
HETATM    8  C   UNL     1     -10.695  10.228  69.074  1.00  0.00    -0.257 A  
HETATM    9  C   UNL     1     -12.116   9.801  70.973  1.00  0.00    -0.434 A  
HETATM   10  C   UNL     1     -12.593   8.652  71.747  1.00  0.00    -0.349 C  
HETATM   11  C   UNL     1      -9.754   9.738  68.010  1.00  0.00    -0.165 C  
HETATM   12  H   UNL     1     -13.533  10.852  72.818  1.00  0.00     0.000 HD 
HETATM   13  O   UNL     1     -11.998   7.539  71.199  1.00  0.00    -0.298 OA 
HETATM   14  C   UNL     1     -11.133   7.876  70.103  1.00  0.00    -0.201 C  
HETATM   15  O   UNL     1     -13.384   8.624  72.670  1.00  0.00    -0.334 OA 
BRANCH   4  16
HETATM   16  C   UNL     1     -12.150  13.581  70.298  1.00  0.00    -0.425 C  
BRANCH  16  17
HETATM   17  C   UNL     1     -12.100  14.419  69.062  1.00  0.00    -0.298 C  
HETATM   18  C   UNL     1     -11.520  15.627  68.929  1.00  0.00    -0.367 C  
HETATM   19  C   UNL     1     -10.746  16.342  70.005  1.00  0.00    -0.290 C  
BRANCH  18  20
HETATM   20  C   UNL     1     -11.651  16.361  67.617  1.00  0.00     0.282 C  
BRANCH  20  21
HETATM   21  C   UNL     1     -10.901  15.624  66.516  1.00  0.00    -0.260 C  
BRANCH  21  22
HETATM   22  C   UNL     1     -10.551  16.561  65.394  1.00  0.00    -0.276 C  
HETATM   23  O   UNL     1     -11.079  16.588  64.293  1.00  0.00    -0.915 OA 
BRANCH  22  24
HETATM   24  O   UNL     1      -9.447  17.271  65.751  1.00  0.00    -0.527 OA 
BRANCH  24  25
HETATM   25  C   UNL     1      -8.359  16.439  66.183  1.00  0.00    -0.256 C  
BRANCH  25  26
HETATM   26  C   UNL     1      -7.155  17.375  66.392  1.00  0.00    -0.293 C  
BRANCH  26  27
HETATM   27  N   UNL     1      -6.578  17.407  67.739  1.00  0.00    -0.151 NA 
HETATM   28  C   UNL     1      -5.361  18.238  67.840  1.00  0.00    -0.156 C  
HETATM   29  C   UNL     1      -5.630  19.748  67.742  1.00  0.00    -0.190 C  
HETATM   30  O   UNL     1      -6.571  20.174  68.734  1.00  0.00    -0.307 OA 
HETATM   31  C   UNL     1      -7.801  19.448  68.623  1.00  0.00    -0.364 C  
HETATM   32  C   UNL     1      -7.569  17.928  68.715  1.00  0.00    -0.268 C  
ENDBRANCH  26  27
ENDBRANCH  25  26
ENDBRANCH  24  25
ENDBRANCH  22  24
ENDBRANCH  21  22
ENDBRANCH  20  21
ENDBRANCH  18  20
ENDBRANCH  16  17
ENDBRANCH   4  16
ENDBRANCH   2   3
TORSDOF 10
ENDMDL
MODEL      102
REMARK 921   NORMALIZED FREE ENERGY PREDICTED BY IDOCK:   -4.92 KCAL/MOL
REMARK 922        TOTAL FREE ENERGY PREDICTED BY IDOCK:   -9.34 KCAL/MOL
REMARK 923 INTER-LIGAND FREE ENERGY PREDICTED BY IDOCK:   -8.27 KCAL/MOL
REMARK 924 INTRA-LIGAND FREE ENERGY PREDICTED BY IDOCK:   -1.07 KCAL/MOL
REMARK 927      BINDING AFFINITY PREDICTED BY RF-SCORE:    0.00 PKD
ROOT
HETATM    1  C   UNL     1      -9.086   7.894  65.962  1.00  0.00    -0.132 C  
HETATM    2  O   UNL     1      -8.719   9.270  66.037  1.00  0.00    -0.140 OA 
ENDROOT
BRANCH   2   3
HETATM    3  C   UNL     1      -9.738  10.195  65.933  1.00  0.00    -0.232 A  
HETATM    4  C   UNL     1     -10.429  10.740  67.062  1.00  0.00    -0.297 A  
HETATM    5  C   UNL     1     -11.384  11.754  66.819  1.00  0.00    -0.320 A  
HETATM    6  C   UNL     1     -10.877  11.709  64.450  1.00  0.00    -0.399 A  
HETATM    7  O   UNL     1     -12.190  12.279  67.782  1.00  0.00    -0.425 OA 
HETATM    8  C   UNL     1      -9.958  10.679  64.620  1.00  0.00    -0.401 A  
HETATM    9  C   UNL     1     -11.565  12.229  65.527  1.00  0.00    -0.422 A  
HETATM   10  C   UNL     1     -12.433  13.310  65.052  1.00  0.00    -0.443 C  
HETATM   11  C   UNL     1      -9.231  10.090  63.443  1.00  0.00    -0.317 C  
HETATM   12  H   UNL     1     -12.831  12.961  67.619  1.00  0.00     0.000 HD 
HETATM   13  O   UNL     1     -12.251  13.385  63.690  1.00  0.00    -0.616 OA 
HETATM   14  C   UNL     1     -11.315  12.405  63.218  1.00  0.00    -0.327 C  
HETATM   15  O   UNL     1     -13.158  14.048  65.690  1.00  0.00    -0.639 OA 
BRANCH   4  16
HETATM   16  C   UNL     1     -10.168  10.139  68.430  1.00  0.00    -0.192 C  
BRANCH  16  17
HETATM   17  C   UNL     1      -8.869  10.397  69.121  1.00  0.00    -0.180 C  
HETATM   18  C   UNL     1      -8.001   9.475  69.579  1.00  0.00    -0.110 C  
HETATM   19  C   UNL     1      -8.154   7.985  69.422  1.00  0.00    -0.118 C  
BRANCH  18  20
HETATM   20  C   UNL     1      -6.776   9.934  70.332  1.00  0.00    -0.136 C  
BRANCH  20  21
HETATM   21  C   UNL     1      -6.223   8.803  71.190  1.00  0.00    -0.051 C  
BRANCH  21  22
HETATM   22  C   UNL     1      -6.530   9.040  72.642  1.00  0.00     0.165 C  
HETATM   23  O   UNL     1      -5.727   9.374  73.498  1.00  0.00    -0.285 OA 
BRANCH  22  24
HETATM   24  O   UNL     1      -7.818   8.672  72.877  1.00  0.00    -0.367 OA 
BRANCH  24  25
HETATM   25  C   UNL     1      -7.927   7.480  73.671  1.00  0.00    -0.129 C  
BRANCH  25  26
HETATM   26  C   UNL     1      -8.645   6.439  72.794  1.00  0.00    -0.125 C  
BRANCH  26  27
HETATM   27  N   UNL     1     -10.048   6.168  73.119  1.00  0.00    -0.180 NA 
HETATM   28  C   UNL     1     -10.886   7.383  73.178  1.00  0.00    -0.386 C  
HETATM   29  C   UNL     1     -11.157   8.017  71.804  1.00  0.00    -0.260 C  
HETATM   30  O   UNL     1     -11.758   7.077  70.906  1.00  0.00    -0.309 OA 
HETATM   31  C   UNL     1     -10.939   5.912  70.757  1.00  0.00    -0.273 C  
HETATM   32  C   UNL     1     -10.644   5.250  72.116  1.00  0.00    -0.221 C  
ENDBRANCH  26  27
ENDBRANCH  25  26
ENDBRANCH  24  25
ENDBRANCH  22  24
ENDBRANCH  21  22
ENDBRANCH  20  21
ENDBRANCH  18  20
ENDBRANCH  16  17
ENDBRANCH   4  16
ENDBRANCH   2   3
TORSDOF 10
ENDMDL
MODEL      103
REMARK 921   NORMALIZED FREE ENERGY PREDICTED BY IDOCK:   -4.91 KCAL/MOL
REMARK 922        TOTAL FREE ENERGY PREDICTED BY IDOCK:   -9.33 KCAL/MOL
REMARK 923 INTER-LIGAND FREE ENERGY PREDICTED BY IDOCK:   -8.62 KCAL/MOL
REMARK 924 INTRA-LIGAND FREE ENERGY PREDICTED BY IDOCK:   -0.71 KCAL/MOL
REMARK 927      BINDING AFFINITY PREDICTED BY RF-SCORE:    0.00 PKD
ROOT
HETATM    1  C   UNL     1     -10.811  16.629  68.112  1.00  0.00    -0.348 C  
HETATM    2  O   UNL     1     -10.229  15.771  69.091  1.00  0.00    -0.203 OA 
ENDROOT
BRANCH   2   3
HETATM    3  C   UNL     1     -10.960  14.661  69.464  1.00  0.00    -0.245 A  
HETATM    4  C   UNL     1     -10.859  13.392  68.808  1.00  0.00    -0.275 A  
HETATM    5  C   UNL     1     -11.590  12.313  69.356  1.00  0.00    -0.314 A  
HETATM    6  C   UNL     1     -12.382  13.722  71.162  1.00  0.00    -0.428 A  
HETATM    7  O   UNL     1     -11.676  11.085  68.773  1.00  0.00    -0.295 OA 
HETATM    8  C   UNL     1     -11.721  14.831  70.647  1.00  0.00    -0.353 A  
HETATM    9  C   UNL     1     -12.310  12.498  70.529  1.00  0.00    -0.345 A  
HETATM   10  C   UNL     1     -13.074  11.520  71.309  1.00  0.00    -0.184 C  
HETATM   11  C   UNL     1     -11.823  16.172  71.318  1.00  0.00    -0.458 C  
HETATM   12  H   UNL     1     -12.166  10.360  69.141  1.00  0.00     0.000 HD 
HETATM   13  O   UNL     1     -13.601  12.203  72.381  1.00  0.00    -0.382 OA 
HETATM   14  C   UNL     1     -13.244  13.594  72.360  1.00  0.00    -0.484 C  
HETATM   15  O   UNL     1     -13.215  10.328  71.117  1.00  0.00    -0.381 OA 
BRANCH   4  16
HETATM   16  C   UNL     1     -10.059  13.302  67.524  1.00  0.00    -0.223 C  
BRANCH  16  17
HETATM   17  C   UNL     1     -10.367  12.232  66.528  1.00  0.00    -0.250 C  
HETATM   18  C   UNL     1     -10.561  12.392  65.205  1.00  0.00    -0.322 C  
HETATM   19  C   UNL     1     -10.440  13.696  64.462  1.00  0.00    -0.411 C  
BRANCH  18  20
HETATM   20  C   UNL     1     -10.950  11.195  64.373  1.00  0.00    -0.270 C  
BRANCH  20  21
HETATM   21  C   UNL     1      -9.846  10.853  63.381  1.00  0.00    -0.408 C  
BRANCH  21  22
HETATM   22  C   UNL     1      -8.828   9.946  64.013  1.00  0.00    -0.228 C  
HETATM   23  O   UNL     1      -7.647   9.875  63.710  1.00  0.00    -0.127 OA 
BRANCH  22  24
HETATM   24  O   UNL     1      -9.469   9.108  64.870  1.00  0.00    -0.113 OA 
BRANCH  24  25
HETATM   25  C   UNL     1      -8.743   8.887  66.090  1.00  0.00    -0.153 C  
BRANCH  25  26
HETATM   26  C   UNL     1      -9.714   8.175  67.049  1.00  0.00    -0.212 C  
BRANCH  26  27
HETATM   27  N   UNL     1      -9.116   7.252  68.018  1.00  0.00    -0.134 NA 
HETATM   28  C   UNL     1      -8.807   7.882  69.318  1.00  0.00    -0.142 C  
HETATM   29  C   UNL     1     -10.050   8.217  70.158  1.00  0.00    -0.194 C  
HETATM   30  O   UNL     1     -10.855   7.053  70.381  1.00  0.00    -0.236 OA 
HETATM   31  C   UNL     1     -11.247   6.453  69.141  1.00  0.00    -0.354 C  
HETATM   32  C   UNL     1     -10.024   6.106  68.270  1.00  0.00    -0.143 C  
ENDBRANCH  26  27
ENDBRANCH  25  26
ENDBRANCH  24  25
ENDBRANCH  22  24
ENDBRANCH  21  22
ENDBRANCH  20  21
ENDBRANCH  18  20
ENDBRANCH  16  17
ENDBRANCH   4  16
ENDBRANCH   2   3
TORSDOF 10
ENDMDL
MODEL      104
REMARK 921   NORMALIZED FREE ENERGY PREDICTED BY IDOCK:   -4.91 KCAL/MOL
REMARK 922        TOTAL FREE ENERGY PREDICTED BY IDOCK:   -9.32 KCAL/MOL
REMARK 923 INTER-LIGAND FREE ENERGY PREDICTED BY IDOCK:   -8.25 KCAL/MOL
REMARK 924 INTRA-LIGAND FREE ENERGY PREDICTED BY IDOCK:   -1.08 KCAL/MOL
REMARK 927      BINDING AFFINITY PREDICTED BY RF-SCORE:    0.00 PKD
ROOT
HETATM    1  C   UNL     1     -12.242  12.023  65.441  1.00  0.00     0.111 C  
HETATM    2  O   UNL     1     -11.111  12.269  66.274  1.00  0.00    -0.274 OA 
ENDROOT
BRANCH   2   3
HETATM    3  C   UNL     1     -11.295  13.123  67.343  1.00  0.00    -0.306 A  
HETATM    4  C   UNL     1     -11.638  12.679  68.660  1.00  0.00    -0.356 A  
HETATM    5  C   UNL     1     -11.697  13.652  69.685  1.00  0.00    -0.320 A  
HETATM    6  C   UNL     1     -11.008  15.379  68.129  1.00  0.00    -0.297 A  
HETATM    7  O   UNL     1     -12.118  13.390  70.952  1.00  0.00    -0.451 OA 
HETATM    8  C   UNL     1     -10.975  14.477  67.072  1.00  0.00    -0.312 A  
HETATM    9  C   UNL     1     -11.357  14.968  69.400  1.00  0.00    -0.314 A  
HETATM   10  C   UNL     1     -11.276  16.119  70.304  1.00  0.00    -0.381 C  
HETATM   11  C   UNL     1     -10.625  14.928  65.681  1.00  0.00    -0.358 C  
HETATM   12  H   UNL     1     -12.158  14.043  71.640  1.00  0.00     0.000 HD 
HETATM   13  O   UNL     1     -10.899  17.194  69.533  1.00  0.00    -0.202 OA 
HETATM   14  C   UNL     1     -10.733  16.834  68.152  1.00  0.00    -0.361 C  
HETATM   15  O   UNL     1     -11.455  16.164  71.505  1.00  0.00    -0.417 OA 
BRANCH   4  16
HETATM   16  C   UNL     1     -12.007  11.222  68.860  1.00  0.00    -0.378 C  
BRANCH  16  17
HETATM   17  C   UNL     1     -11.260  10.395  69.855  1.00  0.00    -0.371 C  
HETATM   18  C   UNL     1     -11.751   9.859  70.989  1.00  0.00    -0.466 C  
HETATM   19  C   UNL     1     -13.185   9.945  71.441  1.00  0.00    -0.487 C  
BRANCH  18  20
HETATM   20  C   UNL     1     -10.814   9.123  71.915  1.00  0.00    -0.353 C  
BRANCH  20  21
HETATM   21  C   UNL     1      -9.590   8.630  71.155  1.00  0.00    -0.281 C  
BRANCH  21  22
HETATM   22  C   UNL     1      -9.837   7.263  70.581  1.00  0.00    -0.179 C  
HETATM   23  O   UNL     1     -10.342   6.320  71.170  1.00  0.00    -0.200 OA 
BRANCH  22  24
HETATM   24  O   UNL     1      -9.266   7.202  69.348  1.00  0.00    -0.148 OA 
BRANCH  24  25
HETATM   25  C   UNL     1      -8.801   8.478  68.879  1.00  0.00    -0.139 C  
BRANCH  25  26
HETATM   26  C   UNL     1      -8.869   8.426  67.343  1.00  0.00    -0.134 C  
BRANCH  26  27
HETATM   27  N   UNL     1      -9.117   9.697  66.656  1.00  0.00    -0.145 NA 
HETATM   28  C   UNL     1      -7.941  10.591  66.625  1.00  0.00    -0.125 C  
HETATM   29  C   UNL     1      -6.823  10.113  65.685  1.00  0.00    -0.124 C  
HETATM   30  O   UNL     1      -7.309   9.933  64.350  1.00  0.00    -0.125 OA 
HETATM   31  C   UNL     1      -8.403   9.009  64.320  1.00  0.00    -0.173 C  
HETATM   32  C   UNL     1      -9.544   9.455  65.255  1.00  0.00    -0.180 C  
ENDBRANCH  26  27
ENDBRANCH  25  26
ENDBRANCH  24  25
ENDBRANCH  22  24
ENDBRANCH  21  22
ENDBRANCH  20  21
ENDBRANCH  18  20
ENDBRANCH  16  17
ENDBRANCH   4  16
ENDBRANCH   2   3
TORSDOF 10
ENDMDL
MODEL      105
REMARK 921   NORMALIZED FREE ENERGY PREDICTED BY IDOCK:   -4.91 KCAL/MOL
REMARK 922        TOTAL FREE ENERGY PREDICTED BY IDOCK:   -9.32 KCAL/MOL
REMARK 923 INTER-LIGAND FREE ENERGY PREDICTED BY IDOCK:   -8.86 KCAL/MOL
REMARK 924 INTRA-LIGAND FREE ENERGY PREDICTED BY IDOCK:   -0.46 KCAL/MOL
REMARK 927      BINDING AFFINITY PREDICTED BY RF-SCORE:    0.00 PKD
ROOT
HETATM    1  C   UNL     1      -6.896   8.030  68.261  1.00  0.00    -0.072 C  
HETATM    2  O   UNL     1      -7.726   8.972  68.938  1.00  0.00    -0.091 OA 
ENDROOT
BRANCH   2   3
HETATM    3  C   UNL     1      -8.758   8.462  69.699  1.00  0.00    -0.133 A  
HETATM    4  C   UNL     1      -9.979   7.961  69.144  1.00  0.00    -0.184 A  
HETATM    5  C   UNL     1     -10.911   7.375  70.031  1.00  0.00    -0.252 A  
HETATM    6  C   UNL     1      -9.398   7.712  71.894  1.00  0.00    -0.181 A  
HETATM    7  O   UNL     1     -12.153   6.962  69.658  1.00  0.00    -0.551 OA 
HETATM    8  C   UNL     1      -8.461   8.338  71.080  1.00  0.00    -0.150 A  
HETATM    9  C   UNL     1     -10.587   7.243  71.375  1.00  0.00    -0.229 A  
HETATM   10  C   UNL     1     -11.354   6.612  72.453  1.00  0.00    -0.272 C  
HETATM   11  C   UNL     1      -7.179   8.877  71.649  1.00  0.00    -0.057 C  
HETATM   12  H   UNL     1     -12.779   6.568  70.253  1.00  0.00     0.000 HD 
HETATM   13  O   UNL     1     -10.601   6.746  73.596  1.00  0.00    -0.314 OA 
HETATM   14  C   UNL     1      -9.371   7.446  73.351  1.00  0.00    -0.212 C  
HETATM   15  O   UNL     1     -12.424   6.038  72.398  1.00  0.00    -0.177 OA 
BRANCH   4  16
HETATM   16  C   UNL     1     -10.240   8.170  67.665  1.00  0.00    -0.296 C  
BRANCH  16  17
HETATM   17  C   UNL     1     -10.223   9.551  67.094  1.00  0.00    -0.305 C  
HETATM   18  C   UNL     1     -10.847  10.637  67.588  1.00  0.00    -0.346 C  
HETATM   19  C   UNL     1     -11.644  10.674  68.865  1.00  0.00    -0.320 C  
BRANCH  18  20
HETATM   20  C   UNL     1     -10.781  11.932  66.817  1.00  0.00    -0.282 C  
BRANCH  20  21
HETATM   21  C   UNL     1     -11.758  12.948  67.395  1.00  0.00    -0.428 C  
BRANCH  21  22
HETATM   22  C   UNL     1     -12.085  14.006  66.379  1.00  0.00    -0.455 C  
HETATM   23  O   UNL     1     -12.917  13.912  65.490  1.00  0.00    -0.673 OA 
BRANCH  22  24
HETATM   24  O   UNL     1     -11.196  15.026  66.515  1.00  0.00    -0.340 OA 
BRANCH  24  25
HETATM   25  C   UNL     1     -11.006  15.428  67.881  1.00  0.00    -0.310 C  
BRANCH  25  26
HETATM   26  C   UNL     1     -10.726  16.941  67.852  1.00  0.00    -0.344 C  
BRANCH  26  27
HETATM   27  N   UNL     1      -9.391  17.367  68.281  1.00  0.00    -0.270 NA 
HETATM   28  C   UNL     1      -8.300  16.549  67.714  1.00  0.00    -0.170 C  
HETATM   29  C   UNL     1      -8.068  16.778  66.212  1.00  0.00    -0.330 C  
HETATM   30  O   UNL     1      -7.813  18.158  65.929  1.00  0.00    -0.503 OA 
HETATM   31  C   UNL     1      -8.887  18.986  66.393  1.00  0.00    -0.321 C  
HETATM   32  C   UNL     1      -9.149  18.781  67.897  1.00  0.00    -0.291 C  
ENDBRANCH  26  27
ENDBRANCH  25  26
ENDBRANCH  24  25
ENDBRANCH  22  24
ENDBRANCH  21  22
ENDBRANCH  20  21
ENDBRANCH  18  20
ENDBRANCH  16  17
ENDBRANCH   4  16
ENDBRANCH   2   3
TORSDOF 10
ENDMDL
MODEL      106
REMARK 921   NORMALIZED FREE ENERGY PREDICTED BY IDOCK:   -4.90 KCAL/MOL
REMARK 922        TOTAL FREE ENERGY PREDICTED BY IDOCK:   -9.30 KCAL/MOL
REMARK 923 INTER-LIGAND FREE ENERGY PREDICTED BY IDOCK:   -8.44 KCAL/MOL
REMARK 924 INTRA-LIGAND FREE ENERGY PREDICTED BY IDOCK:   -0.86 KCAL/MOL
REMARK 927      BINDING AFFINITY PREDICTED BY RF-SCORE:    0.00 PKD
ROOT
HETATM    1  C   UNL     1      -9.363  10.151  64.918  1.00  0.00    -0.254 C  
HETATM    2  O   UNL     1     -10.615  10.647  65.387  1.00  0.00    -0.220 OA 
ENDROOT
BRANCH   2   3
HETATM    3  C   UNL     1     -10.606  11.876  66.014  1.00  0.00    -0.265 A  
HETATM    4  C   UNL     1     -10.187  12.069  67.369  1.00  0.00    -0.216 A  
HETATM    5  C   UNL     1     -10.131  13.396  67.855  1.00  0.00    -0.238 A  
HETATM    6  C   UNL     1     -10.794  14.253  65.687  1.00  0.00    -0.311 A  
HETATM    7  O   UNL     1      -9.859  13.716  69.150  1.00  0.00    -0.411 OA 
HETATM    8  C   UNL     1     -10.910  12.969  65.165  1.00  0.00    -0.320 A  
HETATM    9  C   UNL     1     -10.411  14.452  66.997  1.00  0.00    -0.263 A  
HETATM   10  C   UNL     1     -10.349  15.894  67.254  1.00  0.00    -0.293 C  
HETATM   11  C   UNL     1     -11.358  12.749  63.747  1.00  0.00    -0.520 C  
HETATM   12  H   UNL     1      -9.822  14.607  69.477  1.00  0.00     0.000 HD 
HETATM   13  O   UNL     1     -10.722  16.514  66.085  1.00  0.00    -0.264 OA 
HETATM   14  C   UNL     1     -11.046  15.568  65.054  1.00  0.00    -0.401 C  
HETATM   15  O   UNL     1     -10.006  16.478  68.263  1.00  0.00    -0.236 OA 
BRANCH   4  16
HETATM   16  C   UNL     1      -9.919  10.847  68.225  1.00  0.00    -0.187 C  
BRANCH  16  17
HETATM   17  C   UNL     1     -10.838  10.515  69.356  1.00  0.00    -0.291 C  
HETATM   18  C   UNL     1     -10.516   9.873  70.495  1.00  0.00    -0.330 C  
HETATM   19  C   UNL     1      -9.131   9.418  70.874  1.00  0.00    -0.220 C  
BRANCH  18  20
HETATM   20  C   UNL     1     -11.607   9.551  71.487  1.00  0.00    -0.465 C  
BRANCH  20  21
HETATM   21  C   UNL     1     -12.113   8.129  71.281  1.00  0.00    -0.313 C  
BRANCH  21  22
HETATM   22  C   UNL     1     -11.463   7.189  72.257  1.00  0.00    -0.271 C  
HETATM   23  O   UNL     1     -10.944   7.504  73.317  1.00  0.00    -0.393 OA 
BRANCH  22  24
HETATM   24  O   UNL     1     -11.411   5.952  71.696  1.00  0.00    -0.269 OA 
BRANCH  24  25
HETATM   25  C   UNL     1     -10.157   5.679  71.049  1.00  0.00    -0.207 C  
BRANCH  25  26
HETATM   26  C   UNL     1     -10.478   5.449  69.562  1.00  0.00    -0.273 C  
BRANCH  26  27
HETATM   27  N   UNL     1      -9.447   5.852  68.601  1.00  0.00    -0.120 NA 
HETATM   28  C   UNL     1      -8.612   4.730  68.126  1.00  0.00    -0.102 C  
HETATM   29  C   UNL     1      -9.346   3.765  67.182  1.00  0.00    -0.196 C  
HETATM   30  O   UNL     1      -9.888   4.456  66.051  1.00  0.00    -0.190 OA 
HETATM   31  C   UNL     1     -10.770   5.506  66.463  1.00  0.00    -0.240 C  
HETATM   32  C   UNL     1     -10.067   6.493  67.414  1.00  0.00    -0.162 C  
ENDBRANCH  26  27
ENDBRANCH  25  26
ENDBRANCH  24  25
ENDBRANCH  22  24
ENDBRANCH  21  22
ENDBRANCH  20  21
ENDBRANCH  18  20
ENDBRANCH  16  17
ENDBRANCH   4  16
ENDBRANCH   2   3
TORSDOF 10
ENDMDL
MODEL      107
REMARK 921   NORMALIZED FREE ENERGY PREDICTED BY IDOCK:   -4.90 KCAL/MOL
REMARK 922        TOTAL FREE ENERGY PREDICTED BY IDOCK:   -9.30 KCAL/MOL
REMARK 923 INTER-LIGAND FREE ENERGY PREDICTED BY IDOCK:   -8.34 KCAL/MOL
REMARK 924 INTRA-LIGAND FREE ENERGY PREDICTED BY IDOCK:   -0.96 KCAL/MOL
REMARK 927      BINDING AFFINITY PREDICTED BY RF-SCORE:    0.00 PKD
ROOT
HETATM    1  C   UNL     1     -10.899   6.357  68.762  1.00  0.00    -0.317 C  
HETATM    2  O   UNL     1      -9.482   6.493  68.675  1.00  0.00    -0.125 OA 
ENDROOT
BRANCH   2   3
HETATM    3  C   UNL     1      -8.992   7.313  67.680  1.00  0.00    -0.126 A  
HETATM    4  C   UNL     1      -8.505   8.638  67.915  1.00  0.00    -0.129 A  
HETATM    5  C   UNL     1      -7.938   9.332  66.821  1.00  0.00    -0.108 A  
HETATM    6  C   UNL     1      -8.265   7.406  65.388  1.00  0.00    -0.135 A  
HETATM    7  O   UNL     1      -7.540  10.633  66.876  1.00  0.00    -0.105 OA 
HETATM    8  C   UNL     1      -8.872   6.689  66.413  1.00  0.00    -0.151 A  
HETATM    9  C   UNL     1      -7.809   8.691  65.596  1.00  0.00    -0.101 A  
HETATM   10  C   UNL     1      -7.196   9.179  64.357  1.00  0.00    -0.099 C  
HETATM   11  C   UNL     1      -9.396   5.300  66.179  1.00  0.00    -0.164 C  
HETATM   12  H   UNL     1      -7.159  11.099  66.142  1.00  0.00     0.000 HD 
HETATM   13  O   UNL     1      -7.327   8.168  63.434  1.00  0.00    -0.093 OA 
HETATM   14  C   UNL     1      -8.007   7.026  63.979  1.00  0.00    -0.075 C  
HETATM   15  O   UNL     1      -6.637  10.237  64.143  1.00  0.00    -0.129 OA 
BRANCH   4  16
HETATM   16  C   UNL     1      -8.709   9.251  69.287  1.00  0.00    -0.141 C  
BRANCH  16  17
HETATM   17  C   UNL     1      -9.832  10.209  69.515  1.00  0.00    -0.255 C  
HETATM   18  C   UNL     1     -10.827  10.087  70.414  1.00  0.00    -0.380 C  
HETATM   19  C   UNL     1     -10.960   8.971  71.416  1.00  0.00    -0.394 C  
BRANCH  18  20
HETATM   20  C   UNL     1     -11.925  11.123  70.436  1.00  0.00    -0.469 C  
BRANCH  20  21
HETATM   21  C   UNL     1     -12.032  11.815  69.083  1.00  0.00    -0.356 C  
BRANCH  21  22
HETATM   22  C   UNL     1     -12.001  13.308  69.247  1.00  0.00    -0.303 C  
HETATM   23  O   UNL     1     -12.112  13.915  70.301  1.00  0.00    -0.312 OA 
BRANCH  22  24
HETATM   24  O   UNL     1     -11.985  13.879  68.013  1.00  0.00    -0.361 OA 
BRANCH  24  25
HETATM   25  C   UNL     1     -10.670  13.937  67.437  1.00  0.00    -0.272 C  
BRANCH  25  26
HETATM   26  C   UNL     1     -10.642  12.884  66.315  1.00  0.00    -0.266 C  
BRANCH  26  27
HETATM   27  N   UNL     1     -10.213  13.348  64.993  1.00  0.00    -0.326 NA 
HETATM   28  C   UNL     1     -10.609  12.445  63.893  1.00  0.00    -0.437 C  
HETATM   29  C   UNL     1     -12.116  12.460  63.589  1.00  0.00    -0.556 C  
HETATM   30  O   UNL     1     -12.574  13.784  63.295  1.00  0.00    -0.830 OA 
HETATM   31  C   UNL     1     -12.281  14.682  64.372  1.00  0.00    -0.452 C  
HETATM   32  C   UNL     1     -10.777  14.691  64.707  1.00  0.00    -0.377 C  
ENDBRANCH  26  27
ENDBRANCH  25  26
ENDBRANCH  24  25
ENDBRANCH  22  24
ENDBRANCH  21  22
ENDBRANCH  20  21
ENDBRANCH  18  20
ENDBRANCH  16  17
ENDBRANCH   4  16
ENDBRANCH   2   3
TORSDOF 10
ENDMDL
MODEL      108
REMARK 921   NORMALIZED FREE ENERGY PREDICTED BY IDOCK:   -4.87 KCAL/MOL
REMARK 922        TOTAL FREE ENERGY PREDICTED BY IDOCK:   -9.26 KCAL/MOL
REMARK 923 INTER-LIGAND FREE ENERGY PREDICTED BY IDOCK:   -8.40 KCAL/MOL
REMARK 924 INTRA-LIGAND FREE ENERGY PREDICTED BY IDOCK:   -0.86 KCAL/MOL
REMARK 927      BINDING AFFINITY PREDICTED BY RF-SCORE:    0.00 PKD
ROOT
HETATM    1  C   UNL     1      -8.483  12.503  68.321  1.00  0.00    -0.165 C  
HETATM    2  O   UNL     1      -9.828  12.421  67.855  1.00  0.00    -0.191 OA 
ENDROOT
BRANCH   2   3
HETATM    3  C   UNL     1     -10.826  12.668  68.777  1.00  0.00    -0.231 A  
HETATM    4  C   UNL     1     -11.427  11.650  69.584  1.00  0.00    -0.359 A  
HETATM    5  C   UNL     1     -12.366  12.057  70.559  1.00  0.00    -0.282 A  
HETATM    6  C   UNL     1     -12.015  14.383  69.976  1.00  0.00    -0.394 A  
HETATM    7  O   UNL     1     -13.094  11.189  71.315  1.00  0.00    -0.366 OA 
HETATM    8  C   UNL     1     -11.116  14.042  68.971  1.00  0.00    -0.296 A  
HETATM    9  C   UNL     1     -12.617  13.410  70.747  1.00  0.00    -0.369 A  
HETATM   10  C   UNL     1     -13.483  14.062  71.733  1.00  0.00    -0.392 C  
HETATM   11  C   UNL     1     -10.483  15.098  68.109  1.00  0.00    -0.245 C  
HETATM   12  H   UNL     1     -13.725  11.462  71.970  1.00  0.00     0.000 HD 
HETATM   13  O   UNL     1     -13.387  15.414  71.501  1.00  0.00    -0.435 OA 
HETATM   14  C   UNL     1     -12.511  15.711  70.403  1.00  0.00    -0.371 C  
HETATM   15  O   UNL     1     -14.144  13.562  72.622  1.00  0.00    -0.762 OA 
BRANCH   4  16
HETATM   16  C   UNL     1     -11.096  10.201  69.286  1.00  0.00    -0.270 C  
BRANCH  16  17
HETATM   17  C   UNL     1     -10.779   9.264  70.406  1.00  0.00    -0.300 C  
HETATM   18  C   UNL     1      -9.554   8.902  70.834  1.00  0.00    -0.298 C  
HETATM   19  C   UNL     1      -8.253   9.431  70.291  1.00  0.00    -0.194 C  
BRANCH  18  20
HETATM   20  C   UNL     1      -9.437   7.871  71.929  1.00  0.00    -0.220 C  
BRANCH  20  21
HETATM   21  C   UNL     1     -10.691   7.866  72.794  1.00  0.00    -0.435 C  
BRANCH  21  22
HETATM   22  C   UNL     1     -11.446   6.577  72.625  1.00  0.00    -0.186 C  
HETATM   23  O   UNL     1     -12.357   6.379  71.837  1.00  0.00    -0.345 OA 
BRANCH  22  24
HETATM   24  O   UNL     1     -11.052   5.715  73.601  1.00  0.00    -0.224 OA 
BRANCH  24  25
HETATM   25  C   UNL     1     -10.906   4.364  73.133  1.00  0.00    -0.240 C  
BRANCH  25  26
HETATM   26  C   UNL     1      -9.675   4.357  72.210  1.00  0.00    -0.165 C  
BRANCH  26  27
HETATM   27  N   UNL     1      -9.848   3.733  70.895  1.00  0.00    -0.170 NA 
HETATM   28  C   UNL     1      -9.796   4.694  69.774  1.00  0.00    -0.226 C  
HETATM   29  C   UNL     1      -8.392   5.257  69.503  1.00  0.00    -0.095 C  
HETATM   30  O   UNL     1      -7.448   4.208  69.263  1.00  0.00    -0.054 OA 
HETATM   31  C   UNL     1      -7.406   3.292  70.363  1.00  0.00    -0.040 C  
HETATM   32  C   UNL     1      -8.799   2.708  70.666  1.00  0.00    -0.081 C  
ENDBRANCH  26  27
ENDBRANCH  25  26
ENDBRANCH  24  25
ENDBRANCH  22  24
ENDBRANCH  21  22
ENDBRANCH  20  21
ENDBRANCH  18  20
ENDBRANCH  16  17
ENDBRANCH   4  16
ENDBRANCH   2   3
TORSDOF 10
ENDMDL
MODEL      109
REMARK 921   NORMALIZED FREE ENERGY PREDICTED BY IDOCK:   -4.87 KCAL/MOL
REMARK 922        TOTAL FREE ENERGY PREDICTED BY IDOCK:   -9.26 KCAL/MOL
REMARK 923 INTER-LIGAND FREE ENERGY PREDICTED BY IDOCK:   -8.28 KCAL/MOL
REMARK 924 INTRA-LIGAND FREE ENERGY PREDICTED BY IDOCK:   -0.97 KCAL/MOL
REMARK 927      BINDING AFFINITY PREDICTED BY RF-SCORE:    0.00 PKD
ROOT
HETATM    1  C   UNL     1      -8.185   8.553  63.492  1.00  0.00    -0.133 C  
HETATM    2  O   UNL     1      -7.716   9.343  64.582  1.00  0.00    -0.109 OA 
ENDROOT
BRANCH   2   3
HETATM    3  C   UNL     1      -8.418   9.255  65.767  1.00  0.00    -0.135 A  
HETATM    4  C   UNL     1      -9.706   9.847  65.968  1.00  0.00    -0.310 A  
HETATM    5  C   UNL     1     -10.358   9.594  67.197  1.00  0.00    -0.254 A  
HETATM    6  C   UNL     1      -8.538   8.159  67.905  1.00  0.00    -0.132 A  
HETATM    7  O   UNL     1     -11.530  10.181  67.566  1.00  0.00    -0.518 OA 
HETATM    8  C   UNL     1      -7.828   8.405  66.735  1.00  0.00    -0.094 A  
HETATM    9  C   UNL     1      -9.771   8.739  68.121  1.00  0.00    -0.177 A  
HETATM   10  C   UNL     1     -10.287   8.278  69.413  1.00  0.00    -0.222 C  
HETATM   11  C   UNL     1      -6.471   7.799  66.512  1.00  0.00    -0.047 C  
HETATM   12  H   UNL     1     -11.968  10.011  68.391  1.00  0.00     0.000 HD 
HETATM   13  O   UNL     1      -9.327   7.448  69.942  1.00  0.00    -0.155 OA 
HETATM   14  C   UNL     1      -8.182   7.333  69.082  1.00  0.00    -0.122 C  
HETATM   15  O   UNL     1     -11.356   8.517  69.941  1.00  0.00    -0.114 OA 
BRANCH   4  16
HETATM   16  C   UNL     1     -10.250  10.777  64.902  1.00  0.00    -0.388 C  
BRANCH  16  17
HETATM   17  C   UNL     1     -11.037  11.984  65.298  1.00  0.00    -0.367 C  
HETATM   18  C   UNL     1     -12.118  12.484  64.671  1.00  0.00    -0.496 C  
HETATM   19  C   UNL     1     -12.784  11.873  63.466  1.00  0.00    -0.530 C  
BRANCH  18  20
HETATM   20  C   UNL     1     -12.727  13.770  65.175  1.00  0.00    -0.439 C  
BRANCH  20  21
HETATM   21  C   UNL     1     -11.647  14.695  65.719  1.00  0.00    -0.328 C  
BRANCH  21  22
HETATM   22  C   UNL     1     -11.308  15.761  64.716  1.00  0.00    -0.314 C  
HETATM   23  O   UNL     1     -11.981  16.071  63.745  1.00  0.00    -0.844 OA 
BRANCH  22  24
HETATM   24  O   UNL     1     -10.054  16.219  64.978  1.00  0.00    -0.484 OA 
BRANCH  24  25
HETATM   25  C   UNL     1      -9.772  16.314  66.383  1.00  0.00    -0.288 C  
BRANCH  25  26
HETATM   26  C   UNL     1      -8.390  15.669  66.592  1.00  0.00    -0.275 C  
BRANCH  26  27
HETATM   27  N   UNL     1      -8.071  15.235  67.955  1.00  0.00    -0.134 NA 
HETATM   28  C   UNL     1      -9.204  14.590  68.650  1.00  0.00    -0.192 C  
HETATM   29  C   UNL     1      -9.548  13.193  68.111  1.00  0.00    -0.227 C  
HETATM   30  O   UNL     1      -8.412  12.322  68.160  1.00  0.00    -0.163 OA 
HETATM   31  C   UNL     1      -7.309  12.872  67.430  1.00  0.00    -0.128 C  
HETATM   32  C   UNL     1      -6.938  14.277  67.942  1.00  0.00    -0.164 C  
ENDBRANCH  26  27
ENDBRANCH  25  26
ENDBRANCH  24  25
ENDBRANCH  22  24
ENDBRANCH  21  22
ENDBRANCH  20  21
ENDBRANCH  18  20
ENDBRANCH  16  17
ENDBRANCH   4  16
ENDBRANCH   2   3
TORSDOF 10
ENDMDL
MODEL      110
REMARK 921   NORMALIZED FREE ENERGY PREDICTED BY IDOCK:   -4.85 KCAL/MOL
REMARK 922        TOTAL FREE ENERGY PREDICTED BY IDOCK:   -9.22 KCAL/MOL
REMARK 923 INTER-LIGAND FREE ENERGY PREDICTED BY IDOCK:   -8.52 KCAL/MOL
REMARK 924 INTRA-LIGAND FREE ENERGY PREDICTED BY IDOCK:   -0.70 KCAL/MOL
REMARK 927      BINDING AFFINITY PREDICTED BY RF-SCORE:    0.00 PKD
ROOT
HETATM    1  C   UNL     1      -8.618  15.163  69.151  1.00  0.00    -0.218 C  
HETATM    2  O   UNL     1      -8.210  14.667  67.878  1.00  0.00    -0.133 OA 
ENDROOT
BRANCH   2   3
HETATM    3  C   UNL     1      -9.198  14.160  67.058  1.00  0.00    -0.239 A  
HETATM    4  C   UNL     1      -9.749  12.847  67.202  1.00  0.00    -0.221 A  
HETATM    5  C   UNL     1     -10.827  12.492  66.358  1.00  0.00    -0.261 A  
HETATM    6  C   UNL     1     -10.822  14.705  65.368  1.00  0.00    -0.365 A  
HETATM    7  O   UNL     1     -11.370  11.245  66.310  1.00  0.00    -0.238 OA 
HETATM    8  C   UNL     1      -9.734  15.097  66.139  1.00  0.00    -0.338 A  
HETATM    9  C   UNL     1     -11.350  13.435  65.483  1.00  0.00    -0.310 A  
HETATM   10  C   UNL     1     -12.495  13.319  64.576  1.00  0.00    -0.319 C  
HETATM   11  C   UNL     1      -9.138  16.469  65.994  1.00  0.00    -0.290 C  
HETATM   12  H   UNL     1     -12.094  11.007  65.743  1.00  0.00     0.000 HD 
HETATM   13  O   UNL     1     -12.601  14.527  63.926  1.00  0.00    -0.827 OA 
HETATM   14  C   UNL     1     -11.580  15.450  64.336  1.00  0.00    -0.264 C  
HETATM   15  O   UNL     1     -13.256  12.385  64.417  1.00  0.00    -0.816 OA 
BRANCH   4  16
HETATM   16  C   UNL     1      -9.093  11.890  68.177  1.00  0.00    -0.190 C  
BRANCH  16  17
HETATM   17  C   UNL     1      -8.595  10.565  67.699  1.00  0.00    -0.118 C  
HETATM   18  C   UNL     1      -8.072   9.579  68.452  1.00  0.00    -0.101 C  
HETATM   19  C   UNL     1      -7.946   9.606  69.953  1.00  0.00    -0.174 C  
BRANCH  18  20
HETATM   20  C   UNL     1      -7.542   8.341  67.771  1.00  0.00    -0.102 C  
BRANCH  20  21
HETATM   21  C   UNL     1      -7.798   7.109  68.630  1.00  0.00    -0.122 C  
BRANCH  21  22
HETATM   22  C   UNL     1      -8.982   6.340  68.113  1.00  0.00    -0.115 C  
HETATM   23  O   UNL     1      -9.503   6.479  67.018  1.00  0.00    -0.129 OA 
BRANCH  22  24
HETATM   24  O   UNL     1      -9.473   5.572  69.123  1.00  0.00    -0.120 OA 
BRANCH  24  25
HETATM   25  C   UNL     1     -10.840   5.872  69.444  1.00  0.00    -0.352 C  
BRANCH  25  26
HETATM   26  C   UNL     1     -10.839   7.278  70.071  1.00  0.00    -0.253 C  
BRANCH  26  27
HETATM   27  N   UNL     1     -11.169   7.359  71.496  1.00  0.00    -0.240 NA 
HETATM   28  C   UNL     1     -11.101   8.730  72.041  1.00  0.00    -0.371 C  
HETATM   29  C   UNL     1     -12.237   9.647  71.559  1.00  0.00    -0.399 C  
HETATM   30  O   UNL     1     -13.520   9.087  71.860  1.00  0.00    -0.369 OA 
HETATM   31  C   UNL     1     -13.662   7.784  71.282  1.00  0.00    -0.203 C  
HETATM   32  C   UNL     1     -12.537   6.837  71.742  1.00  0.00    -0.325 C  
ENDBRANCH  26  27
ENDBRANCH  25  26
ENDBRANCH  24  25
ENDBRANCH  22  24
ENDBRANCH  21  22
ENDBRANCH  20  21
ENDBRANCH  18  20
ENDBRANCH  16  17
ENDBRANCH   4  16
ENDBRANCH   2   3
TORSDOF 10
ENDMDL
MODEL      111
REMARK 921   NORMALIZED FREE ENERGY PREDICTED BY IDOCK:   -4.82 KCAL/MOL
REMARK 922        TOTAL FREE ENERGY PREDICTED BY IDOCK:   -9.18 KCAL/MOL
REMARK 923 INTER-LIGAND FREE ENERGY PREDICTED BY IDOCK:   -8.46 KCAL/MOL
REMARK 924 INTRA-LIGAND FREE ENERGY PREDICTED BY IDOCK:   -0.72 KCAL/MOL
REMARK 927      BINDING AFFINITY PREDICTED BY RF-SCORE:    0.00 PKD
ROOT
HETATM    1  C   UNL     1      -8.675   8.401  65.361  1.00  0.00    -0.141 C  
HETATM    2  O   UNL     1      -9.984   8.484  65.921  1.00  0.00    -0.113 OA 
ENDROOT
BRANCH   2   3
HETATM    3  C   UNL     1     -10.080   8.435  67.297  1.00  0.00    -0.253 A  
HETATM    4  C   UNL     1      -9.958   9.586  68.139  1.00  0.00    -0.191 A  
HETATM    5  C   UNL     1     -10.177   9.409  69.525  1.00  0.00    -0.209 A  
HETATM    6  C   UNL     1     -10.700   7.068  69.177  1.00  0.00    -0.240 A  
HETATM    7  O   UNL     1      -9.986  10.388  70.451  1.00  0.00    -0.348 OA 
HETATM    8  C   UNL     1     -10.454   7.169  67.813  1.00  0.00    -0.284 A  
HETATM    9  C   UNL     1     -10.566   8.165  70.004  1.00  0.00    -0.239 A  
HETATM   10  C   UNL     1     -10.915   7.768  71.371  1.00  0.00    -0.235 C  
HETATM   11  C   UNL     1     -10.569   5.968  66.916  1.00  0.00    -0.384 C  
HETATM   12  H   UNL     1     -10.133  10.270  71.382  1.00  0.00     0.000 HD 
HETATM   13  O   UNL     1     -11.226   6.429  71.320  1.00  0.00    -0.268 OA 
HETATM   14  C   UNL     1     -11.094   5.896  69.993  1.00  0.00    -0.341 C  
HETATM   15  O   UNL     1     -10.972   8.449  72.376  1.00  0.00    -0.339 OA 
BRANCH   4  16
HETATM   16  C   UNL     1      -9.513  10.895  67.517  1.00  0.00    -0.168 C  
BRANCH  16  17
HETATM   17  C   UNL     1     -10.216  12.164  67.872  1.00  0.00    -0.203 C  
HETATM   18  C   UNL     1     -11.157  12.796  67.144  1.00  0.00    -0.315 C  
HETATM   19  C   UNL     1     -11.729  12.298  65.844  1.00  0.00    -0.451 C  
BRANCH  18  20
HETATM   20  C   UNL     1     -11.690  14.122  67.631  1.00  0.00    -0.421 C  
BRANCH  20  21
HETATM   21  C   UNL     1     -12.168  14.008  69.073  1.00  0.00    -0.280 C  
BRANCH  21  22
HETATM   22  C   UNL     1     -11.914  15.288  69.818  1.00  0.00    -0.347 C  
HETATM   23  O   UNL     1     -12.431  15.615  70.875  1.00  0.00    -0.410 OA 
BRANCH  22  24
HETATM   24  O   UNL     1     -11.133  16.090  69.047  1.00  0.00    -0.277 OA 
BRANCH  24  25
HETATM   25  C   UNL     1     -10.565  17.191  69.774  1.00  0.00     0.100 C  
BRANCH  25  26
HETATM   26  C   UNL     1      -9.838  18.066  68.737  1.00  0.00    -0.354 C  
BRANCH  26  27
HETATM   27  N   UNL     1      -9.994  17.679  67.332  1.00  0.00    -0.309 NA 
HETATM   28  C   UNL     1     -10.871  18.587  66.564  1.00  0.00    -0.051 C  
HETATM   29  C   UNL     1     -10.248  19.964  66.286  1.00  0.00    -0.502 C  
HETATM   30  O   UNL     1      -8.993  19.840  65.606  1.00  0.00    -0.325 OA 
HETATM   31  C   UNL     1      -8.080  19.030  66.356  1.00  0.00    -0.297 C  
HETATM   32  C   UNL     1      -8.673  17.640  66.656  1.00  0.00    -0.264 C  
ENDBRANCH  26  27
ENDBRANCH  25  26
ENDBRANCH  24  25
ENDBRANCH  22  24
ENDBRANCH  21  22
ENDBRANCH  20  21
ENDBRANCH  18  20
ENDBRANCH  16  17
ENDBRANCH   4  16
ENDBRANCH   2   3
TORSDOF 10
ENDMDL
MODEL      112
REMARK 921   NORMALIZED FREE ENERGY PREDICTED BY IDOCK:   -4.81 KCAL/MOL
REMARK 922        TOTAL FREE ENERGY PREDICTED BY IDOCK:   -9.17 KCAL/MOL
REMARK 923 INTER-LIGAND FREE ENERGY PREDICTED BY IDOCK:   -7.83 KCAL/MOL
REMARK 924 INTRA-LIGAND FREE ENERGY PREDICTED BY IDOCK:   -1.34 KCAL/MOL
REMARK 927      BINDING AFFINITY PREDICTED BY RF-SCORE:    0.00 PKD
ROOT
HETATM    1  C   UNL     1      -8.692   5.067  73.424  1.00  0.00    -0.111 C  
HETATM    2  O   UNL     1      -9.788   4.356  72.852  1.00  0.00    -0.134 OA 
ENDROOT
BRANCH   2   3
HETATM    3  C   UNL     1     -10.107   4.649  71.541  1.00  0.00    -0.185 A  
HETATM    4  C   UNL     1     -10.926   5.757  71.155  1.00  0.00    -0.295 A  
HETATM    5  C   UNL     1     -11.091   6.000  69.772  1.00  0.00    -0.406 A  
HETATM    6  C   UNL     1      -9.604   4.162  69.239  1.00  0.00    -0.256 A  
HETATM    7  O   UNL     1     -11.929   6.946  69.265  1.00  0.00    -0.389 OA 
HETATM    8  C   UNL     1      -9.439   3.846  70.583  1.00  0.00    -0.244 A  
HETATM    9  C   UNL     1     -10.408   5.215  68.852  1.00  0.00    -0.186 A  
HETATM   10  C   UNL     1     -10.368   5.325  67.392  1.00  0.00    -0.180 C  
HETATM   11  C   UNL     1      -8.589   2.680  71.004  1.00  0.00    -0.106 C  
HETATM   12  H   UNL     1     -12.039   7.110  68.337  1.00  0.00     0.000 HD 
HETATM   13  O   UNL     1      -9.552   4.311  66.948  1.00  0.00    -0.176 OA 
HETATM   14  C   UNL     1      -9.048   3.512  68.030  1.00  0.00    -0.156 C  
HETATM   15  O   UNL     1     -10.896   6.148  66.670  1.00  0.00    -0.294 OA 
BRANCH   4  16
HETATM   16  C   UNL     1     -11.639   6.542  72.239  1.00  0.00    -0.330 C  
BRANCH  16  17
HETATM   17  C   UNL     1     -11.818   8.018  72.094  1.00  0.00    -0.401 C  
HETATM   18  C   UNL     1     -12.957   8.667  71.787  1.00  0.00    -0.394 C  
HETATM   19  C   UNL     1     -14.301   8.017  71.589  1.00  0.00    -0.581 C  
BRANCH  18  20
HETATM   20  C   UNL     1     -12.918  10.164  71.600  1.00  0.00    -0.561 C  
BRANCH  20  21
HETATM   21  C   UNL     1     -11.597  10.590  70.973  1.00  0.00    -0.318 C  
BRANCH  21  22
HETATM   22  C   UNL     1     -11.659  10.469  69.476  1.00  0.00    -0.260 C  
HETATM   23  O   UNL     1     -12.505  10.969  68.751  1.00  0.00    -0.468 OA 
BRANCH  22  24
HETATM   24  O   UNL     1     -10.706   9.586  69.074  1.00  0.00    -0.222 OA 
BRANCH  24  25
HETATM   25  C   UNL     1      -9.474   9.716  69.801  1.00  0.00    -0.220 C  
BRANCH  25  26
HETATM   26  C   UNL     1      -8.400  10.100  68.768  1.00  0.00    -0.122 C  
BRANCH  26  27
HETATM   27  N   UNL     1      -8.825  10.989  67.683  1.00  0.00    -0.130 NA 
HETATM   28  C   UNL     1      -8.877  12.413  68.073  1.00  0.00    -0.187 C  
HETATM   29  C   UNL     1      -7.494  13.053  68.275  1.00  0.00    -0.128 C  
HETATM   30  O   UNL     1      -6.683  12.918  67.102  1.00  0.00    -0.115 OA 
HETATM   31  C   UNL     1      -6.539  11.542  66.731  1.00  0.00    -0.119 C  
HETATM   32  C   UNL     1      -7.908  10.866  66.523  1.00  0.00    -0.152 C  
ENDBRANCH  26  27
ENDBRANCH  25  26
ENDBRANCH  24  25
ENDBRANCH  22  24
ENDBRANCH  21  22
ENDBRANCH  20  21
ENDBRANCH  18  20
ENDBRANCH  16  17
ENDBRANCH   4  16
ENDBRANCH   2   3
TORSDOF 10
ENDMDL
MODEL      113
REMARK 921   NORMALIZED FREE ENERGY PREDICTED BY IDOCK:   -4.79 KCAL/MOL
REMARK 922        TOTAL FREE ENERGY PREDICTED BY IDOCK:   -9.13 KCAL/MOL
REMARK 923 INTER-LIGAND FREE ENERGY PREDICTED BY IDOCK:   -8.17 KCAL/MOL
REMARK 924 INTRA-LIGAND FREE ENERGY PREDICTED BY IDOCK:   -0.95 KCAL/MOL
REMARK 927      BINDING AFFINITY PREDICTED BY RF-SCORE:    0.00 PKD
ROOT
HETATM    1  C   UNL     1      -9.577  12.739  68.356  1.00  0.00    -0.175 C  
HETATM    2  O   UNL     1      -9.713  14.036  68.934  1.00  0.00    -0.163 OA 
ENDROOT
BRANCH   2   3
HETATM    3  C   UNL     1      -9.383  15.114  68.137  1.00  0.00    -0.192 A  
HETATM    4  C   UNL     1     -10.340  15.854  67.373  1.00  0.00    -0.288 A  
HETATM    5  C   UNL     1      -9.881  16.998  66.679  1.00  0.00    -0.290 A  
HETATM    6  C   UNL     1      -7.650  16.685  67.574  1.00  0.00    -0.177 A  
HETATM    7  O   UNL     1     -10.654  17.727  65.828  1.00  0.00    -0.509 OA 
HETATM    8  C   UNL     1      -8.031  15.528  68.243  1.00  0.00    -0.132 A  
HETATM    9  C   UNL     1      -8.558  17.398  66.817  1.00  0.00    -0.284 A  
HETATM   10  C   UNL     1      -7.884  18.574  66.259  1.00  0.00    -0.254 C  
HETATM   11  C   UNL     1      -7.037  14.734  69.042  1.00  0.00    -0.127 C  
HETATM   12  H   UNL     1     -10.346  18.495  65.362  1.00  0.00     0.000 HD 
HETATM   13  O   UNL     1      -6.578  18.513  66.687  1.00  0.00    -0.178 OA 
HETATM   14  C   UNL     1      -6.329  17.351  67.494  1.00  0.00    -0.147 C  
HETATM   15  O   UNL     1      -8.345  19.473  65.584  1.00  0.00    -0.383 OA 
BRANCH   4  16
HETATM   16  C   UNL     1     -11.756  15.323  67.275  1.00  0.00    -0.088 C  
BRANCH  16  17
HETATM   17  C   UNL     1     -12.027  14.056  66.530  1.00  0.00    -0.470 C  
HETATM   18  C   UNL     1     -12.303  13.936  65.217  1.00  0.00    -0.485 C  
HETATM   19  C   UNL     1     -12.330  15.071  64.228  1.00  0.00    -0.247 C  
BRANCH  18  20
HETATM   20  C   UNL     1     -12.635  12.573  64.662  1.00  0.00    -0.507 C  
BRANCH  20  21
HETATM   21  C   UNL     1     -11.816  12.293  63.409  1.00  0.00    -0.563 C  
BRANCH  21  22
HETATM   22  C   UNL     1     -10.552  11.557  63.754  1.00  0.00    -0.406 C  
HETATM   23  O   UNL     1      -9.565  11.457  63.043  1.00  0.00    -0.355 OA 
BRANCH  22  24
HETATM   24  O   UNL     1     -10.746  10.891  64.924  1.00  0.00    -0.276 OA 
BRANCH  24  25
HETATM   25  C   UNL     1      -9.521  10.433  65.521  1.00  0.00    -0.215 C  
BRANCH  25  26
HETATM   26  C   UNL     1      -9.830   9.060  66.143  1.00  0.00    -0.278 C  
BRANCH  26  27
HETATM   27  N   UNL     1      -8.868   8.558  67.129  1.00  0.00    -0.128 NA 
HETATM   28  C   UNL     1      -8.906   9.286  68.413  1.00  0.00    -0.129 C  
HETATM   29  C   UNL     1     -10.163   9.001  69.252  1.00  0.00    -0.205 C  
HETATM   30  O   UNL     1     -10.312   7.599  69.504  1.00  0.00    -0.207 OA 
HETATM   31  C   UNL     1     -10.361   6.858  68.279  1.00  0.00    -0.193 C  
HETATM   32  C   UNL     1      -9.116   7.122  67.410  1.00  0.00    -0.121 C  
ENDBRANCH  26  27
ENDBRANCH  25  26
ENDBRANCH  24  25
ENDBRANCH  22  24
ENDBRANCH  21  22
ENDBRANCH  20  21
ENDBRANCH  18  20
ENDBRANCH  16  17
ENDBRANCH   4  16
ENDBRANCH   2   3
TORSDOF 10
ENDMDL
MODEL      114
REMARK 921   NORMALIZED FREE ENERGY PREDICTED BY IDOCK:   -4.77 KCAL/MOL
REMARK 922        TOTAL FREE ENERGY PREDICTED BY IDOCK:   -9.11 KCAL/MOL
REMARK 923 INTER-LIGAND FREE ENERGY PREDICTED BY IDOCK:   -8.87 KCAL/MOL
REMARK 924 INTRA-LIGAND FREE ENERGY PREDICTED BY IDOCK:   -0.24 KCAL/MOL
REMARK 927      BINDING AFFINITY PREDICTED BY RF-SCORE:    0.00 PKD
ROOT
HETATM    1  C   UNL     1     -12.347  11.688  70.768  1.00  0.00    -0.358 C  
HETATM    2  O   UNL     1     -12.601  10.370  70.284  1.00  0.00    -0.280 OA 
ENDROOT
BRANCH   2   3
HETATM    3  C   UNL     1     -11.501   9.591  69.985  1.00  0.00    -0.109 A  
HETATM    4  C   UNL     1     -10.749   9.718  68.774  1.00  0.00    -0.243 A  
HETATM    5  C   UNL     1      -9.585   8.926  68.640  1.00  0.00    -0.153 A  
HETATM    6  C   UNL     1      -9.904   8.023  70.867  1.00  0.00    -0.195 A  
HETATM    7  O   UNL     1      -8.841   8.862  67.502  1.00  0.00    -0.129 OA 
HETATM    8  C   UNL     1     -11.080   8.743  71.040  1.00  0.00    -0.328 A  
HETATM    9  C   UNL     1      -9.179   8.120  69.696  1.00  0.00    -0.155 A  
HETATM   10  C   UNL     1      -7.985   7.279  69.812  1.00  0.00    -0.123 C  
HETATM   11  C   UNL     1     -11.887   8.615  72.302  1.00  0.00    -0.436 C  
HETATM   12  H   UNL     1      -8.059   8.330  67.412  1.00  0.00     0.000 HD 
HETATM   13  O   UNL     1      -8.047   6.683  71.050  1.00  0.00    -0.116 OA 
HETATM   14  C   UNL     1      -9.227   7.067  71.774  1.00  0.00    -0.141 C  
HETATM   15  O   UNL     1      -7.073   7.130  69.022  1.00  0.00    -0.078 OA 
BRANCH   4  16
HETATM   16  C   UNL     1     -11.288  10.615  67.677  1.00  0.00    -0.284 C  
BRANCH  16  17
HETATM   17  C   UNL     1     -10.652  11.943  67.422  1.00  0.00    -0.257 C  
HETATM   18  C   UNL     1     -10.929  12.789  66.411  1.00  0.00    -0.305 C  
HETATM   19  C   UNL     1     -11.994  12.576  65.367  1.00  0.00    -0.492 C  
BRANCH  18  20
HETATM   20  C   UNL     1     -10.115  14.052  66.271  1.00  0.00    -0.307 C  
BRANCH  20  21
HETATM   21  C   UNL     1     -10.298  14.654  64.884  1.00  0.00    -0.382 C  
BRANCH  21  22
HETATM   22  C   UNL     1     -10.733  16.089  64.982  1.00  0.00    -0.378 C  
HETATM   23  O   UNL     1     -11.392  16.696  64.152  1.00  0.00    -1.141 OA 
BRANCH  22  24
HETATM   24  O   UNL     1     -10.143  16.646  66.073  1.00  0.00    -0.322 OA 
BRANCH  24  25
HETATM   25  C   UNL     1     -11.017  17.526  66.798  1.00  0.00     0.170 C  
BRANCH  25  26
HETATM   26  C   UNL     1     -10.399  17.693  68.198  1.00  0.00    -0.386 C  
BRANCH  26  27
HETATM   27  N   UNL     1      -9.989  19.050  68.573  1.00  0.00    -0.402 NA 
HETATM   28  C   UNL     1      -8.599  19.131  69.065  1.00  0.00    -0.202 C  
HETATM   29  C   UNL     1      -7.539  18.939  67.967  1.00  0.00    -0.265 C  
HETATM   30  O   UNL     1      -7.716  19.882  66.904  1.00  0.00    -0.264 OA 
HETATM   31  C   UNL     1      -9.030  19.785  66.342  1.00  0.00    -0.379 C  
HETATM   32  C   UNL     1     -10.119  19.970  67.415  1.00  0.00    -0.428 C  
ENDBRANCH  26  27
ENDBRANCH  25  26
ENDBRANCH  24  25
ENDBRANCH  22  24
ENDBRANCH  21  22
ENDBRANCH  20  21
ENDBRANCH  18  20
ENDBRANCH  16  17
ENDBRANCH   4  16
ENDBRANCH   2   3
TORSDOF 10
ENDMDL
MODEL      115
REMARK 921   NORMALIZED FREE ENERGY PREDICTED BY IDOCK:   -4.77 KCAL/MOL
REMARK 922        TOTAL FREE ENERGY PREDICTED BY IDOCK:   -9.10 KCAL/MOL
REMARK 923 INTER-LIGAND FREE ENERGY PREDICTED BY IDOCK:   -8.16 KCAL/MOL
REMARK 924 INTRA-LIGAND FREE ENERGY PREDICTED BY IDOCK:   -0.94 KCAL/MOL
REMARK 927      BINDING AFFINITY PREDICTED BY RF-SCORE:    0.00 PKD
ROOT
HETATM    1  C   UNL     1     -11.728   8.871  70.976  1.00  0.00    -0.289 C  
HETATM    2  O   UNL     1     -10.402   9.046  70.481  1.00  0.00    -0.193 OA 
ENDROOT
BRANCH   2   3
HETATM    3  C   UNL     1     -10.080   8.394  69.308  1.00  0.00    -0.202 A  
HETATM    4  C   UNL     1     -10.292   8.954  68.008  1.00  0.00    -0.271 A  
HETATM    5  C   UNL     1      -9.823   8.220  66.894  1.00  0.00    -0.247 A  
HETATM    6  C   UNL     1      -8.909   6.519  68.358  1.00  0.00    -0.123 A  
HETATM    7  O   UNL     1     -10.056   8.578  65.601  1.00  0.00    -0.308 OA 
HETATM    8  C   UNL     1      -9.385   7.172  69.490  1.00  0.00    -0.148 A  
HETATM    9  C   UNL     1      -9.124   7.037  67.098  1.00  0.00    -0.137 A  
HETATM   10  C   UNL     1      -8.491   6.156  66.113  1.00  0.00    -0.137 C  
HETATM   11  C   UNL     1      -9.178   6.593  70.861  1.00  0.00    -0.157 C  
HETATM   12  H   UNL     1      -9.742   8.085  64.853  1.00  0.00     0.000 HD 
HETATM   13  O   UNL     1      -7.932   5.119  66.822  1.00  0.00    -0.103 OA 
HETATM   14  C   UNL     1      -8.165   5.244  68.233  1.00  0.00    -0.094 C  
HETATM   15  O   UNL     1      -8.410   6.287  64.907  1.00  0.00    -0.137 OA 
BRANCH   4  16
HETATM   16  C   UNL     1     -11.081  10.244  67.896  1.00  0.00    -0.341 C  
BRANCH  16  17
HETATM   17  C   UNL     1     -10.370  11.531  67.629  1.00  0.00    -0.209 C  
HETATM   18  C   UNL     1     -10.317  12.196  66.459  1.00  0.00    -0.239 C  
HETATM   19  C   UNL     1     -11.029  11.790  65.196  1.00  0.00    -0.351 C  
BRANCH  18  20
HETATM   20  C   UNL     1      -9.472  13.443  66.364  1.00  0.00    -0.230 C  
BRANCH  20  21
HETATM   21  C   UNL     1      -9.659  14.311  67.602  1.00  0.00    -0.219 C  
BRANCH  21  22
HETATM   22  C   UNL     1     -10.182  15.668  67.223  1.00  0.00    -0.266 C  
HETATM   23  O   UNL     1      -9.595  16.497  66.545  1.00  0.00    -0.243 OA 
BRANCH  22  24
HETATM   24  O   UNL     1     -11.349  15.882  67.887  1.00  0.00    -0.330 OA 
BRANCH  24  25
HETATM   25  C   UNL     1     -11.157  16.413  69.208  1.00  0.00    -0.297 C  
BRANCH  25  26
HETATM   26  C   UNL     1     -12.202  15.729  70.106  1.00  0.00    -0.314 C  
BRANCH  26  27
HETATM   27  N   UNL     1     -11.683  14.928  71.219  1.00  0.00    -0.331 NA 
HETATM   28  C   UNL     1     -11.778  15.606  72.528  1.00  0.00    -0.466 C  
HETATM   29  C   UNL     1     -13.214  15.721  73.065  1.00  0.00    -0.573 C  
HETATM   30  O   UNL     1     -13.838  14.435  73.158  1.00  0.00    -0.468 OA 
HETATM   31  C   UNL     1     -13.840  13.771  71.889  1.00  0.00    -0.409 C  
HETATM   32  C   UNL     1     -12.415  13.641  71.317  1.00  0.00    -0.326 C  
ENDBRANCH  26  27
ENDBRANCH  25  26
ENDBRANCH  24  25
ENDBRANCH  22  24
ENDBRANCH  21  22
ENDBRANCH  20  21
ENDBRANCH  18  20
ENDBRANCH  16  17
ENDBRANCH   4  16
ENDBRANCH   2   3
TORSDOF 10
ENDMDL
MODEL      116
REMARK 921   NORMALIZED FREE ENERGY PREDICTED BY IDOCK:   -4.77 KCAL/MOL
REMARK 922        TOTAL FREE ENERGY PREDICTED BY IDOCK:   -9.09 KCAL/MOL
REMARK 923 INTER-LIGAND FREE ENERGY PREDICTED BY IDOCK:   -8.26 KCAL/MOL
REMARK 924 INTRA-LIGAND FREE ENERGY PREDICTED BY IDOCK:   -0.83 KCAL/MOL
REMARK 927      BINDING AFFINITY PREDICTED BY RF-SCORE:    0.00 PKD
ROOT
HETATM    1  C   UNL     1     -11.753  12.702  69.377  1.00  0.00    -0.325 C  
HETATM    2  O   UNL     1     -12.437  13.888  68.979  1.00  0.00    -0.209 OA 
ENDROOT
BRANCH   2   3
HETATM    3  C   UNL     1     -11.702  14.834  68.294  1.00  0.00    -0.311 A  
HETATM    4  C   UNL     1     -11.580  14.859  66.868  1.00  0.00    -0.286 A  
HETATM    5  C   UNL     1     -10.879  15.942  66.289  1.00  0.00    -0.200 A  
HETATM    6  C   UNL     1     -10.547  16.937  68.474  1.00  0.00    -0.367 A  
HETATM    7  O   UNL     1     -10.591  16.034  64.962  1.00  0.00    -0.551 OA 
HETATM    8  C   UNL     1     -11.187  15.876  69.105  1.00  0.00    -0.334 A  
HETATM    9  C   UNL     1     -10.404  16.964  67.102  1.00  0.00    -0.304 A  
HETATM   10  C   UNL     1      -9.722  18.204  66.724  1.00  0.00    -0.324 C  
HETATM   11  C   UNL     1     -11.317  15.831  70.601  1.00  0.00    -0.412 C  
HETATM   12  H   UNL     1     -10.121  16.761  64.573  1.00  0.00     0.000 HD 
HETATM   13  O   UNL     1      -9.457  18.875  67.896  1.00  0.00    -0.292 OA 
HETATM   14  C   UNL     1      -9.913  18.147  69.047  1.00  0.00    -0.280 C  
HETATM   15  O   UNL     1      -9.454  18.625  65.616  1.00  0.00    -0.326 OA 
BRANCH   4  16
HETATM   16  C   UNL     1     -12.121  13.686  66.074  1.00  0.00    -0.480 C  
BRANCH  16  17
HETATM   17  C   UNL     1     -11.198  12.596  65.633  1.00  0.00    -0.344 C  
HETATM   18  C   UNL     1     -11.322  11.830  64.533  1.00  0.00    -0.349 C  
HETATM   19  C   UNL     1     -12.401  11.973  63.492  1.00  0.00    -0.661 C  
BRANCH  18  20
HETATM   20  C   UNL     1     -10.330  10.716  64.302  1.00  0.00    -0.325 C  
BRANCH  20  21
HETATM   21  C   UNL     1      -9.287  10.691  65.411  1.00  0.00    -0.250 C  
BRANCH  21  22
HETATM   22  C   UNL     1      -9.514   9.520  66.326  1.00  0.00    -0.210 C  
HETATM   23  O   UNL     1      -9.967   8.434  65.999  1.00  0.00    -0.153 OA 
BRANCH  22  24
HETATM   24  O   UNL     1      -9.279   9.918  67.605  1.00  0.00    -0.133 OA 
BRANCH  24  25
HETATM   25  C   UNL     1      -8.164   9.242  68.208  1.00  0.00    -0.115 C  
BRANCH  25  26
HETATM   26  C   UNL     1      -8.571   8.949  69.663  1.00  0.00    -0.131 C  
BRANCH  26  27
HETATM   27  N   UNL     1      -8.449   7.558  70.109  1.00  0.00    -0.135 NA 
HETATM   28  C   UNL     1      -7.051   7.093  70.211  1.00  0.00    -0.066 C  
HETATM   29  C   UNL     1      -6.275   7.709  71.386  1.00  0.00    -0.035 C  
HETATM   30  O   UNL     1      -6.940   7.469  72.631  1.00  0.00    -0.066 OA 
HETATM   31  C   UNL     1      -8.279   7.976  72.606  1.00  0.00    -0.150 C  
HETATM   32  C   UNL     1      -9.087   7.381  71.437  1.00  0.00    -0.141 C  
ENDBRANCH  26  27
ENDBRANCH  25  26
ENDBRANCH  24  25
ENDBRANCH  22  24
ENDBRANCH  21  22
ENDBRANCH  20  21
ENDBRANCH  18  20
ENDBRANCH  16  17
ENDBRANCH   4  16
ENDBRANCH   2   3
TORSDOF 10
ENDMDL
MODEL      117
REMARK 921   NORMALIZED FREE ENERGY PREDICTED BY IDOCK:   -4.76 KCAL/MOL
REMARK 922        TOTAL FREE ENERGY PREDICTED BY IDOCK:   -9.09 KCAL/MOL
REMARK 923 INTER-LIGAND FREE ENERGY PREDICTED BY IDOCK:   -8.36 KCAL/MOL
REMARK 924 INTRA-LIGAND FREE ENERGY PREDICTED BY IDOCK:   -0.73 KCAL/MOL
REMARK 927      BINDING AFFINITY PREDICTED BY RF-SCORE:    0.00 PKD
ROOT
HETATM    1  C   UNL     1      -7.192   9.179  64.715  1.00  0.00    -0.097 C  
HETATM    2  O   UNL     1      -8.262   8.304  65.068  1.00  0.00    -0.146 OA 
ENDROOT
BRANCH   2   3
HETATM    3  C   UNL     1      -8.911   8.559  66.259  1.00  0.00    -0.156 A  
HETATM    4  C   UNL     1     -10.012   9.465  66.382  1.00  0.00    -0.346 A  
HETATM    5  C   UNL     1     -10.649   9.556  67.641  1.00  0.00    -0.269 A  
HETATM    6  C   UNL     1      -9.189   7.842  68.539  1.00  0.00    -0.137 A  
HETATM    7  O   UNL     1     -11.631  10.454  67.928  1.00  0.00    -0.669 OA 
HETATM    8  C   UNL     1      -8.495   7.740  67.339  1.00  0.00    -0.119 A  
HETATM    9  C   UNL     1     -10.240   8.726  68.677  1.00  0.00    -0.214 A  
HETATM   10  C   UNL     1     -10.791   8.593  70.028  1.00  0.00    -0.221 C  
HETATM   11  C   UNL     1      -7.332   6.799  67.196  1.00  0.00    -0.086 C  
HETATM   12  H   UNL     1     -12.059  10.515  68.774  1.00  0.00     0.000 HD 
HETATM   13  O   UNL     1     -10.031   7.641  70.666  1.00  0.00    -0.183 OA 
HETATM   14  C   UNL     1      -8.987   7.132  69.823  1.00  0.00    -0.142 C  
HETATM   15  O   UNL     1     -11.748   9.155  70.524  1.00  0.00    -0.247 OA 
BRANCH   4  16
HETATM   16  C   UNL     1     -10.368  10.336  65.193  1.00  0.00    -0.198 C  
BRANCH  16  17
HETATM   17  C   UNL     1     -10.419  11.822  65.347  1.00  0.00    -0.317 C  
HETATM   18  C   UNL     1     -11.137  12.686  64.605  1.00  0.00    -0.348 C  
HETATM   19  C   UNL     1     -12.086  12.302  63.501  1.00  0.00    -0.649 C  
BRANCH  18  20
HETATM   20  C   UNL     1     -10.989  14.166  64.859  1.00  0.00    -0.405 C  
BRANCH  20  21
HETATM   21  C   UNL     1     -11.948  14.618  65.953  1.00  0.00    -0.242 C  
BRANCH  21  22
HETATM   22  C   UNL     1     -11.390  14.298  67.312  1.00  0.00    -0.334 C  
HETATM   23  O   UNL     1     -11.822  13.456  68.083  1.00  0.00    -0.339 OA 
BRANCH  22  24
HETATM   24  O   UNL     1     -10.421  15.206  67.606  1.00  0.00    -0.246 OA 
BRANCH  24  25
HETATM   25  C   UNL     1     -10.911  16.556  67.658  1.00  0.00    -0.269 C  
BRANCH  25  26
HETATM   26  C   UNL     1      -9.803  17.442  67.062  1.00  0.00    -0.286 C  
BRANCH  26  27
HETATM   27  N   UNL     1      -9.462  18.655  67.811  1.00  0.00    -0.295 NA 
HETATM   28  C   UNL     1      -8.155  18.580  68.494  1.00  0.00    -0.330 C  
HETATM   29  C   UNL     1      -6.951  18.635  67.539  1.00  0.00    -0.206 C  
HETATM   30  O   UNL     1      -6.988  19.814  66.726  1.00  0.00    -0.201 OA 
HETATM   31  C   UNL     1      -8.209  19.889  65.982  1.00  0.00    -0.289 C  
HETATM   32  C   UNL     1      -9.439  19.833  66.908  1.00  0.00    -0.371 C  
ENDBRANCH  26  27
ENDBRANCH  25  26
ENDBRANCH  24  25
ENDBRANCH  22  24
ENDBRANCH  21  22
ENDBRANCH  20  21
ENDBRANCH  18  20
ENDBRANCH  16  17
ENDBRANCH   4  16
ENDBRANCH   2   3
TORSDOF 10
ENDMDL
MODEL      118
REMARK 921   NORMALIZED FREE ENERGY PREDICTED BY IDOCK:   -4.76 KCAL/MOL
REMARK 922        TOTAL FREE ENERGY PREDICTED BY IDOCK:   -9.08 KCAL/MOL
REMARK 923 INTER-LIGAND FREE ENERGY PREDICTED BY IDOCK:   -8.55 KCAL/MOL
REMARK 924 INTRA-LIGAND FREE ENERGY PREDICTED BY IDOCK:   -0.52 KCAL/MOL
REMARK 927      BINDING AFFINITY PREDICTED BY RF-SCORE:    0.00 PKD
ROOT
HETATM    1  C   UNL     1      -8.598  15.151  69.246  1.00  0.00    -0.211 C  
HETATM    2  O   UNL     1      -8.199  14.468  68.060  1.00  0.00    -0.129 OA 
ENDROOT
BRANCH   2   3
HETATM    3  C   UNL     1      -9.205  14.008  67.234  1.00  0.00    -0.230 A  
HETATM    4  C   UNL     1      -9.853  12.744  67.407  1.00  0.00    -0.210 A  
HETATM    5  C   UNL     1     -10.937  12.441  66.550  1.00  0.00    -0.272 A  
HETATM    6  C   UNL     1     -10.752  14.615  65.494  1.00  0.00    -0.360 A  
HETATM    7  O   UNL     1     -11.569  11.236  66.528  1.00  0.00    -0.344 OA 
HETATM    8  C   UNL     1      -9.653  14.952  66.277  1.00  0.00    -0.334 A  
HETATM    9  C   UNL     1     -11.373  13.391  65.635  1.00  0.00    -0.316 A  
HETATM   10  C   UNL     1     -12.506  13.329  64.708  1.00  0.00    -0.383 C  
HETATM   11  C   UNL     1      -8.956  16.272  66.102  1.00  0.00    -0.374 C  
HETATM   12  H   UNL     1     -12.296  11.032  65.953  1.00  0.00     0.000 HD 
HETATM   13  O   UNL     1     -12.510  14.520  64.020  1.00  0.00    -0.778 OA 
HETATM   14  C   UNL     1     -11.433  15.380  64.424  1.00  0.00    -0.255 C  
HETATM   15  O   UNL     1     -13.330  12.448  64.561  1.00  0.00    -0.800 OA 
BRANCH   4  16
HETATM   16  C   UNL     1      -9.287  11.773  68.424  1.00  0.00    -0.185 C  
BRANCH  16  17
HETATM   17  C   UNL     1      -9.176  10.322  68.087  1.00  0.00    -0.137 C  
HETATM   18  C   UNL     1      -8.744   9.336  68.896  1.00  0.00    -0.131 C  
HETATM   19  C   UNL     1      -8.342   9.508  70.337  1.00  0.00    -0.226 C  
BRANCH  18  20
HETATM   20  C   UNL     1      -8.621   7.937  68.343  1.00  0.00    -0.128 C  
BRANCH  20  21
HETATM   21  C   UNL     1      -9.360   6.945  69.231  1.00  0.00    -0.144 C  
BRANCH  21  22
HETATM   22  C   UNL     1     -10.746   6.694  68.707  1.00  0.00    -0.258 C  
HETATM   23  O   UNL     1     -11.103   6.809  67.545  1.00  0.00    -0.301 OA 
BRANCH  22  24
HETATM   24  O   UNL     1     -11.573   6.468  69.762  1.00  0.00    -0.394 OA 
BRANCH  24  25
HETATM   25  C   UNL     1     -11.092   7.043  70.988  1.00  0.00    -0.264 C  
BRANCH  25  26
HETATM   26  C   UNL     1     -11.334   5.989  72.084  1.00  0.00    -0.299 C  
BRANCH  26  27
HETATM   27  N   UNL     1     -10.163   5.577  72.863  1.00  0.00    -0.179 NA 
HETATM   28  C   UNL     1     -10.503   4.802  74.073  1.00  0.00    -0.276 C  
HETATM   29  C   UNL     1     -11.011   3.381  73.778  1.00  0.00    -0.219 C  
HETATM   30  O   UNL     1     -10.063   2.642  73.000  1.00  0.00    -0.115 OA 
HETATM   31  C   UNL     1      -9.761   3.320  71.775  1.00  0.00    -0.167 C  
HETATM   32  C   UNL     1      -9.252   4.751  72.033  1.00  0.00    -0.136 C  
ENDBRANCH  26  27
ENDBRANCH  25  26
ENDBRANCH  24  25
ENDBRANCH  22  24
ENDBRANCH  21  22
ENDBRANCH  20  21
ENDBRANCH  18  20
ENDBRANCH  16  17
ENDBRANCH   4  16
ENDBRANCH   2   3
TORSDOF 10
ENDMDL
MODEL      119
REMARK 921   NORMALIZED FREE ENERGY PREDICTED BY IDOCK:   -4.74 KCAL/MOL
REMARK 922        TOTAL FREE ENERGY PREDICTED BY IDOCK:   -9.06 KCAL/MOL
REMARK 923 INTER-LIGAND FREE ENERGY PREDICTED BY IDOCK:   -7.49 KCAL/MOL
REMARK 924 INTRA-LIGAND FREE ENERGY PREDICTED BY IDOCK:   -1.57 KCAL/MOL
REMARK 927      BINDING AFFINITY PREDICTED BY RF-SCORE:    0.00 PKD
ROOT
HETATM    1  C   UNL     1      -9.474  15.346  69.306  1.00  0.00    -0.261 C  
HETATM    2  O   UNL     1      -8.846  15.184  68.036  1.00  0.00    -0.166 OA 
ENDROOT
BRANCH   2   3
HETATM    3  C   UNL     1      -9.579  14.552  67.052  1.00  0.00    -0.245 A  
HETATM    4  C   UNL     1      -9.776  13.135  67.000  1.00  0.00    -0.241 A  
HETATM    5  C   UNL     1     -10.632  12.630  65.994  1.00  0.00    -0.270 A  
HETATM    6  C   UNL     1     -11.112  14.878  65.227  1.00  0.00    -0.382 A  
HETATM    7  O   UNL     1     -10.821  11.302  65.760  1.00  0.00    -0.261 OA 
HETATM    8  C   UNL     1     -10.248  15.432  66.165  1.00  0.00    -0.324 A  
HETATM    9  C   UNL     1     -11.296  13.513  65.152  1.00  0.00    -0.315 A  
HETATM   10  C   UNL     1     -12.274  13.227  64.099  1.00  0.00    -0.401 C  
HETATM   11  C   UNL     1     -10.023  16.917  66.227  1.00  0.00    -0.324 C  
HETATM   12  H   UNL     1     -11.396  10.962  65.085  1.00  0.00     0.000 HD 
HETATM   13  O   UNL     1     -12.629  14.441  63.558  1.00  0.00    -0.784 OA 
HETATM   14  C   UNL     1     -11.933  15.532  64.181  1.00  0.00    -0.072 C  
HETATM   15  O   UNL     1     -12.742  12.159  63.757  1.00  0.00    -0.661 OA 
BRANCH   4  16
HETATM   16  C   UNL     1      -8.991  12.260  67.956  1.00  0.00    -0.190 C  
BRANCH  16  17
HETATM   17  C   UNL     1      -9.664  11.115  68.641  1.00  0.00    -0.202 C  
HETATM   18  C   UNL     1      -9.068  10.040  69.190  1.00  0.00    -0.188 C  
HETATM   19  C   UNL     1      -7.581   9.817  69.271  1.00  0.00    -0.097 C  
BRANCH  18  20
HETATM   20  C   UNL     1      -9.928   8.940  69.763  1.00  0.00    -0.196 C  
BRANCH  20  21
HETATM   21  C   UNL     1      -9.505   7.587  69.207  1.00  0.00    -0.154 C  
BRANCH  21  22
HETATM   22  C   UNL     1     -10.427   7.158  68.099  1.00  0.00    -0.200 C  
HETATM   23  O   UNL     1     -11.311   6.320  68.188  1.00  0.00    -0.278 OA 
BRANCH  22  24
HETATM   24  O   UNL     1     -10.014   7.742  66.943  1.00  0.00    -0.213 OA 
BRANCH  24  25
HETATM   25  C   UNL     1      -9.036   6.962  66.236  1.00  0.00    -0.141 C  
BRANCH  25  26
HETATM   26  C   UNL     1      -7.930   7.942  65.806  1.00  0.00    -0.109 C  
BRANCH  26  27
HETATM   27  N   UNL     1      -8.368   9.266  65.355  1.00  0.00    -0.130 NA 
HETATM   28  C   UNL     1      -7.337  10.313  65.508  1.00  0.00    -0.149 C  
HETATM   29  C   UNL     1      -6.169  10.182  64.517  1.00  0.00    -0.133 C  
HETATM   30  O   UNL     1      -6.633  10.177  63.163  1.00  0.00    -0.129 OA 
HETATM   31  C   UNL     1      -7.580   9.124  62.947  1.00  0.00    -0.104 C  
HETATM   32  C   UNL     1      -8.766   9.221  63.926  1.00  0.00    -0.168 C  
ENDBRANCH  26  27
ENDBRANCH  25  26
ENDBRANCH  24  25
ENDBRANCH  22  24
ENDBRANCH  21  22
ENDBRANCH  20  21
ENDBRANCH  18  20
ENDBRANCH  16  17
ENDBRANCH   4  16
ENDBRANCH   2   3
TORSDOF 10
ENDMDL
MODEL      120
REMARK 921   NORMALIZED FREE ENERGY PREDICTED BY IDOCK:   -4.74 KCAL/MOL
REMARK 922        TOTAL FREE ENERGY PREDICTED BY IDOCK:   -9.05 KCAL/MOL
REMARK 923 INTER-LIGAND FREE ENERGY PREDICTED BY IDOCK:   -8.41 KCAL/MOL
REMARK 924 INTRA-LIGAND FREE ENERGY PREDICTED BY IDOCK:   -0.65 KCAL/MOL
REMARK 927      BINDING AFFINITY PREDICTED BY RF-SCORE:    0.00 PKD
ROOT
HETATM    1  C   UNL     1     -11.792   9.978  70.590  1.00  0.00    -0.325 C  
HETATM    2  O   UNL     1     -10.631  10.496  69.943  1.00  0.00    -0.259 OA 
ENDROOT
BRANCH   2   3
HETATM    3  C   UNL     1     -10.169   9.806  68.841  1.00  0.00    -0.200 A  
HETATM    4  C   UNL     1     -10.422  10.212  67.492  1.00  0.00    -0.304 A  
HETATM    5  C   UNL     1      -9.804   9.470  66.458  1.00  0.00    -0.240 A  
HETATM    6  C   UNL     1      -8.683   8.070  68.088  1.00  0.00    -0.126 A  
HETATM    7  O   UNL     1     -10.045   9.675  65.134  1.00  0.00    -0.387 OA 
HETATM    8  C   UNL     1      -9.296   8.732  69.145  1.00  0.00    -0.149 A  
HETATM    9  C   UNL     1      -8.934   8.438  66.781  1.00  0.00    -0.172 A  
HETATM   10  C   UNL     1      -8.134   7.590  65.893  1.00  0.00    -0.127 C  
HETATM   11  C   UNL     1      -9.048   8.313  70.567  1.00  0.00    -0.154 C  
HETATM   12  H   UNL     1      -9.631   9.177  64.439  1.00  0.00     0.000 HD 
HETATM   13  O   UNL     1      -7.443   6.720  66.704  1.00  0.00    -0.076 OA 
HETATM   14  C   UNL     1      -7.742   6.926  68.093  1.00  0.00    -0.113 C  
HETATM   15  O   UNL     1      -8.034   7.628  64.682  1.00  0.00    -0.134 OA 
BRANCH   4  16
HETATM   16  C   UNL     1     -11.401  11.343  67.247  1.00  0.00    -0.347 C  
BRANCH  16  17
HETATM   17  C   UNL     1     -10.983  12.529  66.440  1.00  0.00    -0.309 C  
HETATM   18  C   UNL     1     -11.420  12.863  65.211  1.00  0.00    -0.348 C  
HETATM   19  C   UNL     1     -12.476  12.123  64.434  1.00  0.00    -0.418 C  
BRANCH  18  20
HETATM   20  C   UNL     1     -10.811  14.058  64.518  1.00  0.00    -0.362 C  
BRANCH  20  21
HETATM   21  C   UNL     1     -10.134  14.974  65.529  1.00  0.00    -0.400 C  
BRANCH  21  22
HETATM   22  C   UNL     1     -10.750  16.344  65.499  1.00  0.00    -0.287 C  
HETATM   23  O   UNL     1     -11.093  16.953  64.498  1.00  0.00    -1.054 OA 
BRANCH  22  24
HETATM   24  O   UNL     1     -10.721  16.859  66.758  1.00  0.00    -0.240 OA 
BRANCH  24  25
HETATM   25  C   UNL     1      -9.388  17.059  67.254  1.00  0.00    -0.237 C  
BRANCH  25  26
HETATM   26  C   UNL     1      -8.952  18.454  66.772  1.00  0.00    -0.288 C  
BRANCH  26  27
HETATM   27  N   UNL     1      -7.808  19.056  67.463  1.00  0.00    -0.239 NA 
HETATM   28  C   UNL     1      -6.668  18.133  67.631  1.00  0.00    -0.195 C  
HETATM   29  C   UNL     1      -5.922  17.822  66.323  1.00  0.00    -0.209 C  
HETATM   30  O   UNL     1      -5.463  19.021  65.689  1.00  0.00    -0.149 OA 
HETATM   31  C   UNL     1      -6.551  19.917  65.433  1.00  0.00    -0.280 C  
HETATM   32  C   UNL     1      -7.325  20.249  66.724  1.00  0.00    -0.281 C  
ENDBRANCH  26  27
ENDBRANCH  25  26
ENDBRANCH  24  25
ENDBRANCH  22  24
ENDBRANCH  21  22
ENDBRANCH  20  21
ENDBRANCH  18  20
ENDBRANCH  16  17
ENDBRANCH   4  16
ENDBRANCH   2   3
TORSDOF 10
ENDMDL
MODEL      121
REMARK 921   NORMALIZED FREE ENERGY PREDICTED BY IDOCK:   -4.73 KCAL/MOL
REMARK 922        TOTAL FREE ENERGY PREDICTED BY IDOCK:   -9.04 KCAL/MOL
REMARK 923 INTER-LIGAND FREE ENERGY PREDICTED BY IDOCK:   -7.87 KCAL/MOL
REMARK 924 INTRA-LIGAND FREE ENERGY PREDICTED BY IDOCK:   -1.17 KCAL/MOL
REMARK 927      BINDING AFFINITY PREDICTED BY RF-SCORE:    0.00 PKD
ROOT
HETATM    1  C   UNL     1      -7.594  10.596  69.034  1.00  0.00    -0.122 C  
HETATM    2  O   UNL     1      -8.963  10.253  68.826  1.00  0.00    -0.139 OA 
ENDROOT
BRANCH   2   3
HETATM    3  C   UNL     1      -9.224   8.988  68.341  1.00  0.00    -0.136 A  
HETATM    4  C   UNL     1      -8.947   8.583  66.997  1.00  0.00    -0.157 A  
HETATM    5  C   UNL     1      -9.171   7.227  66.661  1.00  0.00    -0.157 A  
HETATM    6  C   UNL     1      -9.821   6.736  68.944  1.00  0.00    -0.146 A  
HETATM    7  O   UNL     1      -9.057   6.733  65.398  1.00  0.00    -0.368 OA 
HETATM    8  C   UNL     1      -9.661   8.064  69.323  1.00  0.00    -0.167 A  
HETATM    9  C   UNL     1      -9.577   6.336  67.646  1.00  0.00    -0.118 A  
HETATM   10  C   UNL     1      -9.798   4.891  67.550  1.00  0.00    -0.167 C  
HETATM   11  C   UNL     1      -9.957   8.507  70.729  1.00  0.00    -0.230 C  
HETATM   12  H   UNL     1      -9.208   5.823  65.172  1.00  0.00     0.000 HD 
HETATM   13  O   UNL     1     -10.193   4.474  68.800  1.00  0.00    -0.040 OA 
HETATM   14  C   UNL     1     -10.263   5.563  69.733  1.00  0.00    -0.265 C  
HETATM   15  O   UNL     1      -9.643   4.153  66.597  1.00  0.00    -0.182 OA 
BRANCH   4  16
HETATM   16  C   UNL     1      -8.523   9.640  65.995  1.00  0.00    -0.131 C  
BRANCH  16  17
HETATM   17  C   UNL     1      -9.522  10.197  65.034  1.00  0.00    -0.330 C  
HETATM   18  C   UNL     1      -9.337  10.423  63.719  1.00  0.00    -0.329 C  
HETATM   19  C   UNL     1      -8.086  10.092  62.948  1.00  0.00    -0.144 C  
BRANCH  18  20
HETATM   20  C   UNL     1     -10.443  11.076  62.927  1.00  0.00     0.050 C  
BRANCH  20  21
HETATM   21  C   UNL     1     -10.867  12.384  63.581  1.00  0.00    -0.509 C  
BRANCH  21  22
HETATM   22  C   UNL     1     -12.360  12.431  63.754  1.00  0.00    -0.528 C  
HETATM   23  O   UNL     1     -13.172  11.755  63.143  1.00  0.00    -0.538 OA 
BRANCH  22  24
HETATM   24  O   UNL     1     -12.666  13.459  64.590  1.00  0.00    -0.637 OA 
BRANCH  24  25
HETATM   25  C   UNL     1     -11.557  13.873  65.403  1.00  0.00    -0.325 C  
BRANCH  25  26
HETATM   26  C   UNL     1     -12.142  14.245  66.777  1.00  0.00    -0.417 C  
BRANCH  26  27
HETATM   27  N   UNL     1     -11.635  13.493  67.928  1.00  0.00    -0.320 NA 
HETATM   28  C   UNL     1     -10.168  13.573  68.086  1.00  0.00    -0.249 C  
HETATM   29  C   UNL     1      -9.668  14.949  68.557  1.00  0.00    -0.215 C  
HETATM   30  O   UNL     1     -10.293  15.336  69.786  1.00  0.00    -0.255 OA 
HETATM   31  C   UNL     1     -11.719  15.349  69.657  1.00  0.00    -0.338 C  
HETATM   32  C   UNL     1     -12.256  13.985  69.183  1.00  0.00    -0.262 C  
ENDBRANCH  26  27
ENDBRANCH  25  26
ENDBRANCH  24  25
ENDBRANCH  22  24
ENDBRANCH  21  22
ENDBRANCH  20  21
ENDBRANCH  18  20
ENDBRANCH  16  17
ENDBRANCH   4  16
ENDBRANCH   2   3
TORSDOF 10
ENDMDL
MODEL      122
REMARK 921   NORMALIZED FREE ENERGY PREDICTED BY IDOCK:   -4.73 KCAL/MOL
REMARK 922        TOTAL FREE ENERGY PREDICTED BY IDOCK:   -9.04 KCAL/MOL
REMARK 923 INTER-LIGAND FREE ENERGY PREDICTED BY IDOCK:   -9.04 KCAL/MOL
REMARK 924 INTRA-LIGAND FREE ENERGY PREDICTED BY IDOCK:    0.00 KCAL/MOL
REMARK 927      BINDING AFFINITY PREDICTED BY RF-SCORE:    0.00 PKD
ROOT
HETATM    1  C   UNL     1      -6.692   9.284  64.129  1.00  0.00    -0.091 C  
HETATM    2  O   UNL     1      -7.548   8.157  64.315  1.00  0.00    -0.101 OA 
ENDROOT
BRANCH   2   3
HETATM    3  C   UNL     1      -8.220   8.074  65.517  1.00  0.00    -0.138 A  
HETATM    4  C   UNL     1      -9.376   8.856  65.833  1.00  0.00    -0.301 A  
HETATM    5  C   UNL     1     -10.026   8.598  67.062  1.00  0.00    -0.249 A  
HETATM    6  C   UNL     1      -8.468   6.805  67.547  1.00  0.00    -0.121 A  
HETATM    7  O   UNL     1     -11.064   9.339  67.539  1.00  0.00    -0.455 OA 
HETATM    8  C   UNL     1      -7.761   7.041  66.373  1.00  0.00    -0.104 A  
HETATM    9  C   UNL     1      -9.572   7.565  67.873  1.00  0.00    -0.161 A  
HETATM   10  C   UNL     1     -10.124   7.074  69.139  1.00  0.00    -0.180 C  
HETATM   11  C   UNL     1      -6.540   6.234  66.031  1.00  0.00    -0.048 C  
HETATM   12  H   UNL     1     -11.500   9.166  68.364  1.00  0.00     0.000 HD 
HETATM   13  O   UNL     1      -9.310   6.040  69.542  1.00  0.00    -0.134 OA 
HETATM   14  C   UNL     1      -8.230   5.816  68.623  1.00  0.00    -0.105 C  
HETATM   15  O   UNL     1     -11.117   7.440  69.736  1.00  0.00    -0.234 OA 
BRANCH   4  16
HETATM   16  C   UNL     1      -9.777   9.969  64.886  1.00  0.00    -0.377 C  
BRANCH  16  17
HETATM   17  C   UNL     1      -9.818  11.382  65.371  1.00  0.00    -0.277 C  
HETATM   18  C   UNL     1     -10.471  12.413  64.801  1.00  0.00    -0.333 C  
HETATM   19  C   UNL     1     -11.347  12.317  63.580  1.00  0.00    -0.547 C  
BRANCH  18  20
HETATM   20  C   UNL     1     -10.320  13.792  65.395  1.00  0.00    -0.347 C  
BRANCH  20  21
HETATM   21  C   UNL     1     -11.521  14.131  66.268  1.00  0.00    -0.358 C  
BRANCH  21  22
HETATM   22  C   UNL     1     -11.771  13.041  67.272  1.00  0.00    -0.375 C  
HETATM   23  O   UNL     1     -12.285  11.958  67.040  1.00  0.00    -0.492 OA 
BRANCH  22  24
HETATM   24  O   UNL     1     -11.472  13.517  68.511  1.00  0.00    -0.266 OA 
BRANCH  24  25
HETATM   25  C   UNL     1     -12.271  14.650  68.886  1.00  0.00    -0.139 C  
BRANCH  25  26
HETATM   26  C   UNL     1     -11.760  15.102  70.266  1.00  0.00    -0.300 C  
BRANCH  26  27
HETATM   27  N   UNL     1     -12.701  15.860  71.096  1.00  0.00    -0.414 NA 
HETATM   28  C   UNL     1     -13.908  15.094  71.468  1.00  0.00    -0.508 C  
HETATM   29  C   UNL     1     -13.644  13.981  72.496  1.00  0.00    -0.566 C  
HETATM   30  O   UNL     1     -13.036  14.503  73.683  1.00  0.00    -0.502 OA 
HETATM   31  C   UNL     1     -11.816  15.189  73.377  1.00  0.00    -0.301 C  
HETATM   32  C   UNL     1     -12.042  16.311  72.347  1.00  0.00    -0.513 C  
ENDBRANCH  26  27
ENDBRANCH  25  26
ENDBRANCH  24  25
ENDBRANCH  22  24
ENDBRANCH  21  22
ENDBRANCH  20  21
ENDBRANCH  18  20
ENDBRANCH  16  17
ENDBRANCH   4  16
ENDBRANCH   2   3
TORSDOF 10
ENDMDL
MODEL      123
REMARK 921   NORMALIZED FREE ENERGY PREDICTED BY IDOCK:   -4.72 KCAL/MOL
REMARK 922        TOTAL FREE ENERGY PREDICTED BY IDOCK:   -9.02 KCAL/MOL
REMARK 923 INTER-LIGAND FREE ENERGY PREDICTED BY IDOCK:   -7.86 KCAL/MOL
REMARK 924 INTRA-LIGAND FREE ENERGY PREDICTED BY IDOCK:   -1.16 KCAL/MOL
REMARK 927      BINDING AFFINITY PREDICTED BY RF-SCORE:    0.00 PKD
ROOT
HETATM    1  C   UNL     1      -7.494   9.111  66.045  1.00  0.00    -0.095 C  
HETATM    2  O   UNL     1      -7.153   8.652  67.351  1.00  0.00    -0.077 OA 
ENDROOT
BRANCH   2   3
HETATM    3  C   UNL     1      -8.181   8.553  68.268  1.00  0.00    -0.123 A  
HETATM    4  C   UNL     1      -8.722   9.675  68.973  1.00  0.00    -0.142 A  
HETATM    5  C   UNL     1      -9.841   9.446  69.808  1.00  0.00    -0.201 A  
HETATM    6  C   UNL     1      -9.889   7.111  69.159  1.00  0.00    -0.160 A  
HETATM    7  O   UNL     1     -10.385  10.394  70.619  1.00  0.00    -0.338 OA 
HETATM    8  C   UNL     1      -8.764   7.264  68.356  1.00  0.00    -0.122 A  
HETATM    9  C   UNL     1     -10.409   8.180  69.860  1.00  0.00    -0.214 A  
HETATM   10  C   UNL     1     -11.599   7.730  70.587  1.00  0.00    -0.218 C  
HETATM   11  C   UNL     1      -8.178   6.094  67.616  1.00  0.00    -0.113 C  
HETATM   12  H   UNL     1     -11.135  10.241  71.179  1.00  0.00     0.000 HD 
HETATM   13  O   UNL     1     -11.738   6.389  70.313  1.00  0.00    -0.411 OA 
HETATM   14  C   UNL     1     -10.699   5.906  69.448  1.00  0.00    -0.336 C  
HETATM   15  O   UNL     1     -12.366   8.374  71.276  1.00  0.00    -0.305 OA 
BRANCH   4  16
HETATM   16  C   UNL     1      -8.016  11.011  68.858  1.00  0.00    -0.138 C  
BRANCH  16  17
HETATM   17  C   UNL     1      -8.474  12.011  67.847  1.00  0.00    -0.160 C  
HETATM   18  C   UNL     1      -8.191  13.328  67.829  1.00  0.00    -0.168 C  
HETATM   19  C   UNL     1      -7.294  14.037  68.808  1.00  0.00    -0.127 C  
BRANCH  18  20
HETATM   20  C   UNL     1      -8.821  14.196  66.768  1.00  0.00    -0.190 C  
BRANCH  20  21
HETATM   21  C   UNL     1      -8.743  15.665  67.164  1.00  0.00    -0.233 C  
BRANCH  21  22
HETATM   22  C   UNL     1     -10.011  16.382  66.792  1.00  0.00    -0.272 C  
HETATM   23  O   UNL     1     -10.919  16.673  67.555  1.00  0.00    -0.266 OA 
BRANCH  22  24
HETATM   24  O   UNL     1     -10.050  16.517  65.440  1.00  0.00    -0.570 OA 
BRANCH  24  25
HETATM   25  C   UNL     1     -11.325  16.169  64.876  1.00  0.00    -0.198 C  
BRANCH  25  26
HETATM   26  C   UNL     1     -11.182  14.736  64.333  1.00  0.00    -0.172 C  
BRANCH  26  27
HETATM   27  N   UNL     1     -12.359  13.871  64.454  1.00  0.00    -0.623 NA 
HETATM   28  C   UNL     1     -12.071  12.444  64.202  1.00  0.00    -0.453 C  
HETATM   29  C   UNL     1     -11.257  11.769  65.317  1.00  0.00    -0.254 C  
HETATM   30  O   UNL     1     -11.909  11.897  66.586  1.00  0.00    -0.591 OA 
HETATM   31  C   UNL     1     -12.138  13.274  66.910  1.00  0.00    -0.332 C  
HETATM   32  C   UNL     1     -12.949  13.985  65.811  1.00  0.00    -0.254 C  
ENDBRANCH  26  27
ENDBRANCH  25  26
ENDBRANCH  24  25
ENDBRANCH  22  24
ENDBRANCH  21  22
ENDBRANCH  20  21
ENDBRANCH  18  20
ENDBRANCH  16  17
ENDBRANCH   4  16
ENDBRANCH   2   3
TORSDOF 10
ENDMDL
MODEL      124
REMARK 921   NORMALIZED FREE ENERGY PREDICTED BY IDOCK:   -4.71 KCAL/MOL
REMARK 922        TOTAL FREE ENERGY PREDICTED BY IDOCK:   -9.00 KCAL/MOL
REMARK 923 INTER-LIGAND FREE ENERGY PREDICTED BY IDOCK:   -8.07 KCAL/MOL
REMARK 924 INTRA-LIGAND FREE ENERGY PREDICTED BY IDOCK:   -0.93 KCAL/MOL
REMARK 927      BINDING AFFINITY PREDICTED BY RF-SCORE:    0.00 PKD
ROOT
HETATM    1  C   UNL     1     -12.290  12.864  65.533  1.00  0.00    -0.461 C  
HETATM    2  O   UNL     1     -11.026  13.453  65.232  1.00  0.00    -0.285 OA 
ENDROOT
BRANCH   2   3
HETATM    3  C   UNL     1     -10.604  14.480  66.052  1.00  0.00    -0.307 A  
HETATM    4  C   UNL     1      -9.917  14.272  67.290  1.00  0.00    -0.252 A  
HETATM    5  C   UNL     1      -9.452  15.414  67.982  1.00  0.00    -0.201 A  
HETATM    6  C   UNL     1     -10.258  16.856  66.208  1.00  0.00    -0.337 A  
HETATM    7  O   UNL     1      -8.884  15.370  69.218  1.00  0.00    -0.231 OA 
HETATM    8  C   UNL     1     -10.776  15.776  65.503  1.00  0.00    -0.397 A  
HETATM    9  C   UNL     1      -9.611  16.671  67.413  1.00  0.00    -0.242 A  
HETATM   10  C   UNL     1      -9.152  17.973  67.904  1.00  0.00    -0.268 C  
HETATM   11  C   UNL     1     -11.508  15.978  64.206  1.00  0.00    -0.162 C  
HETATM   12  H   UNL     1      -8.572  16.137  69.683  1.00  0.00     0.000 HD 
HETATM   13  O   UNL     1      -9.564  18.905  66.980  1.00  0.00    -0.297 OA 
HETATM   14  C   UNL     1     -10.287  18.303  65.895  1.00  0.00    -0.284 C  
HETATM   15  O   UNL     1      -8.503  18.232  68.899  1.00  0.00    -0.257 OA 
BRANCH   4  16
HETATM   16  C   UNL     1      -9.810  12.859  67.830  1.00  0.00    -0.221 C  
BRANCH  16  17
HETATM   17  C   UNL     1     -10.855  12.338  68.762  1.00  0.00    -0.266 C  
HETATM   18  C   UNL     1     -11.406  11.109  68.751  1.00  0.00    -0.342 C  
HETATM   19  C   UNL     1     -11.021   9.993  67.817  1.00  0.00    -0.310 C  
BRANCH  18  20
HETATM   20  C   UNL     1     -12.516  10.796  69.725  1.00  0.00    -0.231 C  
BRANCH  20  21
HETATM   21  C   UNL     1     -11.947  10.515  71.109  1.00  0.00    -0.435 C  
BRANCH  21  22
HETATM   22  C   UNL     1     -12.168   9.079  71.492  1.00  0.00    -0.335 C  
HETATM   23  O   UNL     1     -13.198   8.444  71.324  1.00  0.00    -0.252 OA 
BRANCH  22  24
HETATM   24  O   UNL     1     -11.087   8.647  72.194  1.00  0.00    -0.340 OA 
BRANCH  24  25
HETATM   25  C   UNL     1      -9.839   8.964  71.558  1.00  0.00    -0.314 C  
BRANCH  25  26
HETATM   26  C   UNL     1      -9.626   7.901  70.466  1.00  0.00    -0.170 C  
BRANCH  26  27
HETATM   27  N   UNL     1      -8.675   6.830  70.773  1.00  0.00    -0.145 NA 
HETATM   28  C   UNL     1      -9.310   5.619  71.332  1.00  0.00    -0.147 C  
HETATM   29  C   UNL     1     -10.130   4.819  70.307  1.00  0.00    -0.234 C  
HETATM   30  O   UNL     1      -9.332   4.450  69.176  1.00  0.00    -0.128 OA 
HETATM   31  C   UNL     1      -8.757   5.604  68.553  1.00  0.00    -0.110 C  
HETATM   32  C   UNL     1      -7.929   6.433  69.553  1.00  0.00    -0.113 C  
ENDBRANCH  26  27
ENDBRANCH  25  26
ENDBRANCH  24  25
ENDBRANCH  22  24
ENDBRANCH  21  22
ENDBRANCH  20  21
ENDBRANCH  18  20
ENDBRANCH  16  17
ENDBRANCH   4  16
ENDBRANCH   2   3
TORSDOF 10
ENDMDL
MODEL      125
REMARK 921   NORMALIZED FREE ENERGY PREDICTED BY IDOCK:   -4.70 KCAL/MOL
REMARK 922        TOTAL FREE ENERGY PREDICTED BY IDOCK:   -9.00 KCAL/MOL
REMARK 923 INTER-LIGAND FREE ENERGY PREDICTED BY IDOCK:   -8.31 KCAL/MOL
REMARK 924 INTRA-LIGAND FREE ENERGY PREDICTED BY IDOCK:   -0.68 KCAL/MOL
REMARK 927      BINDING AFFINITY PREDICTED BY RF-SCORE:    0.00 PKD
ROOT
HETATM    1  C   UNL     1      -8.147   9.891  64.676  1.00  0.00    -0.152 C  
HETATM    2  O   UNL     1      -9.508   9.645  65.025  1.00  0.00    -0.261 OA 
ENDROOT
BRANCH   2   3
HETATM    3  C   UNL     1     -10.143  10.609  65.781  1.00  0.00    -0.266 A  
HETATM    4  C   UNL     1      -9.985  10.734  67.198  1.00  0.00    -0.230 A  
HETATM    5  C   UNL     1     -10.615  11.829  67.834  1.00  0.00    -0.201 A  
HETATM    6  C   UNL     1     -11.422  12.646  65.700  1.00  0.00    -0.387 A  
HETATM    7  O   UNL     1     -10.641  12.006  69.183  1.00  0.00    -0.390 OA 
HETATM    8  C   UNL     1     -10.863  11.567  65.024  1.00  0.00    -0.336 A  
HETATM    9  C   UNL     1     -11.294  12.767  67.068  1.00  0.00    -0.364 A  
HETATM   10  C   UNL     1     -11.954  14.005  67.493  1.00  0.00    -0.395 C  
HETATM   11  C   UNL     1     -11.027  11.417  63.537  1.00  0.00    -0.406 C  
HETATM   12  H   UNL     1     -11.064  12.741  69.611  1.00  0.00     0.000 HD 
HETATM   13  O   UNL     1     -12.479  14.576  66.357  1.00  0.00    -0.315 OA 
HETATM   14  C   UNL     1     -12.220  13.784  65.188  1.00  0.00    -0.431 C  
HETATM   15  O   UNL     1     -12.021  14.495  68.603  1.00  0.00    -0.322 OA 
BRANCH   4  16
HETATM   16  C   UNL     1      -9.237   9.645  67.941  1.00  0.00    -0.134 C  
BRANCH  16  17
HETATM   17  C   UNL     1      -9.597   9.326  69.356  1.00  0.00    -0.170 C  
HETATM   18  C   UNL     1      -8.774   9.344  70.422  1.00  0.00    -0.278 C  
HETATM   19  C   UNL     1      -7.326   9.754  70.394  1.00  0.00    -0.151 C  
BRANCH  18  20
HETATM   20  C   UNL     1      -9.307   8.905  71.764  1.00  0.00    -0.304 C  
BRANCH  20  21
HETATM   21  C   UNL     1     -10.822   8.757  71.715  1.00  0.00    -0.416 C  
BRANCH  21  22
HETATM   22  C   UNL     1     -11.261   7.545  72.488  1.00  0.00    -0.331 C  
HETATM   23  O   UNL     1     -10.783   7.156  73.542  1.00  0.00    -0.368 OA 
BRANCH  22  24
HETATM   24  O   UNL     1     -12.174   6.865  71.744  1.00  0.00    -0.326 OA 
BRANCH  24  25
HETATM   25  C   UNL     1     -11.729   6.611  70.401  1.00  0.00    -0.386 C  
BRANCH  25  26
HETATM   26  C   UNL     1     -10.645   5.523  70.502  1.00  0.00    -0.269 C  
BRANCH  26  27
HETATM   27  N   UNL     1     -10.150   4.976  69.236  1.00  0.00    -0.212 NA 
HETATM   28  C   UNL     1      -9.295   5.914  68.482  1.00  0.00    -0.120 C  
HETATM   29  C   UNL     1      -7.912   6.140  69.114  1.00  0.00    -0.108 C  
HETATM   30  O   UNL     1      -7.211   4.903  69.286  1.00  0.00    -0.054 OA 
HETATM   31  C   UNL     1      -7.971   3.986  70.081  1.00  0.00    -0.051 C  
HETATM   32  C   UNL     1      -9.367   3.738  69.478  1.00  0.00    -0.179 C  
ENDBRANCH  26  27
ENDBRANCH  25  26
ENDBRANCH  24  25
ENDBRANCH  22  24
ENDBRANCH  21  22
ENDBRANCH  20  21
ENDBRANCH  18  20
ENDBRANCH  16  17
ENDBRANCH   4  16
ENDBRANCH   2   3
TORSDOF 10
ENDMDL
MODEL      126
REMARK 921   NORMALIZED FREE ENERGY PREDICTED BY IDOCK:   -4.70 KCAL/MOL
REMARK 922        TOTAL FREE ENERGY PREDICTED BY IDOCK:   -8.99 KCAL/MOL
REMARK 923 INTER-LIGAND FREE ENERGY PREDICTED BY IDOCK:   -7.80 KCAL/MOL
REMARK 924 INTRA-LIGAND FREE ENERGY PREDICTED BY IDOCK:   -1.19 KCAL/MOL
REMARK 927      BINDING AFFINITY PREDICTED BY RF-SCORE:    0.00 PKD
ROOT
HETATM    1  C   UNL     1     -10.772  11.721  66.514  1.00  0.00    -0.265 C  
HETATM    2  O   UNL     1     -10.209  12.122  67.762  1.00  0.00    -0.194 OA 
ENDROOT
BRANCH   2   3
HETATM    3  C   UNL     1     -11.092  12.445  68.772  1.00  0.00    -0.262 A  
HETATM    4  C   UNL     1     -11.586  11.498  69.724  1.00  0.00    -0.401 A  
HETATM    5  C   UNL     1     -12.407  11.985  70.767  1.00  0.00    -0.308 A  
HETATM    6  C   UNL     1     -12.144  14.255  69.960  1.00  0.00    -0.400 A  
HETATM    7  O   UNL     1     -13.034  11.183  71.672  1.00  0.00    -0.445 OA 
HETATM    8  C   UNL     1     -11.367  13.831  68.887  1.00  0.00    -0.328 A  
HETATM    9  C   UNL     1     -12.644  13.349  70.873  1.00  0.00    -0.406 A  
HETATM   10  C   UNL     1     -13.393  14.081  71.898  1.00  0.00    -0.406 C  
HETATM   11  C   UNL     1     -10.848  14.812  67.874  1.00  0.00    -0.269 C  
HETATM   12  H   UNL     1     -13.586  11.510  72.372  1.00  0.00     0.000 HD 
HETATM   13  O   UNL     1     -13.334  15.410  71.548  1.00  0.00    -0.435 OA 
HETATM   14  C   UNL     1     -12.596  15.614  70.333  1.00  0.00    -0.336 C  
HETATM   15  O   UNL     1     -13.940  13.657  72.897  1.00  0.00    -0.630 OA 
BRANCH   4  16
HETATM   16  C   UNL     1     -11.282  10.028  69.507  1.00  0.00    -0.254 C  
BRANCH  16  17
HETATM   17  C   UNL     1     -10.851   9.180  70.659  1.00  0.00    -0.321 C  
HETATM   18  C   UNL     1     -10.580   7.861  70.633  1.00  0.00    -0.221 C  
HETATM   19  C   UNL     1     -10.604   6.994  69.402  1.00  0.00    -0.248 C  
BRANCH  18  20
HETATM   20  C   UNL     1     -10.241   7.158  71.925  1.00  0.00    -0.208 C  
BRANCH  20  21
HETATM   21  C   UNL     1      -9.716   8.153  72.952  1.00  0.00    -0.340 C  
BRANCH  21  22
HETATM   22  C   UNL     1      -8.222   8.050  73.073  1.00  0.00    -0.179 C  
HETATM   23  O   UNL     1      -7.615   7.372  73.888  1.00  0.00    -0.103 OA 
BRANCH  22  24
HETATM   24  O   UNL     1      -7.656   8.954  72.229  1.00  0.00    -0.344 OA 
BRANCH  24  25
HETATM   25  C   UNL     1      -6.795   8.349  71.251  1.00  0.00    -0.065 C  
BRANCH  25  26
HETATM   26  C   UNL     1      -7.057   9.089  69.927  1.00  0.00    -0.053 C  
BRANCH  26  27
HETATM   27  N   UNL     1      -5.897   9.720  69.291  1.00  0.00    -0.034 NA 
HETATM   28  C   UNL     1      -6.050   9.903  67.834  1.00  0.00    -0.050 C  
HETATM   29  C   UNL     1      -7.061  10.994  67.447  1.00  0.00    -0.095 C  
HETATM   30  O   UNL     1      -6.722  12.251  68.043  1.00  0.00    -0.067 OA 
HETATM   31  C   UNL     1      -6.641  12.140  69.468  1.00  0.00    -0.065 C  
HETATM   32  C   UNL     1      -5.636  11.052  69.893  1.00  0.00    -0.066 C  
ENDBRANCH  26  27
ENDBRANCH  25  26
ENDBRANCH  24  25
ENDBRANCH  22  24
ENDBRANCH  21  22
ENDBRANCH  20  21
ENDBRANCH  18  20
ENDBRANCH  16  17
ENDBRANCH   4  16
ENDBRANCH   2   3
TORSDOF 10
ENDMDL
MODEL      127
REMARK 921   NORMALIZED FREE ENERGY PREDICTED BY IDOCK:   -4.70 KCAL/MOL
REMARK 922        TOTAL FREE ENERGY PREDICTED BY IDOCK:   -8.99 KCAL/MOL
REMARK 923 INTER-LIGAND FREE ENERGY PREDICTED BY IDOCK:   -7.92 KCAL/MOL
REMARK 924 INTRA-LIGAND FREE ENERGY PREDICTED BY IDOCK:   -1.07 KCAL/MOL
REMARK 927      BINDING AFFINITY PREDICTED BY RF-SCORE:    0.00 PKD
ROOT
HETATM    1  C   UNL     1      -8.918  10.865  62.572  1.00  0.00    -0.324 C  
HETATM    2  O   UNL     1     -10.015  10.503  63.409  1.00  0.00    -0.307 OA 
ENDROOT
BRANCH   2   3
HETATM    3  C   UNL     1     -10.189  11.239  64.564  1.00  0.00    -0.314 A  
HETATM    4  C   UNL     1      -9.280  11.205  65.669  1.00  0.00    -0.238 A  
HETATM    5  C   UNL     1      -9.527  12.085  66.748  1.00  0.00    -0.208 A  
HETATM    6  C   UNL     1     -11.438  13.022  65.589  1.00  0.00    -0.365 A  
HETATM    7  O   UNL     1      -8.812  12.079  67.906  1.00  0.00    -0.159 OA 
HETATM    8  C   UNL     1     -11.273  12.151  64.518  1.00  0.00    -0.385 A  
HETATM    9  C   UNL     1     -10.581  12.986  66.670  1.00  0.00    -0.275 A  
HETATM   10  C   UNL     1     -10.979  14.028  67.620  1.00  0.00    -0.269 C  
HETATM   11  C   UNL     1     -12.224  12.169  63.354  1.00  0.00    -0.635 C  
HETATM   12  H   UNL     1      -8.977  12.670  68.631  1.00  0.00     0.000 HD 
HETATM   13  O   UNL     1     -12.085  14.643  67.082  1.00  0.00    -0.362 OA 
HETATM   14  C   UNL     1     -12.464  14.065  65.823  1.00  0.00    -0.494 C  
HETATM   15  O   UNL     1     -10.453  14.352  68.667  1.00  0.00    -0.234 OA 
BRANCH   4  16
HETATM   16  C   UNL     1      -8.171  10.171  65.661  1.00  0.00    -0.150 C  
BRANCH  16  17
HETATM   17  C   UNL     1      -8.483   8.742  65.966  1.00  0.00    -0.144 C  
HETATM   18  C   UNL     1      -8.242   8.092  67.121  1.00  0.00    -0.120 C  
HETATM   19  C   UNL     1      -7.658   8.714  68.362  1.00  0.00    -0.096 C  
BRANCH  18  20
HETATM   20  C   UNL     1      -8.550   6.618  67.208  1.00  0.00    -0.119 C  
BRANCH  20  21
HETATM   21  C   UNL     1      -9.316   6.307  68.488  1.00  0.00    -0.121 C  
BRANCH  21  22
HETATM   22  C   UNL     1     -10.797   6.318  68.235  1.00  0.00    -0.319 C  
HETATM   23  O   UNL     1     -11.337   6.468  67.150  1.00  0.00    -0.333 OA 
BRANCH  22  24
HETATM   24  O   UNL     1     -11.440   6.288  69.433  1.00  0.00    -0.427 OA 
BRANCH  24  25
HETATM   25  C   UNL     1     -10.885   7.201  70.393  1.00  0.00    -0.246 C  
BRANCH  25  26
HETATM   26  C   UNL     1     -10.957   6.492  71.757  1.00  0.00    -0.247 C  
BRANCH  26  27
HETATM   27  N   UNL     1      -9.677   6.154  72.386  1.00  0.00    -0.158 NA 
HETATM   28  C   UNL     1      -9.778   5.918  73.841  1.00  0.00    -0.174 C  
HETATM   29  C   UNL     1     -10.491   4.607  74.209  1.00  0.00    -0.279 C  
HETATM   30  O   UNL     1      -9.856   3.480  73.595  1.00  0.00    -0.105 OA 
HETATM   31  C   UNL     1      -9.806   3.629  72.171  1.00  0.00    -0.170 C  
HETATM   32  C   UNL     1      -9.099   4.936  71.765  1.00  0.00    -0.139 C  
ENDBRANCH  26  27
ENDBRANCH  25  26
ENDBRANCH  24  25
ENDBRANCH  22  24
ENDBRANCH  21  22
ENDBRANCH  20  21
ENDBRANCH  18  20
ENDBRANCH  16  17
ENDBRANCH   4  16
ENDBRANCH   2   3
TORSDOF 10
ENDMDL
MODEL      128
REMARK 921   NORMALIZED FREE ENERGY PREDICTED BY IDOCK:   -4.69 KCAL/MOL
REMARK 922        TOTAL FREE ENERGY PREDICTED BY IDOCK:   -8.97 KCAL/MOL
REMARK 923 INTER-LIGAND FREE ENERGY PREDICTED BY IDOCK:   -8.04 KCAL/MOL
REMARK 924 INTRA-LIGAND FREE ENERGY PREDICTED BY IDOCK:   -0.93 KCAL/MOL
REMARK 927      BINDING AFFINITY PREDICTED BY RF-SCORE:    0.00 PKD
ROOT
HETATM    1  C   UNL     1     -10.635   8.100  72.459  1.00  0.00    -0.340 C  
HETATM    2  O   UNL     1      -9.549   7.848  71.569  1.00  0.00    -0.146 OA 
ENDROOT
BRANCH   2   3
HETATM    3  C   UNL     1      -9.843   7.181  70.397  1.00  0.00    -0.176 A  
HETATM    4  C   UNL     1     -10.360   7.826  69.229  1.00  0.00    -0.220 A  
HETATM    5  C   UNL     1     -10.521   7.040  68.064  1.00  0.00    -0.208 A  
HETATM    6  C   UNL     1      -9.597   5.109  69.200  1.00  0.00    -0.207 A  
HETATM    7  O   UNL     1     -11.104   7.495  66.921  1.00  0.00    -0.501 OA 
HETATM    8  C   UNL     1      -9.457   5.818  70.388  1.00  0.00    -0.201 A  
HETATM    9  C   UNL     1     -10.113   5.713  68.072  1.00  0.00    -0.211 A  
HETATM   10  C   UNL     1     -10.116   4.739  66.977  1.00  0.00    -0.189 C  
HETATM   11  C   UNL     1      -8.923   5.153  71.626  1.00  0.00    -0.149 C  
HETATM   12  H   UNL     1     -11.212   6.967  66.139  1.00  0.00     0.000 HD 
HETATM   13  O   UNL     1      -9.617   3.567  67.497  1.00  0.00    -0.207 OA 
HETATM   14  C   UNL     1      -9.290   3.694  68.890  1.00  0.00    -0.167 C  
HETATM   15  O   UNL     1     -10.443   4.891  65.816  1.00  0.00    -0.235 OA 
BRANCH   4  16
HETATM   16  C   UNL     1     -10.789   9.277  69.332  1.00  0.00    -0.184 C  
BRANCH  16  17
HETATM   17  C   UNL     1      -9.844  10.363  68.932  1.00  0.00    -0.206 C  
HETATM   18  C   UNL     1      -9.953  11.173  67.862  1.00  0.00    -0.189 C  
HETATM   19  C   UNL     1     -11.100  11.174  66.886  1.00  0.00    -0.313 C  
BRANCH  18  20
HETATM   20  C   UNL     1      -8.846  12.158  67.575  1.00  0.00    -0.175 C  
BRANCH  20  21
HETATM   21  C   UNL     1      -9.362  13.304  66.714  1.00  0.00    -0.254 C  
BRANCH  21  22
HETATM   22  C   UNL     1      -9.864  14.429  67.575  1.00  0.00    -0.220 C  
HETATM   23  O   UNL     1      -9.639  14.574  68.766  1.00  0.00    -0.210 OA 
BRANCH  22  24
HETATM   24  O   UNL     1     -10.736  15.176  66.846  1.00  0.00    -0.296 OA 
BRANCH  24  25
HETATM   25  C   UNL     1     -10.114  15.841  65.734  1.00  0.00    -0.371 C  
BRANCH  25  26
HETATM   26  C   UNL     1     -10.354  17.347  65.943  1.00  0.00    -0.269 C  
BRANCH  26  27
HETATM   27  N   UNL     1      -9.163  18.200  65.975  1.00  0.00    -0.517 NA 
HETATM   28  C   UNL     1      -9.457  19.614  66.287  1.00  0.00    -0.396 C  
HETATM   29  C   UNL     1      -9.869  19.854  67.749  1.00  0.00    -0.402 C  
HETATM   30  O   UNL     1      -8.871  19.373  68.656  1.00  0.00    -0.369 OA 
HETATM   31  C   UNL     1      -8.609  17.981  68.442  1.00  0.00    -0.290 C  
HETATM   32  C   UNL     1      -8.195  17.702  66.985  1.00  0.00    -0.220 C  
ENDBRANCH  26  27
ENDBRANCH  25  26
ENDBRANCH  24  25
ENDBRANCH  22  24
ENDBRANCH  21  22
ENDBRANCH  20  21
ENDBRANCH  18  20
ENDBRANCH  16  17
ENDBRANCH   4  16
ENDBRANCH   2   3
TORSDOF 10
ENDMDL
MODEL      129
REMARK 921   NORMALIZED FREE ENERGY PREDICTED BY IDOCK:   -4.68 KCAL/MOL
REMARK 922        TOTAL FREE ENERGY PREDICTED BY IDOCK:   -8.95 KCAL/MOL
REMARK 923 INTER-LIGAND FREE ENERGY PREDICTED BY IDOCK:   -8.10 KCAL/MOL
REMARK 924 INTRA-LIGAND FREE ENERGY PREDICTED BY IDOCK:   -0.85 KCAL/MOL
REMARK 927      BINDING AFFINITY PREDICTED BY RF-SCORE:    0.00 PKD
ROOT
HETATM    1  C   UNL     1      -6.761  10.893  66.778  1.00  0.00    -0.120 C  
HETATM    2  O   UNL     1      -7.890  11.164  67.606  1.00  0.00    -0.110 OA 
ENDROOT
BRANCH   2   3
HETATM    3  C   UNL     1      -8.618  10.077  68.046  1.00  0.00    -0.121 A  
HETATM    4  C   UNL     1      -9.661   9.462  67.283  1.00  0.00    -0.215 A  
HETATM    5  C   UNL     1     -10.258   8.293  67.812  1.00  0.00    -0.223 A  
HETATM    6  C   UNL     1      -8.752   8.344  69.710  1.00  0.00    -0.133 A  
HETATM    7  O   UNL     1     -11.331   7.673  67.249  1.00  0.00    -0.382 OA 
HETATM    8  C   UNL     1      -8.157   9.519  69.265  1.00  0.00    -0.103 A  
HETATM    9  C   UNL     1      -9.772   7.752  68.995  1.00  0.00    -0.157 A  
HETATM   10  C   UNL     1     -10.179   6.525  69.685  1.00  0.00    -0.187 C  
HETATM   11  C   UNL     1      -7.066  10.182  70.059  1.00  0.00    -0.156 C  
HETATM   12  H   UNL     1     -11.731   6.888  67.604  1.00  0.00     0.000 HD 
HETATM   13  O   UNL     1      -9.397   6.435  70.813  1.00  0.00    -0.157 OA 
HETATM   14  C   UNL     1      -8.491   7.543  70.929  1.00  0.00    -0.125 C  
HETATM   15  O   UNL     1     -11.006   5.697  69.354  1.00  0.00    -0.320 OA 
BRANCH   4  16
HETATM   16  C   UNL     1     -10.126  10.144  66.012  1.00  0.00    -0.317 C  
BRANCH  16  17
HETATM   17  C   UNL     1     -10.879  11.432  66.090  1.00  0.00    -0.310 C  
HETATM   18  C   UNL     1     -11.315  12.177  65.057  1.00  0.00    -0.379 C  
HETATM   19  C   UNL     1     -11.175  11.810  63.603  1.00  0.00    -0.519 C  
BRANCH  18  20
HETATM   20  C   UNL     1     -11.985  13.499  65.339  1.00  0.00    -0.406 C  
BRANCH  20  21
HETATM   21  C   UNL     1     -11.812  13.884  66.802  1.00  0.00    -0.452 C  
BRANCH  21  22
HETATM   22  C   UNL     1     -10.666  14.842  66.966  1.00  0.00    -0.307 C  
HETATM   23  O   UNL     1      -9.664  14.885  66.270  1.00  0.00    -0.262 OA 
BRANCH  22  24
HETATM   24  O   UNL     1     -10.855  15.552  68.110  1.00  0.00    -0.275 OA 
BRANCH  24  25
HETATM   25  C   UNL     1     -10.783  16.973  67.910  1.00  0.00    -0.348 C  
BRANCH  25  26
HETATM   26  C   UNL     1      -9.526  17.452  68.657  1.00  0.00    -0.280 C  
BRANCH  26  27
HETATM   27  N   UNL     1      -8.295  17.551  67.867  1.00  0.00    -0.224 NA 
HETATM   28  C   UNL     1      -8.456  18.320  66.617  1.00  0.00    -0.265 C  
HETATM   29  C   UNL     1      -8.631  19.832  66.836  1.00  0.00    -0.329 C  
HETATM   30  O   UNL     1      -7.539  20.378  67.584  1.00  0.00    -0.301 OA 
HETATM   31  C   UNL     1      -7.394  19.712  68.844  1.00  0.00    -0.338 C  
HETATM   32  C   UNL     1      -7.219  18.193  68.663  1.00  0.00    -0.281 C  
ENDBRANCH  26  27
ENDBRANCH  25  26
ENDBRANCH  24  25
ENDBRANCH  22  24
ENDBRANCH  21  22
ENDBRANCH  20  21
ENDBRANCH  18  20
ENDBRANCH  16  17
ENDBRANCH   4  16
ENDBRANCH   2   3
TORSDOF 10
ENDMDL
MODEL      130
REMARK 921   NORMALIZED FREE ENERGY PREDICTED BY IDOCK:   -4.67 KCAL/MOL
REMARK 922        TOTAL FREE ENERGY PREDICTED BY IDOCK:   -8.95 KCAL/MOL
REMARK 923 INTER-LIGAND FREE ENERGY PREDICTED BY IDOCK:   -8.47 KCAL/MOL
REMARK 924 INTRA-LIGAND FREE ENERGY PREDICTED BY IDOCK:   -0.48 KCAL/MOL
REMARK 927      BINDING AFFINITY PREDICTED BY RF-SCORE:    0.00 PKD
ROOT
HETATM    1  C   UNL     1     -12.305  12.477  64.892  1.00  0.00    -0.470 C  
HETATM    2  O   UNL     1     -11.140  12.639  65.698  1.00  0.00    -0.279 OA 
ENDROOT
BRANCH   2   3
HETATM    3  C   UNL     1     -11.234  13.510  66.765  1.00  0.00    -0.310 A  
HETATM    4  C   UNL     1     -11.616  13.107  68.084  1.00  0.00    -0.375 A  
HETATM    5  C   UNL     1     -11.574  14.083  69.106  1.00  0.00    -0.313 A  
HETATM    6  C   UNL     1     -10.720  15.728  67.544  1.00  0.00    -0.317 A  
HETATM    7  O   UNL     1     -12.015  13.868  70.375  1.00  0.00    -0.313 OA 
HETATM    8  C   UNL     1     -10.781  14.825  66.489  1.00  0.00    -0.319 A  
HETATM    9  C   UNL     1     -11.104  15.358  68.816  1.00  0.00    -0.284 A  
HETATM   10  C   UNL     1     -10.905  16.497  69.717  1.00  0.00    -0.302 C  
HETATM   11  C   UNL     1     -10.392  15.235  65.096  1.00  0.00    -0.413 C  
HETATM   12  H   UNL     1     -11.987  14.524  71.062  1.00  0.00     0.000 HD 
HETATM   13  O   UNL     1     -10.425  17.526  68.942  1.00  0.00    -0.349 OA 
HETATM   14  C   UNL     1     -10.301  17.148  67.562  1.00  0.00    -0.341 C  
HETATM   15  O   UNL     1     -11.076  16.563  70.919  1.00  0.00    -0.217 OA 
BRANCH   4  16
HETATM   16  C   UNL     1     -12.128  11.695  68.289  1.00  0.00    -0.067 C  
BRANCH  16  17
HETATM   17  C   UNL     1     -11.318  10.715  69.074  1.00  0.00    -0.340 C  
HETATM   18  C   UNL     1     -11.501  10.365  70.361  1.00  0.00    -0.420 C  
HETATM   19  C   UNL     1     -12.614  10.860  71.247  1.00  0.00    -0.526 C  
BRANCH  18  20
HETATM   20  C   UNL     1     -10.520   9.418  71.008  1.00  0.00    -0.392 C  
BRANCH  20  21
HETATM   21  C   UNL     1     -10.540   8.067  70.305  1.00  0.00    -0.231 C  
BRANCH  21  22
HETATM   22  C   UNL     1     -11.628   7.194  70.864  1.00  0.00    -0.311 C  
HETATM   23  O   UNL     1     -12.737   7.569  71.214  1.00  0.00    -0.335 OA 
BRANCH  22  24
HETATM   24  O   UNL     1     -11.125   5.947  71.061  1.00  0.00    -0.284 OA 
BRANCH  24  25
HETATM   25  C   UNL     1      -9.698   5.936  71.230  1.00  0.00    -0.173 C  
BRANCH  25  26
HETATM   26  C   UNL     1      -9.229   4.517  70.862  1.00  0.00    -0.139 C  
BRANCH  26  27
HETATM   27  N   UNL     1      -8.601   3.737  71.932  1.00  0.00    -0.089 NA 
HETATM   28  C   UNL     1      -9.383   3.719  73.185  1.00  0.00    -0.102 C  
HETATM   29  C   UNL     1     -10.667   2.878  73.103  1.00  0.00    -0.157 C  
HETATM   30  O   UNL     1     -10.382   1.530  72.710  1.00  0.00    -0.110 OA 
HETATM   31  C   UNL     1      -9.691   1.496  71.455  1.00  0.00    -0.135 C  
HETATM   32  C   UNL     1      -8.398   2.332  71.499  1.00  0.00    -0.058 C  
ENDBRANCH  26  27
ENDBRANCH  25  26
ENDBRANCH  24  25
ENDBRANCH  22  24
ENDBRANCH  21  22
ENDBRANCH  20  21
ENDBRANCH  18  20
ENDBRANCH  16  17
ENDBRANCH   4  16
ENDBRANCH   2   3
TORSDOF 10
ENDMDL
MODEL      131
REMARK 921   NORMALIZED FREE ENERGY PREDICTED BY IDOCK:   -4.66 KCAL/MOL
REMARK 922        TOTAL FREE ENERGY PREDICTED BY IDOCK:   -8.93 KCAL/MOL
REMARK 923 INTER-LIGAND FREE ENERGY PREDICTED BY IDOCK:   -7.45 KCAL/MOL
REMARK 924 INTRA-LIGAND FREE ENERGY PREDICTED BY IDOCK:   -1.48 KCAL/MOL
REMARK 927      BINDING AFFINITY PREDICTED BY RF-SCORE:    0.00 PKD
ROOT
HETATM    1  C   UNL     1     -10.974  12.673  68.583  1.00  0.00    -0.256 C  
HETATM    2  O   UNL     1     -10.425  13.742  69.351  1.00  0.00    -0.021 OA 
ENDROOT
BRANCH   2   3
HETATM    3  C   UNL     1      -9.715  14.705  68.663  1.00  0.00    -0.220 A  
HETATM    4  C   UNL     1      -8.361  14.532  68.232  1.00  0.00    -0.152 A  
HETATM    5  C   UNL     1      -7.786  15.560  67.449  1.00  0.00    -0.186 A  
HETATM    6  C   UNL     1      -9.873  16.794  67.478  1.00  0.00    -0.255 A  
HETATM    7  O   UNL     1      -6.480  15.579  67.068  1.00  0.00    -0.285 OA 
HETATM    8  C   UNL     1     -10.479  15.838  68.286  1.00  0.00    -0.259 A  
HETATM    9  C   UNL     1      -8.562  16.649  67.072  1.00  0.00    -0.220 A  
HETATM   10  C   UNL     1      -8.208  17.784  66.215  1.00  0.00    -0.217 C  
HETATM   11  C   UNL     1     -11.897  16.009  68.754  1.00  0.00    -0.210 C  
HETATM   12  H   UNL     1      -6.094  16.269  66.542  1.00  0.00     0.000 HD 
HETATM   13  O   UNL     1      -9.322  18.588  66.155  1.00  0.00    -0.458 OA 
HETATM   14  C   UNL     1     -10.407  18.064  66.936  1.00  0.00    -0.370 C  
HETATM   15  O   UNL     1      -7.170  18.001  65.621  1.00  0.00    -0.516 OA 
BRANCH   4  16
HETATM   16  C   UNL     1      -7.598  13.314  68.713  1.00  0.00    -0.043 C  
BRANCH  16  17
HETATM   17  C   UNL     1      -7.463  12.121  67.823  1.00  0.00    -0.122 C  
HETATM   18  C   UNL     1      -7.282  10.843  68.208  1.00  0.00    -0.084 C  
HETATM   19  C   UNL     1      -7.242  10.364  69.635  1.00  0.00    -0.148 C  
BRANCH  18  20
HETATM   20  C   UNL     1      -7.080   9.783  67.153  1.00  0.00    -0.086 C  
BRANCH  20  21
HETATM   21  C   UNL     1      -8.407   9.419  66.501  1.00  0.00    -0.119 C  
BRANCH  21  22
HETATM   22  C   UNL     1      -8.185   8.864  65.122  1.00  0.00    -0.141 C  
HETATM   23  O   UNL     1      -7.245   8.168  64.773  1.00  0.00    -0.077 OA 
BRANCH  22  24
HETATM   24  O   UNL     1      -9.120   9.393  64.288  1.00  0.00    -0.214 OA 
BRANCH  24  25
HETATM   25  C   UNL     1      -8.666  10.576  63.610  1.00  0.00    -0.181 C  
BRANCH  25  26
HETATM   26  C   UNL     1      -9.921  11.422  63.330  1.00  0.00    -0.401 C  
BRANCH  26  27
HETATM   27  N   UNL     1     -10.814  11.664  64.467  1.00  0.00    -0.312 NA 
HETATM   28  C   UNL     1     -10.313  12.691  65.402  1.00  0.00    -0.291 C  
HETATM   29  C   UNL     1     -10.370  14.122  64.843  1.00  0.00    -0.408 C  
HETATM   30  O   UNL     1     -11.699  14.467  64.436  1.00  0.00    -0.404 OA 
HETATM   31  C   UNL     1     -12.199  13.540  63.466  1.00  0.00    -0.346 C  
HETATM   32  C   UNL     1     -12.153  12.093  63.992  1.00  0.00    -0.443 C  
ENDBRANCH  26  27
ENDBRANCH  25  26
ENDBRANCH  24  25
ENDBRANCH  22  24
ENDBRANCH  21  22
ENDBRANCH  20  21
ENDBRANCH  18  20
ENDBRANCH  16  17
ENDBRANCH   4  16
ENDBRANCH   2   3
TORSDOF 10
ENDMDL
MODEL      132
REMARK 921   NORMALIZED FREE ENERGY PREDICTED BY IDOCK:   -4.65 KCAL/MOL
REMARK 922        TOTAL FREE ENERGY PREDICTED BY IDOCK:   -8.92 KCAL/MOL
REMARK 923 INTER-LIGAND FREE ENERGY PREDICTED BY IDOCK:   -7.78 KCAL/MOL
REMARK 924 INTRA-LIGAND FREE ENERGY PREDICTED BY IDOCK:   -1.14 KCAL/MOL
REMARK 927      BINDING AFFINITY PREDICTED BY RF-SCORE:    0.00 PKD
ROOT
HETATM    1  C   UNL     1      -6.952   6.914  66.960  1.00  0.00    -0.070 C  
HETATM    2  O   UNL     1      -7.564   5.776  67.562  1.00  0.00    -0.090 OA 
ENDROOT
BRANCH   2   3
HETATM    3  C   UNL     1      -8.347   4.982  66.748  1.00  0.00    -0.107 A  
HETATM    4  C   UNL     1      -9.669   5.337  66.332  1.00  0.00    -0.184 A  
HETATM    5  C   UNL     1     -10.321   4.479  65.416  1.00  0.00    -0.199 A  
HETATM    6  C   UNL     1      -8.358   3.061  65.298  1.00  0.00    -0.096 A  
HETATM    7  O   UNL     1     -11.615   4.634  65.025  1.00  0.00    -1.080 OA 
HETATM    8  C   UNL     1      -7.683   3.841  66.230  1.00  0.00    -0.089 A  
HETATM    9  C   UNL     1      -9.642   3.381  64.904  1.00  0.00    -0.152 A  
HETATM   10  C   UNL     1     -10.082   2.406  63.902  1.00  0.00    -0.112 C  
HETATM   11  C   UNL     1      -6.297   3.478  66.683  1.00  0.00    -0.032 C  
HETATM   12  H   UNL     1     -12.053   4.058  64.410  1.00  0.00     0.000 HD 
HETATM   13  O   UNL     1      -9.046   1.515  63.745  1.00  0.00    -0.088 OA 
HETATM   14  C   UNL     1      -7.933   1.828  64.597  1.00  0.00    -0.069 C  
HETATM   15  O   UNL     1     -11.123   2.367  63.276  1.00  0.00    -0.252 OA 
BRANCH   4  16
HETATM   16  C   UNL     1     -10.326   6.549  66.964  1.00  0.00    -0.319 C  
BRANCH  16  17
HETATM   17  C   UNL     1     -11.100   6.399  68.234  1.00  0.00    -0.359 C  
HETATM   18  C   UNL     1     -10.719   6.798  69.462  1.00  0.00    -0.294 C  
HETATM   19  C   UNL     1      -9.446   7.537  69.780  1.00  0.00    -0.156 C  
BRANCH  18  20
HETATM   20  C   UNL     1     -11.605   6.479  70.642  1.00  0.00    -0.442 C  
BRANCH  20  21
HETATM   21  C   UNL     1     -11.389   7.490  71.760  1.00  0.00    -0.289 C  
BRANCH  21  22
HETATM   22  C   UNL     1     -12.361   8.630  71.640  1.00  0.00    -0.333 C  
HETATM   23  O   UNL     1     -13.579   8.534  71.638  1.00  0.00    -0.355 OA 
BRANCH  22  24
HETATM   24  O   UNL     1     -11.664   9.768  71.380  1.00  0.00    -0.365 OA 
BRANCH  24  25
HETATM   25  C   UNL     1     -12.457  10.779  70.736  1.00  0.00    -0.387 C  
BRANCH  25  26
HETATM   26  C   UNL     1     -12.004  10.813  69.266  1.00  0.00    -0.263 C  
BRANCH  26  27
HETATM   27  N   UNL     1     -10.807  11.606  68.969  1.00  0.00    -0.213 NA 
HETATM   28  C   UNL     1     -10.099  11.171  67.748  1.00  0.00    -0.178 C  
HETATM   29  C   UNL     1     -10.843  11.507  66.446  1.00  0.00    -0.285 C  
HETATM   30  O   UNL     1     -11.120  12.909  66.352  1.00  0.00    -0.274 OA 
HETATM   31  C   UNL     1     -11.877  13.361  67.481  1.00  0.00    -0.366 C  
HETATM   32  C   UNL     1     -11.161  13.038  68.806  1.00  0.00    -0.282 C  
ENDBRANCH  26  27
ENDBRANCH  25  26
ENDBRANCH  24  25
ENDBRANCH  22  24
ENDBRANCH  21  22
ENDBRANCH  20  21
ENDBRANCH  18  20
ENDBRANCH  16  17
ENDBRANCH   4  16
ENDBRANCH   2   3
TORSDOF 10
ENDMDL
MODEL      133
REMARK 921   NORMALIZED FREE ENERGY PREDICTED BY IDOCK:   -4.65 KCAL/MOL
REMARK 922        TOTAL FREE ENERGY PREDICTED BY IDOCK:   -8.91 KCAL/MOL
REMARK 923 INTER-LIGAND FREE ENERGY PREDICTED BY IDOCK:   -7.59 KCAL/MOL
REMARK 924 INTRA-LIGAND FREE ENERGY PREDICTED BY IDOCK:   -1.31 KCAL/MOL
REMARK 927      BINDING AFFINITY PREDICTED BY RF-SCORE:    0.00 PKD
ROOT
HETATM    1  C   UNL     1      -7.743  10.345  65.124  1.00  0.00    -0.110 C  
HETATM    2  O   UNL     1      -8.793  10.617  66.050  1.00  0.00    -0.162 OA 
ENDROOT
BRANCH   2   3
HETATM    3  C   UNL     1      -8.618  10.172  67.344  1.00  0.00    -0.122 A  
HETATM    4  C   UNL     1      -7.747  10.805  68.287  1.00  0.00    -0.109 A  
HETATM    5  C   UNL     1      -7.738  10.305  69.610  1.00  0.00    -0.160 A  
HETATM    6  C   UNL     1      -9.459   8.694  69.047  1.00  0.00    -0.153 A  
HETATM    7  O   UNL     1      -6.881  10.737  70.575  1.00  0.00    -0.461 OA 
HETATM    8  C   UNL     1      -9.481   9.113  67.721  1.00  0.00    -0.160 A  
HETATM    9  C   UNL     1      -8.610   9.282  69.961  1.00  0.00    -0.193 A  
HETATM   10  C   UNL     1      -8.826   8.661  71.271  1.00  0.00    -0.207 C  
HETATM   11  C   UNL     1     -10.384   8.452  66.717  1.00  0.00    -0.357 C  
HETATM   12  H   UNL     1      -6.875  10.401  71.463  1.00  0.00     0.000 HD 
HETATM   13  O   UNL     1      -9.791   7.698  71.089  1.00  0.00    -0.173 OA 
HETATM   14  C   UNL     1     -10.230   7.626  69.724  1.00  0.00    -0.210 C  
HETATM   15  O   UNL     1      -8.315   8.929  72.340  1.00  0.00    -0.386 OA 
BRANCH   4  16
HETATM   16  C   UNL     1      -6.824  11.903  67.796  1.00  0.00    -0.094 C  
BRANCH  16  17
HETATM   17  C   UNL     1      -7.280  13.326  67.823  1.00  0.00    -0.151 C  
HETATM   18  C   UNL     1      -6.593  14.384  68.294  1.00  0.00    -0.116 C  
HETATM   19  C   UNL     1      -5.189  14.337  68.835  1.00  0.00    -0.087 C  
BRANCH  18  20
HETATM   20  C   UNL     1      -7.260  15.738  68.314  1.00  0.00    -0.118 C  
BRANCH  20  21
HETATM   21  C   UNL     1      -7.158  16.404  66.949  1.00  0.00    -0.256 C  
BRANCH  21  22
HETATM   22  C   UNL     1      -8.248  17.424  66.773  1.00  0.00    -0.249 C  
HETATM   23  O   UNL     1      -8.219  18.380  66.014  1.00  0.00    -0.473 OA 
BRANCH  22  24
HETATM   24  O   UNL     1      -9.208  17.196  67.710  1.00  0.00    -0.235 OA 
BRANCH  24  25
HETATM   25  C   UNL     1     -10.532  17.132  67.155  1.00  0.00    -0.291 C  
BRANCH  25  26
HETATM   26  C   UNL     1     -11.025  15.691  67.376  1.00  0.00    -0.293 C  
BRANCH  26  27
HETATM   27  N   UNL     1     -10.526  14.679  66.440  1.00  0.00    -0.288 NA 
HETATM   28  C   UNL     1     -11.200  13.371  66.572  1.00  0.00    -0.307 C  
HETATM   29  C   UNL     1     -12.650  13.365  66.061  1.00  0.00    -0.296 C  
HETATM   30  O   UNL     1     -12.722  13.793  64.696  1.00  0.00    -0.644 OA 
HETATM   31  C   UNL     1     -12.149  15.096  64.535  1.00  0.00    -0.301 C  
HETATM   32  C   UNL     1     -10.694  15.141  65.040  1.00  0.00    -0.430 C  
ENDBRANCH  26  27
ENDBRANCH  25  26
ENDBRANCH  24  25
ENDBRANCH  22  24
ENDBRANCH  21  22
ENDBRANCH  20  21
ENDBRANCH  18  20
ENDBRANCH  16  17
ENDBRANCH   4  16
ENDBRANCH   2   3
TORSDOF 10
ENDMDL
MODEL      134
REMARK 921   NORMALIZED FREE ENERGY PREDICTED BY IDOCK:   -4.65 KCAL/MOL
REMARK 922        TOTAL FREE ENERGY PREDICTED BY IDOCK:   -8.90 KCAL/MOL
REMARK 923 INTER-LIGAND FREE ENERGY PREDICTED BY IDOCK:   -8.08 KCAL/MOL
REMARK 924 INTRA-LIGAND FREE ENERGY PREDICTED BY IDOCK:   -0.83 KCAL/MOL
REMARK 927      BINDING AFFINITY PREDICTED BY RF-SCORE:    0.00 PKD
ROOT
HETATM    1  C   UNL     1     -10.945  19.767  67.182  1.00  0.00    -0.229 C  
HETATM    2  O   UNL     1      -9.946  19.710  68.198  1.00  0.00    -0.385 OA 
ENDROOT
BRANCH   2   3
HETATM    3  C   UNL     1      -9.029  18.682  68.117  1.00  0.00    -0.310 A  
HETATM    4  C   UNL     1      -9.304  17.341  68.537  1.00  0.00    -0.276 A  
HETATM    5  C   UNL     1      -8.308  16.364  68.304  1.00  0.00    -0.189 A  
HETATM    6  C   UNL     1      -6.905  18.008  67.207  1.00  0.00    -0.203 A  
HETATM    7  O   UNL     1      -8.390  15.081  68.751  1.00  0.00    -0.155 OA 
HETATM    8  C   UNL     1      -7.827  19.021  67.447  1.00  0.00    -0.263 A  
HETATM    9  C   UNL     1      -7.149  16.716  67.625  1.00  0.00    -0.157 A  
HETATM   10  C   UNL     1      -6.027  15.869  67.212  1.00  0.00    -0.021 C  
HETATM   11  C   UNL     1      -7.549  20.436  67.020  1.00  0.00    -0.360 C  
HETATM   12  H   UNL     1      -7.722  14.425  68.594  1.00  0.00     0.000 HD 
HETATM   13  O   UNL     1      -5.130  16.695  66.575  1.00  0.00    -0.353 OA 
HETATM   14  C   UNL     1      -5.581  18.058  66.546  1.00  0.00    -0.162 C  
HETATM   15  O   UNL     1      -5.882  14.669  67.344  1.00  0.00    -0.342 OA 
BRANCH   4  16
HETATM   16  C   UNL     1     -10.594  17.067  69.284  1.00  0.00    -0.276 C  
BRANCH  16  17
HETATM   17  C   UNL     1     -11.288  15.755  69.115  1.00  0.00    -0.349 C  
HETATM   18  C   UNL     1     -11.701  14.928  70.095  1.00  0.00    -0.340 C  
HETATM   19  C   UNL     1     -11.591  15.208  71.571  1.00  0.00    -0.443 C  
BRANCH  18  20
HETATM   20  C   UNL     1     -12.308  13.598  69.722  1.00  0.00    -0.285 C  
BRANCH  20  21
HETATM   21  C   UNL     1     -11.719  13.090  68.414  1.00  0.00    -0.386 C  
BRANCH  21  22
HETATM   22  C   UNL     1     -10.502  12.247  68.673  1.00  0.00    -0.208 C  
HETATM   23  O   UNL     1      -9.469  12.262  68.022  1.00  0.00    -0.193 OA 
BRANCH  22  24
HETATM   24  O   UNL     1     -10.796  11.354  69.656  1.00  0.00    -0.173 OA 
BRANCH  24  25
HETATM   25  C   UNL     1     -11.194  10.070  69.149  1.00  0.00    -0.149 C  
BRANCH  25  26
HETATM   26  C   UNL     1     -10.927   9.057  70.277  1.00  0.00    -0.244 C  
BRANCH  26  27
HETATM   27  N   UNL     1     -12.082   8.293  70.756  1.00  0.00    -0.140 NA 
HETATM   28  C   UNL     1     -12.041   6.865  70.380  1.00  0.00    -0.196 C  
HETATM   29  C   UNL     1     -10.981   6.052  71.141  1.00  0.00    -0.278 C  
HETATM   30  O   UNL     1     -11.162   6.158  72.558  1.00  0.00    -0.260 OA 
HETATM   31  C   UNL     1     -11.129   7.527  72.980  1.00  0.00    -0.362 C  
HETATM   32  C   UNL     1     -12.179   8.373  72.235  1.00  0.00    -0.387 C  
ENDBRANCH  26  27
ENDBRANCH  25  26
ENDBRANCH  24  25
ENDBRANCH  22  24
ENDBRANCH  21  22
ENDBRANCH  20  21
ENDBRANCH  18  20
ENDBRANCH  16  17
ENDBRANCH   4  16
ENDBRANCH   2   3
TORSDOF 10
ENDMDL
MODEL      135
REMARK 921   NORMALIZED FREE ENERGY PREDICTED BY IDOCK:   -4.64 KCAL/MOL
REMARK 922        TOTAL FREE ENERGY PREDICTED BY IDOCK:   -8.90 KCAL/MOL
REMARK 923 INTER-LIGAND FREE ENERGY PREDICTED BY IDOCK:   -8.00 KCAL/MOL
REMARK 924 INTRA-LIGAND FREE ENERGY PREDICTED BY IDOCK:   -0.90 KCAL/MOL
REMARK 927      BINDING AFFINITY PREDICTED BY RF-SCORE:    0.00 PKD
ROOT
HETATM    1  C   UNL     1     -11.532  12.214  69.384  1.00  0.00    -0.290 C  
HETATM    2  O   UNL     1     -10.332  12.587  68.708  1.00  0.00    -0.204 OA 
ENDROOT
BRANCH   2   3
HETATM    3  C   UNL     1     -10.460  13.444  67.635  1.00  0.00    -0.241 A  
HETATM    4  C   UNL     1     -11.046  13.066  66.385  1.00  0.00    -0.313 A  
HETATM    5  C   UNL     1     -11.205  14.072  65.404  1.00  0.00    -0.319 A  
HETATM    6  C   UNL     1     -10.315  15.738  66.923  1.00  0.00    -0.295 A  
HETATM    7  O   UNL     1     -11.642  13.830  64.138  1.00  0.00    -0.496 OA 
HETATM    8  C   UNL     1     -10.093  14.786  67.910  1.00  0.00    -0.221 A  
HETATM    9  C   UNL     1     -10.861  15.383  65.706  1.00  0.00    -0.349 A  
HETATM   10  C   UNL     1     -11.003  16.589  64.885  1.00  0.00    -0.209 C  
HETATM   11  C   UNL     1      -9.471  15.166  69.225  1.00  0.00    -0.212 C  
HETATM   12  H   UNL     1     -11.749  14.506  63.479  1.00  0.00     0.000 HD 
HETATM   13  O   UNL     1     -10.513  17.631  65.637  1.00  0.00    -0.606 OA 
HETATM   14  C   UNL     1     -10.034  17.193  66.918  1.00  0.00    -0.288 C  
HETATM   15  O   UNL     1     -11.485  16.708  63.776  1.00  0.00    -1.015 OA 
BRANCH   4  16
HETATM   16  C   UNL     1     -11.372  11.604  66.152  1.00  0.00    -0.275 C  
BRANCH  16  17
HETATM   17  C   UNL     1     -10.271  10.626  65.901  1.00  0.00    -0.314 C  
HETATM   18  C   UNL     1      -9.691  10.350  64.717  1.00  0.00    -0.383 C  
HETATM   19  C   UNL     1     -10.010  11.034  63.414  1.00  0.00    -0.428 C  
BRANCH  18  20
HETATM   20  C   UNL     1      -8.648   9.262  64.649  1.00  0.00    -0.209 C  
BRANCH  20  21
HETATM   21  C   UNL     1      -7.255   9.865  64.528  1.00  0.00    -0.137 C  
BRANCH  21  22
HETATM   22  C   UNL     1      -6.700  10.193  65.886  1.00  0.00    -0.107 C  
HETATM   23  O   UNL     1      -6.966  11.185  66.547  1.00  0.00    -0.138 OA 
BRANCH  22  24
HETATM   24  O   UNL     1      -5.734   9.285  66.190  1.00  0.00    -0.048 OA 
BRANCH  24  25
HETATM   25  C   UNL     1      -6.265   8.040  66.671  1.00  0.00    -0.054 C  
BRANCH  25  26
HETATM   26  C   UNL     1      -6.956   8.353  68.010  1.00  0.00    -0.081 C  
BRANCH  26  27
HETATM   27  N   UNL     1      -8.281   7.759  68.216  1.00  0.00    -0.123 NA 
HETATM   28  C   UNL     1      -8.233   6.357  68.677  1.00  0.00    -0.121 C  
HETATM   29  C   UNL     1      -7.755   6.196  70.130  1.00  0.00    -0.097 C  
HETATM   30  O   UNL     1      -8.567   6.958  71.031  1.00  0.00    -0.133 OA 
HETATM   31  C   UNL     1      -8.579   8.344  70.667  1.00  0.00    -0.141 C  
HETATM   32  C   UNL     1      -9.050   8.542  69.215  1.00  0.00    -0.153 C  
ENDBRANCH  26  27
ENDBRANCH  25  26
ENDBRANCH  24  25
ENDBRANCH  22  24
ENDBRANCH  21  22
ENDBRANCH  20  21
ENDBRANCH  18  20
ENDBRANCH  16  17
ENDBRANCH   4  16
ENDBRANCH   2   3
TORSDOF 10
ENDMDL
MODEL      136
REMARK 921   NORMALIZED FREE ENERGY PREDICTED BY IDOCK:   -4.63 KCAL/MOL
REMARK 922        TOTAL FREE ENERGY PREDICTED BY IDOCK:   -8.88 KCAL/MOL
REMARK 923 INTER-LIGAND FREE ENERGY PREDICTED BY IDOCK:   -8.04 KCAL/MOL
REMARK 924 INTRA-LIGAND FREE ENERGY PREDICTED BY IDOCK:   -0.83 KCAL/MOL
REMARK 927      BINDING AFFINITY PREDICTED BY RF-SCORE:    0.00 PKD
ROOT
HETATM    1  C   UNL     1     -13.026   7.228  71.299  1.00  0.00    -0.328 C  
HETATM    2  O   UNL     1     -11.617   7.422  71.203  1.00  0.00    -0.271 OA 
ENDROOT
BRANCH   2   3
HETATM    3  C   UNL     1     -10.842   6.296  71.016  1.00  0.00    -0.271 A  
HETATM    4  C   UNL     1     -10.510   5.770  69.726  1.00  0.00    -0.363 A  
HETATM    5  C   UNL     1      -9.624   4.669  69.676  1.00  0.00    -0.192 A  
HETATM    6  C   UNL     1      -9.374   4.718  72.086  1.00  0.00    -0.171 A  
HETATM    7  O   UNL     1      -9.313   4.002  68.531  1.00  0.00    -0.139 OA 
HETATM    8  C   UNL     1     -10.273   5.772  72.204  1.00  0.00    -0.240 A  
HETATM    9  C   UNL     1      -9.061   4.188  70.851  1.00  0.00    -0.180 A  
HETATM   10  C   UNL     1      -8.076   3.119  71.034  1.00  0.00    -0.057 C  
HETATM   11  C   UNL     1     -10.638   6.330  73.551  1.00  0.00    -0.288 C  
HETATM   12  H   UNL     1      -8.718   3.262  68.497  1.00  0.00     0.000 HD 
HETATM   13  O   UNL     1      -7.848   3.028  72.388  1.00  0.00    -0.056 OA 
HETATM   14  C   UNL     1      -8.636   3.971  73.131  1.00  0.00    -0.092 C  
HETATM   15  O   UNL     1      -7.513   2.444  70.195  1.00  0.00    -0.042 OA 
BRANCH   4  16
HETATM   16  C   UNL     1     -11.193   6.359  68.507  1.00  0.00    -0.321 C  
BRANCH  16  17
HETATM   17  C   UNL     1     -10.644   7.593  67.869  1.00  0.00    -0.233 C  
HETATM   18  C   UNL     1      -9.708   7.654  66.903  1.00  0.00    -0.277 C  
HETATM   19  C   UNL     1      -9.075   6.465  66.231  1.00  0.00    -0.167 C  
BRANCH  18  20
HETATM   20  C   UNL     1      -9.217   9.006  66.444  1.00  0.00    -0.239 C  
BRANCH  20  21
HETATM   21  C   UNL     1      -9.878  10.115  67.251  1.00  0.00    -0.226 C  
BRANCH  21  22
HETATM   22  C   UNL     1     -10.727  10.982  66.365  1.00  0.00    -0.227 C  
HETATM   23  O   UNL     1     -10.582  11.135  65.162  1.00  0.00    -0.284 OA 
BRANCH  22  24
HETATM   24  O   UNL     1     -11.587  11.689  67.146  1.00  0.00    -0.491 OA 
BRANCH  24  25
HETATM   25  C   UNL     1     -11.983  12.939  66.559  1.00  0.00    -0.377 C  
BRANCH  25  26
HETATM   26  C   UNL     1     -11.040  14.008  67.141  1.00  0.00    -0.303 C  
BRANCH  26  27
HETATM   27  N   UNL     1      -9.922  14.426  66.290  1.00  0.00    -0.294 NA 
HETATM   28  C   UNL     1     -10.256  14.460  64.851  1.00  0.00    -0.324 C  
HETATM   29  C   UNL     1     -11.198  15.609  64.459  1.00  0.00    -0.325 C  
HETATM   30  O   UNL     1     -10.657  16.878  64.843  1.00  0.00    -0.702 OA 
HETATM   31  C   UNL     1     -10.391  16.920  66.250  1.00  0.00    -0.308 C  
HETATM   32  C   UNL     1      -9.451  15.778  66.681  1.00  0.00    -0.257 C  
ENDBRANCH  26  27
ENDBRANCH  25  26
ENDBRANCH  24  25
ENDBRANCH  22  24
ENDBRANCH  21  22
ENDBRANCH  20  21
ENDBRANCH  18  20
ENDBRANCH  16  17
ENDBRANCH   4  16
ENDBRANCH   2   3
TORSDOF 10
ENDMDL
MODEL      137
REMARK 921   NORMALIZED FREE ENERGY PREDICTED BY IDOCK:   -4.59 KCAL/MOL
REMARK 922        TOTAL FREE ENERGY PREDICTED BY IDOCK:   -8.81 KCAL/MOL
REMARK 923 INTER-LIGAND FREE ENERGY PREDICTED BY IDOCK:   -8.25 KCAL/MOL
REMARK 924 INTRA-LIGAND FREE ENERGY PREDICTED BY IDOCK:   -0.56 KCAL/MOL
REMARK 927      BINDING AFFINITY PREDICTED BY RF-SCORE:    0.00 PKD
ROOT
HETATM    1  C   UNL     1     -12.306  12.476  64.891  1.00  0.00    -0.470 C  
HETATM    2  O   UNL     1     -11.146  12.632  65.706  1.00  0.00    -0.282 OA 
ENDROOT
BRANCH   2   3
HETATM    3  C   UNL     1     -11.246  13.496  66.778  1.00  0.00    -0.310 A  
HETATM    4  C   UNL     1     -11.639  13.084  68.091  1.00  0.00    -0.379 A  
HETATM    5  C   UNL     1     -11.603  14.053  69.120  1.00  0.00    -0.313 A  
HETATM    6  C   UNL     1     -10.734  15.707  67.576  1.00  0.00    -0.303 A  
HETATM    7  O   UNL     1     -12.054  13.830  70.385  1.00  0.00    -0.322 OA 
HETATM    8  C   UNL     1     -10.789  14.812  66.514  1.00  0.00    -0.319 A  
HETATM    9  C   UNL     1     -11.128  15.329  68.843  1.00  0.00    -0.269 A  
HETATM   10  C   UNL     1     -10.934  16.461  69.753  1.00  0.00    -0.341 C  
HETATM   11  C   UNL     1     -10.388  15.231  65.127  1.00  0.00    -0.413 C  
HETATM   12  H   UNL     1     -12.030  14.481  71.076  1.00  0.00     0.000 HD 
HETATM   13  O   UNL     1     -10.446  17.495  68.989  1.00  0.00    -0.350 OA 
HETATM   14  C   UNL     1     -10.312  17.127  67.607  1.00  0.00    -0.344 C  
HETATM   15  O   UNL     1     -11.113  16.519  70.954  1.00  0.00    -0.217 OA 
BRANCH   4  16
HETATM   16  C   UNL     1     -12.155  11.672  68.282  1.00  0.00    -0.067 C  
BRANCH  16  17
HETATM   17  C   UNL     1     -11.353  10.685  69.066  1.00  0.00    -0.340 C  
HETATM   18  C   UNL     1     -11.546  10.325  70.349  1.00  0.00    -0.411 C  
HETATM   19  C   UNL     1     -12.667  10.814  71.229  1.00  0.00    -0.546 C  
BRANCH  18  20
HETATM   20  C   UNL     1     -10.572   9.372  70.997  1.00  0.00    -0.400 C  
BRANCH  20  21
HETATM   21  C   UNL     1     -10.587   8.026  70.283  1.00  0.00    -0.231 C  
BRANCH  21  22
HETATM   22  C   UNL     1     -11.681   7.150  70.827  1.00  0.00    -0.323 C  
HETATM   23  O   UNL     1     -12.791   7.523  71.172  1.00  0.00    -0.302 OA 
BRANCH  22  24
HETATM   24  O   UNL     1     -11.180   5.900  71.016  1.00  0.00    -0.279 OA 
BRANCH  24  25
HETATM   25  C   UNL     1      -9.754   5.886  71.195  1.00  0.00    -0.174 C  
BRANCH  25  26
HETATM   26  C   UNL     1      -9.284   4.470  70.817  1.00  0.00    -0.139 C  
BRANCH  26  27
HETATM   27  N   UNL     1      -9.204   4.169  69.385  1.00  0.00    -0.127 NA 
HETATM   28  C   UNL     1      -8.468   5.187  68.608  1.00  0.00    -0.088 C  
HETATM   29  C   UNL     1      -6.951   5.184  68.861  1.00  0.00    -0.052 C  
HETATM   30  O   UNL     1      -6.383   3.896  68.600  1.00  0.00    -0.031 OA 
HETATM   31  C   UNL     1      -7.016   2.884  69.393  1.00  0.00    -0.041 C  
HETATM   32  C   UNL     1      -8.539   2.860  69.167  1.00  0.00    -0.073 C  
ENDBRANCH  26  27
ENDBRANCH  25  26
ENDBRANCH  24  25
ENDBRANCH  22  24
ENDBRANCH  21  22
ENDBRANCH  20  21
ENDBRANCH  18  20
ENDBRANCH  16  17
ENDBRANCH   4  16
ENDBRANCH   2   3
TORSDOF 10
ENDMDL
MODEL      138
REMARK 921   NORMALIZED FREE ENERGY PREDICTED BY IDOCK:   -4.59 KCAL/MOL
REMARK 922        TOTAL FREE ENERGY PREDICTED BY IDOCK:   -8.81 KCAL/MOL
REMARK 923 INTER-LIGAND FREE ENERGY PREDICTED BY IDOCK:   -7.97 KCAL/MOL
REMARK 924 INTRA-LIGAND FREE ENERGY PREDICTED BY IDOCK:   -0.84 KCAL/MOL
REMARK 927      BINDING AFFINITY PREDICTED BY RF-SCORE:    0.00 PKD
ROOT
HETATM    1  C   UNL     1      -8.019   8.502  64.838  1.00  0.00    -0.137 C  
HETATM    2  O   UNL     1      -7.841   9.903  64.641  1.00  0.00    -0.130 OA 
ENDROOT
BRANCH   2   3
HETATM    3  C   UNL     1      -8.917  10.717  64.930  1.00  0.00    -0.199 A  
HETATM    4  C   UNL     1      -9.058  11.433  66.162  1.00  0.00    -0.217 A  
HETATM    5  C   UNL     1     -10.160  12.310  66.287  1.00  0.00    -0.234 A  
HETATM    6  C   UNL     1     -10.853  11.817  64.018  1.00  0.00    -0.446 A  
HETATM    7  O   UNL     1     -10.478  12.964  67.438  1.00  0.00    -0.231 OA 
HETATM    8  C   UNL     1      -9.814  10.908  63.850  1.00  0.00    -0.385 A  
HETATM    9  C   UNL     1     -11.012  12.498  65.207  1.00  0.00    -0.329 A  
HETATM   10  C   UNL     1     -12.162  13.399  65.082  1.00  0.00    -0.434 C  
HETATM   11  C   UNL     1      -9.657  10.142  62.566  1.00  0.00    -0.178 C  
HETATM   12  H   UNL     1     -11.218  13.553  67.522  1.00  0.00     0.000 HD 
HETATM   13  O   UNL     1     -12.670  13.207  63.818  1.00  0.00    -0.688 OA 
HETATM   14  C   UNL     1     -11.932  12.216  63.086  1.00  0.00    -0.236 C  
HETATM   15  O   UNL     1     -12.598  14.201  65.884  1.00  0.00    -0.486 OA 
BRANCH   4  16
HETATM   16  C   UNL     1      -8.081  11.141  67.284  1.00  0.00    -0.137 C  
BRANCH  16  17
HETATM   17  C   UNL     1      -8.591  10.729  68.627  1.00  0.00    -0.151 C  
HETATM   18  C   UNL     1      -9.214   9.576  68.934  1.00  0.00    -0.145 C  
HETATM   19  C   UNL     1      -9.462   8.440  67.976  1.00  0.00    -0.157 C  
BRANCH  18  20
HETATM   20  C   UNL     1      -9.736   9.377  70.336  1.00  0.00    -0.315 C  
BRANCH  20  21
HETATM   21  C   UNL     1     -11.025  10.161  70.542  1.00  0.00    -0.380 C  
BRANCH  21  22
HETATM   22  C   UNL     1     -12.184   9.228  70.755  1.00  0.00    -0.134 C  
HETATM   23  O   UNL     1     -13.328   9.559  71.026  1.00  0.00    -0.293 OA 
BRANCH  22  24
HETATM   24  O   UNL     1     -11.718   7.951  70.750  1.00  0.00    -0.284 OA 
BRANCH  24  25
HETATM   25  C   UNL     1     -12.261   7.149  71.811  1.00  0.00    -0.344 C  
BRANCH  25  26
HETATM   26  C   UNL     1     -11.326   7.340  73.019  1.00  0.00    -0.201 C  
BRANCH  26  27
HETATM   27  N   UNL     1     -10.686   6.132  73.548  1.00  0.00    -0.263 NA 
HETATM   28  C   UNL     1     -10.161   5.235  72.499  1.00  0.00    -0.191 C  
HETATM   29  C   UNL     1      -8.915   5.780  71.783  1.00  0.00    -0.139 C  
HETATM   30  O   UNL     1      -7.867   6.073  72.714  1.00  0.00    -0.105 OA 
HETATM   31  C   UNL     1      -8.309   7.005  73.709  1.00  0.00    -0.134 C  
HETATM   32  C   UNL     1      -9.561   6.493  74.446  1.00  0.00    -0.273 C  
ENDBRANCH  26  27
ENDBRANCH  25  26
ENDBRANCH  24  25
ENDBRANCH  22  24
ENDBRANCH  21  22
ENDBRANCH  20  21
ENDBRANCH  18  20
ENDBRANCH  16  17
ENDBRANCH   4  16
ENDBRANCH   2   3
TORSDOF 10
ENDMDL
MODEL      139
REMARK 921   NORMALIZED FREE ENERGY PREDICTED BY IDOCK:   -4.58 KCAL/MOL
REMARK 922        TOTAL FREE ENERGY PREDICTED BY IDOCK:   -8.80 KCAL/MOL
REMARK 923 INTER-LIGAND FREE ENERGY PREDICTED BY IDOCK:   -7.63 KCAL/MOL
REMARK 924 INTRA-LIGAND FREE ENERGY PREDICTED BY IDOCK:   -1.17 KCAL/MOL
REMARK 927      BINDING AFFINITY PREDICTED BY RF-SCORE:    0.00 PKD
ROOT
HETATM    1  C   UNL     1      -9.221  11.067  64.582  1.00  0.00    -0.168 C  
HETATM    2  O   UNL     1     -10.542  10.797  65.044  1.00  0.00    -0.268 OA 
ENDROOT
BRANCH   2   3
HETATM    3  C   UNL     1     -10.736  10.779  66.410  1.00  0.00    -0.163 A  
HETATM    4  C   UNL     1     -11.340  11.854  67.137  1.00  0.00    -0.393 A  
HETATM    5  C   UNL     1     -11.568  11.663  68.520  1.00  0.00    -0.317 A  
HETATM    6  C   UNL     1     -10.707   9.401  68.383  1.00  0.00    -0.213 A  
HETATM    7  O   UNL     1     -12.030  12.637  69.351  1.00  0.00    -0.301 OA 
HETATM    8  C   UNL     1     -10.418   9.545  67.031  1.00  0.00    -0.302 A  
HETATM    9  C   UNL     1     -11.271  10.436  69.100  1.00  0.00    -0.301 A  
HETATM   10  C   UNL     1     -11.487   9.990  70.479  1.00  0.00    -0.330 C  
HETATM   11  C   UNL     1      -9.776   8.429  66.255  1.00  0.00    -0.278 C  
HETATM   12  H   UNL     1     -12.183  12.509  70.279  1.00  0.00     0.000 HD 
HETATM   13  O   UNL     1     -11.020   8.697  70.547  1.00  0.00    -0.231 OA 
HETATM   14  C   UNL     1     -10.488   8.251  69.290  1.00  0.00    -0.210 C  
HETATM   15  O   UNL     1     -12.004  10.583  71.405  1.00  0.00    -0.330 OA 
BRANCH   4  16
HETATM   16  C   UNL     1     -11.610  13.157  66.411  1.00  0.00    -0.394 C  
BRANCH  16  17
HETATM   17  C   UNL     1     -11.194  14.453  67.027  1.00  0.00    -0.336 C  
HETATM   18  C   UNL     1     -10.870  15.587  66.378  1.00  0.00    -0.277 C  
HETATM   19  C   UNL     1     -10.928  15.781  64.886  1.00  0.00    -0.443 C  
BRANCH  18  20
HETATM   20  C   UNL     1     -10.388  16.774  67.176  1.00  0.00    -0.297 C  
BRANCH  20  21
HETATM   21  C   UNL     1      -8.965  16.544  67.668  1.00  0.00    -0.198 C  
BRANCH  21  22
HETATM   22  C   UNL     1      -7.974  16.818  66.571  1.00  0.00    -0.299 C  
HETATM   23  O   UNL     1      -8.123  17.610  65.654  1.00  0.00    -0.518 OA 
BRANCH  22  24
HETATM   24  O   UNL     1      -6.952  15.929  66.680  1.00  0.00    -0.203 OA 
BRANCH  24  25
HETATM   25  C   UNL     1      -6.719  15.501  68.032  1.00  0.00    -0.140 C  
BRANCH  25  26
HETATM   26  C   UNL     1      -6.333  14.013  67.955  1.00  0.00    -0.161 C  
BRANCH  26  27
HETATM   27  N   UNL     1      -6.968  13.121  68.930  1.00  0.00    -0.103 NA 
HETATM   28  C   UNL     1      -7.828  12.090  68.313  1.00  0.00    -0.145 C  
HETATM   29  C   UNL     1      -7.048  10.992  67.572  1.00  0.00    -0.091 C  
HETATM   30  O   UNL     1      -6.099  10.355  68.436  1.00  0.00    -0.044 OA 
HETATM   31  C   UNL     1      -5.191  11.311  68.997  1.00  0.00    -0.040 C  
HETATM   32  C   UNL     1      -5.939  12.429  69.746  1.00  0.00    -0.136 C  
ENDBRANCH  26  27
ENDBRANCH  25  26
ENDBRANCH  24  25
ENDBRANCH  22  24
ENDBRANCH  21  22
ENDBRANCH  20  21
ENDBRANCH  18  20
ENDBRANCH  16  17
ENDBRANCH   4  16
ENDBRANCH   2   3
TORSDOF 10
ENDMDL
MODEL      140
REMARK 921   NORMALIZED FREE ENERGY PREDICTED BY IDOCK:   -4.58 KCAL/MOL
REMARK 922        TOTAL FREE ENERGY PREDICTED BY IDOCK:   -8.79 KCAL/MOL
REMARK 923 INTER-LIGAND FREE ENERGY PREDICTED BY IDOCK:   -8.45 KCAL/MOL
REMARK 924 INTRA-LIGAND FREE ENERGY PREDICTED BY IDOCK:   -0.35 KCAL/MOL
REMARK 927      BINDING AFFINITY PREDICTED BY RF-SCORE:    0.00 PKD
ROOT
HETATM    1  C   UNL     1      -9.097  15.531  68.711  1.00  0.00    -0.207 C  
HETATM    2  O   UNL     1     -10.428  15.280  68.263  1.00  0.00    -0.237 OA 
ENDROOT
BRANCH   2   3
HETATM    3  C   UNL     1     -11.187  14.407  69.015  1.00  0.00    -0.264 A  
HETATM    4  C   UNL     1     -11.286  13.006  68.741  1.00  0.00    -0.325 A  
HETATM    5  C   UNL     1     -12.018  12.210  69.651  1.00  0.00    -0.284 A  
HETATM    6  C   UNL     1     -12.427  14.139  71.060  1.00  0.00    -0.438 A  
HETATM    7  O   UNL     1     -12.286  10.890  69.455  1.00  0.00    -0.491 OA 
HETATM    8  C   UNL     1     -11.756  14.981  70.180  1.00  0.00    -0.340 A  
HETATM    9  C   UNL     1     -12.547  12.790  70.797  1.00  0.00    -0.308 A  
HETATM   10  C   UNL     1     -13.270  12.158  71.904  1.00  0.00    -0.369 C  
HETATM   11  C   UNL     1     -11.651  16.456  70.450  1.00  0.00    -0.058 C  
HETATM   12  H   UNL     1     -12.778  10.355  70.066  1.00  0.00     0.000 HD 
HETATM   13  O   UNL     1     -13.581  13.163  72.790  1.00  0.00    -0.598 OA 
HETATM   14  C   UNL     1     -13.117  14.444  72.334  1.00  0.00    -0.415 C  
HETATM   15  O   UNL     1     -13.535  10.984  72.076  1.00  0.00    -0.378 OA 
BRANCH   4  16
HETATM   16  C   UNL     1     -10.686  12.477  67.453  1.00  0.00    -0.254 C  
BRANCH  16  17
HETATM   17  C   UNL     1     -10.710  11.011  67.167  1.00  0.00    -0.313 C  
HETATM   18  C   UNL     1      -9.704  10.135  67.353  1.00  0.00    -0.192 C  
HETATM   19  C   UNL     1      -8.362  10.468  67.950  1.00  0.00    -0.115 C  
BRANCH  18  20
HETATM   20  C   UNL     1      -9.892   8.702  66.921  1.00  0.00    -0.305 C  
BRANCH  20  21
HETATM   21  C   UNL     1     -10.705   7.935  67.956  1.00  0.00    -0.119 C  
BRANCH  21  22
HETATM   22  C   UNL     1     -10.845   6.493  67.557  1.00  0.00    -0.352 C  
HETATM   23  O   UNL     1     -11.138   6.083  66.445  1.00  0.00    -0.124 OA 
BRANCH  22  24
HETATM   24  O   UNL     1     -10.744   5.723  68.674  1.00  0.00    -0.246 OA 
BRANCH  24  25
HETATM   25  C   UNL     1     -11.382   6.309  69.821  1.00  0.00    -0.436 C  
BRANCH  25  26
HETATM   26  C   UNL     1     -10.772   5.621  71.054  1.00  0.00    -0.234 C  
BRANCH  26  27
HETATM   27  N   UNL     1      -9.564   6.235  71.614  1.00  0.00    -0.155 NA 
HETATM   28  C   UNL     1      -9.845   7.328  72.567  1.00  0.00    -0.159 C  
HETATM   29  C   UNL     1     -10.421   6.849  73.909  1.00  0.00    -0.318 C  
HETATM   30  O   UNL     1      -9.557   5.893  74.535  1.00  0.00    -0.165 OA 
HETATM   31  C   UNL     1      -9.320   4.773  73.674  1.00  0.00    -0.125 C  
HETATM   32  C   UNL     1      -8.743   5.216  72.316  1.00  0.00    -0.125 C  
ENDBRANCH  26  27
ENDBRANCH  25  26
ENDBRANCH  24  25
ENDBRANCH  22  24
ENDBRANCH  21  22
ENDBRANCH  20  21
ENDBRANCH  18  20
ENDBRANCH  16  17
ENDBRANCH   4  16
ENDBRANCH   2   3
TORSDOF 10
ENDMDL
MODEL      141
REMARK 921   NORMALIZED FREE ENERGY PREDICTED BY IDOCK:   -4.55 KCAL/MOL
REMARK 922        TOTAL FREE ENERGY PREDICTED BY IDOCK:   -8.75 KCAL/MOL
REMARK 923 INTER-LIGAND FREE ENERGY PREDICTED BY IDOCK:   -7.88 KCAL/MOL
REMARK 924 INTRA-LIGAND FREE ENERGY PREDICTED BY IDOCK:   -0.87 KCAL/MOL
REMARK 927      BINDING AFFINITY PREDICTED BY RF-SCORE:    0.00 PKD
ROOT
HETATM    1  C   UNL     1     -12.648   7.794  71.397  1.00  0.00    -0.317 C  
HETATM    2  O   UNL     1     -11.226   7.692  71.378  1.00  0.00    -0.241 OA 
ENDROOT
BRANCH   2   3
HETATM    3  C   UNL     1     -10.690   6.420  71.366  1.00  0.00    -0.245 A  
HETATM    4  C   UNL     1     -10.509   5.651  70.173  1.00  0.00    -0.366 A  
HETATM    5  C   UNL     1      -9.855   4.402  70.292  1.00  0.00    -0.214 A  
HETATM    6  C   UNL     1      -9.522   4.766  72.665  1.00  0.00    -0.159 A  
HETATM    7  O   UNL     1      -9.716   3.521  69.264  1.00  0.00    -0.143 OA 
HETATM    8  C   UNL     1     -10.195   5.982  72.619  1.00  0.00    -0.205 A  
HETATM    9  C   UNL     1      -9.358   4.004  71.526  1.00  0.00    -0.207 A  
HETATM   10  C   UNL     1      -8.593   2.803  71.871  1.00  0.00    -0.072 C  
HETATM   11  C   UNL     1     -10.402   6.798  73.864  1.00  0.00    -0.397 C  
HETATM   12  H   UNL     1      -9.278   2.682  69.344  1.00  0.00     0.000 HD 
HETATM   13  O   UNL     1      -8.343   2.875  73.222  1.00  0.00    -0.073 OA 
HETATM   14  C   UNL     1      -8.909   4.056  73.811  1.00  0.00    -0.093 C  
HETATM   15  O   UNL     1      -8.199   1.910  71.146  1.00  0.00    -0.046 OA 
BRANCH   4  16
HETATM   16  C   UNL     1     -11.104   6.169  68.879  1.00  0.00    -0.417 C  
BRANCH  16  17
HETATM   17  C   UNL     1     -10.257   6.957  67.933  1.00  0.00    -0.212 C  
HETATM   18  C   UNL     1      -9.692   6.512  66.794  1.00  0.00    -0.208 C  
HETATM   19  C   UNL     1      -9.862   5.129  66.223  1.00  0.00    -0.209 C  
BRANCH  18  20
HETATM   20  C   UNL     1      -8.793   7.439  66.013  1.00  0.00    -0.173 C  
BRANCH  20  21
HETATM   21  C   UNL     1      -9.386   8.841  65.965  1.00  0.00    -0.296 C  
BRANCH  21  22
HETATM   22  C   UNL     1      -8.972   9.549  64.705  1.00  0.00    -0.218 C  
HETATM   23  O   UNL     1      -8.541   9.017  63.694  1.00  0.00    -0.192 OA 
BRANCH  22  24
HETATM   24  O   UNL     1      -9.010  10.890  64.930  1.00  0.00    -0.193 OA 
BRANCH  24  25
HETATM   25  C   UNL     1      -9.751  11.242  66.109  1.00  0.00    -0.220 C  
BRANCH  25  26
HETATM   26  C   UNL     1      -9.866  12.777  66.105  1.00  0.00    -0.267 C  
BRANCH  26  27
HETATM   27  N   UNL     1     -11.192  13.333  66.389  1.00  0.00    -0.296 NA 
HETATM   28  C   UNL     1     -11.238  14.809  66.334  1.00  0.00    -0.342 C  
HETATM   29  C   UNL     1     -11.122  15.380  64.911  1.00  0.00    -0.423 C  
HETATM   30  O   UNL     1     -12.138  14.848  64.053  1.00  0.00    -0.513 OA 
HETATM   31  C   UNL     1     -12.082  13.417  64.014  1.00  0.00    -0.449 C  
HETATM   32  C   UNL     1     -12.192  12.809  65.425  1.00  0.00    -0.478 C  
ENDBRANCH  26  27
ENDBRANCH  25  26
ENDBRANCH  24  25
ENDBRANCH  22  24
ENDBRANCH  21  22
ENDBRANCH  20  21
ENDBRANCH  18  20
ENDBRANCH  16  17
ENDBRANCH   4  16
ENDBRANCH   2   3
TORSDOF 10
ENDMDL
MODEL      142
REMARK 921   NORMALIZED FREE ENERGY PREDICTED BY IDOCK:   -4.55 KCAL/MOL
REMARK 922        TOTAL FREE ENERGY PREDICTED BY IDOCK:   -8.75 KCAL/MOL
REMARK 923 INTER-LIGAND FREE ENERGY PREDICTED BY IDOCK:   -8.19 KCAL/MOL
REMARK 924 INTRA-LIGAND FREE ENERGY PREDICTED BY IDOCK:   -0.56 KCAL/MOL
REMARK 927      BINDING AFFINITY PREDICTED BY RF-SCORE:    0.00 PKD
ROOT
HETATM    1  C   UNL     1      -6.483   7.044  68.166  1.00  0.00    -0.047 C  
HETATM    2  O   UNL     1      -7.241   8.188  68.552  1.00  0.00    -0.084 OA 
ENDROOT
BRANCH   2   3
HETATM    3  C   UNL     1      -8.367   7.963  69.319  1.00  0.00    -0.136 A  
HETATM    4  C   UNL     1      -9.578   7.404  68.801  1.00  0.00    -0.147 A  
HETATM    5  C   UNL     1     -10.620   7.133  69.718  1.00  0.00    -0.234 A  
HETATM    6  C   UNL     1      -9.231   7.870  71.563  1.00  0.00    -0.171 A  
HETATM    7  O   UNL     1     -11.859   6.708  69.350  1.00  0.00    -0.651 OA 
HETATM    8  C   UNL     1      -8.187   8.197  70.705  1.00  0.00    -0.111 A  
HETATM    9  C   UNL     1     -10.411   7.348  71.074  1.00  0.00    -0.223 A  
HETATM   10  C   UNL     1     -11.307   7.077  72.202  1.00  0.00    -0.265 C  
HETATM   11  C   UNL     1      -6.912   8.794  71.233  1.00  0.00    -0.088 C  
HETATM   12  H   UNL     1     -12.559   6.526  69.965  1.00  0.00     0.000 HD 
HETATM   13  O   UNL     1     -10.635   7.469  73.336  1.00  0.00    -0.375 OA 
HETATM   14  C   UNL     1      -9.337   8.003  73.034  1.00  0.00    -0.275 C  
HETATM   15  O   UNL     1     -12.413   6.572  72.198  1.00  0.00    -0.285 OA 
BRANCH   4  16
HETATM   16  C   UNL     1      -9.708   7.222  67.301  1.00  0.00    -0.204 C  
BRANCH  16  17
HETATM   17  C   UNL     1      -9.443   8.374  66.386  1.00  0.00    -0.293 C  
HETATM   18  C   UNL     1     -10.014   9.592  66.436  1.00  0.00    -0.323 C  
HETATM   19  C   UNL     1     -10.998  10.048  67.481  1.00  0.00    -0.276 C  
BRANCH  18  20
HETATM   20  C   UNL     1      -9.678  10.602  65.366  1.00  0.00    -0.306 C  
BRANCH  20  21
HETATM   21  C   UNL     1     -10.333  11.942  65.672  1.00  0.00    -0.285 C  
BRANCH  21  22
HETATM   22  C   UNL     1     -10.580  12.713  64.405  1.00  0.00    -0.364 C  
HETATM   23  O   UNL     1     -11.035  12.257  63.368  1.00  0.00    -0.441 OA 
BRANCH  22  24
HETATM   24  O   UNL     1     -10.070  13.964  64.554  1.00  0.00    -0.331 OA 
BRANCH  24  25
HETATM   25  C   UNL     1     -11.084  14.979  64.640  1.00  0.00    -0.321 C  
BRANCH  25  26
HETATM   26  C   UNL     1     -10.747  15.824  65.881  1.00  0.00    -0.313 C  
BRANCH  26  27
HETATM   27  N   UNL     1     -10.098  15.123  66.993  1.00  0.00    -0.241 NA 
HETATM   28  C   UNL     1      -8.965  15.867  67.579  1.00  0.00    -0.194 C  
HETATM   29  C   UNL     1      -9.386  17.104  68.390  1.00  0.00    -0.273 C  
HETATM   30  O   UNL     1     -10.305  16.754  69.431  1.00  0.00    -0.302 OA 
HETATM   31  C   UNL     1     -11.462  16.097  68.899  1.00  0.00    -0.331 C  
HETATM   32  C   UNL     1     -11.076  14.853  68.076  1.00  0.00    -0.295 C  
ENDBRANCH  26  27
ENDBRANCH  25  26
ENDBRANCH  24  25
ENDBRANCH  22  24
ENDBRANCH  21  22
ENDBRANCH  20  21
ENDBRANCH  18  20
ENDBRANCH  16  17
ENDBRANCH   4  16
ENDBRANCH   2   3
TORSDOF 10
ENDMDL
MODEL      143
REMARK 921   NORMALIZED FREE ENERGY PREDICTED BY IDOCK:   -4.54 KCAL/MOL
REMARK 922        TOTAL FREE ENERGY PREDICTED BY IDOCK:   -8.73 KCAL/MOL
REMARK 923 INTER-LIGAND FREE ENERGY PREDICTED BY IDOCK:   -7.69 KCAL/MOL
REMARK 924 INTRA-LIGAND FREE ENERGY PREDICTED BY IDOCK:   -1.04 KCAL/MOL
REMARK 927      BINDING AFFINITY PREDICTED BY RF-SCORE:    0.00 PKD
ROOT
HETATM    1  C   UNL     1     -13.982   8.979  72.469  1.00  0.00    -0.401 C  
HETATM    2  O   UNL     1     -13.444   8.303  71.335  1.00  0.00    -0.294 OA 
ENDROOT
BRANCH   2   3
HETATM    3  C   UNL     1     -12.084   8.417  71.125  1.00  0.00    -0.249 A  
HETATM    4  C   UNL     1     -11.465   9.585  70.576  1.00  0.00    -0.337 A  
HETATM    5  C   UNL     1     -10.052   9.607  70.509  1.00  0.00    -0.274 A  
HETATM    6  C   UNL     1      -9.935   7.435  71.578  1.00  0.00    -0.193 A  
HETATM    7  O   UNL     1      -9.340  10.600  69.910  1.00  0.00    -0.374 OA 
HETATM    8  C   UNL     1     -11.321   7.336  71.631  1.00  0.00    -0.285 A  
HETATM    9  C   UNL     1      -9.325   8.546  71.033  1.00  0.00    -0.231 A  
HETATM   10  C   UNL     1      -7.872   8.384  71.139  1.00  0.00    -0.106 C  
HETATM   11  C   UNL     1     -11.987   6.113  72.197  1.00  0.00    -0.314 C  
HETATM   12  H   UNL     1      -8.391  10.615  69.865  1.00  0.00     0.000 HD 
HETATM   13  O   UNL     1      -7.660   7.159  71.729  1.00  0.00    -0.085 OA 
HETATM   14  C   UNL     1      -8.891   6.479  72.016  1.00  0.00    -0.133 C  
HETATM   15  O   UNL     1      -6.989   9.157  70.823  1.00  0.00    -0.075 OA 
BRANCH   4  16
HETATM   16  C   UNL     1     -12.351  10.680  70.018  1.00  0.00    -0.341 C  
BRANCH  16  17
HETATM   17  C   UNL     1     -11.958  12.112  70.181  1.00  0.00    -0.394 C  
HETATM   18  C   UNL     1     -12.428  12.979  71.097  1.00  0.00    -0.364 C  
HETATM   19  C   UNL     1     -13.411  12.643  72.187  1.00  0.00    -0.561 C  
BRANCH  18  20
HETATM   20  C   UNL     1     -11.970  14.417  71.048  1.00  0.00    -0.389 C  
BRANCH  20  21
HETATM   21  C   UNL     1     -12.464  15.090  69.774  1.00  0.00    -0.216 C  
BRANCH  21  22
HETATM   22  C   UNL     1     -11.322  15.734  69.038  1.00  0.00    -0.354 C  
HETATM   23  O   UNL     1     -11.367  16.794  68.434  1.00  0.00    -0.283 OA 
BRANCH  22  24
HETATM   24  O   UNL     1     -10.274  14.867  69.024  1.00  0.00    -0.232 OA 
BRANCH  24  25
HETATM   25  C   UNL     1      -9.659  14.749  67.731  1.00  0.00    -0.209 C  
BRANCH  25  26
HETATM   26  C   UNL     1      -8.668  13.575  67.828  1.00  0.00    -0.189 C  
BRANCH  26  27
HETATM   27  N   UNL     1      -7.259  13.887  67.573  1.00  0.00    -0.177 NA 
HETATM   28  C   UNL     1      -6.770  15.064  68.320  1.00  0.00    -0.114 C  
HETATM   29  C   UNL     1      -6.612  14.820  69.830  1.00  0.00    -0.169 C  
HETATM   30  O   UNL     1      -5.746  13.709  70.088  1.00  0.00    -0.115 OA 
HETATM   31  C   UNL     1      -6.225  12.522  69.446  1.00  0.00    -0.113 C  
HETATM   32  C   UNL     1      -6.399  12.731  67.929  1.00  0.00    -0.118 C  
ENDBRANCH  26  27
ENDBRANCH  25  26
ENDBRANCH  24  25
ENDBRANCH  22  24
ENDBRANCH  21  22
ENDBRANCH  20  21
ENDBRANCH  18  20
ENDBRANCH  16  17
ENDBRANCH   4  16
ENDBRANCH   2   3
TORSDOF 10
ENDMDL
MODEL      144
REMARK 921   NORMALIZED FREE ENERGY PREDICTED BY IDOCK:   -4.54 KCAL/MOL
REMARK 922        TOTAL FREE ENERGY PREDICTED BY IDOCK:   -8.73 KCAL/MOL
REMARK 923 INTER-LIGAND FREE ENERGY PREDICTED BY IDOCK:   -7.87 KCAL/MOL
REMARK 924 INTRA-LIGAND FREE ENERGY PREDICTED BY IDOCK:   -0.86 KCAL/MOL
REMARK 927      BINDING AFFINITY PREDICTED BY RF-SCORE:    0.00 PKD
ROOT
HETATM    1  C   UNL     1     -11.390  15.968  67.410  1.00  0.00     0.003 C  
HETATM    2  O   UNL     1     -10.804  15.407  68.582  1.00  0.00    -0.241 OA 
ENDROOT
BRANCH   2   3
HETATM    3  C   UNL     1     -11.383  14.258  69.083  1.00  0.00    -0.276 A  
HETATM    4  C   UNL     1     -11.312  12.987  68.429  1.00  0.00    -0.326 A  
HETATM    5  C   UNL     1     -11.863  11.872  69.102  1.00  0.00    -0.311 A  
HETATM    6  C   UNL     1     -12.426  13.260  71.008  1.00  0.00    -0.422 A  
HETATM    7  O   UNL     1     -11.965  10.631  68.552  1.00  0.00    -0.743 OA 
HETATM    8  C   UNL     1     -11.940  14.401  70.378  1.00  0.00    -0.395 A  
HETATM    9  C   UNL     1     -12.382  12.032  70.381  1.00  0.00    -0.317 A  
HETATM   10  C   UNL     1     -12.933  11.022  71.288  1.00  0.00    -0.372 C  
HETATM   11  C   UNL     1     -12.015  15.745  71.047  1.00  0.00    -0.462 C  
HETATM   12  H   UNL     1     -12.335   9.883  69.004  1.00  0.00     0.000 HD 
HETATM   13  O   UNL     1     -13.312  11.689  72.429  1.00  0.00    -0.314 OA 
HETATM   14  C   UNL     1     -13.059  13.100  72.337  1.00  0.00    -0.308 C  
HETATM   15  O   UNL     1     -13.024   9.820  71.132  1.00  0.00    -0.350 OA 
BRANCH   4  16
HETATM   16  C   UNL     1     -10.739  12.925  67.027  1.00  0.00    -0.273 C  
BRANCH  16  17
HETATM   17  C   UNL     1     -10.032  11.693  66.565  1.00  0.00    -0.230 C  
HETATM   18  C   UNL     1     -10.245  11.023  65.416  1.00  0.00    -0.333 C  
HETATM   19  C   UNL     1     -11.211  11.435  64.336  1.00  0.00    -0.277 C  
BRANCH  18  20
HETATM   20  C   UNL     1      -9.487   9.742  65.165  1.00  0.00    -0.338 C  
BRANCH  20  21
HETATM   21  C   UNL     1      -8.420   9.953  64.099  1.00  0.00    -0.179 C  
BRANCH  21  22
HETATM   22  C   UNL     1      -7.047   9.912  64.707  1.00  0.00    -0.133 C  
HETATM   23  O   UNL     1      -6.003  10.188  64.138  1.00  0.00    -0.122 OA 
BRANCH  22  24
HETATM   24  O   UNL     1      -7.141   9.367  65.950  1.00  0.00    -0.088 OA 
BRANCH  24  25
HETATM   25  C   UNL     1      -6.166   9.887  66.868  1.00  0.00    -0.064 C  
BRANCH  25  26
HETATM   26  C   UNL     1      -6.579   9.392  68.265  1.00  0.00    -0.058 C  
BRANCH  26  27
HETATM   27  N   UNL     1      -7.146  10.394  69.173  1.00  0.00    -0.071 NA 
HETATM   28  C   UNL     1      -8.487  10.038  69.681  1.00  0.00    -0.180 C  
HETATM   29  C   UNL     1      -8.479   8.884  70.697  1.00  0.00    -0.184 C  
HETATM   30  O   UNL     1      -7.620   9.172  71.805  1.00  0.00    -0.339 OA 
HETATM   31  C   UNL     1      -6.285   9.447  71.364  1.00  0.00    -0.042 C  
HETATM   32  C   UNL     1      -6.254  10.599  70.341  1.00  0.00    -0.129 C  
ENDBRANCH  26  27
ENDBRANCH  25  26
ENDBRANCH  24  25
ENDBRANCH  22  24
ENDBRANCH  21  22
ENDBRANCH  20  21
ENDBRANCH  18  20
ENDBRANCH  16  17
ENDBRANCH   4  16
ENDBRANCH   2   3
TORSDOF 10
ENDMDL
MODEL      145
REMARK 921   NORMALIZED FREE ENERGY PREDICTED BY IDOCK:   -4.53 KCAL/MOL
REMARK 922        TOTAL FREE ENERGY PREDICTED BY IDOCK:   -8.71 KCAL/MOL
REMARK 923 INTER-LIGAND FREE ENERGY PREDICTED BY IDOCK:   -7.83 KCAL/MOL
REMARK 924 INTRA-LIGAND FREE ENERGY PREDICTED BY IDOCK:   -0.88 KCAL/MOL
REMARK 927      BINDING AFFINITY PREDICTED BY RF-SCORE:    0.00 PKD
ROOT
HETATM    1  C   UNL     1     -12.733  12.328  70.862  1.00  0.00    -0.187 C  
HETATM    2  O   UNL     1     -13.006  10.995  70.434  1.00  0.00    -0.201 OA 
ENDROOT
BRANCH   2   3
HETATM    3  C   UNL     1     -11.988  10.073  70.570  1.00  0.00    -0.272 A  
HETATM    4  C   UNL     1     -10.832  10.042  69.727  1.00  0.00    -0.308 A  
HETATM    5  C   UNL     1      -9.817   9.108  70.041  1.00  0.00    -0.193 A  
HETATM    6  C   UNL     1     -11.053   8.371  71.991  1.00  0.00    -0.397 A  
HETATM    7  O   UNL     1      -8.720   8.894  69.263  1.00  0.00    -0.134 OA 
HETATM    8  C   UNL     1     -12.103   9.237  71.709  1.00  0.00    -0.457 A  
HETATM    9  C   UNL     1      -9.941   8.317  71.175  1.00  0.00    -0.230 A  
HETATM   10  C   UNL     1      -8.998   7.344  71.731  1.00  0.00    -0.122 C  
HETATM   11  C   UNL     1     -13.328   9.275  72.579  1.00  0.00    -0.463 C  
HETATM   12  H   UNL     1      -8.039   8.267  69.473  1.00  0.00     0.000 HD 
HETATM   13  O   UNL     1      -9.591   6.827  72.859  1.00  0.00    -0.147 OA 
HETATM   14  C   UNL     1     -10.892   7.390  73.089  1.00  0.00    -0.386 C  
HETATM   15  O   UNL     1      -7.887   7.043  71.340  1.00  0.00    -0.094 OA 
BRANCH   4  16
HETATM   16  C   UNL     1     -10.803  10.938  68.505  1.00  0.00    -0.262 C  
BRANCH  16  17
HETATM   17  C   UNL     1      -9.657  11.873  68.293  1.00  0.00    -0.201 C  
HETATM   18  C   UNL     1      -8.787  11.864  67.266  1.00  0.00    -0.179 C  
HETATM   19  C   UNL     1      -8.846  10.930  66.086  1.00  0.00    -0.195 C  
BRANCH  18  20
HETATM   20  C   UNL     1      -7.636  12.841  67.273  1.00  0.00    -0.116 C  
BRANCH  20  21
HETATM   21  C   UNL     1      -7.675  13.703  68.528  1.00  0.00    -0.129 C  
BRANCH  21  22
HETATM   22  C   UNL     1      -6.835  14.936  68.350  1.00  0.00    -0.110 C  
HETATM   23  O   UNL     1      -5.667  15.061  68.682  1.00  0.00    -0.085 OA 
BRANCH  22  24
HETATM   24  O   UNL     1      -7.633  15.941  67.899  1.00  0.00    -0.125 OA 
BRANCH  24  25
HETATM   25  C   UNL     1      -8.432  16.534  68.936  1.00  0.00    -0.235 C  
BRANCH  25  26
HETATM   26  C   UNL     1      -8.774  17.956  68.459  1.00  0.00    -0.292 C  
BRANCH  26  27
HETATM   27  N   UNL     1     -10.197  18.261  68.278  1.00  0.00    -0.376 NA 
HETATM   28  C   UNL     1     -10.445  19.589  67.682  1.00  0.00    -0.467 C  
HETATM   29  C   UNL     1     -10.068  19.683  66.195  1.00  0.00    -0.480 C  
HETATM   30  O   UNL     1     -10.750  18.689  65.422  1.00  0.00    -0.572 OA 
HETATM   31  C   UNL     1     -10.474  17.373  65.917  1.00  0.00    -0.252 C  
HETATM   32  C   UNL     1     -10.838  17.243  67.408  1.00  0.00    -0.167 C  
ENDBRANCH  26  27
ENDBRANCH  25  26
ENDBRANCH  24  25
ENDBRANCH  22  24
ENDBRANCH  21  22
ENDBRANCH  20  21
ENDBRANCH  18  20
ENDBRANCH  16  17
ENDBRANCH   4  16
ENDBRANCH   2   3
TORSDOF 10
ENDMDL
MODEL      146
REMARK 921   NORMALIZED FREE ENERGY PREDICTED BY IDOCK:   -4.52 KCAL/MOL
REMARK 922        TOTAL FREE ENERGY PREDICTED BY IDOCK:   -8.70 KCAL/MOL
REMARK 923 INTER-LIGAND FREE ENERGY PREDICTED BY IDOCK:   -8.02 KCAL/MOL
REMARK 924 INTRA-LIGAND FREE ENERGY PREDICTED BY IDOCK:   -0.68 KCAL/MOL
REMARK 927      BINDING AFFINITY PREDICTED BY RF-SCORE:    0.00 PKD
ROOT
HETATM    1  C   UNL     1      -7.538  14.222  68.761  1.00  0.00    -0.130 C  
HETATM    2  O   UNL     1      -8.940  14.474  68.815  1.00  0.00    -0.188 OA 
ENDROOT
BRANCH   2   3
HETATM    3  C   UNL     1      -9.642  14.356  67.632  1.00  0.00    -0.214 A  
HETATM    4  C   UNL     1     -10.177  13.119  67.151  1.00  0.00    -0.244 A  
HETATM    5  C   UNL     1     -10.962  13.158  65.975  1.00  0.00    -0.279 A  
HETATM    6  C   UNL     1     -10.737  15.568  65.865  1.00  0.00    -0.346 A  
HETATM    7  O   UNL     1     -11.437  12.048  65.346  1.00  0.00    -0.340 OA 
HETATM    8  C   UNL     1      -9.922  15.589  66.992  1.00  0.00    -0.240 A  
HETATM    9  C   UNL     1     -11.242  14.380  65.379  1.00  0.00    -0.335 A  
HETATM   10  C   UNL     1     -12.081  14.670  64.213  1.00  0.00    -0.415 C  
HETATM   11  C   UNL     1      -9.346  16.879  67.505  1.00  0.00    -0.232 C  
HETATM   12  H   UNL     1     -11.964  12.074  64.557  1.00  0.00     0.000 HD 
HETATM   13  O   UNL     1     -12.031  16.031  64.025  1.00  0.00    -0.796 OA 
HETATM   14  C   UNL     1     -11.193  16.677  64.996  1.00  0.00    -0.027 C  
HETATM   15  O   UNL     1     -12.742  13.906  63.535  1.00  0.00    -0.797 OA 
BRANCH   4  16
HETATM   16  C   UNL     1      -9.797  11.838  67.867  1.00  0.00    -0.186 C  
BRANCH  16  17
HETATM   17  C   UNL     1     -10.823  11.097  68.661  1.00  0.00    -0.251 C  
HETATM   18  C   UNL     1     -10.595  10.154  69.596  1.00  0.00    -0.286 C  
HETATM   19  C   UNL     1      -9.235   9.709  70.065  1.00  0.00    -0.275 C  
BRANCH  18  20
HETATM   20  C   UNL     1     -11.771   9.453  70.231  1.00  0.00    -0.127 C  
BRANCH  20  21
HETATM   21  C   UNL     1     -11.587   9.364  71.740  1.00  0.00    -0.433 C  
BRANCH  21  22
HETATM   22  C   UNL     1     -11.754   7.946  72.211  1.00  0.00    -0.355 C  
HETATM   23  O   UNL     1     -12.554   7.135  71.770  1.00  0.00    -0.335 OA 
BRANCH  22  24
HETATM   24  O   UNL     1     -10.977   7.762  73.312  1.00  0.00    -0.382 OA 
BRANCH  24  25
HETATM   25  C   UNL     1     -10.137   6.600  73.220  1.00  0.00    -0.212 C  
BRANCH  25  26
HETATM   26  C   UNL     1      -8.739   7.108  72.822  1.00  0.00    -0.118 C  
BRANCH  26  27
HETATM   27  N   UNL     1      -7.669   6.107  72.778  1.00  0.00    -0.105 NA 
HETATM   28  C   UNL     1      -8.049   4.868  72.070  1.00  0.00    -0.111 C  
HETATM   29  C   UNL     1      -8.177   5.037  70.548  1.00  0.00    -0.100 C  
HETATM   30  O   UNL     1      -6.967   5.549  69.978  1.00  0.00    -0.057 OA 
HETATM   31  C   UNL     1      -6.601   6.795  70.581  1.00  0.00    -0.053 C  
HETATM   32  C   UNL     1      -6.466   6.664  72.110  1.00  0.00    -0.054 C  
ENDBRANCH  26  27
ENDBRANCH  25  26
ENDBRANCH  24  25
ENDBRANCH  22  24
ENDBRANCH  21  22
ENDBRANCH  20  21
ENDBRANCH  18  20
ENDBRANCH  16  17
ENDBRANCH   4  16
ENDBRANCH   2   3
TORSDOF 10
ENDMDL
MODEL      147
REMARK 921   NORMALIZED FREE ENERGY PREDICTED BY IDOCK:   -4.51 KCAL/MOL
REMARK 922        TOTAL FREE ENERGY PREDICTED BY IDOCK:   -8.69 KCAL/MOL
REMARK 923 INTER-LIGAND FREE ENERGY PREDICTED BY IDOCK:   -8.00 KCAL/MOL
REMARK 924 INTRA-LIGAND FREE ENERGY PREDICTED BY IDOCK:   -0.69 KCAL/MOL
REMARK 927      BINDING AFFINITY PREDICTED BY RF-SCORE:    0.00 PKD
ROOT
HETATM    1  C   UNL     1      -7.018   7.736  67.474  1.00  0.00    -0.078 C  
HETATM    2  O   UNL     1      -7.749   6.698  68.125  1.00  0.00    -0.102 OA 
ENDROOT
BRANCH   2   3
HETATM    3  C   UNL     1      -8.376   5.773  67.315  1.00  0.00    -0.104 A  
HETATM    4  C   UNL     1      -9.699   5.945  66.796  1.00  0.00    -0.177 A  
HETATM    5  C   UNL     1     -10.182   4.966  65.897  1.00  0.00    -0.223 A  
HETATM    6  C   UNL     1      -8.067   3.786  65.994  1.00  0.00    -0.100 A  
HETATM    7  O   UNL     1     -11.455   4.944  65.417  1.00  0.00    -0.908 OA 
HETATM    8  C   UNL     1      -7.552   4.692  66.914  1.00  0.00    -0.087 A  
HETATM    9  C   UNL     1      -9.348   3.929  65.501  1.00  0.00    -0.160 A  
HETATM   10  C   UNL     1      -9.602   2.854  64.537  1.00  0.00    -0.142 C  
HETATM   11  C   UNL     1      -6.168   4.521  67.476  1.00  0.00    -0.036 C  
HETATM   12  H   UNL     1     -11.780   4.287  64.813  1.00  0.00     0.000 HD 
HETATM   13  O   UNL     1      -8.463   2.085  64.503  1.00  0.00    -0.084 OA 
HETATM   14  C   UNL     1      -7.455   2.575  65.401  1.00  0.00    -0.071 C  
HETATM   15  O   UNL     1     -10.586   2.657  63.851  1.00  0.00    -0.136 OA 
BRANCH   4  16
HETATM   16  C   UNL     1     -10.532   7.104  67.307  1.00  0.00    -0.372 C  
BRANCH  16  17
HETATM   17  C   UNL     1     -10.492   8.419  66.598  1.00  0.00    -0.221 C  
HETATM   18  C   UNL     1     -10.350   9.634  67.160  1.00  0.00    -0.319 C  
HETATM   19  C   UNL     1     -10.140   9.893  68.628  1.00  0.00    -0.191 C  
BRANCH  18  20
HETATM   20  C   UNL     1     -10.420  10.859  66.281  1.00  0.00    -0.304 C  
BRANCH  20  21
HETATM   21  C   UNL     1     -11.474  11.829  66.800  1.00  0.00    -0.352 C  
BRANCH  21  22
HETATM   22  C   UNL     1     -11.923  12.758  65.707  1.00  0.00    -0.449 C  
HETATM   23  O   UNL     1     -12.858  12.567  64.945  1.00  0.00    -0.758 OA 
BRANCH  22  24
HETATM   24  O   UNL     1     -11.024  13.773  65.606  1.00  0.00    -0.284 OA 
BRANCH  24  25
HETATM   25  C   UNL     1     -11.316  14.874  66.481  1.00  0.00    -0.319 C  
BRANCH  25  26
HETATM   26  C   UNL     1     -10.333  15.997  66.108  1.00  0.00    -0.328 C  
BRANCH  26  27
HETATM   27  N   UNL     1     -10.480  17.263  66.833  1.00  0.00    -0.303 NA 
HETATM   28  C   UNL     1     -10.385  17.117  68.300  1.00  0.00    -0.354 C  
HETATM   29  C   UNL     1      -8.966  16.806  68.802  1.00  0.00    -0.254 C  
HETATM   30  O   UNL     1      -8.031  17.801  68.369  1.00  0.00    -0.273 OA 
HETATM   31  C   UNL     1      -8.032  17.921  66.942  1.00  0.00    -0.227 C  
HETATM   32  C   UNL     1      -9.441  18.231  66.402  1.00  0.00    -0.286 C  
ENDBRANCH  26  27
ENDBRANCH  25  26
ENDBRANCH  24  25
ENDBRANCH  22  24
ENDBRANCH  21  22
ENDBRANCH  20  21
ENDBRANCH  18  20
ENDBRANCH  16  17
ENDBRANCH   4  16
ENDBRANCH   2   3
TORSDOF 10
ENDMDL
MODEL      148
REMARK 921   NORMALIZED FREE ENERGY PREDICTED BY IDOCK:   -4.51 KCAL/MOL
REMARK 922        TOTAL FREE ENERGY PREDICTED BY IDOCK:   -8.68 KCAL/MOL
REMARK 923 INTER-LIGAND FREE ENERGY PREDICTED BY IDOCK:   -7.73 KCAL/MOL
REMARK 924 INTRA-LIGAND FREE ENERGY PREDICTED BY IDOCK:   -0.96 KCAL/MOL
REMARK 927      BINDING AFFINITY PREDICTED BY RF-SCORE:    0.00 PKD
ROOT
HETATM    1  C   UNL     1      -9.395   2.901  68.048  1.00  0.00    -0.205 C  
HETATM    2  O   UNL     1      -8.518   3.048  69.163  1.00  0.00    -0.058 OA 
ENDROOT
BRANCH   2   3
HETATM    3  C   UNL     1      -8.904   3.930  70.151  1.00  0.00    -0.081 A  
HETATM    4  C   UNL     1      -8.897   5.352  69.989  1.00  0.00    -0.141 A  
HETATM    5  C   UNL     1      -9.414   6.135  71.047  1.00  0.00    -0.171 A  
HETATM    6  C   UNL     1      -9.984   4.135  72.292  1.00  0.00    -0.240 A  
HETATM    7  O   UNL     1      -9.366   7.495  71.073  1.00  0.00    -0.155 OA 
HETATM    8  C   UNL     1      -9.451   3.314  71.305  1.00  0.00    -0.222 A  
HETATM    9  C   UNL     1      -9.966   5.508  72.157  1.00  0.00    -0.219 A  
HETATM   10  C   UNL     1     -10.617   6.104  73.327  1.00  0.00    -0.258 C  
HETATM   11  C   UNL     1      -9.443   1.819  71.465  1.00  0.00    -0.189 C  
HETATM   12  H   UNL     1      -9.713   8.021  71.784  1.00  0.00     0.000 HD 
HETATM   13  O   UNL     1     -10.986   5.059  74.141  1.00  0.00    -0.304 OA 
HETATM   14  C   UNL     1     -10.609   3.788  73.589  1.00  0.00    -0.203 C  
HETATM   15  O   UNL     1     -10.846   7.274  73.563  1.00  0.00    -0.375 OA 
BRANCH   4  16
HETATM   16  C   UNL     1      -8.257   5.935  68.744  1.00  0.00    -0.103 C  
BRANCH  16  17
HETATM   17  C   UNL     1      -8.727   7.249  68.211  1.00  0.00    -0.125 C  
HETATM   18  C   UNL     1      -9.894   7.495  67.586  1.00  0.00    -0.203 C  
HETATM   19  C   UNL     1     -10.988   6.485  67.359  1.00  0.00    -0.458 C  
BRANCH  18  20
HETATM   20  C   UNL     1     -10.153   8.878  67.039  1.00  0.00    -0.331 C  
BRANCH  20  21
HETATM   21  C   UNL     1      -9.133   9.868  67.584  1.00  0.00    -0.140 C  
BRANCH  21  22
HETATM   22  C   UNL     1      -9.703  10.630  68.747  1.00  0.00    -0.189 C  
HETATM   23  O   UNL     1      -9.915  10.181  69.863  1.00  0.00    -0.242 OA 
BRANCH  22  24
HETATM   24  O   UNL     1     -10.089  11.859  68.311  1.00  0.00    -0.192 OA 
BRANCH  24  25
HETATM   25  C   UNL     1     -11.512  12.051  68.356  1.00  0.00    -0.301 C  
BRANCH  25  26
HETATM   26  C   UNL     1     -11.885  12.818  67.075  1.00  0.00    -0.361 C  
BRANCH  26  27
HETATM   27  N   UNL     1     -10.821  12.991  66.083  1.00  0.00    -0.277 NA 
HETATM   28  C   UNL     1     -10.823  11.955  65.029  1.00  0.00    -0.300 C  
HETATM   29  C   UNL     1     -11.991  12.080  64.038  1.00  0.00    -0.403 C  
HETATM   30  O   UNL     1     -12.015  13.373  63.423  1.00  0.00    -0.480 OA 
HETATM   31  C   UNL     1     -12.093  14.410  64.408  1.00  0.00    -0.470 C  
HETATM   32  C   UNL     1     -10.937  14.315  65.422  1.00  0.00    -0.333 C  
ENDBRANCH  26  27
ENDBRANCH  25  26
ENDBRANCH  24  25
ENDBRANCH  22  24
ENDBRANCH  21  22
ENDBRANCH  20  21
ENDBRANCH  18  20
ENDBRANCH  16  17
ENDBRANCH   4  16
ENDBRANCH   2   3
TORSDOF 10
ENDMDL
MODEL      149
REMARK 921   NORMALIZED FREE ENERGY PREDICTED BY IDOCK:   -4.49 KCAL/MOL
REMARK 922        TOTAL FREE ENERGY PREDICTED BY IDOCK:   -8.66 KCAL/MOL
REMARK 923 INTER-LIGAND FREE ENERGY PREDICTED BY IDOCK:   -7.65 KCAL/MOL
REMARK 924 INTRA-LIGAND FREE ENERGY PREDICTED BY IDOCK:   -1.01 KCAL/MOL
REMARK 927      BINDING AFFINITY PREDICTED BY RF-SCORE:    0.00 PKD
ROOT
HETATM    1  C   UNL     1      -5.349  13.723  68.332  1.00  0.00    -0.100 C  
HETATM    2  O   UNL     1      -6.285  13.827  67.262  1.00  0.00    -0.311 OA 
ENDROOT
BRANCH   2   3
HETATM    3  C   UNL     1      -7.574  14.194  67.592  1.00  0.00    -0.180 A  
HETATM    4  C   UNL     1      -8.518  13.307  68.201  1.00  0.00    -0.173 A  
HETATM    5  C   UNL     1      -9.771  13.842  68.578  1.00  0.00    -0.202 A  
HETATM    6  C   UNL     1      -9.088  16.048  67.843  1.00  0.00    -0.187 A  
HETATM    7  O   UNL     1     -10.799  13.091  69.062  1.00  0.00    -0.344 OA 
HETATM    8  C   UNL     1      -7.855  15.572  67.411  1.00  0.00    -0.213 A  
HETATM    9  C   UNL     1     -10.014  15.200  68.414  1.00  0.00    -0.222 A  
HETATM   10  C   UNL     1     -11.195  15.980  68.793  1.00  0.00    -0.360 C  
HETATM   11  C   UNL     1      -6.857  16.489  66.762  1.00  0.00    -0.225 C  
HETATM   12  H   UNL     1     -11.640  13.450  69.316  1.00  0.00     0.000 HD 
HETATM   13  O   UNL     1     -10.942  17.277  68.412  1.00  0.00    -0.312 OA 
HETATM   14  C   UNL     1      -9.658  17.414  67.784  1.00  0.00    -0.264 C  
HETATM   15  O   UNL     1     -12.204  15.615  69.364  1.00  0.00    -0.322 OA 
BRANCH   4  16
HETATM   16  C   UNL     1      -8.158  11.839  68.320  1.00  0.00    -0.154 C  
BRANCH  16  17
HETATM   17  C   UNL     1      -8.680  10.861  67.318  1.00  0.00    -0.131 C  
HETATM   18  C   UNL     1      -9.650   9.948  67.511  1.00  0.00    -0.183 C  
HETATM   19  C   UNL     1     -10.446   9.781  68.779  1.00  0.00    -0.240 C  
BRANCH  18  20
HETATM   20  C   UNL     1      -9.980   8.984  66.397  1.00  0.00    -0.370 C  
BRANCH  20  21
HETATM   21  C   UNL     1     -10.596   7.710  66.959  1.00  0.00    -0.406 C  
BRANCH  21  22
HETATM   22  C   UNL     1      -9.590   6.593  66.966  1.00  0.00    -0.150 C  
HETATM   23  O   UNL     1      -8.720   6.409  66.130  1.00  0.00    -0.138 OA 
BRANCH  22  24
HETATM   24  O   UNL     1      -9.905   5.733  67.972  1.00  0.00    -0.119 OA 
BRANCH  24  25
HETATM   25  C   UNL     1     -10.972   6.211  68.807  1.00  0.00    -0.348 C  
BRANCH  25  26
HETATM   26  C   UNL     1     -10.493   6.044  70.260  1.00  0.00    -0.242 C  
BRANCH  26  27
HETATM   27  N   UNL     1     -11.534   5.858  71.274  1.00  0.00    -0.182 NA 
HETATM   28  C   UNL     1     -11.005   5.751  72.650  1.00  0.00    -0.268 C  
HETATM   29  C   UNL     1     -10.464   7.075  73.212  1.00  0.00    -0.330 C  
HETATM   30  O   UNL     1     -11.461   8.102  73.173  1.00  0.00    -0.258 OA 
HETATM   31  C   UNL     1     -11.948   8.297  71.840  1.00  0.00    -0.330 C  
HETATM   32  C   UNL     1     -12.497   6.988  71.242  1.00  0.00    -0.386 C  
ENDBRANCH  26  27
ENDBRANCH  25  26
ENDBRANCH  24  25
ENDBRANCH  22  24
ENDBRANCH  21  22
ENDBRANCH  20  21
ENDBRANCH  18  20
ENDBRANCH  16  17
ENDBRANCH   4  16
ENDBRANCH   2   3
TORSDOF 10
ENDMDL
MODEL      150
REMARK 921   NORMALIZED FREE ENERGY PREDICTED BY IDOCK:   -4.48 KCAL/MOL
REMARK 922        TOTAL FREE ENERGY PREDICTED BY IDOCK:   -8.65 KCAL/MOL
REMARK 923 INTER-LIGAND FREE ENERGY PREDICTED BY IDOCK:   -8.12 KCAL/MOL
REMARK 924 INTRA-LIGAND FREE ENERGY PREDICTED BY IDOCK:   -0.52 KCAL/MOL
REMARK 927      BINDING AFFINITY PREDICTED BY RF-SCORE:    0.00 PKD
ROOT
HETATM    1  C   UNL     1     -12.240  11.077  71.194  1.00  0.00    -0.310 C  
HETATM    2  O   UNL     1     -12.127  10.087  70.174  1.00  0.00    -0.199 OA 
ENDROOT
BRANCH   2   3
HETATM    3  C   UNL     1     -11.286   9.022  70.427  1.00  0.00    -0.210 A  
HETATM    4  C   UNL     1      -9.899   9.008  70.076  1.00  0.00    -0.203 A  
HETATM    5  C   UNL     1      -9.130   7.894  70.485  1.00  0.00    -0.154 A  
HETATM    6  C   UNL     1     -11.053   6.937  71.607  1.00  0.00    -0.271 A  
HETATM    7  O   UNL     1      -7.832   7.698  70.124  1.00  0.00    -0.093 OA 
HETATM    8  C   UNL     1     -11.871   7.985  71.198  1.00  0.00    -0.307 A  
HETATM    9  C   UNL     1      -9.719   6.902  71.259  1.00  0.00    -0.175 A  
HETATM   10  C   UNL     1      -9.110   5.708  71.850  1.00  0.00    -0.138 C  
HETATM   11  C   UNL     1     -13.331   8.009  71.550  1.00  0.00    -0.324 C  
HETATM   12  H   UNL     1      -7.316   6.950  70.398  1.00  0.00     0.000 HD 
HETATM   13  O   UNL     1     -10.115   5.050  72.520  1.00  0.00    -0.171 OA 
HETATM   14  C   UNL     1     -11.375   5.730  72.403  1.00  0.00    -0.294 C  
HETATM   15  O   UNL     1      -7.951   5.343  71.820  1.00  0.00    -0.109 OA 
BRANCH   4  16
HETATM   16  C   UNL     1      -9.359  10.133  69.215  1.00  0.00    -0.227 C  
BRANCH  16  17
HETATM   17  C   UNL     1     -10.233  10.762  68.179  1.00  0.00    -0.194 C  
HETATM   18  C   UNL     1     -10.422  10.336  66.916  1.00  0.00    -0.291 C  
HETATM   19  C   UNL     1      -9.824   9.088  66.322  1.00  0.00    -0.361 C  
BRANCH  18  20
HETATM   20  C   UNL     1     -11.280  11.159  65.987  1.00  0.00    -0.036 C  
BRANCH  20  21
HETATM   21  C   UNL     1     -10.927  12.636  66.101  1.00  0.00    -0.313 C  
BRANCH  21  22
HETATM   22  C   UNL     1     -12.171  13.474  66.191  1.00  0.00    -0.433 C  
HETATM   23  O   UNL     1     -13.030  13.573  65.329  1.00  0.00    -0.701 OA 
BRANCH  22  24
HETATM   24  O   UNL     1     -12.108  14.223  67.324  1.00  0.00    -0.411 OA 
BRANCH  24  25
HETATM   25  C   UNL     1     -10.762  14.525  67.724  1.00  0.00    -0.256 C  
BRANCH  25  26
HETATM   26  C   UNL     1     -10.763  15.998  68.169  1.00  0.00    -0.311 C  
BRANCH  26  27
HETATM   27  N   UNL     1     -10.891  17.002  67.108  1.00  0.00    -0.161 NA 
HETATM   28  C   UNL     1     -10.692  18.387  67.579  1.00  0.00    -0.365 C  
HETATM   29  C   UNL     1      -9.235  18.718  67.941  1.00  0.00    -0.294 C  
HETATM   30  O   UNL     1      -8.356  18.468  66.837  1.00  0.00    -0.249 OA 
HETATM   31  C   UNL     1      -8.457  17.109  66.396  1.00  0.00    -0.272 C  
HETATM   32  C   UNL     1      -9.907  16.741  66.027  1.00  0.00    -0.287 C  
ENDBRANCH  26  27
ENDBRANCH  25  26
ENDBRANCH  24  25
ENDBRANCH  22  24
ENDBRANCH  21  22
ENDBRANCH  20  21
ENDBRANCH  18  20
ENDBRANCH  16  17
ENDBRANCH   4  16
ENDBRANCH   2   3
TORSDOF 10
ENDMDL
MODEL      151
REMARK 921   NORMALIZED FREE ENERGY PREDICTED BY IDOCK:   -4.48 KCAL/MOL
REMARK 922        TOTAL FREE ENERGY PREDICTED BY IDOCK:   -8.64 KCAL/MOL
REMARK 923 INTER-LIGAND FREE ENERGY PREDICTED BY IDOCK:   -8.26 KCAL/MOL
REMARK 924 INTRA-LIGAND FREE ENERGY PREDICTED BY IDOCK:   -0.39 KCAL/MOL
REMARK 927      BINDING AFFINITY PREDICTED BY RF-SCORE:    0.00 PKD
ROOT
HETATM    1  C   UNL     1      -9.800  10.630  64.826  1.00  0.00    -0.310 C  
HETATM    2  O   UNL     1     -10.256   9.532  65.613  1.00  0.00    -0.228 OA 
ENDROOT
BRANCH   2   3
HETATM    3  C   UNL     1      -9.839   9.488  66.928  1.00  0.00    -0.204 A  
HETATM    4  C   UNL     1     -10.562  10.090  68.007  1.00  0.00    -0.280 A  
HETATM    5  C   UNL     1     -10.074   9.884  69.319  1.00  0.00    -0.203 A  
HETATM    6  C   UNL     1      -8.298   8.471  68.470  1.00  0.00    -0.123 A  
HETATM    7  O   UNL     1     -10.596  10.487  70.422  1.00  0.00    -0.438 OA 
HETATM    8  C   UNL     1      -8.703   8.673  67.156  1.00  0.00    -0.134 A  
HETATM    9  C   UNL     1      -8.973   9.061  69.518  1.00  0.00    -0.147 A  
HETATM   10  C   UNL     1      -8.343   8.649  70.775  1.00  0.00    -0.152 C  
HETATM   11  C   UNL     1      -7.949   8.055  66.011  1.00  0.00    -0.101 C  
HETATM   12  H   UNL     1     -10.268  10.349  71.303  1.00  0.00     0.000 HD 
HETATM   13  O   UNL     1      -7.288   7.836  70.433  1.00  0.00    -0.067 OA 
HETATM   14  C   UNL     1      -7.163   7.687  69.010  1.00  0.00    -0.080 C  
HETATM   15  O   UNL     1      -8.668   8.910  71.917  1.00  0.00    -0.343 OA 
BRANCH   4  16
HETATM   16  C   UNL     1     -11.743  10.983  67.678  1.00  0.00    -0.102 C  
BRANCH  16  17
HETATM   17  C   UNL     1     -11.599  12.468  67.760  1.00  0.00    -0.401 C  
HETATM   18  C   UNL     1     -11.868  13.360  66.787  1.00  0.00    -0.452 C  
HETATM   19  C   UNL     1     -12.434  13.023  65.433  1.00  0.00    -0.531 C  
BRANCH  18  20
HETATM   20  C   UNL     1     -11.575  14.820  67.032  1.00  0.00    -0.352 C  
BRANCH  20  21
HETATM   21  C   UNL     1     -10.107  15.121  66.765  1.00  0.00    -0.261 C  
BRANCH  21  22
HETATM   22  C   UNL     1      -9.954  15.949  65.519  1.00  0.00    -0.278 C  
HETATM   23  O   UNL     1     -10.756  16.016  64.602  1.00  0.00    -0.601 OA 
BRANCH  22  24
HETATM   24  O   UNL     1      -8.705  16.489  65.510  1.00  0.00    -0.272 OA 
BRANCH  24  25
HETATM   25  C   UNL     1      -8.061  16.441  66.793  1.00  0.00    -0.252 C  
BRANCH  25  26
HETATM   26  C   UNL     1      -7.072  17.619  66.825  1.00  0.00    -0.204 C  
BRANCH  26  27
HETATM   27  N   UNL     1      -7.260  18.601  67.897  1.00  0.00    -0.235 NA 
HETATM   28  C   UNL     1      -7.553  19.963  67.405  1.00  0.00    -0.273 C  
HETATM   29  C   UNL     1      -8.957  20.115  66.797  1.00  0.00    -0.327 C  
HETATM   30  O   UNL     1      -9.972  19.726  67.729  1.00  0.00    -0.361 OA 
HETATM   31  C   UNL     1      -9.773  18.379  68.175  1.00  0.00    -0.331 C  
HETATM   32  C   UNL     1      -8.373  18.188  68.789  1.00  0.00    -0.212 C  
ENDBRANCH  26  27
ENDBRANCH  25  26
ENDBRANCH  24  25
ENDBRANCH  22  24
ENDBRANCH  21  22
ENDBRANCH  20  21
ENDBRANCH  18  20
ENDBRANCH  16  17
ENDBRANCH   4  16
ENDBRANCH   2   3
TORSDOF 10
ENDMDL
MODEL      152
REMARK 921   NORMALIZED FREE ENERGY PREDICTED BY IDOCK:   -4.45 KCAL/MOL
REMARK 922        TOTAL FREE ENERGY PREDICTED BY IDOCK:   -8.59 KCAL/MOL
REMARK 923 INTER-LIGAND FREE ENERGY PREDICTED BY IDOCK:   -7.76 KCAL/MOL
REMARK 924 INTRA-LIGAND FREE ENERGY PREDICTED BY IDOCK:   -0.83 KCAL/MOL
REMARK 927      BINDING AFFINITY PREDICTED BY RF-SCORE:    0.00 PKD
ROOT
HETATM    1  C   UNL     1      -8.435   8.226  65.372  1.00  0.00    -0.172 C  
HETATM    2  O   UNL     1      -9.676   8.603  65.965  1.00  0.00    -0.241 OA 
ENDROOT
BRANCH   2   3
HETATM    3  C   UNL     1      -9.772   8.497  67.338  1.00  0.00    -0.170 A  
HETATM    4  C   UNL     1      -9.291   9.496  68.243  1.00  0.00    -0.139 A  
HETATM    5  C   UNL     1      -9.543   9.306  69.622  1.00  0.00    -0.183 A  
HETATM    6  C   UNL     1     -10.771   7.271  69.151  1.00  0.00    -0.201 A  
HETATM    7  O   UNL     1      -9.048  10.115  70.598  1.00  0.00    -0.269 OA 
HETATM    8  C   UNL     1     -10.517   7.379  67.788  1.00  0.00    -0.298 A  
HETATM    9  C   UNL     1     -10.296   8.216  70.037  1.00  0.00    -0.215 A  
HETATM   10  C   UNL     1     -10.740   7.859  71.387  1.00  0.00    -0.224 C  
HETATM   11  C   UNL     1     -11.008   6.334  66.826  1.00  0.00    -0.328 C  
HETATM   12  H   UNL     1      -9.217   9.989  71.524  1.00  0.00     0.000 HD 
HETATM   13  O   UNL     1     -11.453   6.689  71.266  1.00  0.00    -0.280 OA 
HETATM   14  C   UNL     1     -11.505   6.229  69.906  1.00  0.00    -0.389 C  
HETATM   15  O   UNL     1     -10.574   8.458  72.432  1.00  0.00    -0.316 OA 
BRANCH   4  16
HETATM   16  C   UNL     1      -8.465  10.639  67.687  1.00  0.00    -0.118 C  
BRANCH  16  17
HETATM   17  C   UNL     1      -8.954  12.045  67.821  1.00  0.00    -0.176 C  
HETATM   18  C   UNL     1     -10.124  12.538  67.372  1.00  0.00    -0.211 C  
HETATM   19  C   UNL     1     -11.202  11.736  66.693  1.00  0.00    -0.383 C  
BRANCH  18  20
HETATM   20  C   UNL     1     -10.403  14.013  67.528  1.00  0.00    -0.245 C  
BRANCH  20  21
HETATM   21  C   UNL     1     -10.310  14.423  68.992  1.00  0.00    -0.204 C  
BRANCH  21  22
HETATM   22  C   UNL     1     -10.706  15.862  69.165  1.00  0.00    -0.259 C  
HETATM   23  O   UNL     1     -10.909  16.425  70.230  1.00  0.00    -0.309 OA 
BRANCH  22  24
HETATM   24  O   UNL     1     -10.951  16.395  67.938  1.00  0.00    -0.339 OA 
BRANCH  24  25
HETATM   25  C   UNL     1     -10.643  17.796  67.861  1.00  0.00    -0.382 C  
BRANCH  25  26
HETATM   26  C   UNL     1      -9.470  17.927  66.873  1.00  0.00    -0.279 C  
BRANCH  26  27
HETATM   27  N   UNL     1      -8.391  18.842  67.257  1.00  0.00    -0.266 NA 
HETATM   28  C   UNL     1      -7.887  18.616  68.627  1.00  0.00    -0.321 C  
HETATM   29  C   UNL     1      -7.068  17.324  68.783  1.00  0.00    -0.238 C  
HETATM   30  O   UNL     1      -5.967  17.293  67.867  1.00  0.00    -0.123 OA 
HETATM   31  C   UNL     1      -6.418  17.430  66.515  1.00  0.00    -0.234 C  
HETATM   32  C   UNL     1      -7.246  18.715  66.322  1.00  0.00    -0.251 C  
ENDBRANCH  26  27
ENDBRANCH  25  26
ENDBRANCH  24  25
ENDBRANCH  22  24
ENDBRANCH  21  22
ENDBRANCH  20  21
ENDBRANCH  18  20
ENDBRANCH  16  17
ENDBRANCH   4  16
ENDBRANCH   2   3
TORSDOF 10
ENDMDL
MODEL      153
REMARK 921   NORMALIZED FREE ENERGY PREDICTED BY IDOCK:   -4.45 KCAL/MOL
REMARK 922        TOTAL FREE ENERGY PREDICTED BY IDOCK:   -8.59 KCAL/MOL
REMARK 923 INTER-LIGAND FREE ENERGY PREDICTED BY IDOCK:   -7.66 KCAL/MOL
REMARK 924 INTRA-LIGAND FREE ENERGY PREDICTED BY IDOCK:   -0.93 KCAL/MOL
REMARK 927      BINDING AFFINITY PREDICTED BY RF-SCORE:    0.00 PKD
ROOT
HETATM    1  C   UNL     1     -11.575  15.019  66.546  1.00  0.00    -0.184 C  
HETATM    2  O   UNL     1     -10.877  14.665  67.738  1.00  0.00    -0.258 OA 
ENDROOT
BRANCH   2   3
HETATM    3  C   UNL     1     -11.486  13.749  68.572  1.00  0.00    -0.307 A  
HETATM    4  C   UNL     1     -11.490  12.339  68.329  1.00  0.00    -0.367 A  
HETATM    5  C   UNL     1     -12.065  11.505  69.316  1.00  0.00    -0.278 A  
HETATM    6  C   UNL     1     -12.505  13.426  70.728  1.00  0.00    -0.418 A  
HETATM    7  O   UNL     1     -12.236  10.163  69.166  1.00  0.00    -0.517 OA 
HETATM    8  C   UNL     1     -11.993  14.300  69.776  1.00  0.00    -0.394 A  
HETATM    9  C   UNL     1     -12.533  12.066  70.498  1.00  0.00    -0.292 A  
HETATM   10  C   UNL     1     -13.095  11.401  71.677  1.00  0.00    -0.393 C  
HETATM   11  C   UNL     1     -11.989  15.785  70.012  1.00  0.00    -0.352 C  
HETATM   12  H   UNL     1     -12.622   9.604  69.828  1.00  0.00     0.000 HD 
HETATM   13  O   UNL     1     -13.408  12.397  72.572  1.00  0.00    -0.385 OA 
HETATM   14  C   UNL     1     -13.099  13.701  72.056  1.00  0.00    -0.393 C  
HETATM   15  O   UNL     1     -13.242  10.214  71.891  1.00  0.00    -0.427 OA 
BRANCH   4  16
HETATM   16  C   UNL     1     -10.968  11.832  66.999  1.00  0.00    -0.333 C  
BRANCH  16  17
HETATM   17  C   UNL     1      -9.564  11.334  66.891  1.00  0.00    -0.210 C  
HETATM   18  C   UNL     1      -8.971  10.822  65.796  1.00  0.00    -0.203 C  
HETATM   19  C   UNL     1      -9.607  10.711  64.435  1.00  0.00    -0.349 C  
BRANCH  18  20
HETATM   20  C   UNL     1      -7.563  10.289  65.907  1.00  0.00    -0.134 C  
BRANCH  20  21
HETATM   21  C   UNL     1      -7.460   8.914  65.261  1.00  0.00    -0.089 C  
BRANCH  21  22
HETATM   22  C   UNL     1      -8.226   7.895  66.057  1.00  0.00    -0.122 C  
HETATM   23  O   UNL     1      -9.162   7.225  65.650  1.00  0.00     0.033 OA 
BRANCH  22  24
HETATM   24  O   UNL     1      -7.806   7.953  67.350  1.00  0.00    -0.116 OA 
BRANCH  24  25
HETATM   25  C   UNL     1      -8.888   8.069  68.288  1.00  0.00    -0.133 C  
BRANCH  25  26
HETATM   26  C   UNL     1      -8.843   6.802  69.160  1.00  0.00    -0.134 C  
BRANCH  26  27
HETATM   27  N   UNL     1     -10.124   6.135  69.410  1.00  0.00    -0.174 NA 
HETATM   28  C   UNL     1     -10.363   4.969  68.535  1.00  0.00    -0.024 C  
HETATM   29  C   UNL     1      -9.480   3.754  68.864  1.00  0.00    -0.153 C  
HETATM   30  O   UNL     1      -9.636   3.354  70.230  1.00  0.00    -0.178 OA 
HETATM   31  C   UNL     1      -9.337   4.435  71.121  1.00  0.00    -0.148 C  
HETATM   32  C   UNL     1     -10.202   5.673  70.818  1.00  0.00    -0.227 C  
ENDBRANCH  26  27
ENDBRANCH  25  26
ENDBRANCH  24  25
ENDBRANCH  22  24
ENDBRANCH  21  22
ENDBRANCH  20  21
ENDBRANCH  18  20
ENDBRANCH  16  17
ENDBRANCH   4  16
ENDBRANCH   2   3
TORSDOF 10
ENDMDL
MODEL      154
REMARK 921   NORMALIZED FREE ENERGY PREDICTED BY IDOCK:   -4.43 KCAL/MOL
REMARK 922        TOTAL FREE ENERGY PREDICTED BY IDOCK:   -8.56 KCAL/MOL
REMARK 923 INTER-LIGAND FREE ENERGY PREDICTED BY IDOCK:   -7.69 KCAL/MOL
REMARK 924 INTRA-LIGAND FREE ENERGY PREDICTED BY IDOCK:   -0.87 KCAL/MOL
REMARK 927      BINDING AFFINITY PREDICTED BY RF-SCORE:    0.00 PKD
ROOT
HETATM    1  C   UNL     1      -9.470  14.839  67.146  1.00  0.00    -0.227 C  
HETATM    2  O   UNL     1     -10.890  14.868  67.281  1.00  0.00    -0.291 OA 
ENDROOT
BRANCH   2   3
HETATM    3  C   UNL     1     -11.455  13.948  68.140  1.00  0.00    -0.312 A  
HETATM    4  C   UNL     1     -11.481  12.540  67.885  1.00  0.00    -0.369 A  
HETATM    5  C   UNL     1     -12.002  11.700  68.896  1.00  0.00    -0.292 A  
HETATM    6  C   UNL     1     -12.349  13.609  70.348  1.00  0.00    -0.415 A  
HETATM    7  O   UNL     1     -12.189  10.360  68.743  1.00  0.00    -0.750 OA 
HETATM    8  C   UNL     1     -11.888  14.490  69.376  1.00  0.00    -0.367 A  
HETATM    9  C   UNL     1     -12.398  12.251  70.108  1.00  0.00    -0.212 A  
HETATM   10  C   UNL     1     -12.894  11.578  71.311  1.00  0.00    -0.360 C  
HETATM   11  C   UNL     1     -11.863  15.972  69.626  1.00  0.00    -0.234 C  
HETATM   12  H   UNL     1     -12.539   9.796  69.422  1.00  0.00     0.000 HD 
HETATM   13  O   UNL     1     -13.149  12.567  72.233  1.00  0.00    -0.394 OA 
HETATM   14  C   UNL     1     -12.863  13.875  71.711  1.00  0.00    -0.335 C  
HETATM   15  O   UNL     1     -13.035  10.389  71.522  1.00  0.00    -0.389 OA 
BRANCH   4  16
HETATM   16  C   UNL     1     -11.039  12.043  66.522  1.00  0.00    -0.362 C  
BRANCH  16  17
HETATM   17  C   UNL     1     -10.419  10.690  66.387  1.00  0.00    -0.276 C  
HETATM   18  C   UNL     1      -9.104  10.405  66.358  1.00  0.00    -0.177 C  
HETATM   19  C   UNL     1      -7.993  11.409  66.519  1.00  0.00    -0.128 C  
BRANCH  18  20
HETATM   20  C   UNL     1      -8.670   8.978  66.127  1.00  0.00    -0.169 C  
BRANCH  20  21
HETATM   21  C   UNL     1      -8.284   8.318  67.444  1.00  0.00    -0.121 C  
BRANCH  21  22
HETATM   22  C   UNL     1      -9.422   7.491  67.975  1.00  0.00    -0.142 C  
HETATM   23  O   UNL     1     -10.485   7.922  68.393  1.00  0.00    -0.205 OA 
BRANCH  22  24
HETATM   24  O   UNL     1      -9.014   6.197  68.059  1.00  0.00    -0.115 OA 
BRANCH  24  25
HETATM   25  C   UNL     1     -10.032   5.259  67.674  1.00  0.00    -0.165 C  
BRANCH  25  26
HETATM   26  C   UNL     1      -9.947   5.134  66.142  1.00  0.00    -0.194 C  
BRANCH  26  27
HETATM   27  N   UNL     1     -10.013   3.777  65.593  1.00  0.00    -0.101 NA 
HETATM   28  C   UNL     1      -9.955   3.734  64.117  1.00  0.00    -0.193 C  
HETATM   29  C   UNL     1      -8.572   4.077  63.540  1.00  0.00    -0.100 C  
HETATM   30  O   UNL     1      -7.558   3.217  64.073  1.00  0.00    -0.072 OA 
HETATM   31  C   UNL     1      -7.525   3.286  65.504  1.00  0.00    -0.076 C  
HETATM   32  C   UNL     1      -8.897   2.951  66.118  1.00  0.00    -0.143 C  
ENDBRANCH  26  27
ENDBRANCH  25  26
ENDBRANCH  24  25
ENDBRANCH  22  24
ENDBRANCH  21  22
ENDBRANCH  20  21
ENDBRANCH  18  20
ENDBRANCH  16  17
ENDBRANCH   4  16
ENDBRANCH   2   3
TORSDOF 10
ENDMDL
MODEL      155
REMARK 921   NORMALIZED FREE ENERGY PREDICTED BY IDOCK:   -4.43 KCAL/MOL
REMARK 922        TOTAL FREE ENERGY PREDICTED BY IDOCK:   -8.56 KCAL/MOL
REMARK 923 INTER-LIGAND FREE ENERGY PREDICTED BY IDOCK:   -7.25 KCAL/MOL
REMARK 924 INTRA-LIGAND FREE ENERGY PREDICTED BY IDOCK:   -1.31 KCAL/MOL
REMARK 927      BINDING AFFINITY PREDICTED BY RF-SCORE:    0.00 PKD
ROOT
HETATM    1  C   UNL     1     -14.171  13.706  72.126  1.00  0.00    -0.389 C  
HETATM    2  O   UNL     1     -12.786  13.393  71.994  1.00  0.00    -0.290 OA 
ENDROOT
BRANCH   2   3
HETATM    3  C   UNL     1     -12.213  13.604  70.756  1.00  0.00    -0.347 A  
HETATM    4  C   UNL     1     -12.217  12.630  69.707  1.00  0.00    -0.209 A  
HETATM    5  C   UNL     1     -11.682  13.013  68.455  1.00  0.00    -0.342 A  
HETATM    6  C   UNL     1     -11.266  15.253  69.282  1.00  0.00    -0.291 A  
HETATM    7  O   UNL     1     -11.521  12.158  67.409  1.00  0.00    -0.305 OA 
HETATM    8  C   UNL     1     -11.739  14.923  70.547  1.00  0.00    -0.344 A  
HETATM    9  C   UNL     1     -11.246  14.318  68.267  1.00  0.00    -0.298 A  
HETATM   10  C   UNL     1     -10.728  14.954  67.053  1.00  0.00    -0.307 C  
HETATM   11  C   UNL     1     -11.733  15.932  71.662  1.00  0.00    -0.563 C  
HETATM   12  H   UNL     1     -11.162  12.415  66.568  1.00  0.00     0.000 HD 
HETATM   13  O   UNL     1     -10.433  16.255  67.390  1.00  0.00    -0.295 OA 
HETATM   14  C   UNL     1     -10.711  16.529  68.772  1.00  0.00    -0.339 C  
HETATM   15  O   UNL     1     -10.601  14.488  65.938  1.00  0.00    -0.289 OA 
BRANCH   4  16
HETATM   16  C   UNL     1     -12.702  11.229  70.022  1.00  0.00    -0.066 C  
BRANCH  16  17
HETATM   17  C   UNL     1     -11.808  10.276  70.748  1.00  0.00    -0.459 C  
HETATM   18  C   UNL     1     -10.896   9.450  70.201  1.00  0.00    -0.287 C  
HETATM   19  C   UNL     1     -10.561   9.374  68.734  1.00  0.00    -0.234 C  
BRANCH  18  20
HETATM   20  C   UNL     1     -10.146   8.494  71.096  1.00  0.00    -0.263 C  
BRANCH  20  21
HETATM   21  C   UNL     1      -8.892   7.982  70.398  1.00  0.00    -0.141 C  
BRANCH  21  22
HETATM   22  C   UNL     1      -7.786   7.760  71.391  1.00  0.00    -0.090 C  
HETATM   23  O   UNL     1      -7.844   7.043  72.378  1.00  0.00    -0.094 OA 
BRANCH  22  24
HETATM   24  O   UNL     1      -6.764   8.606  71.096  1.00  0.00    -0.054 OA 
BRANCH  24  25
HETATM   25  C   UNL     1      -6.858   9.165  69.776  1.00  0.00    -0.051 C  
BRANCH  25  26
HETATM   26  C   UNL     1      -5.950  10.408  69.767  1.00  0.00    -0.053 C  
BRANCH  26  27
HETATM   27  N   UNL     1      -6.623  11.710  69.781  1.00  0.00    -0.110 NA 
HETATM   28  C   UNL     1      -5.703  12.852  69.608  1.00  0.00    -0.104 C  
HETATM   29  C   UNL     1      -5.131  12.980  68.187  1.00  0.00    -0.088 C  
HETATM   30  O   UNL     1      -6.176  13.070  67.213  1.00  0.00    -0.279 OA 
HETATM   31  C   UNL     1      -7.052  11.939  67.290  1.00  0.00    -0.143 C  
HETATM   32  C   UNL     1      -7.642  11.778  68.704  1.00  0.00    -0.125 C  
ENDBRANCH  26  27
ENDBRANCH  25  26
ENDBRANCH  24  25
ENDBRANCH  22  24
ENDBRANCH  21  22
ENDBRANCH  20  21
ENDBRANCH  18  20
ENDBRANCH  16  17
ENDBRANCH   4  16
ENDBRANCH   2   3
TORSDOF 10
ENDMDL
MODEL      156
REMARK 921   NORMALIZED FREE ENERGY PREDICTED BY IDOCK:   -4.42 KCAL/MOL
REMARK 922        TOTAL FREE ENERGY PREDICTED BY IDOCK:   -8.54 KCAL/MOL
REMARK 923 INTER-LIGAND FREE ENERGY PREDICTED BY IDOCK:   -8.02 KCAL/MOL
REMARK 924 INTRA-LIGAND FREE ENERGY PREDICTED BY IDOCK:   -0.52 KCAL/MOL
REMARK 927      BINDING AFFINITY PREDICTED BY RF-SCORE:    0.00 PKD
ROOT
HETATM    1  C   UNL     1     -10.744  10.669  65.928  1.00  0.00    -0.035 C  
HETATM    2  O   UNL     1     -11.828  11.490  66.356  1.00  0.00    -0.397 OA 
ENDROOT
BRANCH   2   3
HETATM    3  C   UNL     1     -11.527  12.789  66.711  1.00  0.00    -0.343 A  
HETATM    4  C   UNL     1     -11.273  13.202  68.058  1.00  0.00    -0.308 A  
HETATM    5  C   UNL     1     -10.877  14.543  68.268  1.00  0.00    -0.241 A  
HETATM    6  C   UNL     1     -10.910  14.962  65.881  1.00  0.00    -0.336 A  
HETATM    7  O   UNL     1     -10.714  15.098  69.501  1.00  0.00    -0.244 OA 
HETATM    8  C   UNL     1     -11.344  13.668  65.614  1.00  0.00    -0.309 A  
HETATM    9  C   UNL     1     -10.681  15.379  67.177  1.00  0.00    -0.314 A  
HETATM   10  C   UNL     1     -10.209  16.766  67.147  1.00  0.00    -0.295 C  
HETATM   11  C   UNL     1     -11.622  13.222  64.206  1.00  0.00    -0.444 C  
HETATM   12  H   UNL     1     -10.448  15.999  69.642  1.00  0.00     0.000 HD 
HETATM   13  O   UNL     1     -10.191  17.143  65.824  1.00  0.00    -0.520 OA 
HETATM   14  C   UNL     1     -10.639  16.088  64.959  1.00  0.00    -0.316 C  
HETATM   15  O   UNL     1      -9.853  17.475  68.069  1.00  0.00    -0.275 OA 
BRANCH   4  16
HETATM   16  C   UNL     1     -11.533  12.215  69.178  1.00  0.00    -0.352 C  
BRANCH  16  17
HETATM   17  C   UNL     1     -10.651  11.019  69.336  1.00  0.00    -0.212 C  
HETATM   18  C   UNL     1     -10.796  10.022  70.229  1.00  0.00    -0.370 C  
HETATM   19  C   UNL     1     -11.930   9.894  71.212  1.00  0.00    -0.489 C  
BRANCH  18  20
HETATM   20  C   UNL     1      -9.747   8.938  70.292  1.00  0.00    -0.212 C  
BRANCH  20  21
HETATM   21  C   UNL     1      -9.828   8.045  69.061  1.00  0.00    -0.178 C  
BRANCH  21  22
HETATM   22  C   UNL     1      -9.643   6.602  69.440  1.00  0.00    -0.145 C  
HETATM   23  O   UNL     1      -8.609   5.961  69.334  1.00  0.00    -0.112 OA 
BRANCH  22  24
HETATM   24  O   UNL     1     -10.855   6.084  69.775  1.00  0.00    -0.294 OA 
BRANCH  24  25
HETATM   25  C   UNL     1     -10.777   5.100  70.819  1.00  0.00    -0.062 C  
BRANCH  25  26
HETATM   26  C   UNL     1     -10.783   5.876  72.148  1.00  0.00    -0.231 C  
BRANCH  26  27
HETATM   27  N   UNL     1     -10.423   5.118  73.349  1.00  0.00    -0.210 NA 
HETATM   28  C   UNL     1      -9.205   4.297  73.186  1.00  0.00    -0.110 C  
HETATM   29  C   UNL     1      -7.908   5.118  73.117  1.00  0.00    -0.101 C  
HETATM   30  O   UNL     1      -7.758   5.953  74.271  1.00  0.00    -0.097 OA 
HETATM   31  C   UNL     1      -8.884   6.825  74.425  1.00  0.00    -0.179 C  
HETATM   32  C   UNL     1     -10.205   6.036  74.496  1.00  0.00    -0.290 C  
ENDBRANCH  26  27
ENDBRANCH  25  26
ENDBRANCH  24  25
ENDBRANCH  22  24
ENDBRANCH  21  22
ENDBRANCH  20  21
ENDBRANCH  18  20
ENDBRANCH  16  17
ENDBRANCH   4  16
ENDBRANCH   2   3
TORSDOF 10
ENDMDL
MODEL      157
REMARK 921   NORMALIZED FREE ENERGY PREDICTED BY IDOCK:   -4.41 KCAL/MOL
REMARK 922        TOTAL FREE ENERGY PREDICTED BY IDOCK:   -8.54 KCAL/MOL
REMARK 923 INTER-LIGAND FREE ENERGY PREDICTED BY IDOCK:   -7.70 KCAL/MOL
REMARK 924 INTRA-LIGAND FREE ENERGY PREDICTED BY IDOCK:   -0.84 KCAL/MOL
REMARK 927      BINDING AFFINITY PREDICTED BY RF-SCORE:    0.00 PKD
ROOT
HETATM    1  C   UNL     1     -11.202  10.835  67.389  1.00  0.00    -0.241 C  
HETATM    2  O   UNL     1     -10.540  11.428  66.274  1.00  0.00    -0.247 OA 
ENDROOT
BRANCH   2   3
HETATM    3  C   UNL     1     -10.467  12.806  66.251  1.00  0.00    -0.257 A  
HETATM    4  C   UNL     1      -9.501  13.559  66.992  1.00  0.00    -0.251 A  
HETATM    5  C   UNL     1      -9.473  14.959  66.799  1.00  0.00    -0.252 A  
HETATM    6  C   UNL     1     -11.231  14.798  65.138  1.00  0.00    -0.384 A  
HETATM    7  O   UNL     1      -8.686  15.806  67.518  1.00  0.00    -0.170 OA 
HETATM    8  C   UNL     1     -11.336  13.423  65.317  1.00  0.00    -0.313 A  
HETATM    9  C   UNL     1     -10.318  15.539  65.861  1.00  0.00    -0.365 A  
HETATM   10  C   UNL     1     -10.414  16.940  65.444  1.00  0.00    -0.154 C  
HETATM   11  C   UNL     1     -12.351  12.620  64.552  1.00  0.00    -0.537 C  
HETATM   12  H   UNL     1      -8.667  16.746  67.389  1.00  0.00     0.000 HD 
HETATM   13  O   UNL     1     -11.406  16.995  64.492  1.00  0.00    -1.035 OA 
HETATM   14  C   UNL     1     -11.994  15.707  64.253  1.00  0.00    -0.115 C  
HETATM   15  O   UNL     1      -9.751  17.894  65.802  1.00  0.00    -0.527 OA 
BRANCH   4  16
HETATM   16  C   UNL     1      -8.636  12.830  68.002  1.00  0.00    -0.186 C  
BRANCH  16  17
HETATM   17  C   UNL     1      -7.692  11.766  67.544  1.00  0.00    -0.143 C  
HETATM   18  C   UNL     1      -6.783  11.116  68.295  1.00  0.00    -0.059 C  
HETATM   19  C   UNL     1      -6.587  11.303  69.776  1.00  0.00    -0.130 C  
BRANCH  18  20
HETATM   20  C   UNL     1      -5.855  10.129  67.629  1.00  0.00    -0.045 C  
BRANCH  20  21
HETATM   21  C   UNL     1      -6.647   8.979  67.022  1.00  0.00    -0.061 C  
BRANCH  21  22
HETATM   22  C   UNL     1      -6.690   7.809  67.964  1.00  0.00    -0.063 C  
HETATM   23  O   UNL     1      -5.722   7.251  68.457  1.00  0.00    -0.021 OA 
BRANCH  22  24
HETATM   24  O   UNL     1      -7.976   7.375  68.057  1.00  0.00    -0.116 OA 
BRANCH  24  25
HETATM   25  C   UNL     1      -8.786   8.195  68.915  1.00  0.00    -0.137 C  
BRANCH  25  26
HETATM   26  C   UNL     1      -9.265   7.284  70.059  1.00  0.00    -0.148 C  
BRANCH  26  27
HETATM   27  N   UNL     1     -10.715   7.133  70.211  1.00  0.00    -0.231 NA 
HETATM   28  C   UNL     1     -11.103   6.311  71.375  1.00  0.00    -0.284 C  
HETATM   29  C   UNL     1     -10.869   7.000  72.729  1.00  0.00    -0.288 C  
HETATM   30  O   UNL     1     -11.550   8.258  72.796  1.00  0.00    -0.395 OA 
HETATM   31  C   UNL     1     -11.144   9.122  71.728  1.00  0.00    -0.367 C  
HETATM   32  C   UNL     1     -11.362   8.461  70.353  1.00  0.00    -0.172 C  
ENDBRANCH  26  27
ENDBRANCH  25  26
ENDBRANCH  24  25
ENDBRANCH  22  24
ENDBRANCH  21  22
ENDBRANCH  20  21
ENDBRANCH  18  20
ENDBRANCH  16  17
ENDBRANCH   4  16
ENDBRANCH   2   3
TORSDOF 10
ENDMDL
MODEL      158
REMARK 921   NORMALIZED FREE ENERGY PREDICTED BY IDOCK:   -4.41 KCAL/MOL
REMARK 922        TOTAL FREE ENERGY PREDICTED BY IDOCK:   -8.53 KCAL/MOL
REMARK 923 INTER-LIGAND FREE ENERGY PREDICTED BY IDOCK:   -8.19 KCAL/MOL
REMARK 924 INTRA-LIGAND FREE ENERGY PREDICTED BY IDOCK:   -0.34 KCAL/MOL
REMARK 927      BINDING AFFINITY PREDICTED BY RF-SCORE:    0.00 PKD
ROOT
HETATM    1  C   UNL     1      -6.667  10.765  67.385  1.00  0.00    -0.076 C  
HETATM    2  O   UNL     1      -8.070  10.841  67.633  1.00  0.00    -0.113 OA 
ENDROOT
BRANCH   2   3
HETATM    3  C   UNL     1      -8.719   9.658  67.921  1.00  0.00    -0.119 A  
HETATM    4  C   UNL     1      -9.512   8.940  66.970  1.00  0.00    -0.215 A  
HETATM    5  C   UNL     1     -10.038   7.689  67.368  1.00  0.00    -0.222 A  
HETATM    6  C   UNL     1      -8.933   7.870  69.517  1.00  0.00    -0.142 A  
HETATM    7  O   UNL     1     -10.898   6.955  66.608  1.00  0.00    -0.523 OA 
HETATM    8  C   UNL     1      -8.424   9.124  69.201  1.00  0.00    -0.132 A  
HETATM    9  C   UNL     1      -9.716   7.176  68.617  1.00  0.00    -0.141 A  
HETATM   10  C   UNL     1     -10.081   5.886  69.209  1.00  0.00    -0.194 C  
HETATM   11  C   UNL     1      -7.596   9.894  70.191  1.00  0.00    -0.185 C  
HETATM   12  H   UNL     1     -11.251   6.115  66.875  1.00  0.00     0.000 HD 
HETATM   13  O   UNL     1      -9.518   5.860  70.464  1.00  0.00    -0.163 OA 
HETATM   14  C   UNL     1      -8.802   7.070  70.757  1.00  0.00    -0.149 C  
HETATM   15  O   UNL     1     -10.716   4.971  68.722  1.00  0.00     0.011 OA 
BRANCH   4  16
HETATM   16  C   UNL     1      -9.817   9.597  65.638  1.00  0.00    -0.369 C  
BRANCH  16  17
HETATM   17  C   UNL     1     -10.299  11.011  65.599  1.00  0.00    -0.311 C  
HETATM   18  C   UNL     1     -10.544  11.749  64.500  1.00  0.00    -0.364 C  
HETATM   19  C   UNL     1     -10.434  11.258  63.081  1.00  0.00    -0.293 C  
BRANCH  18  20
HETATM   20  C   UNL     1     -10.945  13.195  64.665  1.00  0.00    -0.374 C  
BRANCH  20  21
HETATM   21  C   UNL     1     -11.884  13.356  65.853  1.00  0.00    -0.414 C  
BRANCH  21  22
HETATM   22  C   UNL     1     -11.216  14.126  66.957  1.00  0.00    -0.318 C  
HETATM   23  O   UNL     1     -10.062  13.985  67.331  1.00  0.00    -0.240 OA 
BRANCH  22  24
HETATM   24  O   UNL     1     -12.151  14.897  67.574  1.00  0.00    -0.246 OA 
BRANCH  24  25
HETATM   25  C   UNL     1     -11.615  15.672  68.659  1.00  0.00    -0.382 C  
BRANCH  25  26
HETATM   26  C   UNL     1     -12.592  15.502  69.836  1.00  0.00    -0.133 C  
BRANCH  26  27
HETATM   27  N   UNL     1     -12.129  14.680  70.957  1.00  0.00    -0.311 NA 
HETATM   28  C   UNL     1     -11.843  15.457  72.180  1.00  0.00    -0.449 C  
HETATM   29  C   UNL     1     -13.100  15.996  72.882  1.00  0.00    -0.458 C  
HETATM   30  O   UNL     1     -14.010  14.938  73.202  1.00  0.00    -0.371 OA 
HETATM   31  C   UNL     1     -14.379  14.203  72.029  1.00  0.00    -0.512 C  
HETATM   32  C   UNL     1     -13.142  13.649  71.297  1.00  0.00    -0.282 C  
ENDBRANCH  26  27
ENDBRANCH  25  26
ENDBRANCH  24  25
ENDBRANCH  22  24
ENDBRANCH  21  22
ENDBRANCH  20  21
ENDBRANCH  18  20
ENDBRANCH  16  17
ENDBRANCH   4  16
ENDBRANCH   2   3
TORSDOF 10
ENDMDL
MODEL      159
REMARK 921   NORMALIZED FREE ENERGY PREDICTED BY IDOCK:   -4.41 KCAL/MOL
REMARK 922        TOTAL FREE ENERGY PREDICTED BY IDOCK:   -8.53 KCAL/MOL
REMARK 923 INTER-LIGAND FREE ENERGY PREDICTED BY IDOCK:   -7.77 KCAL/MOL
REMARK 924 INTRA-LIGAND FREE ENERGY PREDICTED BY IDOCK:   -0.76 KCAL/MOL
REMARK 927      BINDING AFFINITY PREDICTED BY RF-SCORE:    0.00 PKD
ROOT
HETATM    1  C   UNL     1     -12.247  11.059  71.173  1.00  0.00    -0.310 C  
HETATM    2  O   UNL     1     -12.080   9.999  70.233  1.00  0.00    -0.234 OA 
ENDROOT
BRANCH   2   3
HETATM    3  C   UNL     1     -11.245   8.963  70.600  1.00  0.00    -0.266 A  
HETATM    4  C   UNL     1      -9.845   8.934  70.306  1.00  0.00    -0.211 A  
HETATM    5  C   UNL     1      -9.087   7.860  70.828  1.00  0.00    -0.152 A  
HETATM    6  C   UNL     1     -11.049   6.978  71.946  1.00  0.00    -0.274 A  
HETATM    7  O   UNL     1      -7.775   7.648  70.535  1.00  0.00    -0.086 OA 
HETATM    8  C   UNL     1     -11.854   7.985  71.425  1.00  0.00    -0.326 A  
HETATM    9  C   UNL     1      -9.701   6.927  71.653  1.00  0.00    -0.163 A  
HETATM   10  C   UNL     1      -9.110   5.786  72.359  1.00  0.00    -0.141 C  
HETATM   11  C   UNL     1     -13.328   8.024  71.718  1.00  0.00    -0.370 C  
HETATM   12  H   UNL     1      -7.266   6.927  70.886  1.00  0.00     0.000 HD 
HETATM   13  O   UNL     1     -10.138   5.174  73.038  1.00  0.00    -0.160 OA 
HETATM   14  C   UNL     1     -11.395   5.833  72.820  1.00  0.00    -0.282 C  
HETATM   15  O   UNL     1      -7.949   5.429  72.402  1.00  0.00    -0.101 OA 
BRANCH   4  16
HETATM   16  C   UNL     1      -9.278   9.994  69.381  1.00  0.00    -0.229 C  
BRANCH  16  17
HETATM   17  C   UNL     1     -10.044  10.411  68.169  1.00  0.00    -0.179 C  
HETATM   18  C   UNL     1      -9.993   9.846  66.948  1.00  0.00    -0.268 C  
HETATM   19  C   UNL     1      -9.185   8.627  66.588  1.00  0.00    -0.227 C  
BRANCH  18  20
HETATM   20  C   UNL     1     -10.780  10.468  65.820  1.00  0.00    -0.055 C  
BRANCH  20  21
HETATM   21  C   UNL     1     -10.662  11.986  65.860  1.00  0.00    -0.314 C  
BRANCH  21  22
HETATM   22  C   UNL     1     -11.996  12.628  65.600  1.00  0.00    -0.452 C  
HETATM   23  O   UNL     1     -12.616  12.590  64.549  1.00  0.00    -0.558 OA 
BRANCH  22  24
HETATM   24  O   UNL     1     -12.327  13.388  66.678  1.00  0.00    -0.361 OA 
BRANCH  24  25
HETATM   25  C   UNL     1     -11.184  13.849  67.415  1.00  0.00    -0.312 C  
BRANCH  25  26
HETATM   26  C   UNL     1     -11.539  13.700  68.905  1.00  0.00    -0.322 C  
BRANCH  26  27
HETATM   27  N   UNL     1     -12.530  14.640  69.438  1.00  0.00    -0.148 NA 
HETATM   28  C   UNL     1     -12.696  14.554  70.903  1.00  0.00    -0.344 C  
HETATM   29  C   UNL     1     -11.503  15.109  71.697  1.00  0.00    -0.380 C  
HETATM   30  O   UNL     1     -11.224  16.467  71.336  1.00  0.00    -0.218 OA 
HETATM   31  C   UNL     1     -10.977  16.586  69.930  1.00  0.00    -0.270 C  
HETATM   32  C   UNL     1     -12.154  16.036  69.101  1.00  0.00    -0.053 C  
ENDBRANCH  26  27
ENDBRANCH  25  26
ENDBRANCH  24  25
ENDBRANCH  22  24
ENDBRANCH  21  22
ENDBRANCH  20  21
ENDBRANCH  18  20
ENDBRANCH  16  17
ENDBRANCH   4  16
ENDBRANCH   2   3
TORSDOF 10
ENDMDL
MODEL      160
REMARK 921   NORMALIZED FREE ENERGY PREDICTED BY IDOCK:   -4.40 KCAL/MOL
REMARK 922        TOTAL FREE ENERGY PREDICTED BY IDOCK:   -8.51 KCAL/MOL
REMARK 923 INTER-LIGAND FREE ENERGY PREDICTED BY IDOCK:   -7.75 KCAL/MOL
REMARK 924 INTRA-LIGAND FREE ENERGY PREDICTED BY IDOCK:   -0.77 KCAL/MOL
REMARK 927      BINDING AFFINITY PREDICTED BY RF-SCORE:    0.00 PKD
ROOT
HETATM    1  C   UNL     1     -11.957  12.541  65.338  1.00  0.00    -0.437 C  
HETATM    2  O   UNL     1     -10.843  13.317  64.901  1.00  0.00    -0.311 OA 
ENDROOT
BRANCH   2   3
HETATM    3  C   UNL     1     -10.376  14.284  65.769  1.00  0.00    -0.327 A  
HETATM    4  C   UNL     1      -9.450  14.016  66.826  1.00  0.00    -0.292 A  
HETATM    5  C   UNL     1      -8.977  15.117  67.577  1.00  0.00    -0.180 A  
HETATM    6  C   UNL     1     -10.241  16.649  66.189  1.00  0.00    -0.360 A  
HETATM    7  O   UNL     1      -8.184  14.996  68.678  1.00  0.00    -0.139 OA 
HETATM    8  C   UNL     1     -10.775  15.604  65.443  1.00  0.00    -0.424 A  
HETATM    9  C   UNL     1      -9.363  16.403  67.225  1.00  0.00    -0.227 A  
HETATM   10  C   UNL     1      -8.949  17.684  67.803  1.00  0.00    -0.247 C  
HETATM   11  C   UNL     1     -11.755  15.868  64.335  1.00  0.00    -0.179 C  
HETATM   12  H   UNL     1      -7.866  15.735  69.182  1.00  0.00     0.000 HD 
HETATM   13  O   UNL     1      -9.617  18.662  67.103  1.00  0.00    -0.287 OA 
HETATM   14  C   UNL     1     -10.470  18.109  66.089  1.00  0.00    -0.364 C  
HETATM   15  O   UNL     1      -8.151  17.901  68.695  1.00  0.00    -0.295 OA 
BRANCH   4  16
HETATM   16  C   UNL     1      -9.106  12.573  67.139  1.00  0.00    -0.205 C  
BRANCH  16  17
HETATM   17  C   UNL     1      -9.585  11.952  68.411  1.00  0.00    -0.196 C  
HETATM   18  C   UNL     1     -10.238  10.782  68.542  1.00  0.00    -0.192 C  
HETATM   19  C   UNL     1     -10.559   9.836  67.415  1.00  0.00    -0.330 C  
BRANCH  18  20
HETATM   20  C   UNL     1     -10.719  10.361  69.909  1.00  0.00    -0.331 C  
BRANCH  20  21
HETATM   21  C   UNL     1     -11.013   8.867  69.935  1.00  0.00    -0.190 C  
BRANCH  21  22
HETATM   22  C   UNL     1     -10.429   8.234  71.167  1.00  0.00    -0.209 C  
HETATM   23  O   UNL     1      -9.781   8.808  72.028  1.00  0.00    -0.299 OA 
BRANCH  22  24
HETATM   24  O   UNL     1     -10.610   6.888  71.089  1.00  0.00    -0.219 OA 
BRANCH  24  25
HETATM   25  C   UNL     1     -11.222   6.473  69.857  1.00  0.00    -0.395 C  
BRANCH  25  26
HETATM   26  C   UNL     1     -10.247   5.478  69.203  1.00  0.00    -0.239 C  
BRANCH  26  27
HETATM   27  N   UNL     1      -9.435   5.992  68.096  1.00  0.00    -0.114 NA 
HETATM   28  C   UNL     1      -8.223   5.189  67.832  1.00  0.00    -0.098 C  
HETATM   29  C   UNL     1      -8.511   3.818  67.201  1.00  0.00    -0.100 C  
HETATM   30  O   UNL     1      -9.257   3.952  65.985  1.00  0.00    -0.140 OA 
HETATM   31  C   UNL     1     -10.484   4.657  66.209  1.00  0.00    -0.207 C  
HETATM   32  C   UNL     1     -10.233   6.038  66.845  1.00  0.00    -0.210 C  
ENDBRANCH  26  27
ENDBRANCH  25  26
ENDBRANCH  24  25
ENDBRANCH  22  24
ENDBRANCH  21  22
ENDBRANCH  20  21
ENDBRANCH  18  20
ENDBRANCH  16  17
ENDBRANCH   4  16
ENDBRANCH   2   3
TORSDOF 10
ENDMDL
MODEL      161
REMARK 921   NORMALIZED FREE ENERGY PREDICTED BY IDOCK:   -4.38 KCAL/MOL
REMARK 922        TOTAL FREE ENERGY PREDICTED BY IDOCK:   -8.48 KCAL/MOL
REMARK 923 INTER-LIGAND FREE ENERGY PREDICTED BY IDOCK:   -7.79 KCAL/MOL
REMARK 924 INTRA-LIGAND FREE ENERGY PREDICTED BY IDOCK:   -0.68 KCAL/MOL
REMARK 927      BINDING AFFINITY PREDICTED BY RF-SCORE:    0.00 PKD
ROOT
HETATM    1  C   UNL     1     -10.647  11.047  66.785  1.00  0.00    -0.266 C  
HETATM    2  O   UNL     1     -11.877  11.734  67.005  1.00  0.00    -0.599 OA 
ENDROOT
BRANCH   2   3
HETATM    3  C   UNL     1     -11.908  12.643  68.043  1.00  0.00    -0.323 A  
HETATM    4  C   UNL     1     -12.107  12.274  69.411  1.00  0.00    -0.234 A  
HETATM    5  C   UNL     1     -12.017  13.295  70.385  1.00  0.00    -0.275 A  
HETATM    6  C   UNL     1     -11.465  14.922  68.676  1.00  0.00    -0.326 A  
HETATM    7  O   UNL     1     -12.293  13.108  71.705  1.00  0.00    -0.070 OA 
HETATM    8  C   UNL     1     -11.584  13.971  67.668  1.00  0.00    -0.385 A  
HETATM    9  C   UNL     1     -11.674  14.584  69.997  1.00  0.00    -0.359 A  
HETATM   10  C   UNL     1     -11.453  15.772  70.826  1.00  0.00    -0.393 C  
HETATM   11  C   UNL     1     -11.386  14.344  66.226  1.00  0.00    -0.350 C  
HETATM   12  H   UNL     1     -12.232  13.793  72.359  1.00  0.00     0.000 HD 
HETATM   13  O   UNL     1     -11.139  16.796  69.963  1.00  0.00    -0.244 OA 
HETATM   14  C   UNL     1     -11.147  16.366  68.593  1.00  0.00    -0.352 C  
HETATM   15  O   UNL     1     -11.489  15.879  72.036  1.00  0.00    -0.401 OA 
BRANCH   4  16
HETATM   16  C   UNL     1     -12.492  10.842  69.726  1.00  0.00    -0.231 C  
BRANCH  16  17
HETATM   17  C   UNL     1     -11.616  10.011  70.607  1.00  0.00    -0.422 C  
HETATM   18  C   UNL     1     -12.015   9.091  71.505  1.00  0.00    -0.414 C  
HETATM   19  C   UNL     1     -13.443   8.677  71.748  1.00  0.00    -0.418 C  
BRANCH  18  20
HETATM   20  C   UNL     1     -10.979   8.413  72.367  1.00  0.00    -0.425 C  
BRANCH  20  21
HETATM   21  C   UNL     1      -9.587   8.605  71.779  1.00  0.00    -0.360 C  
BRANCH  21  22
HETATM   22  C   UNL     1      -8.561   7.868  72.594  1.00  0.00    -0.153 C  
HETATM   23  O   UNL     1      -7.695   8.380  73.286  1.00  0.00    -0.275 OA 
BRANCH  22  24
HETATM   24  O   UNL     1      -8.658   6.541  72.314  1.00  0.00    -0.123 OA 
BRANCH  24  25
HETATM   25  C   UNL     1      -7.625   6.076  71.430  1.00  0.00    -0.099 C  
BRANCH  25  26
HETATM   26  C   UNL     1      -7.941   4.599  71.134  1.00  0.00    -0.087 C  
BRANCH  26  27
HETATM   27  N   UNL     1      -7.767   4.158  69.747  1.00  0.00    -0.053 NA 
HETATM   28  C   UNL     1      -6.360   4.173  69.296  1.00  0.00    -0.029 C  
HETATM   29  C   UNL     1      -5.494   3.070  69.927  1.00  0.00    -0.016 C  
HETATM   30  O   UNL     1      -6.049   1.772  69.687  1.00  0.00    -0.023 OA 
HETATM   31  C   UNL     1      -7.391   1.686  70.182  1.00  0.00    -0.036 C  
HETATM   32  C   UNL     1      -8.289   2.780  69.572  1.00  0.00    -0.055 C  
ENDBRANCH  26  27
ENDBRANCH  25  26
ENDBRANCH  24  25
ENDBRANCH  22  24
ENDBRANCH  21  22
ENDBRANCH  20  21
ENDBRANCH  18  20
ENDBRANCH  16  17
ENDBRANCH   4  16
ENDBRANCH   2   3
TORSDOF 10
ENDMDL
MODEL      162
REMARK 921   NORMALIZED FREE ENERGY PREDICTED BY IDOCK:   -4.38 KCAL/MOL
REMARK 922        TOTAL FREE ENERGY PREDICTED BY IDOCK:   -8.47 KCAL/MOL
REMARK 923 INTER-LIGAND FREE ENERGY PREDICTED BY IDOCK:   -7.16 KCAL/MOL
REMARK 924 INTRA-LIGAND FREE ENERGY PREDICTED BY IDOCK:   -1.32 KCAL/MOL
REMARK 927      BINDING AFFINITY PREDICTED BY RF-SCORE:    0.00 PKD
ROOT
HETATM    1  C   UNL     1      -6.476  10.490  64.842  1.00  0.00    -0.008 C  
HETATM    2  O   UNL     1      -7.679   9.835  65.240  1.00  0.00    -0.111 OA 
ENDROOT
BRANCH   2   3
HETATM    3  C   UNL     1      -8.619  10.600  65.900  1.00  0.00    -0.172 A  
HETATM    4  C   UNL     1      -8.463  11.054  67.249  1.00  0.00    -0.130 A  
HETATM    5  C   UNL     1      -9.457  11.915  67.769  1.00  0.00    -0.184 A  
HETATM    6  C   UNL     1     -10.620  11.911  65.643  1.00  0.00    -0.311 A  
HETATM    7  O   UNL     1      -9.494  12.331  69.065  1.00  0.00    -0.393 OA 
HETATM    8  C   UNL     1      -9.699  11.029  65.089  1.00  0.00    -0.302 A  
HETATM    9  C   UNL     1     -10.493  12.341  66.948  1.00  0.00    -0.240 A  
HETATM   10  C   UNL     1     -11.582  13.277  67.242  1.00  0.00    -0.359 C  
HETATM   11  C   UNL     1      -9.853  10.536  63.677  1.00  0.00    -0.354 C  
HETATM   12  H   UNL     1     -10.161  12.909  69.415  1.00  0.00     0.000 HD 
HETATM   13  O   UNL     1     -12.344  13.359  66.100  1.00  0.00    -0.415 OA 
HETATM   14  C   UNL     1     -11.835  12.519  65.052  1.00  0.00    -0.396 C  
HETATM   15  O   UNL     1     -11.795  13.910  68.258  1.00  0.00    -0.343 OA 
BRANCH   4  16
HETATM   16  C   UNL     1      -7.304  10.517  68.064  1.00  0.00    -0.089 C  
BRANCH  16  17
HETATM   17  C   UNL     1      -7.382   9.148  68.657  1.00  0.00    -0.076 C  
HETATM   18  C   UNL     1      -6.697   8.689  69.722  1.00  0.00    -0.042 C  
HETATM   19  C   UNL     1      -5.754   9.506  70.565  1.00  0.00    -0.048 C  
BRANCH  18  20
HETATM   20  C   UNL     1      -6.848   7.241  70.120  1.00  0.00    -0.059 C  
BRANCH  20  21
HETATM   21  C   UNL     1      -7.996   7.076  71.107  1.00  0.00    -0.104 C  
BRANCH  21  22
HETATM   22  C   UNL     1      -8.862   5.909  70.721  1.00  0.00    -0.138 C  
HETATM   23  O   UNL     1      -8.683   4.746  71.048  1.00  0.00    -0.112 OA 
BRANCH  22  24
HETATM   24  O   UNL     1      -9.789   6.337  69.823  1.00  0.00    -0.161 OA 
BRANCH  24  25
HETATM   25  C   UNL     1     -11.135   6.012  70.205  1.00  0.00    -0.361 C  
BRANCH  25  26
HETATM   26  C   UNL     1     -11.876   7.351  70.361  1.00  0.00    -0.083 C  
BRANCH  26  27
HETATM   27  N   UNL     1     -11.344   8.280  71.362  1.00  0.00    -0.253 NA 
HETATM   28  C   UNL     1     -11.170   9.657  70.857  1.00  0.00    -0.352 C  
HETATM   29  C   UNL     1     -12.493  10.406  70.627  1.00  0.00    -0.348 C  
HETATM   30  O   UNL     1     -13.283  10.442  71.821  1.00  0.00    -0.420 OA 
HETATM   31  C   UNL     1     -13.545   9.119  72.305  1.00  0.00    -0.489 C  
HETATM   32  C   UNL     1     -12.240   8.337  72.544  1.00  0.00    -0.307 C  
ENDBRANCH  26  27
ENDBRANCH  25  26
ENDBRANCH  24  25
ENDBRANCH  22  24
ENDBRANCH  21  22
ENDBRANCH  20  21
ENDBRANCH  18  20
ENDBRANCH  16  17
ENDBRANCH   4  16
ENDBRANCH   2   3
TORSDOF 10
ENDMDL
MODEL      163
REMARK 921   NORMALIZED FREE ENERGY PREDICTED BY IDOCK:   -4.37 KCAL/MOL
REMARK 922        TOTAL FREE ENERGY PREDICTED BY IDOCK:   -8.47 KCAL/MOL
REMARK 923 INTER-LIGAND FREE ENERGY PREDICTED BY IDOCK:   -8.37 KCAL/MOL
REMARK 924 INTRA-LIGAND FREE ENERGY PREDICTED BY IDOCK:   -0.10 KCAL/MOL
REMARK 927      BINDING AFFINITY PREDICTED BY RF-SCORE:    0.00 PKD
ROOT
HETATM    1  C   UNL     1      -7.694   7.163  68.118  1.00  0.00    -0.117 C  
HETATM    2  O   UNL     1      -9.069   7.118  68.491  1.00  0.00    -0.133 OA 
ENDROOT
BRANCH   2   3
HETATM    3  C   UNL     1      -9.360   6.639  69.752  1.00  0.00    -0.145 A  
HETATM    4  C   UNL     1      -9.642   7.482  70.874  1.00  0.00    -0.165 A  
HETATM    5  C   UNL     1     -10.023   6.858  72.084  1.00  0.00    -0.162 A  
HETATM    6  C   UNL     1      -9.923   4.678  71.029  1.00  0.00    -0.270 A  
HETATM    7  O   UNL     1     -10.210   7.528  73.254  1.00  0.00    -0.286 OA 
HETATM    8  C   UNL     1      -9.502   5.230  69.824  1.00  0.00    -0.207 A  
HETATM    9  C   UNL     1     -10.178   5.478  72.124  1.00  0.00    -0.247 A  
HETATM   10  C   UNL     1     -10.629   4.630  73.231  1.00  0.00    -0.219 C  
HETATM   11  C   UNL     1      -9.194   4.357  68.640  1.00  0.00    -0.189 C  
HETATM   12  H   UNL     1     -10.466   7.109  74.067  1.00  0.00     0.000 HD 
HETATM   13  O   UNL     1     -10.606   3.336  72.763  1.00  0.00    -0.152 OA 
HETATM   14  C   UNL     1     -10.152   3.264  71.403  1.00  0.00     0.080 C  
HETATM   15  O   UNL     1     -10.997   4.953  74.343  1.00  0.00    -0.311 OA 
BRANCH   4  16
HETATM   16  C   UNL     1      -9.426   8.976  70.728  1.00  0.00    -0.308 C  
BRANCH  16  17
HETATM   17  C   UNL     1      -9.939   9.688  69.519  1.00  0.00    -0.223 C  
HETATM   18  C   UNL     1     -11.019  10.490  69.453  1.00  0.00    -0.297 C  
HETATM   19  C   UNL     1     -11.889  10.873  70.620  1.00  0.00    -0.453 C  
BRANCH  18  20
HETATM   20  C   UNL     1     -11.430  11.053  68.114  1.00  0.00    -0.374 C  
BRANCH  20  21
HETATM   21  C   UNL     1     -11.808  12.522  68.246  1.00  0.00    -0.361 C  
BRANCH  21  22
HETATM   22  C   UNL     1     -11.834  13.186  66.898  1.00  0.00    -0.386 C  
HETATM   23  O   UNL     1     -11.845  12.615  65.819  1.00  0.00    -0.401 OA 
BRANCH  22  24
HETATM   24  O   UNL     1     -11.687  14.527  67.073  1.00  0.00    -0.377 OA 
BRANCH  24  25
HETATM   25  C   UNL     1     -10.903  15.147  66.041  1.00  0.00    -0.335 C  
BRANCH  25  26
HETATM   26  C   UNL     1      -9.799  15.945  66.757  1.00  0.00    -0.244 C  
BRANCH  26  27
HETATM   27  N   UNL     1      -9.293  17.131  66.059  1.00  0.00    -0.504 NA 
HETATM   28  C   UNL     1     -10.265  18.241  66.001  1.00  0.00    -0.323 C  
HETATM   29  C   UNL     1     -10.497  18.935  67.353  1.00  0.00    -0.449 C  
HETATM   30  O   UNL     1      -9.268  19.418  67.907  1.00  0.00    -0.304 OA 
HETATM   31  C   UNL     1      -8.318  18.356  68.056  1.00  0.00    -0.272 C  
HETATM   32  C   UNL     1      -8.063  17.635  66.719  1.00  0.00    -0.236 C  
ENDBRANCH  26  27
ENDBRANCH  25  26
ENDBRANCH  24  25
ENDBRANCH  22  24
ENDBRANCH  21  22
ENDBRANCH  20  21
ENDBRANCH  18  20
ENDBRANCH  16  17
ENDBRANCH   4  16
ENDBRANCH   2   3
TORSDOF 10
ENDMDL
MODEL      164
REMARK 921   NORMALIZED FREE ENERGY PREDICTED BY IDOCK:   -4.37 KCAL/MOL
REMARK 922        TOTAL FREE ENERGY PREDICTED BY IDOCK:   -8.47 KCAL/MOL
REMARK 923 INTER-LIGAND FREE ENERGY PREDICTED BY IDOCK:   -8.02 KCAL/MOL
REMARK 924 INTRA-LIGAND FREE ENERGY PREDICTED BY IDOCK:   -0.45 KCAL/MOL
REMARK 927      BINDING AFFINITY PREDICTED BY RF-SCORE:    0.00 PKD
ROOT
HETATM    1  C   UNL     1      -5.720   8.329  67.592  1.00  0.00    -0.039 C  
HETATM    2  O   UNL     1      -6.594   7.364  68.175  1.00  0.00    -0.047 OA 
ENDROOT
BRANCH   2   3
HETATM    3  C   UNL     1      -7.745   7.841  68.769  1.00  0.00    -0.113 A  
HETATM    4  C   UNL     1      -8.949   8.120  68.047  1.00  0.00    -0.134 A  
HETATM    5  C   UNL     1     -10.085   8.508  68.795  1.00  0.00    -0.196 A  
HETATM    6  C   UNL     1      -8.854   8.243  70.866  1.00  0.00    -0.171 A  
HETATM    7  O   UNL     1     -11.258   8.911  68.233  1.00  0.00    -0.418 OA 
HETATM    8  C   UNL     1      -7.692   7.899  70.184  1.00  0.00    -0.088 A  
HETATM    9  C   UNL     1     -10.016   8.535  70.182  1.00  0.00    -0.187 A  
HETATM   10  C   UNL     1     -11.072   8.832  71.154  1.00  0.00    -0.276 C  
HETATM   11  C   UNL     1      -6.417   7.610  70.926  1.00  0.00    -0.038 C  
HETATM   12  H   UNL     1     -12.021   9.171  68.735  1.00  0.00     0.000 HD 
HETATM   13  O   UNL     1     -10.494   8.728  72.398  1.00  0.00    -0.305 OA 
HETATM   14  C   UNL     1      -9.101   8.390  72.319  1.00  0.00    -0.243 C  
HETATM   15  O   UNL     1     -12.245   9.085  70.960  1.00  0.00    -0.289 OA 
BRANCH   4  16
HETATM   16  C   UNL     1      -8.912   8.077  66.532  1.00  0.00    -0.188 C  
BRANCH  16  17
HETATM   17  C   UNL     1      -9.737   9.038  65.740  1.00  0.00    -0.254 C  
HETATM   18  C   UNL     1      -9.471  10.340  65.522  1.00  0.00    -0.277 C  
HETATM   19  C   UNL     1      -8.240  11.067  65.995  1.00  0.00    -0.129 C  
BRANCH  18  20
HETATM   20  C   UNL     1     -10.474  11.174  64.763  1.00  0.00    -0.388 C  
BRANCH  20  21
HETATM   21  C   UNL     1     -10.638  12.539  65.419  1.00  0.00    -0.310 C  
BRANCH  21  22
HETATM   22  C   UNL     1     -12.042  13.047  65.242  1.00  0.00    -0.441 C  
HETATM   23  O   UNL     1     -13.003  12.384  64.882  1.00  0.00    -0.762 OA 
BRANCH  22  24
HETATM   24  O   UNL     1     -12.036  14.398  65.399  1.00  0.00    -0.374 OA 
BRANCH  24  25
HETATM   25  C   UNL     1     -10.727  14.974  65.269  1.00  0.00    -0.389 C  
BRANCH  25  26
HETATM   26  C   UNL     1     -10.882  16.475  65.574  1.00  0.00    -0.188 C  
BRANCH  26  27
HETATM   27  N   UNL     1     -10.429  16.923  66.894  1.00  0.00    -0.300 NA 
HETATM   28  C   UNL     1      -9.046  16.515  67.213  1.00  0.00    -0.204 C  
HETATM   29  C   UNL     1      -7.975  17.268  66.409  1.00  0.00    -0.303 C  
HETATM   30  O   UNL     1      -8.096  18.685  66.581  1.00  0.00    -0.253 OA 
HETATM   31  C   UNL     1      -9.402  19.139  66.206  1.00  0.00    -0.315 C  
HETATM   32  C   UNL     1     -10.503  18.402  66.992  1.00  0.00    -0.399 C  
ENDBRANCH  26  27
ENDBRANCH  25  26
ENDBRANCH  24  25
ENDBRANCH  22  24
ENDBRANCH  21  22
ENDBRANCH  20  21
ENDBRANCH  18  20
ENDBRANCH  16  17
ENDBRANCH   4  16
ENDBRANCH   2   3
TORSDOF 10
ENDMDL
MODEL      165
REMARK 921   NORMALIZED FREE ENERGY PREDICTED BY IDOCK:   -4.36 KCAL/MOL
REMARK 922        TOTAL FREE ENERGY PREDICTED BY IDOCK:   -8.45 KCAL/MOL
REMARK 923 INTER-LIGAND FREE ENERGY PREDICTED BY IDOCK:   -7.44 KCAL/MOL
REMARK 924 INTRA-LIGAND FREE ENERGY PREDICTED BY IDOCK:   -1.01 KCAL/MOL
REMARK 927      BINDING AFFINITY PREDICTED BY RF-SCORE:    0.00 PKD
ROOT
HETATM    1  C   UNL     1     -11.502  13.626  67.490  1.00  0.00    -0.329 C  
HETATM    2  O   UNL     1     -10.678  14.091  68.558  1.00  0.00    -0.242 OA 
ENDROOT
BRANCH   2   3
HETATM    3  C   UNL     1      -9.497  14.715  68.210  1.00  0.00    -0.211 A  
HETATM    4  C   UNL     1      -8.274  14.013  67.967  1.00  0.00    -0.155 A  
HETATM    5  C   UNL     1      -7.164  14.766  67.521  1.00  0.00    -0.197 A  
HETATM    6  C   UNL     1      -8.505  16.785  67.489  1.00  0.00    -0.203 A  
HETATM    7  O   UNL     1      -5.915  14.249  67.359  1.00  0.00    -0.346 OA 
HETATM    8  C   UNL     1      -9.619  16.106  67.970  1.00  0.00    -0.220 A  
HETATM    9  C   UNL     1      -7.314  16.124  67.270  1.00  0.00    -0.226 A  
HETATM   10  C   UNL     1      -6.337  17.080  66.740  1.00  0.00    -0.211 C  
HETATM   11  C   UNL     1     -10.909  16.830  68.239  1.00  0.00    -0.366 C  
HETATM   12  H   UNL     1      -5.169  14.755  67.059  1.00  0.00     0.000 HD 
HETATM   13  O   UNL     1      -6.976  18.296  66.682  1.00  0.00    -0.190 OA 
HETATM   14  C   UNL     1      -8.330  18.217  67.155  1.00  0.00    -0.238 C  
HETATM   15  O   UNL     1      -5.194  16.885  66.374  1.00  0.00    -0.351 OA 
BRANCH   4  16
HETATM   16  C   UNL     1      -8.213  12.532  68.289  1.00  0.00    -0.168 C  
BRANCH  16  17
HETATM   17  C   UNL     1      -8.645  11.530  67.268  1.00  0.00    -0.150 C  
HETATM   18  C   UNL     1      -7.850  10.833  66.434  1.00  0.00    -0.148 C  
HETATM   19  C   UNL     1      -6.345  10.892  66.417  1.00  0.00    -0.132 C  
BRANCH  18  20
HETATM   20  C   UNL     1      -8.483   9.926  65.408  1.00  0.00    -0.155 C  
BRANCH  20  21
HETATM   21  C   UNL     1      -9.829   9.416  65.905  1.00  0.00    -0.362 C  
BRANCH  21  22
HETATM   22  C   UNL     1      -9.701   8.018  66.442  1.00  0.00    -0.185 C  
HETATM   23  O   UNL     1      -8.935   7.161  66.031  1.00  0.00    -0.161 OA 
BRANCH  22  24
HETATM   24  O   UNL     1     -10.685   7.815  67.358  1.00  0.00    -0.278 OA 
BRANCH  24  25
HETATM   25  C   UNL     1     -10.623   8.730  68.464  1.00  0.00    -0.129 C  
BRANCH  25  26
HETATM   26  C   UNL     1     -10.513   7.867  69.734  1.00  0.00    -0.233 C  
BRANCH  26  27
HETATM   27  N   UNL     1     -11.503   8.123  70.785  1.00  0.00    -0.277 NA 
HETATM   28  C   UNL     1     -12.176   6.902  71.271  1.00  0.00    -0.380 C  
HETATM   29  C   UNL     1     -11.273   5.989  72.116  1.00  0.00    -0.291 C  
HETATM   30  O   UNL     1     -10.720   6.695  73.233  1.00  0.00    -0.265 OA 
HETATM   31  C   UNL     1      -9.988   7.849  72.802  1.00  0.00    -0.283 C  
HETATM   32  C   UNL     1     -10.863   8.786  71.949  1.00  0.00    -0.360 C  
ENDBRANCH  26  27
ENDBRANCH  25  26
ENDBRANCH  24  25
ENDBRANCH  22  24
ENDBRANCH  21  22
ENDBRANCH  20  21
ENDBRANCH  18  20
ENDBRANCH  16  17
ENDBRANCH   4  16
ENDBRANCH   2   3
TORSDOF 10
ENDMDL
MODEL      166
REMARK 921   NORMALIZED FREE ENERGY PREDICTED BY IDOCK:   -4.35 KCAL/MOL
REMARK 922        TOTAL FREE ENERGY PREDICTED BY IDOCK:   -8.44 KCAL/MOL
REMARK 923 INTER-LIGAND FREE ENERGY PREDICTED BY IDOCK:   -7.52 KCAL/MOL
REMARK 924 INTRA-LIGAND FREE ENERGY PREDICTED BY IDOCK:   -0.92 KCAL/MOL
REMARK 927      BINDING AFFINITY PREDICTED BY RF-SCORE:    0.00 PKD
ROOT
HETATM    1  C   UNL     1     -12.601  11.969  63.528  1.00  0.00    -0.507 C  
HETATM    2  O   UNL     1     -12.874  12.627  64.764  1.00  0.00    -0.730 OA 
ENDROOT
BRANCH   2   3
HETATM    3  C   UNL     1     -11.824  13.292  65.363  1.00  0.00    -0.359 A  
HETATM    4  C   UNL     1     -10.839  12.645  66.176  1.00  0.00    -0.301 A  
HETATM    5  C   UNL     1      -9.760  13.429  66.646  1.00  0.00    -0.275 A  
HETATM    6  C   UNL     1     -10.602  15.363  65.452  1.00  0.00    -0.430 A  
HETATM    7  O   UNL     1      -8.817  12.973  67.515  1.00  0.00    -0.174 OA 
HETATM    8  C   UNL     1     -11.709  14.656  64.995  1.00  0.00    -0.385 A  
HETATM    9  C   UNL     1      -9.655  14.757  66.253  1.00  0.00    -0.339 A  
HETATM   10  C   UNL     1      -8.601  15.730  66.551  1.00  0.00    -0.308 C  
HETATM   11  C   UNL     1     -12.756  15.323  64.149  1.00  0.00     0.455 C  
HETATM   12  H   UNL     1      -8.092  13.499  67.831  1.00  0.00     0.000 HD 
HETATM   13  O   UNL     1      -8.967  16.902  65.932  1.00  0.00    -0.509 OA 
HETATM   14  C   UNL     1     -10.219  16.778  65.241  1.00  0.00     0.059 C  
HETATM   15  O   UNL     1      -7.572  15.576  67.179  1.00  0.00    -0.200 OA 
BRANCH   4  16
HETATM   16  C   UNL     1     -11.056  11.195  66.559  1.00  0.00    -0.233 C  
BRANCH  16  17
HETATM   17  C   UNL     1     -11.440  10.844  67.960  1.00  0.00    -0.356 C  
HETATM   18  C   UNL     1     -10.834   9.949  68.763  1.00  0.00    -0.240 C  
HETATM   19  C   UNL     1      -9.598   9.165  68.412  1.00  0.00    -0.162 C  
BRANCH  18  20
HETATM   20  C   UNL     1     -11.425   9.669  70.123  1.00  0.00    -0.238 C  
BRANCH  20  21
HETATM   21  C   UNL     1     -10.324   9.528  71.165  1.00  0.00    -0.330 C  
BRANCH  21  22
HETATM   22  C   UNL     1     -10.708   8.517  72.209  1.00  0.00    -0.341 C  
HETATM   23  O   UNL     1     -11.846   8.175  72.489  1.00  0.00    -0.379 OA 
BRANCH  22  24
HETATM   24  O   UNL     1      -9.590   8.159  72.897  1.00  0.00    -0.257 OA 
BRANCH  24  25
HETATM   25  C   UNL     1      -8.444   7.972  72.050  1.00  0.00    -0.144 C  
BRANCH  25  26
HETATM   26  C   UNL     1      -8.340   6.459  71.791  1.00  0.00    -0.120 C  
BRANCH  26  27
HETATM   27  N   UNL     1      -8.851   5.980  70.503  1.00  0.00    -0.144 NA 
HETATM   28  C   UNL     1      -7.850   5.238  69.710  1.00  0.00    -0.073 C  
HETATM   29  C   UNL     1      -7.514   3.849  70.278  1.00  0.00    -0.045 C  
HETATM   30  O   UNL     1      -8.691   3.045  70.417  1.00  0.00    -0.060 OA 
HETATM   31  C   UNL     1      -9.663   3.693  71.246  1.00  0.00    -0.169 C  
HETATM   32  C   UNL     1     -10.022   5.091  70.708  1.00  0.00    -0.221 C  
ENDBRANCH  26  27
ENDBRANCH  25  26
ENDBRANCH  24  25
ENDBRANCH  22  24
ENDBRANCH  21  22
ENDBRANCH  20  21
ENDBRANCH  18  20
ENDBRANCH  16  17
ENDBRANCH   4  16
ENDBRANCH   2   3
TORSDOF 10
ENDMDL
MODEL      167
REMARK 921   NORMALIZED FREE ENERGY PREDICTED BY IDOCK:   -4.35 KCAL/MOL
REMARK 922        TOTAL FREE ENERGY PREDICTED BY IDOCK:   -8.43 KCAL/MOL
REMARK 923 INTER-LIGAND FREE ENERGY PREDICTED BY IDOCK:   -7.29 KCAL/MOL
REMARK 924 INTRA-LIGAND FREE ENERGY PREDICTED BY IDOCK:   -1.14 KCAL/MOL
REMARK 927      BINDING AFFINITY PREDICTED BY RF-SCORE:    0.00 PKD
ROOT
HETATM    1  C   UNL     1      -8.525   8.301  65.358  1.00  0.00    -0.172 C  
HETATM    2  O   UNL     1      -9.419   9.037  66.189  1.00  0.00    -0.213 OA 
ENDROOT
BRANCH   2   3
HETATM    3  C   UNL     1      -9.344   8.807  67.547  1.00  0.00    -0.136 A  
HETATM    4  C   UNL     1      -8.594   9.628  68.448  1.00  0.00    -0.119 A  
HETATM    5  C   UNL     1      -8.685   9.337  69.830  1.00  0.00    -0.162 A  
HETATM    6  C   UNL     1     -10.271   7.560  69.385  1.00  0.00    -0.204 A  
HETATM    7  O   UNL     1      -7.941   9.962  70.783  1.00  0.00    -0.395 OA 
HETATM    8  C   UNL     1     -10.190   7.768  68.013  1.00  0.00    -0.249 A  
HETATM    9  C   UNL     1      -9.538   8.331  70.263  1.00  0.00    -0.169 A  
HETATM   10  C   UNL     1      -9.846   7.906  71.631  1.00  0.00    -0.167 C  
HETATM   11  C   UNL     1     -10.964   6.910  67.053  1.00  0.00    -0.404 C  
HETATM   12  H   UNL     1      -8.002   9.767  71.711  1.00  0.00     0.000 HD 
HETATM   13  O   UNL     1     -10.745   6.870  71.524  1.00  0.00    -0.221 OA 
HETATM   14  C   UNL     1     -11.052   6.564  70.155  1.00  0.00    -0.351 C  
HETATM   15  O   UNL     1      -9.448   8.364  72.684  1.00  0.00    -0.269 OA 
BRANCH   4  16
HETATM   16  C   UNL     1      -7.681  10.690  67.869  1.00  0.00    -0.100 C  
BRANCH  16  17
HETATM   17  C   UNL     1      -8.103  12.123  67.884  1.00  0.00    -0.153 C  
HETATM   18  C   UNL     1      -7.299  13.202  67.827  1.00  0.00    -0.143 C  
HETATM   19  C   UNL     1      -5.802  13.162  67.674  1.00  0.00    -0.122 C  
BRANCH  18  20
HETATM   20  C   UNL     1      -7.911  14.577  67.943  1.00  0.00    -0.152 C  
BRANCH  20  21
HETATM   21  C   UNL     1      -8.555  14.987  66.625  1.00  0.00    -0.246 C  
BRANCH  21  22
HETATM   22  C   UNL     1      -8.997  16.423  66.674  1.00  0.00    -0.258 C  
HETATM   23  O   UNL     1      -9.082  17.179  65.719  1.00  0.00    -0.525 OA 
BRANCH  22  24
HETATM   24  O   UNL     1      -9.137  16.787  67.977  1.00  0.00    -0.220 OA 
BRANCH  24  25
HETATM   25  C   UNL     1     -10.413  17.384  68.260  1.00  0.00    -0.385 C  
BRANCH  25  26
HETATM   26  C   UNL     1     -11.046  16.541  69.381  1.00  0.00    -0.253 C  
BRANCH  26  27
HETATM   27  N   UNL     1     -12.271  15.812  69.039  1.00  0.00    -0.179 NA 
HETATM   28  C   UNL     1     -12.057  14.727  68.059  1.00  0.00    -0.128 C  
HETATM   29  C   UNL     1     -11.300  13.517  68.629  1.00  0.00    -0.288 C  
HETATM   30  O   UNL     1     -11.965  12.983  69.780  1.00  0.00    -0.316 OA 
HETATM   31  C   UNL     1     -12.124  13.984  70.792  1.00  0.00    -0.345 C  
HETATM   32  C   UNL     1     -12.877  15.216  70.256  1.00  0.00    -0.245 C  
ENDBRANCH  26  27
ENDBRANCH  25  26
ENDBRANCH  24  25
ENDBRANCH  22  24
ENDBRANCH  21  22
ENDBRANCH  20  21
ENDBRANCH  18  20
ENDBRANCH  16  17
ENDBRANCH   4  16
ENDBRANCH   2   3
TORSDOF 10
ENDMDL
MODEL      168
REMARK 921   NORMALIZED FREE ENERGY PREDICTED BY IDOCK:   -4.34 KCAL/MOL
REMARK 922        TOTAL FREE ENERGY PREDICTED BY IDOCK:   -8.42 KCAL/MOL
REMARK 923 INTER-LIGAND FREE ENERGY PREDICTED BY IDOCK:   -8.18 KCAL/MOL
REMARK 924 INTRA-LIGAND FREE ENERGY PREDICTED BY IDOCK:   -0.24 KCAL/MOL
REMARK 927      BINDING AFFINITY PREDICTED BY RF-SCORE:    0.00 PKD
ROOT
HETATM    1  C   UNL     1     -12.429  13.799  71.165  1.00  0.00    -0.370 C  
HETATM    2  O   UNL     1     -13.076  12.914  70.253  1.00  0.00     0.319 OA 
ENDROOT
BRANCH   2   3
HETATM    3  C   UNL     1     -12.388  11.773  69.894  1.00  0.00    -0.132 A  
HETATM    4  C   UNL     1     -11.586  11.672  68.712  1.00  0.00    -0.374 A  
HETATM    5  C   UNL     1     -10.854  10.478  68.517  1.00  0.00    -0.234 A  
HETATM    6  C   UNL     1     -11.643   9.609  70.637  1.00  0.00    -0.371 A  
HETATM    7  O   UNL     1     -10.143  10.204  67.389  1.00  0.00    -0.185 OA 
HETATM    8  C   UNL     1     -12.419  10.740  70.864  1.00  0.00    -0.500 A  
HETATM    9  C   UNL     1     -10.881   9.491  69.493  1.00  0.00    -0.243 A  
HETATM   10  C   UNL     1     -10.156   8.218  69.541  1.00  0.00    -0.197 C  
HETATM   11  C   UNL     1     -13.273  10.857  72.095  1.00  0.00    -0.333 C  
HETATM   12  H   UNL     1      -9.652   9.402  67.257  1.00  0.00     0.000 HD 
HETATM   13  O   UNL     1     -10.529   7.602  70.713  1.00  0.00    -0.207 OA 
HETATM   14  C   UNL     1     -11.478   8.384  71.454  1.00  0.00    -0.277 C  
HETATM   15  O   UNL     1      -9.347   7.766  68.754  1.00  0.00    -0.146 OA 
BRANCH   4  16
HETATM   16  C   UNL     1     -11.640  12.802  67.703  1.00  0.00    -0.412 C  
BRANCH  16  17
HETATM   17  C   UNL     1     -10.428  13.640  67.457  1.00  0.00    -0.241 C  
HETATM   18  C   UNL     1     -10.023  14.148  66.278  1.00  0.00    -0.315 C  
HETATM   19  C   UNL     1     -10.764  14.013  64.974  1.00  0.00    -0.409 C  
BRANCH  18  20
HETATM   20  C   UNL     1      -8.717  14.902  66.216  1.00  0.00     0.000 C  
BRANCH  20  21
HETATM   21  C   UNL     1      -7.792  14.461  67.343  1.00  0.00    -0.211 C  
BRANCH  21  22
HETATM   22  C   UNL     1      -6.701  15.472  67.559  1.00  0.00    -0.190 C  
HETATM   23  O   UNL     1      -5.541  15.363  67.194  1.00  0.00    -0.303 OA 
BRANCH  22  24
HETATM   24  O   UNL     1      -7.179  16.460  68.363  1.00  0.00    -0.147 OA 
BRANCH  24  25
HETATM   25  C   UNL     1      -7.421  17.690  67.661  1.00  0.00    -0.198 C  
BRANCH  25  26
HETATM   26  C   UNL     1      -8.052  18.654  68.681  1.00  0.00    -0.322 C  
BRANCH  26  27
HETATM   27  N   UNL     1      -9.516  18.694  68.724  1.00  0.00    -0.339 NA 
HETATM   28  C   UNL     1     -10.072  20.059  68.616  1.00  0.00    -0.347 C  
HETATM   29  C   UNL     1      -9.933  20.678  67.216  1.00  0.00    -0.312 C  
HETATM   30  O   UNL     1     -10.536  19.847  66.218  1.00  0.00    -0.467 OA 
HETATM   31  C   UNL     1      -9.970  18.531  66.232  1.00  0.00    -0.365 C  
HETATM   32  C   UNL     1     -10.089  17.880  67.623  1.00  0.00    -0.348 C  
ENDBRANCH  26  27
ENDBRANCH  25  26
ENDBRANCH  24  25
ENDBRANCH  22  24
ENDBRANCH  21  22
ENDBRANCH  20  21
ENDBRANCH  18  20
ENDBRANCH  16  17
ENDBRANCH   4  16
ENDBRANCH   2   3
TORSDOF 10
ENDMDL
MODEL      169
REMARK 921   NORMALIZED FREE ENERGY PREDICTED BY IDOCK:   -4.34 KCAL/MOL
REMARK 922        TOTAL FREE ENERGY PREDICTED BY IDOCK:   -8.42 KCAL/MOL
REMARK 923 INTER-LIGAND FREE ENERGY PREDICTED BY IDOCK:   -8.33 KCAL/MOL
REMARK 924 INTRA-LIGAND FREE ENERGY PREDICTED BY IDOCK:   -0.08 KCAL/MOL
REMARK 927      BINDING AFFINITY PREDICTED BY RF-SCORE:    0.00 PKD
ROOT
HETATM    1  C   UNL     1     -12.064  12.514  65.114  1.00  0.00    -0.446 C  
HETATM    2  O   UNL     1     -10.985  12.589  66.044  1.00  0.00    -0.268 OA 
ENDROOT
BRANCH   2   3
HETATM    3  C   UNL     1     -10.815  11.514  66.892  1.00  0.00    -0.284 A  
HETATM    4  C   UNL     1     -11.244  11.507  68.258  1.00  0.00    -0.322 A  
HETATM    5  C   UNL     1     -11.098  10.303  68.985  1.00  0.00    -0.230 A  
HETATM    6  C   UNL     1     -10.226   9.184  67.020  1.00  0.00    -0.333 A  
HETATM    7  O   UNL     1     -11.359  10.188  70.316  1.00  0.00    -0.269 OA 
HETATM    8  C   UNL     1     -10.304  10.349  66.266  1.00  0.00    -0.270 A  
HETATM    9  C   UNL     1     -10.618   9.169  68.343  1.00  0.00    -0.217 A  
HETATM   10  C   UNL     1     -10.451   7.811  68.867  1.00  0.00    -0.194 C  
HETATM   11  C   UNL     1      -9.849  10.374  64.833  1.00  0.00    -0.400 C  
HETATM   12  H   UNL     1     -11.261   9.380  70.805  1.00  0.00     0.000 HD 
HETATM   13  O   UNL     1      -9.940   7.057  67.837  1.00  0.00    -0.144 OA 
HETATM   14  C   UNL     1      -9.739   7.836  66.648  1.00  0.00    -0.222 C  
HETATM   15  O   UNL     1     -10.729   7.374  69.967  1.00  0.00    -0.237 OA 
BRANCH   4  16
HETATM   16  C   UNL     1     -11.739  12.805  68.866  1.00  0.00    -0.370 C  
BRANCH  16  17
HETATM   17  C   UNL     1     -11.337  14.111  68.264  1.00  0.00    -0.319 C  
HETATM   18  C   UNL     1     -11.460  15.330  68.823  1.00  0.00    -0.345 C  
HETATM   19  C   UNL     1     -11.980  15.600  70.210  1.00  0.00    -0.398 C  
BRANCH  18  20
HETATM   20  C   UNL     1     -11.075  16.547  68.017  1.00  0.00    -0.275 C  
BRANCH  20  21
HETATM   21  C   UNL     1     -10.475  17.616  68.920  1.00  0.00    -0.256 C  
BRANCH  21  22
HETATM   22  C   UNL     1     -10.163  18.859  68.134  1.00  0.00    -0.391 C  
HETATM   23  O   UNL     1     -10.802  19.285  67.185  1.00  0.00    -0.475 OA 
BRANCH  22  24
HETATM   24  O   UNL     1      -8.966  19.348  68.555  1.00  0.00    -0.353 OA 
BRANCH  24  25
HETATM   25  C   UNL     1      -7.855  18.850  67.793  1.00  0.00    -0.243 C  
BRANCH  25  26
HETATM   26  C   UNL     1      -7.016  17.994  68.758  1.00  0.00    -0.263 C  
BRANCH  26  27
HETATM   27  N   UNL     1      -6.098  17.028  68.146  1.00  0.00    -0.128 NA 
HETATM   28  C   UNL     1      -5.328  16.241  69.131  1.00  0.00    -0.112 C  
HETATM   29  C   UNL     1      -6.170  15.205  69.893  1.00  0.00    -0.154 C  
HETATM   30  O   UNL     1      -6.832  14.310  68.993  1.00  0.00    -0.098 OA 
HETATM   31  C   UNL     1      -7.656  15.027  68.067  1.00  0.00    -0.119 C  
HETATM   32  C   UNL     1      -6.845  16.077  67.285  1.00  0.00    -0.201 C  
ENDBRANCH  26  27
ENDBRANCH  25  26
ENDBRANCH  24  25
ENDBRANCH  22  24
ENDBRANCH  21  22
ENDBRANCH  20  21
ENDBRANCH  18  20
ENDBRANCH  16  17
ENDBRANCH   4  16
ENDBRANCH   2   3
TORSDOF 10
ENDMDL
MODEL      170
REMARK 921   NORMALIZED FREE ENERGY PREDICTED BY IDOCK:   -4.32 KCAL/MOL
REMARK 922        TOTAL FREE ENERGY PREDICTED BY IDOCK:   -8.38 KCAL/MOL
REMARK 923 INTER-LIGAND FREE ENERGY PREDICTED BY IDOCK:   -7.46 KCAL/MOL
REMARK 924 INTRA-LIGAND FREE ENERGY PREDICTED BY IDOCK:   -0.92 KCAL/MOL
REMARK 927      BINDING AFFINITY PREDICTED BY RF-SCORE:    0.00 PKD
ROOT
HETATM    1  C   UNL     1      -6.036   6.026  69.938  1.00  0.00    -0.026 C  
HETATM    2  O   UNL     1      -6.694   7.242  69.586  1.00  0.00    -0.043 OA 
ENDROOT
BRANCH   2   3
HETATM    3  C   UNL     1      -8.047   7.318  69.843  1.00  0.00    -0.127 A  
HETATM    4  C   UNL     1      -9.052   6.851  68.936  1.00  0.00    -0.134 A  
HETATM    5  C   UNL     1     -10.398   6.898  69.369  1.00  0.00    -0.204 A  
HETATM    6  C   UNL     1      -9.708   7.747  71.531  1.00  0.00    -0.195 A  
HETATM    7  O   UNL     1     -11.458   6.594  68.572  1.00  0.00    -0.576 OA 
HETATM    8  C   UNL     1      -8.371   7.767  71.148  1.00  0.00    -0.112 A  
HETATM    9  C   UNL     1     -10.688   7.320  70.660  1.00  0.00    -0.252 A  
HETATM   10  C   UNL     1     -11.983   7.382  71.343  1.00  0.00    -0.310 C  
HETATM   11  C   UNL     1      -7.305   8.261  72.086  1.00  0.00    -0.125 C  
HETATM   12  H   UNL     1     -12.362   6.625  68.862  1.00  0.00     0.000 HD 
HETATM   13  O   UNL     1     -11.735   7.871  72.604  1.00  0.00    -0.370 OA 
HETATM   14  C   UNL     1     -10.341   8.154  72.807  1.00  0.00    -0.313 C  
HETATM   15  O   UNL     1     -13.079   7.046  70.939  1.00  0.00    -0.240 OA 
BRANCH   4  16
HETATM   16  C   UNL     1      -8.629   6.427  67.544  1.00  0.00    -0.115 C  
BRANCH  16  17
HETATM   17  C   UNL     1      -7.988   7.417  66.626  1.00  0.00    -0.121 C  
HETATM   18  C   UNL     1      -8.567   8.503  66.080  1.00  0.00    -0.162 C  
HETATM   19  C   UNL     1      -9.976   8.963  66.346  1.00  0.00    -0.354 C  
BRANCH  18  20
HETATM   20  C   UNL     1      -7.778   9.339  65.102  1.00  0.00    -0.108 C  
BRANCH  20  21
HETATM   21  C   UNL     1      -8.652  10.436  64.510  1.00  0.00    -0.187 C  
BRANCH  21  22
HETATM   22  C   UNL     1      -9.008  10.119  63.085  1.00  0.00    -0.248 C  
HETATM   23  O   UNL     1      -8.477   9.269  62.387  1.00  0.00    -0.170 OA 
BRANCH  22  24
HETATM   24  O   UNL     1      -9.912  11.037  62.650  1.00  0.00    -0.200 OA 
BRANCH  24  25
HETATM   25  C   UNL     1     -11.071  11.129  63.494  1.00  0.00    -0.009 C  
BRANCH  25  26
HETATM   26  C   UNL     1     -11.499  12.607  63.481  1.00  0.00    -0.491 C  
BRANCH  26  27
HETATM   27  N   UNL     1     -12.223  13.089  64.661  1.00  0.00    -0.401 NA 
HETATM   28  C   UNL     1     -11.625  12.651  65.939  1.00  0.00    -0.396 C  
HETATM   29  C   UNL     1     -10.294  13.344  66.271  1.00  0.00    -0.291 C  
HETATM   30  O   UNL     1     -10.439  14.769  66.286  1.00  0.00    -0.281 OA 
HETATM   31  C   UNL     1     -10.943  15.248  65.034  1.00  0.00    -0.437 C  
HETATM   32  C   UNL     1     -12.278  14.572  64.666  1.00  0.00    -0.460 C  
ENDBRANCH  26  27
ENDBRANCH  25  26
ENDBRANCH  24  25
ENDBRANCH  22  24
ENDBRANCH  21  22
ENDBRANCH  20  21
ENDBRANCH  18  20
ENDBRANCH  16  17
ENDBRANCH   4  16
ENDBRANCH   2   3
TORSDOF 10
ENDMDL
MODEL      171
REMARK 921   NORMALIZED FREE ENERGY PREDICTED BY IDOCK:   -4.31 KCAL/MOL
REMARK 922        TOTAL FREE ENERGY PREDICTED BY IDOCK:   -8.37 KCAL/MOL
REMARK 923 INTER-LIGAND FREE ENERGY PREDICTED BY IDOCK:   -7.66 KCAL/MOL
REMARK 924 INTRA-LIGAND FREE ENERGY PREDICTED BY IDOCK:   -0.71 KCAL/MOL
REMARK 927      BINDING AFFINITY PREDICTED BY RF-SCORE:    0.00 PKD
ROOT
HETATM    1  C   UNL     1     -12.149  13.021  69.742  1.00  0.00    -0.258 C  
HETATM    2  O   UNL     1     -10.922  13.151  69.026  1.00  0.00    -0.243 OA 
ENDROOT
BRANCH   2   3
HETATM    3  C   UNL     1     -10.835  14.184  68.115  1.00  0.00    -0.248 A  
HETATM    4  C   UNL     1     -11.112  14.033  66.719  1.00  0.00    -0.311 A  
HETATM    5  C   UNL     1     -11.082  15.197  65.916  1.00  0.00    -0.319 A  
HETATM    6  C   UNL     1     -10.614  16.567  67.860  1.00  0.00    -0.329 A  
HETATM    7  O   UNL     1     -11.215  15.184  64.561  1.00  0.00    -0.601 OA 
HETATM    8  C   UNL     1     -10.587  15.454  68.694  1.00  0.00    -0.239 A  
HETATM    9  C   UNL     1     -10.860  16.433  66.509  1.00  0.00    -0.073 A  
HETATM   10  C   UNL     1     -10.857  17.765  65.897  1.00  0.00     0.031 C  
HETATM   11  C   UNL     1     -10.289  15.595  70.160  1.00  0.00    -0.268 C  
HETATM   12  H   UNL     1     -11.195  15.965  64.022  1.00  0.00     0.000 HD 
HETATM   13  O   UNL     1     -10.584  18.657  66.908  1.00  0.00    -0.397 OA 
HETATM   14  C   UNL     1     -10.391  17.998  68.170  1.00  0.00    -0.388 C  
HETATM   15  O   UNL     1     -11.081  18.080  64.745  1.00  0.00    -0.708 OA 
BRANCH   4  16
HETATM   16  C   UNL     1     -11.326  12.637  66.171  1.00  0.00    -0.375 C  
BRANCH  16  17
HETATM   17  C   UNL     1     -10.383  12.084  65.152  1.00  0.00    -0.313 C  
HETATM   18  C   UNL     1     -10.672  11.757  63.878  1.00  0.00    -0.457 C  
HETATM   19  C   UNL     1     -12.010  11.950  63.214  1.00  0.00    -0.441 C  
BRANCH  18  20
HETATM   20  C   UNL     1      -9.600  11.128  63.023  1.00  0.00    -0.389 C  
BRANCH  20  21
HETATM   21  C   UNL     1      -9.239   9.746  63.550  1.00  0.00    -0.227 C  
BRANCH  21  22
HETATM   22  C   UNL     1      -7.754   9.525  63.484  1.00  0.00    -0.123 C  
HETATM   23  O   UNL     1      -7.043   9.722  62.511  1.00  0.00    -0.105 OA 
BRANCH  22  24
HETATM   24  O   UNL     1      -7.355   8.922  64.636  1.00  0.00    -0.097 OA 
BRANCH  24  25
HETATM   25  C   UNL     1      -8.309   7.971  65.134  1.00  0.00    -0.130 C  
BRANCH  25  26
HETATM   26  C   UNL     1      -8.087   7.889  66.654  1.00  0.00    -0.107 C  
BRANCH  26  27
HETATM   27  N   UNL     1      -7.107   6.903  67.120  1.00  0.00    -0.077 NA 
HETATM   28  C   UNL     1      -6.901   6.921  68.582  1.00  0.00    -0.070 C  
HETATM   29  C   UNL     1      -8.088   6.362  69.383  1.00  0.00    -0.118 C  
HETATM   30  O   UNL     1      -8.410   5.028  68.972  1.00  0.00    -0.086 OA 
HETATM   31  C   UNL     1      -8.696   4.977  67.570  1.00  0.00    -0.103 C  
HETATM   32  C   UNL     1      -7.528   5.533  66.734  1.00  0.00    -0.087 C  
ENDBRANCH  26  27
ENDBRANCH  25  26
ENDBRANCH  24  25
ENDBRANCH  22  24
ENDBRANCH  21  22
ENDBRANCH  20  21
ENDBRANCH  18  20
ENDBRANCH  16  17
ENDBRANCH   4  16
ENDBRANCH   2   3
TORSDOF 10
ENDMDL
MODEL      172
REMARK 921   NORMALIZED FREE ENERGY PREDICTED BY IDOCK:   -4.29 KCAL/MOL
REMARK 922        TOTAL FREE ENERGY PREDICTED BY IDOCK:   -8.34 KCAL/MOL
REMARK 923 INTER-LIGAND FREE ENERGY PREDICTED BY IDOCK:   -7.60 KCAL/MOL
REMARK 924 INTRA-LIGAND FREE ENERGY PREDICTED BY IDOCK:   -0.74 KCAL/MOL
REMARK 927      BINDING AFFINITY PREDICTED BY RF-SCORE:    0.00 PKD
ROOT
HETATM    1  C   UNL     1     -12.351  12.943  65.589  1.00  0.00    -0.423 C  
HETATM    2  O   UNL     1     -11.058  13.416  65.216  1.00  0.00    -0.285 OA 
ENDROOT
BRANCH   2   3
HETATM    3  C   UNL     1     -10.393  14.206  66.132  1.00  0.00    -0.300 A  
HETATM    4  C   UNL     1      -9.705  13.685  67.274  1.00  0.00    -0.243 A  
HETATM    5  C   UNL     1      -8.980  14.597  68.075  1.00  0.00    -0.174 A  
HETATM    6  C   UNL     1      -9.554  16.416  66.580  1.00  0.00    -0.273 A  
HETATM    7  O   UNL     1      -8.376  14.258  69.247  1.00  0.00    -0.353 OA 
HETATM    8  C   UNL     1     -10.319  15.577  65.778  1.00  0.00    -0.384 A  
HETATM    9  C   UNL     1      -8.902  15.931  67.695  1.00  0.00    -0.180 A  
HETATM   10  C   UNL     1      -8.160  17.028  68.321  1.00  0.00    -0.228 C  
HETATM   11  C   UNL     1     -11.054  16.110  64.581  1.00  0.00    -0.310 C  
HETATM   12  H   UNL     1      -7.889  14.871  69.785  1.00  0.00     0.000 HD 
HETATM   13  O   UNL     1      -8.413  18.149  67.565  1.00  0.00    -0.244 OA 
HETATM   14  C   UNL     1      -9.297  17.871  66.468  1.00  0.00    -0.280 C  
HETATM   15  O   UNL     1      -7.424  17.003  69.288  1.00  0.00    -0.213 OA 
BRANCH   4  16
HETATM   16  C   UNL     1      -9.868  12.215  67.608  1.00  0.00    -0.194 C  
BRANCH  16  17
HETATM   17  C   UNL     1     -10.445  11.811  68.926  1.00  0.00    -0.182 C  
HETATM   18  C   UNL     1     -10.796  10.568  69.306  1.00  0.00    -0.284 C  
HETATM   19  C   UNL     1     -10.612   9.322  68.480  1.00  0.00    -0.222 C  
BRANCH  18  20
HETATM   20  C   UNL     1     -11.447  10.371  70.654  1.00  0.00    -0.438 C  
BRANCH  20  21
HETATM   21  C   UNL     1     -12.091   8.994  70.739  1.00  0.00    -0.169 C  
BRANCH  21  22
HETATM   22  C   UNL     1     -12.808   8.825  72.049  1.00  0.00    -0.390 C  
HETATM   23  O   UNL     1     -13.760   9.486  72.435  1.00  0.00    -0.438 OA 
BRANCH  22  24
HETATM   24  O   UNL     1     -12.127   7.920  72.802  1.00  0.00    -0.255 OA 
BRANCH  24  25
HETATM   25  C   UNL     1     -11.532   6.872  72.020  1.00  0.00    -0.274 C  
BRANCH  25  26
HETATM   26  C   UNL     1     -10.316   6.372  72.819  1.00  0.00    -0.201 C  
BRANCH  26  27
HETATM   27  N   UNL     1      -9.051   6.265  72.087  1.00  0.00    -0.141 NA 
HETATM   28  C   UNL     1      -8.710   7.479  71.318  1.00  0.00    -0.125 C  
HETATM   29  C   UNL     1      -8.290   8.671  72.194  1.00  0.00    -0.077 C  
HETATM   30  O   UNL     1      -7.189   8.330  73.043  1.00  0.00    -0.118 OA 
HETATM   31  C   UNL     1      -7.504   7.202  73.867  1.00  0.00    -0.100 C  
HETATM   32  C   UNL     1      -7.932   5.987  73.022  1.00  0.00    -0.109 C  
ENDBRANCH  26  27
ENDBRANCH  25  26
ENDBRANCH  24  25
ENDBRANCH  22  24
ENDBRANCH  21  22
ENDBRANCH  20  21
ENDBRANCH  18  20
ENDBRANCH  16  17
ENDBRANCH   4  16
ENDBRANCH   2   3
TORSDOF 10
ENDMDL
MODEL      173
REMARK 921   NORMALIZED FREE ENERGY PREDICTED BY IDOCK:   -4.24 KCAL/MOL
REMARK 922        TOTAL FREE ENERGY PREDICTED BY IDOCK:   -8.27 KCAL/MOL
REMARK 923 INTER-LIGAND FREE ENERGY PREDICTED BY IDOCK:   -7.13 KCAL/MOL
REMARK 924 INTRA-LIGAND FREE ENERGY PREDICTED BY IDOCK:   -1.14 KCAL/MOL
REMARK 927      BINDING AFFINITY PREDICTED BY RF-SCORE:    0.00 PKD
ROOT
HETATM    1  C   UNL     1      -9.144  11.020  65.438  1.00  0.00    -0.195 C  
HETATM    2  O   UNL     1     -10.304  10.367  65.952  1.00  0.00    -0.245 OA 
ENDROOT
BRANCH   2   3
HETATM    3  C   UNL     1     -10.351  10.158  67.316  1.00  0.00    -0.237 A  
HETATM    4  C   UNL     1     -11.063  11.007  68.222  1.00  0.00    -0.316 A  
HETATM    5  C   UNL     1     -11.112  10.620  69.581  1.00  0.00    -0.284 A  
HETATM    6  C   UNL     1      -9.873   8.598  69.084  1.00  0.00    -0.185 A  
HETATM    7  O   UNL     1     -11.656  11.387  70.566  1.00  0.00    -0.467 OA 
HETATM    8  C   UNL     1      -9.753   8.946  67.743  1.00  0.00    -0.196 A  
HETATM    9  C   UNL     1     -10.539   9.417  69.972  1.00  0.00    -0.267 A  
HETATM   10  C   UNL     1     -10.529   8.784  71.293  1.00  0.00    -0.256 C  
HETATM   11  C   UNL     1      -9.001   8.070  66.781  1.00  0.00    -0.169 C  
HETATM   12  H   UNL     1     -11.689  11.127  71.479  1.00  0.00     0.000 HD 
HETATM   13  O   UNL     1      -9.831   7.607  71.155  1.00  0.00    -0.173 OA 
HETATM   14  C   UNL     1      -9.357   7.416  69.813  1.00  0.00    -0.146 C  
HETATM   15  O   UNL     1     -11.049   9.157  72.326  1.00  0.00    -0.226 OA 
BRANCH   4  16
HETATM   16  C   UNL     1     -11.639  12.307  67.695  1.00  0.00    -0.421 C  
BRANCH  16  17
HETATM   17  C   UNL     1     -10.929  13.595  67.956  1.00  0.00    -0.270 C  
HETATM   18  C   UNL     1     -10.509  14.486  67.038  1.00  0.00    -0.268 C  
HETATM   19  C   UNL     1     -10.736  14.375  65.553  1.00  0.00    -0.344 C  
BRANCH  18  20
HETATM   20  C   UNL     1      -9.729  15.695  67.494  1.00  0.00    -0.222 C  
BRANCH  20  21
HETATM   21  C   UNL     1      -8.374  15.277  68.050  1.00  0.00    -0.146 C  
BRANCH  21  22
HETATM   22  C   UNL     1      -7.261  15.835  67.209  1.00  0.00    -0.219 C  
HETATM   23  O   UNL     1      -7.327  16.101  66.019  1.00  0.00     0.252 OA 
BRANCH  22  24
HETATM   24  O   UNL     1      -6.122  15.849  67.953  1.00  0.00    -0.112 OA 
BRANCH  24  25
HETATM   25  C   UNL     1      -6.273  16.545  69.200  1.00  0.00    -0.174 C  
BRANCH  25  26
HETATM   26  C   UNL     1      -5.732  17.967  68.970  1.00  0.00    -0.205 C  
BRANCH  26  27
HETATM   27  N   UNL     1      -6.529  19.066  69.524  1.00  0.00    -0.285 NA 
HETATM   28  C   UNL     1      -6.049  20.404  69.120  1.00  0.00    -0.337 C  
HETATM   29  C   UNL     1      -6.315  20.739  67.643  1.00  0.00    -0.309 C  
HETATM   30  O   UNL     1      -7.707  20.625  67.327  1.00  0.00    -0.330 OA 
HETATM   31  C   UNL     1      -8.198  19.314  67.629  1.00  0.00    -0.292 C  
HETATM   32  C   UNL     1      -7.947  18.943  69.103  1.00  0.00    -0.088 C  
ENDBRANCH  26  27
ENDBRANCH  25  26
ENDBRANCH  24  25
ENDBRANCH  22  24
ENDBRANCH  21  22
ENDBRANCH  20  21
ENDBRANCH  18  20
ENDBRANCH  16  17
ENDBRANCH   4  16
ENDBRANCH   2   3
TORSDOF 10
ENDMDL
MODEL      174
REMARK 921   NORMALIZED FREE ENERGY PREDICTED BY IDOCK:   -4.24 KCAL/MOL
REMARK 922        TOTAL FREE ENERGY PREDICTED BY IDOCK:   -8.26 KCAL/MOL
REMARK 923 INTER-LIGAND FREE ENERGY PREDICTED BY IDOCK:   -7.51 KCAL/MOL
REMARK 924 INTRA-LIGAND FREE ENERGY PREDICTED BY IDOCK:   -0.75 KCAL/MOL
REMARK 927      BINDING AFFINITY PREDICTED BY RF-SCORE:    0.00 PKD
ROOT
HETATM    1  C   UNL     1      -7.700  11.635  68.578  1.00  0.00    -0.134 C  
HETATM    2  O   UNL     1      -9.109  11.421  68.536  1.00  0.00    -0.173 OA 
ENDROOT
BRANCH   2   3
HETATM    3  C   UNL     1      -9.751  11.708  67.348  1.00  0.00    -0.176 A  
HETATM    4  C   UNL     1      -9.801  10.806  66.238  1.00  0.00    -0.262 A  
HETATM    5  C   UNL     1     -10.577  11.186  65.119  1.00  0.00    -0.253 A  
HETATM    6  C   UNL     1     -11.267  13.218  66.246  1.00  0.00    -0.321 A  
HETATM    7  O   UNL     1     -10.623  10.480  63.956  1.00  0.00    -0.408 OA 
HETATM    8  C   UNL     1     -10.486  12.920  67.357  1.00  0.00    -0.235 A  
HETATM    9  C   UNL     1     -11.308  12.366  65.161  1.00  0.00    -0.367 A  
HETATM   10  C   UNL     1     -12.227  12.921  64.163  1.00  0.00    -0.414 C  
HETATM   11  C   UNL     1     -10.416  13.861  68.527  1.00  0.00    -0.253 C  
HETATM   12  H   UNL     1     -11.144  10.735  63.204  1.00  0.00     0.000 HD 
HETATM   13  O   UNL     1     -12.691  14.108  64.680  1.00  0.00    -0.656 OA 
HETATM   14  C   UNL     1     -12.126  14.392  65.969  1.00  0.00    -0.357 C  
HETATM   15  O   UNL     1     -12.575  12.452  63.097  1.00  0.00    -0.591 OA 
BRANCH   4  16
HETATM   16  C   UNL     1      -8.952   9.550  66.287  1.00  0.00    -0.188 C  
BRANCH  16  17
HETATM   17  C   UNL     1      -9.609   8.209  66.312  1.00  0.00    -0.248 C  
HETATM   18  C   UNL     1     -10.272   7.653  67.343  1.00  0.00    -0.320 C  
HETATM   19  C   UNL     1     -10.533   8.321  68.668  1.00  0.00    -0.199 C  
BRANCH  18  20
HETATM   20  C   UNL     1     -10.795   6.244  67.204  1.00  0.00    -0.460 C  
BRANCH  20  21
HETATM   21  C   UNL     1     -10.058   5.306  68.151  1.00  0.00    -0.211 C  
BRANCH  21  22
HETATM   22  C   UNL     1      -8.769   4.838  67.537  1.00  0.00    -0.103 C  
HETATM   23  O   UNL     1      -8.441   4.976  66.369  1.00  0.00    -0.111 OA 
BRANCH  22  24
HETATM   24  O   UNL     1      -8.095   4.099  68.458  1.00  0.00    -0.076 OA 
BRANCH  24  25
HETATM   25  C   UNL     1      -8.856   3.856  69.652  1.00  0.00    -0.088 C  
BRANCH  25  26
HETATM   26  C   UNL     1      -8.018   4.408  70.819  1.00  0.00    -0.064 C  
BRANCH  26  27
HETATM   27  N   UNL     1      -8.486   4.085  72.170  1.00  0.00    -0.102 NA 
HETATM   28  C   UNL     1      -7.856   4.905  73.225  1.00  0.00    -0.097 C  
HETATM   29  C   UNL     1      -8.324   6.369  73.237  1.00  0.00    -0.118 C  
HETATM   30  O   UNL     1      -9.748   6.457  73.363  1.00  0.00    -0.153 OA 
HETATM   31  C   UNL     1     -10.404   5.740  72.311  1.00  0.00    -0.202 C  
HETATM   32  C   UNL     1      -9.956   4.267  72.267  1.00  0.00    -0.172 C  
ENDBRANCH  26  27
ENDBRANCH  25  26
ENDBRANCH  24  25
ENDBRANCH  22  24
ENDBRANCH  21  22
ENDBRANCH  20  21
ENDBRANCH  18  20
ENDBRANCH  16  17
ENDBRANCH   4  16
ENDBRANCH   2   3
TORSDOF 10
ENDMDL
MODEL      175
REMARK 921   NORMALIZED FREE ENERGY PREDICTED BY IDOCK:   -4.24 KCAL/MOL
REMARK 922        TOTAL FREE ENERGY PREDICTED BY IDOCK:   -8.26 KCAL/MOL
REMARK 923 INTER-LIGAND FREE ENERGY PREDICTED BY IDOCK:   -7.36 KCAL/MOL
REMARK 924 INTRA-LIGAND FREE ENERGY PREDICTED BY IDOCK:   -0.90 KCAL/MOL
REMARK 927      BINDING AFFINITY PREDICTED BY RF-SCORE:    0.00 PKD
ROOT
HETATM    1  C   UNL     1     -11.575  14.064  66.428  1.00  0.00    -0.369 C  
HETATM    2  O   UNL     1     -10.740  13.828  67.560  1.00  0.00    -0.253 OA 
ENDROOT
BRANCH   2   3
HETATM    3  C   UNL     1     -11.315  13.984  68.805  1.00  0.00    -0.278 A  
HETATM    4  C   UNL     1     -11.901  12.909  69.546  1.00  0.00    -0.383 A  
HETATM    5  C   UNL     1     -12.364  13.189  70.852  1.00  0.00    -0.307 A  
HETATM    6  C   UNL     1     -11.591  15.479  70.670  1.00  0.00    -0.378 A  
HETATM    7  O   UNL     1     -13.040  12.293  71.623  1.00  0.00    -0.409 OA 
HETATM    8  C   UNL     1     -11.156  15.276  69.366  1.00  0.00    -0.283 A  
HETATM    9  C   UNL     1     -12.175  14.456  71.389  1.00  0.00    -0.424 A  
HETATM   10  C   UNL     1     -12.503  14.951  72.729  1.00  0.00    -0.358 C  
HETATM   11  C   UNL     1     -10.547  16.398  68.571  1.00  0.00    -0.304 C  
HETATM   12  H   UNL     1     -13.352  12.481  72.500  1.00  0.00     0.000 HD 
HETATM   13  O   UNL     1     -12.121  16.272  72.760  1.00  0.00    -0.508 OA 
HETATM   14  C   UNL     1     -11.563  16.700  71.508  1.00  0.00     0.092 C  
HETATM   15  O   UNL     1     -12.980  14.351  73.672  1.00  0.00    -0.487 OA 
BRANCH   4  16
HETATM   16  C   UNL     1     -12.074  11.568  68.861  1.00  0.00    -0.270 C  
BRANCH  16  17
HETATM   17  C   UNL     1     -10.913  10.633  68.750  1.00  0.00    -0.292 C  
HETATM   18  C   UNL     1     -10.492   9.756  69.681  1.00  0.00    -0.263 C  
HETATM   19  C   UNL     1     -11.161   9.508  71.007  1.00  0.00    -0.432 C  
BRANCH  18  20
HETATM   20  C   UNL     1      -9.240   8.955  69.417  1.00  0.00    -0.146 C  
BRANCH  20  21
HETATM   21  C   UNL     1      -8.003   9.753  69.806  1.00  0.00    -0.169 C  
BRANCH  21  22
HETATM   22  C   UNL     1      -7.172  10.067  68.593  1.00  0.00    -0.080 C  
HETATM   23  O   UNL     1      -7.428  10.912  67.750  1.00  0.00    -0.091 OA 
BRANCH  22  24
HETATM   24  O   UNL     1      -6.171   9.151  68.506  1.00  0.00    -0.048 OA 
BRANCH  24  25
HETATM   25  C   UNL     1      -6.610   7.885  67.985  1.00  0.00    -0.056 C  
BRANCH  25  26
HETATM   26  C   UNL     1      -6.364   7.933  66.467  1.00  0.00    -0.050 C  
BRANCH  26  27
HETATM   27  N   UNL     1      -7.359   7.267  65.622  1.00  0.00    -0.073 NA 
HETATM   28  C   UNL     1      -8.753   7.619  65.963  1.00  0.00    -0.156 C  
HETATM   29  C   UNL     1      -9.144   9.054  65.574  1.00  0.00    -0.214 C  
HETATM   30  O   UNL     1      -8.929   9.291  64.178  1.00  0.00    -0.191 OA 
HETATM   31  C   UNL     1      -7.567   9.038  63.816  1.00  0.00    -0.115 C  
HETATM   32  C   UNL     1      -7.138   7.607  64.194  1.00  0.00    -0.068 C  
ENDBRANCH  26  27
ENDBRANCH  25  26
ENDBRANCH  24  25
ENDBRANCH  22  24
ENDBRANCH  21  22
ENDBRANCH  20  21
ENDBRANCH  18  20
ENDBRANCH  16  17
ENDBRANCH   4  16
ENDBRANCH   2   3
TORSDOF 10
ENDMDL
MODEL      176
REMARK 921   NORMALIZED FREE ENERGY PREDICTED BY IDOCK:   -4.23 KCAL/MOL
REMARK 922        TOTAL FREE ENERGY PREDICTED BY IDOCK:   -8.25 KCAL/MOL
REMARK 923 INTER-LIGAND FREE ENERGY PREDICTED BY IDOCK:   -7.11 KCAL/MOL
REMARK 924 INTRA-LIGAND FREE ENERGY PREDICTED BY IDOCK:   -1.14 KCAL/MOL
REMARK 927      BINDING AFFINITY PREDICTED BY RF-SCORE:    0.00 PKD
ROOT
HETATM    1  C   UNL     1      -9.348   6.599  66.106  1.00  0.00    -0.056 C  
HETATM    2  O   UNL     1      -8.776   7.812  66.591  1.00  0.00    -0.128 OA 
ENDROOT
BRANCH   2   3
HETATM    3  C   UNL     1      -9.608   8.910  66.665  1.00  0.00    -0.219 A  
HETATM    4  C   UNL     1     -10.567   9.107  67.710  1.00  0.00    -0.289 A  
HETATM    5  C   UNL     1     -11.285  10.325  67.719  1.00  0.00    -0.190 A  
HETATM    6  C   UNL     1     -10.049  11.106  65.786  1.00  0.00    -0.299 A  
HETATM    7  O   UNL     1     -12.301  10.597  68.583  1.00  0.00    -0.820 OA 
HETATM    8  C   UNL     1      -9.343   9.912  65.698  1.00  0.00    -0.269 A  
HETATM    9  C   UNL     1     -10.991  11.301  66.775  1.00  0.00    -0.339 A  
HETATM   10  C   UNL     1     -11.546  12.650  66.637  1.00  0.00    -0.381 C  
HETATM   11  C   UNL     1      -8.339   9.686  64.603  1.00  0.00    -0.162 C  
HETATM   12  H   UNL     1     -12.783  11.415  68.590  1.00  0.00     0.000 HD 
HETATM   13  O   UNL     1     -10.928  13.214  65.545  1.00  0.00    -0.275 OA 
HETATM   14  C   UNL     1      -9.993  12.314  64.930  1.00  0.00    -0.195 C  
HETATM   15  O   UNL     1     -12.359  13.221  67.337  1.00  0.00    -0.243 OA 
BRANCH   4  16
HETATM   16  C   UNL     1     -10.823   7.971  68.680  1.00  0.00     0.035 C  
BRANCH  16  17
HETATM   17  C   UNL     1     -10.470   8.131  70.123  1.00  0.00    -0.225 C  
HETATM   18  C   UNL     1     -11.177   7.691  71.181  1.00  0.00    -0.280 C  
HETATM   19  C   UNL     1     -12.449   6.888  71.102  1.00  0.00    -0.398 C  
BRANCH  18  20
HETATM   20  C   UNL     1     -10.699   8.027  72.572  1.00  0.00    -0.407 C  
BRANCH  20  21
HETATM   21  C   UNL     1      -9.322   8.676  72.521  1.00  0.00    -0.230 C  
BRANCH  21  22
HETATM   22  C   UNL     1      -8.429   8.112  73.591  1.00  0.00    -0.243 C  
HETATM   23  O   UNL     1      -7.569   8.726  74.203  1.00  0.00    -0.419 OA 
BRANCH  22  24
HETATM   24  O   UNL     1      -8.630   6.768  73.657  1.00  0.00    -0.126 OA 
BRANCH  24  25
HETATM   25  C   UNL     1      -7.423   6.009  73.481  1.00  0.00    -0.093 C  
BRANCH  25  26
HETATM   26  C   UNL     1      -7.767   4.870  72.504  1.00  0.00    -0.093 C  
BRANCH  26  27
HETATM   27  N   UNL     1      -9.091   4.924  71.878  1.00  0.00    -0.134 NA 
HETATM   28  C   UNL     1      -9.096   4.480  70.470  1.00  0.00    -0.115 C  
HETATM   29  C   UNL     1      -8.894   2.966  70.295  1.00  0.00    -0.085 C  
HETATM   30  O   UNL     1      -9.878   2.223  71.023  1.00  0.00    -0.122 OA 
HETATM   31  C   UNL     1      -9.856   2.564  72.414  1.00  0.00    -0.149 C  
HETATM   32  C   UNL     1     -10.053   4.077  72.627  1.00  0.00    -0.164 C  
ENDBRANCH  26  27
ENDBRANCH  25  26
ENDBRANCH  24  25
ENDBRANCH  22  24
ENDBRANCH  21  22
ENDBRANCH  20  21
ENDBRANCH  18  20
ENDBRANCH  16  17
ENDBRANCH   4  16
ENDBRANCH   2   3
TORSDOF 10
ENDMDL
MODEL      177
REMARK 921   NORMALIZED FREE ENERGY PREDICTED BY IDOCK:   -4.23 KCAL/MOL
REMARK 922        TOTAL FREE ENERGY PREDICTED BY IDOCK:   -8.24 KCAL/MOL
REMARK 923 INTER-LIGAND FREE ENERGY PREDICTED BY IDOCK:   -7.58 KCAL/MOL
REMARK 924 INTRA-LIGAND FREE ENERGY PREDICTED BY IDOCK:   -0.66 KCAL/MOL
REMARK 927      BINDING AFFINITY PREDICTED BY RF-SCORE:    0.00 PKD
ROOT
HETATM    1  C   UNL     1      -7.982  10.187  69.715  1.00  0.00    -0.161 C  
HETATM    2  O   UNL     1      -8.668   9.108  70.345  1.00  0.00    -0.173 OA 
ENDROOT
BRANCH   2   3
HETATM    3  C   UNL     1      -9.076   8.068  69.534  1.00  0.00    -0.152 A  
HETATM    4  C   UNL     1     -10.222   8.134  68.679  1.00  0.00    -0.226 A  
HETATM    5  C   UNL     1     -10.468   7.033  67.826  1.00  0.00    -0.223 A  
HETATM    6  C   UNL     1      -8.456   5.934  68.611  1.00  0.00    -0.111 A  
HETATM    7  O   UNL     1     -11.577   6.915  67.046  1.00  0.00    -0.607 OA 
HETATM    8  C   UNL     1      -8.185   6.966  69.503  1.00  0.00    -0.131 A  
HETATM    9  C   UNL     1      -9.568   5.976  67.795  1.00  0.00    -0.113 A  
HETATM   10  C   UNL     1      -9.577   4.778  66.951  1.00  0.00    -0.172 C  
HETATM   11  C   UNL     1      -6.991   6.907  70.414  1.00  0.00    -0.063 C  
HETATM   12  H   UNL     1     -11.742   6.176  66.473  1.00  0.00     0.000 HD 
HETATM   13  O   UNL     1      -8.472   4.042  67.309  1.00  0.00    -0.099 OA 
HETATM   14  C   UNL     1      -7.722   4.672  68.360  1.00  0.00    -0.080 C  
HETATM   15  O   UNL     1     -10.355   4.467  66.071  1.00  0.00    -0.249 OA 
BRANCH   4  16
HETATM   16  C   UNL     1     -11.149   9.328  68.802  1.00  0.00     0.054 C  
BRANCH  16  17
HETATM   17  C   UNL     1     -11.144  10.387  67.748  1.00  0.00    -0.365 C  
HETATM   18  C   UNL     1     -11.465  11.685  67.907  1.00  0.00    -0.381 C  
HETATM   19  C   UNL     1     -11.838  12.334  69.213  1.00  0.00    -0.363 C  
BRANCH  18  20
HETATM   20  C   UNL     1     -11.483  12.587  66.697  1.00  0.00    -0.417 C  
BRANCH  20  21
HETATM   21  C   UNL     1     -11.479  14.049  67.122  1.00  0.00    -0.373 C  
BRANCH  21  22
HETATM   22  C   UNL     1     -11.006  14.927  65.997  1.00  0.00    -0.334 C  
HETATM   23  O   UNL     1     -10.726  14.554  64.868  1.00  0.00    -0.396 OA 
BRANCH  22  24
HETATM   24  O   UNL     1     -10.793  16.178  66.484  1.00  0.00    -0.262 OA 
BRANCH  24  25
HETATM   25  C   UNL     1      -9.684  16.246  67.395  1.00  0.00    -0.234 C  
BRANCH  25  26
HETATM   26  C   UNL     1      -8.535  16.927  66.629  1.00  0.00    -0.250 C  
BRANCH  26  27
HETATM   27  N   UNL     1      -7.613  17.742  67.425  1.00  0.00    -0.198 NA 
HETATM   28  C   UNL     1      -6.771  18.643  66.611  1.00  0.00    -0.195 C  
HETATM   29  C   UNL     1      -7.539  19.822  65.994  1.00  0.00    -0.330 C  
HETATM   30  O   UNL     1      -8.210  20.590  67.000  1.00  0.00    -0.313 OA 
HETATM   31  C   UNL     1      -9.100  19.770  67.765  1.00  0.00    -0.332 C  
HETATM   32  C   UNL     1      -8.364  18.574  68.398  1.00  0.00    -0.332 C  
ENDBRANCH  26  27
ENDBRANCH  25  26
ENDBRANCH  24  25
ENDBRANCH  22  24
ENDBRANCH  21  22
ENDBRANCH  20  21
ENDBRANCH  18  20
ENDBRANCH  16  17
ENDBRANCH   4  16
ENDBRANCH   2   3
TORSDOF 10
ENDMDL
MODEL      178
REMARK 921   NORMALIZED FREE ENERGY PREDICTED BY IDOCK:   -4.22 KCAL/MOL
REMARK 922        TOTAL FREE ENERGY PREDICTED BY IDOCK:   -8.23 KCAL/MOL
REMARK 923 INTER-LIGAND FREE ENERGY PREDICTED BY IDOCK:   -7.93 KCAL/MOL
REMARK 924 INTRA-LIGAND FREE ENERGY PREDICTED BY IDOCK:   -0.30 KCAL/MOL
REMARK 927      BINDING AFFINITY PREDICTED BY RF-SCORE:    0.00 PKD
ROOT
HETATM    1  C   UNL     1     -11.274  16.540  68.361  1.00  0.00    -0.280 C  
HETATM    2  O   UNL     1     -10.547  15.528  69.055  1.00  0.00    -0.226 OA 
ENDROOT
BRANCH   2   3
HETATM    3  C   UNL     1     -11.235  14.378  69.385  1.00  0.00    -0.281 A  
HETATM    4  C   UNL     1     -11.216  13.189  68.589  1.00  0.00    -0.314 A  
HETATM    5  C   UNL     1     -11.884  12.050  69.095  1.00  0.00    -0.311 A  
HETATM    6  C   UNL     1     -12.458  13.248  71.123  1.00  0.00    -0.397 A  
HETATM    7  O   UNL     1     -12.040  10.893  68.395  1.00  0.00    -0.776 OA 
HETATM    8  C   UNL     1     -11.856  14.412  70.659  1.00  0.00    -0.361 A  
HETATM    9  C   UNL     1     -12.464  12.100  70.356  1.00  0.00    -0.224 A  
HETATM   10  C   UNL     1     -13.138  11.037  71.107  1.00  0.00    -0.232 C  
HETATM   11  C   UNL     1     -11.875  15.671  71.480  1.00  0.00    -0.493 C  
HETATM   12  H   UNL     1     -12.489  10.128  68.735  1.00  0.00     0.000 HD 
HETATM   13  O   UNL     1     -13.535  11.596  72.299  1.00  0.00    -0.397 OA 
HETATM   14  C   UNL     1     -13.177  12.983  72.390  1.00  0.00    -0.381 C  
HETATM   15  O   UNL     1     -13.305   9.872  70.803  1.00  0.00    -0.313 OA 
BRANCH   4  16
HETATM   16  C   UNL     1     -10.568  13.246  67.219  1.00  0.00    -0.250 C  
BRANCH  16  17
HETATM   17  C   UNL     1     -10.129  11.984  66.550  1.00  0.00    -0.224 C  
HETATM   18  C   UNL     1     -10.114  11.735  65.227  1.00  0.00    -0.300 C  
HETATM   19  C   UNL     1     -10.488  12.723  64.153  1.00  0.00    -0.437 C  
BRANCH  18  20
HETATM   20  C   UNL     1      -9.717  10.361  64.746  1.00  0.00    -0.383 C  
BRANCH  20  21
HETATM   21  C   UNL     1      -8.353  10.407  64.069  1.00  0.00    -0.139 C  
BRANCH  21  22
HETATM   22  C   UNL     1      -7.673   9.069  64.157  1.00  0.00    -0.124 C  
HETATM   23  O   UNL     1      -6.754   8.781  64.908  1.00  0.00    -0.068 OA 
BRANCH  22  24
HETATM   24  O   UNL     1      -8.143   8.279  63.156  1.00  0.00    -0.159 OA 
BRANCH  24  25
HETATM   25  C   UNL     1      -7.412   7.049  63.019  1.00  0.00    -0.094 C  
BRANCH  25  26
HETATM   26  C   UNL     1      -8.385   5.922  63.408  1.00  0.00     0.012 C  
BRANCH  26  27
HETATM   27  N   UNL     1      -7.880   4.919  64.349  1.00  0.00    -0.084 NA 
HETATM   28  C   UNL     1      -7.506   5.479  65.664  1.00  0.00    -0.077 C  
HETATM   29  C   UNL     1      -8.708   5.913  66.518  1.00  0.00    -0.126 C  
HETATM   30  O   UNL     1      -9.625   4.830  66.714  1.00  0.00    -0.145 OA 
HETATM   31  C   UNL     1     -10.077   4.305  65.461  1.00  0.00    -0.223 C  
HETATM   32  C   UNL     1      -8.897   3.861  64.575  1.00  0.00    -0.124 C  
ENDBRANCH  26  27
ENDBRANCH  25  26
ENDBRANCH  24  25
ENDBRANCH  22  24
ENDBRANCH  21  22
ENDBRANCH  20  21
ENDBRANCH  18  20
ENDBRANCH  16  17
ENDBRANCH   4  16
ENDBRANCH   2   3
TORSDOF 10
ENDMDL
MODEL      179
REMARK 921   NORMALIZED FREE ENERGY PREDICTED BY IDOCK:   -4.20 KCAL/MOL
REMARK 922        TOTAL FREE ENERGY PREDICTED BY IDOCK:   -8.20 KCAL/MOL
REMARK 923 INTER-LIGAND FREE ENERGY PREDICTED BY IDOCK:   -7.38 KCAL/MOL
REMARK 924 INTRA-LIGAND FREE ENERGY PREDICTED BY IDOCK:   -0.82 KCAL/MOL
REMARK 927      BINDING AFFINITY PREDICTED BY RF-SCORE:    0.00 PKD
ROOT
HETATM    1  C   UNL     1      -9.910  12.052  66.965  1.00  0.00    -0.194 C  
HETATM    2  O   UNL     1      -9.630  12.332  68.335  1.00  0.00    -0.213 OA 
ENDROOT
BRANCH   2   3
HETATM    3  C   UNL     1     -10.713  12.477  69.178  1.00  0.00    -0.023 A  
HETATM    4  C   UNL     1     -11.162  11.454  70.072  1.00  0.00    -0.160 A  
HETATM    5  C   UNL     1     -12.223  11.771  70.952  1.00  0.00    -0.276 A  
HETATM    6  C   UNL     1     -12.279  14.045  70.115  1.00  0.00    -0.425 A  
HETATM    7  O   UNL     1     -12.821  10.865  71.773  1.00  0.00    -0.431 OA 
HETATM    8  C   UNL     1     -11.270  13.781  69.197  1.00  0.00    -0.307 A  
HETATM    9  C   UNL     1     -12.735  13.062  70.969  1.00  0.00    -0.347 A  
HETATM   10  C   UNL     1     -13.771  13.634  71.834  1.00  0.00    -0.410 C  
HETATM   11  C   UNL     1     -10.793  14.842  68.245  1.00  0.00    -0.257 C  
HETATM   12  H   UNL     1     -13.533  11.078  72.364  1.00  0.00     0.000 HD 
HETATM   13  O   UNL     1     -13.917  14.947  71.450  1.00  0.00    -0.418 OA 
HETATM   14  C   UNL     1     -13.044  15.289  70.363  1.00  0.00    -0.200 C  
HETATM   15  O   UNL     1     -14.382  13.113  72.747  1.00  0.00    -0.551 OA 
BRANCH   4  16
HETATM   16  C   UNL     1     -10.545  10.073  69.961  1.00  0.00    -0.344 C  
BRANCH  16  17
HETATM   17  C   UNL     1     -10.794   9.242  68.744  1.00  0.00    -0.123 C  
HETATM   18  C   UNL     1      -9.882   8.542  68.045  1.00  0.00    -0.202 C  
HETATM   19  C   UNL     1      -8.424   8.415  68.401  1.00  0.00    -0.135 C  
BRANCH  18  20
HETATM   20  C   UNL     1     -10.314   7.829  66.786  1.00  0.00    -0.348 C  
BRANCH  20  21
HETATM   21  C   UNL     1     -10.916   6.471  67.121  1.00  0.00    -0.480 C  
BRANCH  21  22
HETATM   22  C   UNL     1     -10.101   5.365  66.513  1.00  0.00    -0.216 C  
HETATM   23  O   UNL     1     -10.514   4.513  65.741  1.00  0.00    -0.280 OA 
BRANCH  22  24
HETATM   24  O   UNL     1      -8.866   5.375  67.081  1.00  0.00    -0.111 OA 
BRANCH  24  25
HETATM   25  C   UNL     1      -8.486   4.101  67.625  1.00  0.00    -0.098 C  
BRANCH  25  26
HETATM   26  C   UNL     1      -7.945   4.378  69.039  1.00  0.00    -0.069 C  
BRANCH  26  27
HETATM   27  N   UNL     1      -8.725   3.836  70.156  1.00  0.00    -0.065 NA 
HETATM   28  C   UNL     1      -7.958   3.724  71.413  1.00  0.00    -0.064 C  
HETATM   29  C   UNL     1      -7.645   5.077  72.073  1.00  0.00    -0.096 C  
HETATM   30  O   UNL     1      -8.843   5.823  72.321  1.00  0.00    -0.135 OA 
HETATM   31  C   UNL     1      -9.583   6.025  71.111  1.00  0.00    -0.172 C  
HETATM   32  C   UNL     1      -9.912   4.688  70.420  1.00  0.00    -0.230 C  
ENDBRANCH  26  27
ENDBRANCH  25  26
ENDBRANCH  24  25
ENDBRANCH  22  24
ENDBRANCH  21  22
ENDBRANCH  20  21
ENDBRANCH  18  20
ENDBRANCH  16  17
ENDBRANCH   4  16
ENDBRANCH   2   3
TORSDOF 10
ENDMDL
MODEL      180
REMARK 921   NORMALIZED FREE ENERGY PREDICTED BY IDOCK:   -4.20 KCAL/MOL
REMARK 922        TOTAL FREE ENERGY PREDICTED BY IDOCK:   -8.20 KCAL/MOL
REMARK 923 INTER-LIGAND FREE ENERGY PREDICTED BY IDOCK:   -7.16 KCAL/MOL
REMARK 924 INTRA-LIGAND FREE ENERGY PREDICTED BY IDOCK:   -1.04 KCAL/MOL
REMARK 927      BINDING AFFINITY PREDICTED BY RF-SCORE:    0.00 PKD
ROOT
HETATM    1  C   UNL     1     -12.121  13.468  64.036  1.00  0.00    -0.441 C  
HETATM    2  O   UNL     1     -10.941  13.780  64.773  1.00  0.00    -0.351 OA 
ENDROOT
BRANCH   2   3
HETATM    3  C   UNL     1     -11.103  14.099  66.106  1.00  0.00    -0.312 A  
HETATM    4  C   UNL     1     -11.258  13.122  67.140  1.00  0.00    -0.326 A  
HETATM    5  C   UNL     1     -11.314  13.583  68.476  1.00  0.00    -0.292 A  
HETATM    6  C   UNL     1     -10.978  15.866  67.735  1.00  0.00    -0.315 A  
HETATM    7  O   UNL     1     -11.570  12.779  69.543  1.00  0.00    -0.292 OA 
HETATM    8  C   UNL     1     -10.959  15.479  66.400  1.00  0.00    -0.238 A  
HETATM    9  C   UNL     1     -11.147  14.937  68.740  1.00  0.00    -0.274 A  
HETATM   10  C   UNL     1     -11.096  15.627  70.032  1.00  0.00    -0.324 C  
HETATM   11  C   UNL     1     -10.806  16.494  65.302  1.00  0.00    -0.233 C  
HETATM   12  H   UNL     1     -11.608  13.088  70.440  1.00  0.00     0.000 HD 
HETATM   13  O   UNL     1     -10.918  16.962  69.753  1.00  0.00    -0.231 OA 
HETATM   14  C   UNL     1     -10.859  17.213  68.340  1.00  0.00    -0.309 C  
HETATM   15  O   UNL     1     -11.153  15.160  71.153  1.00  0.00    -0.311 OA 
BRANCH   4  16
HETATM   16  C   UNL     1     -11.447  11.671  66.742  1.00  0.00    -0.299 C  
BRANCH  16  17
HETATM   17  C   UNL     1     -10.275  10.744  66.729  1.00  0.00    -0.279 C  
HETATM   18  C   UNL     1      -9.688  10.200  65.646  1.00  0.00    -0.322 C  
HETATM   19  C   UNL     1     -10.073  10.479  64.217  1.00  0.00    -0.380 C  
BRANCH  18  20
HETATM   20  C   UNL     1      -8.564   9.213  65.842  1.00  0.00    -0.168 C  
BRANCH  20  21
HETATM   21  C   UNL     1      -9.059   7.980  66.588  1.00  0.00    -0.199 C  
BRANCH  21  22
HETATM   22  C   UNL     1      -8.111   7.614  67.695  1.00  0.00    -0.121 C  
HETATM   23  O   UNL     1      -7.369   6.644  67.710  1.00  0.00    -0.091 OA 
BRANCH  22  24
HETATM   24  O   UNL     1      -8.325   8.453  68.744  1.00  0.00    -0.115 OA 
BRANCH  24  25
HETATM   25  C   UNL     1      -9.228   7.912  69.721  1.00  0.00    -0.150 C  
BRANCH  25  26
HETATM   26  C   UNL     1      -8.768   8.458  71.085  1.00  0.00    -0.159 C  
BRANCH  26  27
HETATM   27  N   UNL     1      -7.471   7.981  71.576  1.00  0.00    -0.069 NA 
HETATM   28  C   UNL     1      -7.160   8.427  72.949  1.00  0.00    -0.067 C  
HETATM   29  C   UNL     1      -8.008   7.741  74.032  1.00  0.00    -0.192 C  
HETATM   30  O   UNL     1      -7.883   6.316  73.964  1.00  0.00    -0.099 OA 
HETATM   31  C   UNL     1      -8.252   5.828  72.669  1.00  0.00    -0.112 C  
HETATM   32  C   UNL     1      -7.424   6.498  71.556  1.00  0.00    -0.089 C  
ENDBRANCH  26  27
ENDBRANCH  25  26
ENDBRANCH  24  25
ENDBRANCH  22  24
ENDBRANCH  21  22
ENDBRANCH  20  21
ENDBRANCH  18  20
ENDBRANCH  16  17
ENDBRANCH   4  16
ENDBRANCH   2   3
TORSDOF 10
ENDMDL
MODEL      181
REMARK 921   NORMALIZED FREE ENERGY PREDICTED BY IDOCK:   -4.19 KCAL/MOL
REMARK 922        TOTAL FREE ENERGY PREDICTED BY IDOCK:   -8.19 KCAL/MOL
REMARK 923 INTER-LIGAND FREE ENERGY PREDICTED BY IDOCK:   -7.31 KCAL/MOL
REMARK 924 INTRA-LIGAND FREE ENERGY PREDICTED BY IDOCK:   -0.88 KCAL/MOL
REMARK 927      BINDING AFFINITY PREDICTED BY RF-SCORE:    0.00 PKD
ROOT
HETATM    1  C   UNL     1      -9.099  10.743  62.531  1.00  0.00    -0.312 C  
HETATM    2  O   UNL     1     -10.222  10.410  63.345  1.00  0.00    -0.115 OA 
ENDROOT
BRANCH   2   3
HETATM    3  C   UNL     1     -10.401  11.149  64.497  1.00  0.00    -0.337 A  
HETATM    4  C   UNL     1      -9.507  11.101  65.614  1.00  0.00    -0.252 A  
HETATM    5  C   UNL     1      -9.755  11.985  66.689  1.00  0.00    -0.208 A  
HETATM    6  C   UNL     1     -11.636  12.951  65.505  1.00  0.00    -0.395 A  
HETATM    7  O   UNL     1      -9.056  11.969  67.857  1.00  0.00    -0.169 OA 
HETATM    8  C   UNL     1     -11.470  12.077  64.436  1.00  0.00    -0.413 A  
HETATM    9  C   UNL     1     -10.794  12.902  66.597  1.00  0.00    -0.288 A  
HETATM   10  C   UNL     1     -11.189  13.949  67.542  1.00  0.00    -0.303 C  
HETATM   11  C   UNL     1     -12.405  12.109  63.260  1.00  0.00    -0.547 C  
HETATM   12  H   UNL     1      -9.222  12.562  68.580  1.00  0.00     0.000 HD 
HETATM   13  O   UNL     1     -12.279  14.581  66.989  1.00  0.00    -0.362 OA 
HETATM   14  C   UNL     1     -12.649  14.008  65.726  1.00  0.00    -0.479 C  
HETATM   15  O   UNL     1     -10.673  14.266  68.596  1.00  0.00    -0.235 OA 
BRANCH   4  16
HETATM   16  C   UNL     1      -8.413  10.051  65.621  1.00  0.00    -0.155 C  
BRANCH  16  17
HETATM   17  C   UNL     1      -8.773   8.601  65.593  1.00  0.00    -0.214 C  
HETATM   18  C   UNL     1      -9.529   7.940  66.489  1.00  0.00    -0.277 C  
HETATM   19  C   UNL     1     -10.216   8.564  67.675  1.00  0.00    -0.297 C  
BRANCH  18  20
HETATM   20  C   UNL     1      -9.709   6.449  66.336  1.00  0.00    -0.140 C  
BRANCH  20  21
HETATM   21  C   UNL     1      -8.616   5.699  67.085  1.00  0.00    -0.109 C  
BRANCH  21  22
HETATM   22  C   UNL     1      -9.131   4.384  67.599  1.00  0.00    -0.126 C  
HETATM   23  O   UNL     1      -9.519   3.451  66.914  1.00  0.00    -0.194 OA 
BRANCH  22  24
HETATM   24  O   UNL     1      -9.240   4.461  68.952  1.00  0.00    -0.118 OA 
BRANCH  24  25
HETATM   25  C   UNL     1      -7.991   4.750  69.602  1.00  0.00    -0.066 C  
BRANCH  25  26
HETATM   26  C   UNL     1      -8.330   5.630  70.819  1.00  0.00    -0.123 C  
BRANCH  26  27
HETATM   27  N   UNL     1      -8.818   6.982  70.531  1.00  0.00    -0.153 NA 
HETATM   28  C   UNL     1     -10.101   7.298  71.190  1.00  0.00    -0.186 C  
HETATM   29  C   UNL     1      -9.989   7.486  72.712  1.00  0.00    -0.227 C  
HETATM   30  O   UNL     1      -9.032   8.499  73.042  1.00  0.00    -0.291 OA 
HETATM   31  C   UNL     1      -7.747   8.193  72.488  1.00  0.00    -0.128 C  
HETATM   32  C   UNL     1      -7.822   7.995  70.962  1.00  0.00    -0.090 C  
ENDBRANCH  26  27
ENDBRANCH  25  26
ENDBRANCH  24  25
ENDBRANCH  22  24
ENDBRANCH  21  22
ENDBRANCH  20  21
ENDBRANCH  18  20
ENDBRANCH  16  17
ENDBRANCH   4  16
ENDBRANCH   2   3
TORSDOF 10
ENDMDL
MODEL      182
REMARK 921   NORMALIZED FREE ENERGY PREDICTED BY IDOCK:   -4.19 KCAL/MOL
REMARK 922        TOTAL FREE ENERGY PREDICTED BY IDOCK:   -8.17 KCAL/MOL
REMARK 923 INTER-LIGAND FREE ENERGY PREDICTED BY IDOCK:   -7.45 KCAL/MOL
REMARK 924 INTRA-LIGAND FREE ENERGY PREDICTED BY IDOCK:   -0.72 KCAL/MOL
REMARK 927      BINDING AFFINITY PREDICTED BY RF-SCORE:    0.00 PKD
ROOT
HETATM    1  C   UNL     1     -12.473  15.528  70.339  1.00  0.00    -0.402 C  
HETATM    2  O   UNL     1     -11.257  14.916  69.917  1.00  0.00    -0.259 OA 
ENDROOT
BRANCH   2   3
HETATM    3  C   UNL     1     -11.278  14.249  68.709  1.00  0.00    -0.262 A  
HETATM    4  C   UNL     1     -11.538  12.847  68.585  1.00  0.00    -0.353 A  
HETATM    5  C   UNL     1     -11.630  12.311  67.279  1.00  0.00    -0.357 A  
HETATM    6  C   UNL     1     -11.308  14.512  66.317  1.00  0.00    -0.352 A  
HETATM    7  O   UNL     1     -11.761  10.982  67.015  1.00  0.00    -0.399 OA 
HETATM    8  C   UNL     1     -11.164  15.090  67.574  1.00  0.00    -0.333 A  
HETATM    9  C   UNL     1     -11.538  13.158  66.183  1.00  0.00    -0.396 A  
HETATM   10  C   UNL     1     -11.674  12.845  64.758  1.00  0.00    -0.346 C  
HETATM   11  C   UNL     1     -10.882  16.559  67.722  1.00  0.00    -0.304 C  
HETATM   12  H   UNL     1     -11.823  10.622  66.139  1.00  0.00     0.000 HD 
HETATM   13  O   UNL     1     -11.496  14.029  64.080  1.00  0.00    -0.323 OA 
HETATM   14  C   UNL     1     -11.235  15.124  64.971  1.00  0.00    -0.409 C  
HETATM   15  O   UNL     1     -11.931  11.781  64.228  1.00  0.00    -0.280 OA 
BRANCH   4  16
HETATM   16  C   UNL     1     -11.606  12.008  69.846  1.00  0.00    -0.315 C  
BRANCH  16  17
HETATM   17  C   UNL     1     -11.731  10.522  69.746  1.00  0.00    -0.354 C  
HETATM   18  C   UNL     1     -10.730   9.623  69.805  1.00  0.00    -0.269 C  
HETATM   19  C   UNL     1      -9.281   9.951  70.048  1.00  0.00    -0.224 C  
BRANCH  18  20
HETATM   20  C   UNL     1     -11.047   8.162  69.597  1.00  0.00    -0.015 C  
BRANCH  20  21
HETATM   21  C   UNL     1     -10.004   7.513  68.696  1.00  0.00    -0.178 C  
BRANCH  21  22
HETATM   22  C   UNL     1     -10.519   7.396  67.289  1.00  0.00    -0.315 C  
HETATM   23  O   UNL     1     -11.251   6.516  66.865  1.00  0.00    -0.387 OA 
BRANCH  22  24
HETATM   24  O   UNL     1      -9.910   8.344  66.526  1.00  0.00    -0.242 OA 
BRANCH  24  25
HETATM   25  C   UNL     1      -9.011   7.790  65.552  1.00  0.00     0.062 C  
BRANCH  25  26
HETATM   26  C   UNL     1      -7.602   7.877  66.165  1.00  0.00    -0.083 C  
BRANCH  26  27
HETATM   27  N   UNL     1      -6.565   8.494  65.333  1.00  0.00    -0.059 NA 
HETATM   28  C   UNL     1      -6.972   9.785  64.743  1.00  0.00    -0.122 C  
HETATM   29  C   UNL     1      -7.066  10.931  65.763  1.00  0.00     0.014 C  
HETATM   30  O   UNL     1      -5.829  11.106  66.464  1.00  0.00    -0.113 OA 
HETATM   31  C   UNL     1      -5.434   9.896  67.120  1.00  0.00    -0.042 C  
HETATM   32  C   UNL     1      -5.332   8.722  66.128  1.00  0.00    -0.034 C  
ENDBRANCH  26  27
ENDBRANCH  25  26
ENDBRANCH  24  25
ENDBRANCH  22  24
ENDBRANCH  21  22
ENDBRANCH  20  21
ENDBRANCH  18  20
ENDBRANCH  16  17
ENDBRANCH   4  16
ENDBRANCH   2   3
TORSDOF 10
ENDMDL
MODEL      183
REMARK 921   NORMALIZED FREE ENERGY PREDICTED BY IDOCK:   -4.17 KCAL/MOL
REMARK 922        TOTAL FREE ENERGY PREDICTED BY IDOCK:   -8.16 KCAL/MOL
REMARK 923 INTER-LIGAND FREE ENERGY PREDICTED BY IDOCK:   -7.24 KCAL/MOL
REMARK 924 INTRA-LIGAND FREE ENERGY PREDICTED BY IDOCK:   -0.92 KCAL/MOL
REMARK 927      BINDING AFFINITY PREDICTED BY RF-SCORE:    0.00 PKD
ROOT
HETATM    1  C   UNL     1     -12.774  12.634  64.675  1.00  0.00    -0.377 C  
HETATM    2  O   UNL     1     -11.536  13.310  64.464  1.00  0.00    -0.339 OA 
ENDROOT
BRANCH   2   3
HETATM    3  C   UNL     1     -10.925  13.857  65.574  1.00  0.00    -0.302 A  
HETATM    4  C   UNL     1     -10.320  13.074  66.609  1.00  0.00    -0.263 A  
HETATM    5  C   UNL     1      -9.641  13.764  67.640  1.00  0.00    -0.219 A  
HETATM    6  C   UNL     1     -10.095  15.887  66.563  1.00  0.00    -0.293 A  
HETATM    7  O   UNL     1      -9.119  13.155  68.740  1.00  0.00    -0.386 OA 
HETATM    8  C   UNL     1     -10.813  15.269  65.545  1.00  0.00    -0.382 A  
HETATM    9  C   UNL     1      -9.524  15.147  67.577  1.00  0.00    -0.206 A  
HETATM   10  C   UNL     1      -8.813  16.056  68.480  1.00  0.00    -0.199 C  
HETATM   11  C   UNL     1     -11.462  16.077  64.457  1.00  0.00    -0.274 C  
HETATM   12  H   UNL     1      -8.662  13.618  69.432  1.00  0.00     0.000 HD 
HETATM   13  O   UNL     1      -9.003  17.325  67.983  1.00  0.00    -0.231 OA 
HETATM   14  C   UNL     1      -9.816  17.323  66.799  1.00  0.00    -0.294 C  
HETATM   15  O   UNL     1      -8.143  15.795  69.460  1.00  0.00    -0.234 OA 
BRANCH   4  16
HETATM   16  C   UNL     1     -10.521  11.572  66.591  1.00  0.00    -0.277 C  
BRANCH  16  17
HETATM   17  C   UNL     1      -9.373  10.671  66.268  1.00  0.00    -0.199 C  
HETATM   18  C   UNL     1      -9.056  10.169  65.060  1.00  0.00    -0.245 C  
HETATM   19  C   UNL     1      -9.778  10.479  63.775  1.00  0.00    -0.385 C  
BRANCH  18  20
HETATM   20  C   UNL     1      -7.904   9.202  64.948  1.00  0.00    -0.117 C  
BRANCH  20  21
HETATM   21  C   UNL     1      -8.247   7.883  65.628  1.00  0.00    -0.137 C  
BRANCH  21  22
HETATM   22  C   UNL     1      -7.090   7.397  66.456  1.00  0.00    -0.074 C  
HETATM   23  O   UNL     1      -6.084   6.853  66.030  1.00  0.00    -0.033 OA 
BRANCH  22  24
HETATM   24  O   UNL     1      -7.417   7.522  67.770  1.00  0.00    -0.096 OA 
BRANCH  24  25
HETATM   25  C   UNL     1      -8.762   7.106  68.058  1.00  0.00    -0.127 C  
BRANCH  25  26
HETATM   26  C   UNL     1      -9.125   7.726  69.419  1.00  0.00    -0.146 C  
BRANCH  26  27
HETATM   27  N   UNL     1     -10.055   6.964  70.257  1.00  0.00    -0.182 NA 
HETATM   28  C   UNL     1      -9.430   6.403  71.473  1.00  0.00    -0.154 C  
HETATM   29  C   UNL     1      -9.082   7.459  72.535  1.00  0.00    -0.140 C  
HETATM   30  O   UNL     1     -10.236   8.220  72.910  1.00  0.00    -0.295 OA 
HETATM   31  C   UNL     1     -10.831   8.849  71.769  1.00  0.00    -0.365 C  
HETATM   32  C   UNL     1     -11.191   7.820  70.681  1.00  0.00    -0.268 C  
ENDBRANCH  26  27
ENDBRANCH  25  26
ENDBRANCH  24  25
ENDBRANCH  22  24
ENDBRANCH  21  22
ENDBRANCH  20  21
ENDBRANCH  18  20
ENDBRANCH  16  17
ENDBRANCH   4  16
ENDBRANCH   2   3
TORSDOF 10
ENDMDL
MODEL      184
REMARK 921   NORMALIZED FREE ENERGY PREDICTED BY IDOCK:   -4.17 KCAL/MOL
REMARK 922        TOTAL FREE ENERGY PREDICTED BY IDOCK:   -8.15 KCAL/MOL
REMARK 923 INTER-LIGAND FREE ENERGY PREDICTED BY IDOCK:   -8.01 KCAL/MOL
REMARK 924 INTRA-LIGAND FREE ENERGY PREDICTED BY IDOCK:   -0.14 KCAL/MOL
REMARK 927      BINDING AFFINITY PREDICTED BY RF-SCORE:    0.00 PKD
ROOT
HETATM    1  C   UNL     1     -11.531  12.205  69.362  1.00  0.00    -0.290 C  
HETATM    2  O   UNL     1     -10.340  12.550  68.657  1.00  0.00    -0.225 OA 
ENDROOT
BRANCH   2   3
HETATM    3  C   UNL     1     -10.469  13.442  67.611  1.00  0.00    -0.241 A  
HETATM    4  C   UNL     1     -11.095  13.115  66.366  1.00  0.00    -0.311 A  
HETATM    5  C   UNL     1     -11.250  14.153  65.418  1.00  0.00    -0.325 A  
HETATM    6  C   UNL     1     -10.277  15.750  66.960  1.00  0.00    -0.280 A  
HETATM    7  O   UNL     1     -11.723  13.959  64.157  1.00  0.00    -0.514 OA 
HETATM    8  C   UNL     1     -10.058  14.764  67.915  1.00  0.00    -0.221 A  
HETATM    9  C   UNL     1     -10.861  15.445  65.748  1.00  0.00    -0.349 A  
HETATM   10  C   UNL     1     -10.989  16.677  64.965  1.00  0.00    -0.162 C  
HETATM   11  C   UNL     1      -9.394  15.089  69.224  1.00  0.00    -0.162 C  
HETATM   12  H   UNL     1     -11.827  14.656  63.520  1.00  0.00     0.000 HD 
HETATM   13  O   UNL     1     -10.452  17.683  65.733  1.00  0.00    -0.550 OA 
HETATM   14  C   UNL     1      -9.956  17.196  66.989  1.00  0.00    -0.287 C  
HETATM   15  O   UNL     1     -11.494  16.841  63.871  1.00  0.00    -1.116 OA 
BRANCH   4  16
HETATM   16  C   UNL     1     -11.468  11.669  66.101  1.00  0.00    -0.198 C  
BRANCH  16  17
HETATM   17  C   UNL     1     -10.582  10.570  66.590  1.00  0.00    -0.263 C  
HETATM   18  C   UNL     1      -9.500  10.068  65.965  1.00  0.00    -0.251 C  
HETATM   19  C   UNL     1      -8.937  10.572  64.662  1.00  0.00    -0.229 C  
BRANCH  18  20
HETATM   20  C   UNL     1      -8.780   8.893  66.580  1.00  0.00    -0.145 C  
BRANCH  20  21
HETATM   21  C   UNL     1      -7.467   9.341  67.208  1.00  0.00    -0.091 C  
BRANCH  21  22
HETATM   22  C   UNL     1      -7.676   9.749  68.639  1.00  0.00    -0.080 C  
HETATM   23  O   UNL     1      -8.095  10.830  69.021  1.00  0.00    -0.136 OA 
BRANCH  22  24
HETATM   24  O   UNL     1      -7.176   8.774  69.445  1.00  0.00    -0.059 OA 
BRANCH  24  25
HETATM   25  C   UNL     1      -8.040   7.630  69.547  1.00  0.00    -0.127 C  
BRANCH  25  26
HETATM   26  C   UNL     1      -9.328   8.121  70.233  1.00  0.00    -0.155 C  
BRANCH  26  27
HETATM   27  N   UNL     1     -10.593   7.701  69.625  1.00  0.00    -0.242 NA 
HETATM   28  C   UNL     1     -11.011   6.339  70.015  1.00  0.00    -0.358 C  
HETATM   29  C   UNL     1     -11.487   6.229  71.473  1.00  0.00    -0.293 C  
HETATM   30  O   UNL     1     -12.557   7.142  71.741  1.00  0.00    -0.335 OA 
HETATM   31  C   UNL     1     -12.169   8.490  71.451  1.00  0.00    -0.304 C  
HETATM   32  C   UNL     1     -11.683   8.637  69.996  1.00  0.00     0.290 C  
ENDBRANCH  26  27
ENDBRANCH  25  26
ENDBRANCH  24  25
ENDBRANCH  22  24
ENDBRANCH  21  22
ENDBRANCH  20  21
ENDBRANCH  18  20
ENDBRANCH  16  17
ENDBRANCH   4  16
ENDBRANCH   2   3
TORSDOF 10
ENDMDL
MODEL      185
REMARK 921   NORMALIZED FREE ENERGY PREDICTED BY IDOCK:   -4.17 KCAL/MOL
REMARK 922        TOTAL FREE ENERGY PREDICTED BY IDOCK:   -8.15 KCAL/MOL
REMARK 923 INTER-LIGAND FREE ENERGY PREDICTED BY IDOCK:   -7.27 KCAL/MOL
REMARK 924 INTRA-LIGAND FREE ENERGY PREDICTED BY IDOCK:   -0.88 KCAL/MOL
REMARK 927      BINDING AFFINITY PREDICTED BY RF-SCORE:    0.00 PKD
ROOT
HETATM    1  C   UNL     1     -11.277   6.383  69.150  1.00  0.00    -0.354 C  
HETATM    2  O   UNL     1     -11.203   7.538  69.984  1.00  0.00    -0.243 OA 
ENDROOT
BRANCH   2   3
HETATM    3  C   UNL     1      -9.968   7.844  70.519  1.00  0.00    -0.191 A  
HETATM    4  C   UNL     1      -8.923   8.486  69.781  1.00  0.00    -0.145 A  
HETATM    5  C   UNL     1      -7.744   8.832  70.480  1.00  0.00    -0.089 A  
HETATM    6  C   UNL     1      -8.692   8.008  72.553  1.00  0.00    -0.232 A  
HETATM    7  O   UNL     1      -6.633   9.342  69.881  1.00  0.00    -0.044 OA 
HETATM    8  C   UNL     1      -9.858   7.604  71.912  1.00  0.00    -0.205 A  
HETATM    9  C   UNL     1      -7.668   8.608  71.849  1.00  0.00    -0.111 A  
HETATM   10  C   UNL     1      -6.591   8.947  72.783  1.00  0.00     0.129 C  
HETATM   11  C   UNL     1     -10.961   6.922  72.672  1.00  0.00    -0.303 C  
HETATM   12  H   UNL     1      -5.841   9.575  70.351  1.00  0.00     0.000 HD 
HETATM   13  O   UNL     1      -7.000   8.513  74.022  1.00  0.00    -0.216 OA 
HETATM   14  C   UNL     1      -8.292   7.887  73.974  1.00  0.00    -0.255 C  
HETATM   15  O   UNL     1      -5.545   9.528  72.569  1.00  0.00    -0.215 OA 
BRANCH   4  16
HETATM   16  C   UNL     1      -9.101   8.669  68.286  1.00  0.00    -0.141 C  
BRANCH  16  17
HETATM   17  C   UNL     1     -10.217   9.516  67.768  1.00  0.00    -0.265 C  
HETATM   18  C   UNL     1     -10.236  10.860  67.678  1.00  0.00    -0.214 C  
HETATM   19  C   UNL     1      -9.091  11.770  68.034  1.00  0.00    -0.180 C  
BRANCH  18  20
HETATM   20  C   UNL     1     -11.496  11.544  67.206  1.00  0.00    -0.338 C  
BRANCH  20  21
HETATM   21  C   UNL     1     -11.319  12.067  65.786  1.00  0.00    -0.384 C  
BRANCH  21  22
HETATM   22  C   UNL     1     -11.092  13.552  65.794  1.00  0.00    -0.286 C  
HETATM   23  O   UNL     1     -10.427  14.179  64.983  1.00  0.00    -0.378 OA 
BRANCH  22  24
HETATM   24  O   UNL     1     -11.619  14.065  66.937  1.00  0.00    -0.346 OA 
BRANCH  24  25
HETATM   25  C   UNL     1     -10.930  15.238  67.399  1.00  0.00    -0.321 C  
BRANCH  25  26
HETATM   26  C   UNL     1     -11.738  15.773  68.594  1.00  0.00    -0.344 C  
BRANCH  26  27
HETATM   27  N   UNL     1     -11.154  15.566  69.923  1.00  0.00    -0.282 NA 
HETATM   28  C   UNL     1     -11.995  16.079  71.023  1.00  0.00    -0.366 C  
HETATM   29  C   UNL     1     -13.265  15.250  71.273  1.00  0.00    -0.488 C  
HETATM   30  O   UNL     1     -12.948  13.877  71.528  1.00  0.00    -0.327 OA 
HETATM   31  C   UNL     1     -12.197  13.313  70.446  1.00  0.00    -0.332 C  
HETATM   32  C   UNL     1     -10.916  14.121  70.165  1.00  0.00     0.200 C  
ENDBRANCH  26  27
ENDBRANCH  25  26
ENDBRANCH  24  25
ENDBRANCH  22  24
ENDBRANCH  21  22
ENDBRANCH  20  21
ENDBRANCH  18  20
ENDBRANCH  16  17
ENDBRANCH   4  16
ENDBRANCH   2   3
TORSDOF 10
ENDMDL
MODEL      186
REMARK 921   NORMALIZED FREE ENERGY PREDICTED BY IDOCK:   -4.17 KCAL/MOL
REMARK 922        TOTAL FREE ENERGY PREDICTED BY IDOCK:   -8.15 KCAL/MOL
REMARK 923 INTER-LIGAND FREE ENERGY PREDICTED BY IDOCK:   -6.75 KCAL/MOL
REMARK 924 INTRA-LIGAND FREE ENERGY PREDICTED BY IDOCK:   -1.40 KCAL/MOL
REMARK 927      BINDING AFFINITY PREDICTED BY RF-SCORE:    0.00 PKD
ROOT
HETATM    1  C   UNL     1      -7.565  10.699  69.491  1.00  0.00    -0.124 C  
HETATM    2  O   UNL     1      -8.684  10.047  68.895  1.00  0.00    -0.130 OA 
ENDROOT
BRANCH   2   3
HETATM    3  C   UNL     1      -8.835  10.186  67.530  1.00  0.00    -0.125 A  
HETATM    4  C   UNL     1      -8.229   9.311  66.574  1.00  0.00    -0.107 A  
HETATM    5  C   UNL     1      -8.549   9.508  65.210  1.00  0.00    -0.157 A  
HETATM    6  C   UNL     1     -10.070  11.303  65.792  1.00  0.00    -0.294 A  
HETATM    7  O   UNL     1      -7.961   8.825  64.190  1.00  0.00    -0.138 OA 
HETATM    8  C   UNL     1      -9.762  11.187  67.143  1.00  0.00    -0.199 A  
HETATM    9  C   UNL     1      -9.477  10.479  64.858  1.00  0.00    -0.304 A  
HETATM   10  C   UNL     1     -10.012  10.810  63.534  1.00  0.00    -0.344 C  
HETATM   11  C   UNL     1     -10.383  12.104  68.159  1.00  0.00    -0.214 C  
HETATM   12  H   UNL     1      -8.176   8.957  63.274  1.00  0.00     0.000 HD 
HETATM   13  O   UNL     1     -10.897  11.846  63.720  1.00  0.00    -0.339 OA 
HETATM   14  C   UNL     1     -10.981  12.241  65.098  1.00  0.00    -0.303 C  
HETATM   15  O   UNL     1      -9.784  10.284  62.462  1.00  0.00    -0.262 OA 
BRANCH   4  16
HETATM   16  C   UNL     1      -7.217   8.294  67.063  1.00  0.00    -0.083 C  
BRANCH  16  17
HETATM   17  C   UNL     1      -7.682   6.980  67.601  1.00  0.00    -0.112 C  
HETATM   18  C   UNL     1      -7.460   6.489  68.835  1.00  0.00    -0.095 C  
HETATM   19  C   UNL     1      -6.741   7.215  69.942  1.00  0.00    -0.048 C  
BRANCH  18  20
HETATM   20  C   UNL     1      -7.940   5.097  69.166  1.00  0.00    -0.081 C  
BRANCH  20  21
HETATM   21  C   UNL     1      -8.433   5.030  70.606  1.00  0.00    -0.111 C  
BRANCH  21  22
HETATM   22  C   UNL     1      -9.914   5.279  70.671  1.00  0.00    -0.218 C  
HETATM   23  O   UNL     1     -10.667   5.369  69.714  1.00  0.00    -0.315 OA 
BRANCH  22  24
HETATM   24  O   UNL     1     -10.252   5.542  71.961  1.00  0.00    -0.187 OA 
BRANCH  24  25
HETATM   25  C   UNL     1      -9.943   6.887  72.362  1.00  0.00    -0.165 C  
BRANCH  25  26
HETATM   26  C   UNL     1     -11.293   7.598  72.567  1.00  0.00    -0.355 C  
BRANCH  26  27
HETATM   27  N   UNL     1     -12.136   7.756  71.378  1.00  0.00    -0.304 NA 
HETATM   28  C   UNL     1     -13.547   8.056  71.692  1.00  0.00    -0.344 C  
HETATM   29  C   UNL     1     -13.774   9.473  72.242  1.00  0.00    -0.371 C  
HETATM   30  O   UNL     1     -13.274  10.467  71.339  1.00  0.00    -0.380 OA 
HETATM   31  C   UNL     1     -11.882  10.262  71.067  1.00  0.00    -0.377 C  
HETATM   32  C   UNL     1     -11.617   8.848  70.517  1.00  0.00    -0.160 C  
ENDBRANCH  26  27
ENDBRANCH  25  26
ENDBRANCH  24  25
ENDBRANCH  22  24
ENDBRANCH  21  22
ENDBRANCH  20  21
ENDBRANCH  18  20
ENDBRANCH  16  17
ENDBRANCH   4  16
ENDBRANCH   2   3
TORSDOF 10
ENDMDL
MODEL      187
REMARK 921   NORMALIZED FREE ENERGY PREDICTED BY IDOCK:   -4.13 KCAL/MOL
REMARK 922        TOTAL FREE ENERGY PREDICTED BY IDOCK:   -8.08 KCAL/MOL
REMARK 923 INTER-LIGAND FREE ENERGY PREDICTED BY IDOCK:   -7.20 KCAL/MOL
REMARK 924 INTRA-LIGAND FREE ENERGY PREDICTED BY IDOCK:   -0.88 KCAL/MOL
REMARK 927      BINDING AFFINITY PREDICTED BY RF-SCORE:    0.00 PKD
ROOT
HETATM    1  C   UNL     1      -9.318  15.454  68.987  1.00  0.00    -0.232 C  
HETATM    2  O   UNL     1      -8.656  15.347  67.728  1.00  0.00    -0.152 OA 
ENDROOT
BRANCH   2   3
HETATM    3  C   UNL     1      -9.323  14.670  66.727  1.00  0.00    -0.257 A  
HETATM    4  C   UNL     1      -9.182  13.265  66.492  1.00  0.00    -0.182 A  
HETATM    5  C   UNL     1     -10.001  12.682  65.497  1.00  0.00    -0.224 A  
HETATM    6  C   UNL     1     -11.086  14.812  65.094  1.00  0.00    -0.389 A  
HETATM    7  O   UNL     1      -9.893  11.386  65.094  1.00  0.00    -0.241 OA 
HETATM    8  C   UNL     1     -10.279  15.451  66.029  1.00  0.00    -0.343 A  
HETATM    9  C   UNL     1     -10.947  13.462  64.844  1.00  0.00    -0.353 A  
HETATM   10  C   UNL     1     -11.940  13.065  63.843  1.00  0.00    -0.485 C  
HETATM   11  C   UNL     1     -10.409  16.927  66.281  1.00  0.00    -0.312 C  
HETATM   12  H   UNL     1     -10.442  10.994  64.426  1.00  0.00     0.000 HD 
HETATM   13  O   UNL     1     -12.633  14.205  63.509  1.00  0.00    -0.834 OA 
HETATM   14  C   UNL     1     -12.151  15.355  64.221  1.00  0.00    -0.166 C  
HETATM   15  O   UNL     1     -12.176  11.961  63.392  1.00  0.00    -0.531 OA 
BRANCH   4  16
HETATM   16  C   UNL     1      -8.108  12.509  67.249  1.00  0.00    -0.179 C  
BRANCH  16  17
HETATM   17  C   UNL     1      -8.476  11.693  68.446  1.00  0.00    -0.157 C  
HETATM   18  C   UNL     1      -7.919  10.529  68.830  1.00  0.00    -0.128 C  
HETATM   19  C   UNL     1      -6.760   9.853  68.146  1.00  0.00    -0.060 C  
BRANCH  18  20
HETATM   20  C   UNL     1      -8.488   9.806  70.026  1.00  0.00    -0.229 C  
BRANCH  20  21
HETATM   21  C   UNL     1      -9.453   8.715  69.582  1.00  0.00    -0.162 C  
BRANCH  21  22
HETATM   22  C   UNL     1     -10.733   9.316  69.072  1.00  0.00    -0.167 C  
HETATM   23  O   UNL     1     -11.655   9.727  69.760  1.00  0.00    -0.160 OA 
BRANCH  22  24
HETATM   24  O   UNL     1     -10.763   9.186  67.719  1.00  0.00    -0.245 OA 
BRANCH  24  25
HETATM   25  C   UNL     1     -10.571   7.831  67.279  1.00  0.00    -0.306 C  
BRANCH  25  26
HETATM   26  C   UNL     1      -9.337   7.845  66.360  1.00  0.00    -0.189 C  
BRANCH  26  27
HETATM   27  N   UNL     1      -8.990   6.577  65.713  1.00  0.00    -0.095 NA 
HETATM   28  C   UNL     1      -7.600   6.530  65.213  1.00  0.00    -0.088 C  
HETATM   29  C   UNL     1      -6.543   6.440  66.325  1.00  0.00    -0.048 C  
HETATM   30  O   UNL     1      -6.774   5.308  67.172  1.00  0.00    -0.055 OA 
HETATM   31  C   UNL     1      -8.086   5.353  67.744  1.00  0.00    -0.100 C  
HETATM   32  C   UNL     1      -9.174   5.446  66.656  1.00  0.00    -0.132 C  
ENDBRANCH  26  27
ENDBRANCH  25  26
ENDBRANCH  24  25
ENDBRANCH  22  24
ENDBRANCH  21  22
ENDBRANCH  20  21
ENDBRANCH  18  20
ENDBRANCH  16  17
ENDBRANCH   4  16
ENDBRANCH   2   3
TORSDOF 10
ENDMDL
MODEL      188
REMARK 921   NORMALIZED FREE ENERGY PREDICTED BY IDOCK:   -4.12 KCAL/MOL
REMARK 922        TOTAL FREE ENERGY PREDICTED BY IDOCK:   -8.08 KCAL/MOL
REMARK 923 INTER-LIGAND FREE ENERGY PREDICTED BY IDOCK:   -6.49 KCAL/MOL
REMARK 924 INTRA-LIGAND FREE ENERGY PREDICTED BY IDOCK:   -1.59 KCAL/MOL
REMARK 927      BINDING AFFINITY PREDICTED BY RF-SCORE:    0.00 PKD
ROOT
HETATM    1  C   UNL     1      -8.323   8.065  65.584  1.00  0.00    -0.141 C  
HETATM    2  O   UNL     1      -8.002   7.235  66.699  1.00  0.00    -0.109 OA 
ENDROOT
BRANCH   2   3
HETATM    3  C   UNL     1      -8.602   7.545  67.902  1.00  0.00    -0.121 A  
HETATM    4  C   UNL     1      -8.176   8.620  68.745  1.00  0.00    -0.121 A  
HETATM    5  C   UNL     1      -8.943   8.890  69.902  1.00  0.00    -0.156 A  
HETATM    6  C   UNL     1     -10.514   7.142  69.307  1.00  0.00    -0.220 A  
HETATM    7  O   UNL     1      -8.591   9.805  70.846  1.00  0.00    -0.363 OA 
HETATM    8  C   UNL     1      -9.777   6.801  68.179  1.00  0.00    -0.129 A  
HETATM    9  C   UNL     1     -10.103   8.163  70.140  1.00  0.00    -0.194 A  
HETATM   10  C   UNL     1     -11.083   8.312  71.219  1.00  0.00    -0.251 C  
HETATM   11  C   UNL     1     -10.206   5.669  67.288  1.00  0.00    -0.250 C  
HETATM   12  H   UNL     1      -9.106   9.986  71.623  1.00  0.00     0.000 HD 
HETATM   13  O   UNL     1     -12.044   7.352  71.007  1.00  0.00    -0.312 OA 
HETATM   14  C   UNL     1     -11.760   6.552  69.849  1.00  0.00    -0.283 C  
HETATM   15  O   UNL     1     -11.111   9.126  72.121  1.00  0.00    -0.316 OA 
BRANCH   4  16
HETATM   16  C   UNL     1      -6.886   9.340  68.403  1.00  0.00    -0.063 C  
BRANCH  16  17
HETATM   17  C   UNL     1      -6.929  10.748  67.906  1.00  0.00    -0.073 C  
HETATM   18  C   UNL     1      -6.557  11.853  68.579  1.00  0.00    -0.061 C  
HETATM   19  C   UNL     1      -5.962  11.869  69.962  1.00  0.00    -0.159 C  
BRANCH  18  20
HETATM   20  C   UNL     1      -6.757  13.204  67.935  1.00  0.00    -0.138 C  
BRANCH  20  21
HETATM   21  C   UNL     1      -7.320  14.197  68.942  1.00  0.00    -0.122 C  
BRANCH  21  22
HETATM   22  C   UNL     1      -8.261  15.158  68.270  1.00  0.00    -0.144 C  
HETATM   23  O   UNL     1      -9.036  15.913  68.835  1.00  0.00    -0.203 OA 
BRANCH  22  24
HETATM   24  O   UNL     1      -8.219  14.937  66.929  1.00  0.00    -0.213 OA 
BRANCH  24  25
HETATM   25  C   UNL     1      -9.521  14.905  66.322  1.00  0.00    -0.309 C  
BRANCH  25  26
HETATM   26  C   UNL     1      -9.955  13.428  66.306  1.00  0.00    -0.296 C  
BRANCH  26  27
HETATM   27  N   UNL     1     -11.390  13.167  66.444  1.00  0.00    -0.305 NA 
HETATM   28  C   UNL     1     -11.706  11.759  66.762  1.00  0.00    -0.116 C  
HETATM   29  C   UNL     1     -11.327  11.346  68.193  1.00  0.00    -0.304 C  
HETATM   30  O   UNL     1     -11.951  12.196  69.163  1.00  0.00    -0.299 OA 
HETATM   31  C   UNL     1     -11.607  13.569  68.941  1.00  0.00    -0.323 C  
HETATM   32  C   UNL     1     -11.971  14.018  67.513  1.00  0.00    -0.395 C  
ENDBRANCH  26  27
ENDBRANCH  25  26
ENDBRANCH  24  25
ENDBRANCH  22  24
ENDBRANCH  21  22
ENDBRANCH  20  21
ENDBRANCH  18  20
ENDBRANCH  16  17
ENDBRANCH   4  16
ENDBRANCH   2   3
TORSDOF 10
ENDMDL
MODEL      189
REMARK 921   NORMALIZED FREE ENERGY PREDICTED BY IDOCK:   -4.09 KCAL/MOL
REMARK 922        TOTAL FREE ENERGY PREDICTED BY IDOCK:   -8.02 KCAL/MOL
REMARK 923 INTER-LIGAND FREE ENERGY PREDICTED BY IDOCK:   -7.27 KCAL/MOL
REMARK 924 INTRA-LIGAND FREE ENERGY PREDICTED BY IDOCK:   -0.75 KCAL/MOL
REMARK 927      BINDING AFFINITY PREDICTED BY RF-SCORE:    0.00 PKD
ROOT
HETATM    1  C   UNL     1     -13.695  13.870  71.284  1.00  0.00    -0.098 C  
HETATM    2  O   UNL     1     -12.315  13.558  71.103  1.00  0.00    -0.354 OA 
ENDROOT
BRANCH   2   3
HETATM    3  C   UNL     1     -11.835  13.573  69.809  1.00  0.00    -0.329 A  
HETATM    4  C   UNL     1     -11.841  12.428  68.950  1.00  0.00    -0.350 A  
HETATM    5  C   UNL     1     -11.412  12.608  67.615  1.00  0.00    -0.334 A  
HETATM    6  C   UNL     1     -11.091  14.978  68.003  1.00  0.00    -0.304 A  
HETATM    7  O   UNL     1     -11.262  11.588  66.726  1.00  0.00    -0.301 OA 
HETATM    8  C   UNL     1     -11.461  14.856  69.338  1.00  0.00    -0.324 A  
HETATM    9  C   UNL     1     -11.074  13.879  67.170  1.00  0.00    -0.312 A  
HETATM   10  C   UNL     1     -10.676  14.313  65.828  1.00  0.00    -0.305 C  
HETATM   11  C   UNL     1     -11.451  16.047  70.254  1.00  0.00    -0.369 C  
HETATM   12  H   UNL     1     -10.974  11.708  65.829  1.00  0.00     0.000 HD 
HETATM   13  O   UNL     1     -10.445  15.666  65.909  1.00  0.00    -0.307 OA 
HETATM   14  C   UNL     1     -10.653  16.169  67.238  1.00  0.00    -0.305 C  
HETATM   15  O   UNL     1     -10.589  13.661  64.805  1.00  0.00    -0.377 OA 
BRANCH   4  16
HETATM   16  C   UNL     1     -12.214  11.082  69.541  1.00  0.00    -0.352 C  
BRANCH  16  17
HETATM   17  C   UNL     1     -11.447  10.541  70.704  1.00  0.00    -0.418 C  
HETATM   18  C   UNL     1     -10.828   9.348  70.777  1.00  0.00    -0.372 C  
HETATM   19  C   UNL     1     -10.740   8.345  69.657  1.00  0.00    -0.201 C  
BRANCH  18  20
HETATM   20  C   UNL     1     -10.174   8.941  72.075  1.00  0.00    -0.363 C  
BRANCH  20  21
HETATM   21  C   UNL     1      -9.247   7.753  71.856  1.00  0.00    -0.182 C  
BRANCH  21  22
HETATM   22  C   UNL     1      -7.812   8.199  71.824  1.00  0.00    -0.112 C  
HETATM   23  O   UNL     1      -7.352   9.174  72.399  1.00  0.00    -0.313 OA 
BRANCH  22  24
HETATM   24  O   UNL     1      -7.140   7.431  70.925  1.00  0.00    -0.061 OA 
BRANCH  24  25
HETATM   25  C   UNL     1      -7.724   6.130  70.749  1.00  0.00    -0.102 C  
BRANCH  25  26
HETATM   26  C   UNL     1      -6.965   5.468  69.586  1.00  0.00    -0.062 C  
BRANCH  26  27
HETATM   27  N   UNL     1      -6.569   6.346  68.480  1.00  0.00    -0.053 NA 
HETATM   28  C   UNL     1      -5.500   5.781  67.632  1.00  0.00    -0.008 C  
HETATM   29  C   UNL     1      -5.960   4.608  66.752  1.00  0.00    -0.027 C  
HETATM   30  O   UNL     1      -7.066   4.982  65.923  1.00  0.00    -0.065 OA 
HETATM   31  C   UNL     1      -8.160   5.464  66.711  1.00  0.00    -0.105 C  
HETATM   32  C   UNL     1      -7.735   6.640  67.610  1.00  0.00    -0.107 C  
ENDBRANCH  26  27
ENDBRANCH  25  26
ENDBRANCH  24  25
ENDBRANCH  22  24
ENDBRANCH  21  22
ENDBRANCH  20  21
ENDBRANCH  18  20
ENDBRANCH  16  17
ENDBRANCH   4  16
ENDBRANCH   2   3
TORSDOF 10
ENDMDL
MODEL      190
REMARK 921   NORMALIZED FREE ENERGY PREDICTED BY IDOCK:   -4.06 KCAL/MOL
REMARK 922        TOTAL FREE ENERGY PREDICTED BY IDOCK:   -7.97 KCAL/MOL
REMARK 923 INTER-LIGAND FREE ENERGY PREDICTED BY IDOCK:   -6.76 KCAL/MOL
REMARK 924 INTRA-LIGAND FREE ENERGY PREDICTED BY IDOCK:   -1.21 KCAL/MOL
REMARK 927      BINDING AFFINITY PREDICTED BY RF-SCORE:    0.00 PKD
ROOT
HETATM    1  C   UNL     1     -10.948   8.937  72.015  1.00  0.00    -0.342 C  
HETATM    2  O   UNL     1     -11.810   9.407  70.980  1.00  0.00    -0.290 OA 
ENDROOT
BRANCH   2   3
HETATM    3  C   UNL     1     -11.462  10.593  70.366  1.00  0.00    -0.334 A  
HETATM    4  C   UNL     1     -10.492  10.686  69.317  1.00  0.00    -0.252 A  
HETATM    5  C   UNL     1     -10.304  11.948  68.708  1.00  0.00    -0.165 A  
HETATM    6  C   UNL     1     -12.047  12.911  70.090  1.00  0.00    -0.373 A  
HETATM    7  O   UNL     1      -9.341  12.204  67.781  1.00  0.00    -0.180 OA 
HETATM    8  C   UNL     1     -12.247  11.707  70.757  1.00  0.00    -0.443 A  
HETATM    9  C   UNL     1     -11.102  13.019  69.091  1.00  0.00    -0.245 A  
HETATM   10  C   UNL     1     -11.137  14.383  68.557  1.00  0.00    -0.253 C  
HETATM   11  C   UNL     1     -13.255  11.595  71.866  1.00  0.00    -0.475 C  
HETATM   12  H   UNL     1      -9.215  13.051  67.372  1.00  0.00     0.000 HD 
HETATM   13  O   UNL     1     -12.095  15.058  69.277  1.00  0.00    -0.298 OA 
HETATM   14  C   UNL     1     -12.702  14.226  70.278  1.00  0.00    -0.249 C  
HETATM   15  O   UNL     1     -10.500  14.864  67.641  1.00  0.00    -0.245 OA 
BRANCH   4  16
HETATM   16  C   UNL     1      -9.664   9.460  68.987  1.00  0.00    -0.166 C  
BRANCH  16  17
HETATM   17  C   UNL     1     -10.322   8.252  68.403  1.00  0.00    -0.237 C  
HETATM   18  C   UNL     1     -10.222   7.813  67.134  1.00  0.00    -0.365 C  
HETATM   19  C   UNL     1      -9.365   8.437  66.064  1.00  0.00    -0.244 C  
BRANCH  18  20
HETATM   20  C   UNL     1     -11.036   6.615  66.708  1.00  0.00    -0.286 C  
BRANCH  20  21
HETATM   21  C   UNL     1     -10.690   5.404  67.564  1.00  0.00    -0.143 C  
BRANCH  21  22
HETATM   22  C   UNL     1      -9.302   4.917  67.257  1.00  0.00    -0.131 C  
HETATM   23  O   UNL     1      -8.848   4.704  66.143  1.00  0.00    -0.116 OA 
BRANCH  22  24
HETATM   24  O   UNL     1      -8.684   4.604  68.427  1.00  0.00    -0.097 OA 
BRANCH  24  25
HETATM   25  C   UNL     1      -7.707   5.579  68.827  1.00  0.00    -0.091 C  
BRANCH  25  26
HETATM   26  C   UNL     1      -7.895   5.786  70.340  1.00  0.00    -0.104 C  
BRANCH  26  27
HETATM   27  N   UNL     1      -8.600   4.722  71.062  1.00  0.00    -0.110 NA 
HETATM   28  C   UNL     1      -7.713   3.889  71.899  1.00  0.00    -0.066 C  
HETATM   29  C   UNL     1      -7.181   4.610  73.149  1.00  0.00    -0.080 C  
HETATM   30  O   UNL     1      -8.254   5.109  73.956  1.00  0.00    -0.104 OA 
HETATM   31  C   UNL     1      -9.098   5.988  73.204  1.00  0.00    -0.130 C  
HETATM   32  C   UNL     1      -9.648   5.300  71.941  1.00  0.00    -0.152 C  
ENDBRANCH  26  27
ENDBRANCH  25  26
ENDBRANCH  24  25
ENDBRANCH  22  24
ENDBRANCH  21  22
ENDBRANCH  20  21
ENDBRANCH  18  20
ENDBRANCH  16  17
ENDBRANCH   4  16
ENDBRANCH   2   3
TORSDOF 10
ENDMDL
MODEL      191
REMARK 921   NORMALIZED FREE ENERGY PREDICTED BY IDOCK:   -4.05 KCAL/MOL
REMARK 922        TOTAL FREE ENERGY PREDICTED BY IDOCK:   -7.96 KCAL/MOL
REMARK 923 INTER-LIGAND FREE ENERGY PREDICTED BY IDOCK:   -7.49 KCAL/MOL
REMARK 924 INTRA-LIGAND FREE ENERGY PREDICTED BY IDOCK:   -0.47 KCAL/MOL
REMARK 927      BINDING AFFINITY PREDICTED BY RF-SCORE:    0.00 PKD
ROOT
HETATM    1  C   UNL     1     -13.958  13.822  71.836  1.00  0.00    -0.378 C  
HETATM    2  O   UNL     1     -12.571  13.587  71.603  1.00  0.00    -0.304 OA 
ENDROOT
BRANCH   2   3
HETATM    3  C   UNL     1     -12.173  13.444  70.289  1.00  0.00    -0.335 A  
HETATM    4  C   UNL     1     -12.241  12.206  69.573  1.00  0.00    -0.169 A  
HETATM    5  C   UNL     1     -11.895  12.223  68.202  1.00  0.00    -0.311 A  
HETATM    6  C   UNL     1     -11.534  14.618  68.289  1.00  0.00    -0.337 A  
HETATM    7  O   UNL     1     -11.807  11.105  67.431  1.00  0.00    -0.570 OA 
HETATM    8  C   UNL     1     -11.821  14.658  69.649  1.00  0.00    -0.367 A  
HETATM    9  C   UNL     1     -11.576  13.429  67.590  1.00  0.00    -0.377 A  
HETATM   10  C   UNL     1     -11.260  13.698  66.185  1.00  0.00    -0.302 C  
HETATM   11  C   UNL     1     -11.746  15.948  70.417  1.00  0.00    -0.371 C  
HETATM   12  H   UNL     1     -11.575  11.116  66.510  1.00  0.00     0.000 HD 
HETATM   13  O   UNL     1     -11.015  15.048  66.093  1.00  0.00    -0.327 OA 
HETATM   14  C   UNL     1     -11.137  15.705  67.364  1.00  0.00    -0.260 C  
HETATM   15  O   UNL     1     -11.242  12.930  65.243  1.00  0.00    -0.282 OA 
BRANCH   4  16
HETATM   16  C   UNL     1     -12.586  10.944  70.339  1.00  0.00    -0.376 C  
BRANCH  16  17
HETATM   17  C   UNL     1     -11.546  10.276  71.179  1.00  0.00    -0.385 C  
HETATM   18  C   UNL     1     -10.734   9.268  70.807  1.00  0.00    -0.350 C  
HETATM   19  C   UNL     1     -10.680   8.659  69.431  1.00  0.00    -0.169 C  
BRANCH  18  20
HETATM   20  C   UNL     1      -9.803   8.664  71.829  1.00  0.00    -0.365 C  
BRANCH  20  21
HETATM   21  C   UNL     1      -9.456   7.230  71.453  1.00  0.00    -0.165 C  
BRANCH  21  22
HETATM   22  C   UNL     1      -8.340   6.711  72.316  1.00  0.00    -0.107 C  
HETATM   23  O   UNL     1      -8.335   6.678  73.536  1.00  0.00    -0.117 OA 
BRANCH  22  24
HETATM   24  O   UNL     1      -7.274   6.427  71.520  1.00  0.00    -0.079 OA 
BRANCH  24  25
HETATM   25  C   UNL     1      -6.845   5.059  71.620  1.00  0.00    -0.048 C  
BRANCH  25  26
HETATM   26  C   UNL     1      -8.082   4.195  71.317  1.00  0.00    -0.077 C  
BRANCH  26  27
HETATM   27  N   UNL     1      -8.129   2.876  71.956  1.00  0.00    -0.058 NA 
HETATM   28  C   UNL     1      -7.600   2.869  73.335  1.00  0.00    -0.051 C  
HETATM   29  C   UNL     1      -8.511   3.575  74.353  1.00  0.00    -0.084 C  
HETATM   30  O   UNL     1      -9.826   3.009  74.353  1.00  0.00    -0.099 OA 
HETATM   31  C   UNL     1     -10.412   3.067  73.047  1.00  0.00    -0.160 C  
HETATM   32  C   UNL     1      -9.524   2.370  71.999  1.00  0.00    -0.114 C  
ENDBRANCH  26  27
ENDBRANCH  25  26
ENDBRANCH  24  25
ENDBRANCH  22  24
ENDBRANCH  21  22
ENDBRANCH  20  21
ENDBRANCH  18  20
ENDBRANCH  16  17
ENDBRANCH   4  16
ENDBRANCH   2   3
TORSDOF 10
ENDMDL
MODEL      192
REMARK 921   NORMALIZED FREE ENERGY PREDICTED BY IDOCK:   -4.03 KCAL/MOL
REMARK 922        TOTAL FREE ENERGY PREDICTED BY IDOCK:   -7.93 KCAL/MOL
REMARK 923 INTER-LIGAND FREE ENERGY PREDICTED BY IDOCK:   -7.98 KCAL/MOL
REMARK 924 INTRA-LIGAND FREE ENERGY PREDICTED BY IDOCK:    0.06 KCAL/MOL
REMARK 927      BINDING AFFINITY PREDICTED BY RF-SCORE:    0.00 PKD
ROOT
HETATM    1  C   UNL     1      -9.211  12.782  67.883  1.00  0.00    -0.205 C  
HETATM    2  O   UNL     1     -10.397  13.572  67.848  1.00  0.00    -0.238 OA 
ENDROOT
BRANCH   2   3
HETATM    3  C   UNL     1     -10.306  14.811  67.248  1.00  0.00    -0.247 A  
HETATM    4  C   UNL     1     -10.897  15.122  65.982  1.00  0.00    -0.335 A  
HETATM    5  C   UNL     1     -10.812  16.459  65.529  1.00  0.00    -0.215 A  
HETATM    6  C   UNL     1      -9.684  17.113  67.573  1.00  0.00    -0.256 A  
HETATM    7  O   UNL     1     -11.229  16.869  64.300  1.00  0.00    -1.325 OA 
HETATM    8  C   UNL     1      -9.698  15.808  68.052  1.00  0.00    -0.212 A  
HETATM    9  C   UNL     1     -10.232  17.423  66.345  1.00  0.00    -0.339 A  
HETATM   10  C   UNL     1     -10.100  18.865  66.121  1.00  0.00    -0.393 C  
HETATM   11  C   UNL     1      -9.074  15.464  69.375  1.00  0.00    -0.258 C  
HETATM   12  H   UNL     1     -11.172  17.767  63.996  1.00  0.00     0.000 HD 
HETATM   13  O   UNL     1      -9.450  19.371  67.223  1.00  0.00    -0.305 OA 
HETATM   14  C   UNL     1      -9.126  18.346  68.175  1.00  0.00    -0.309 C  
HETATM   15  O   UNL     1     -10.498  19.536  65.189  1.00  0.00    -0.185 OA 
BRANCH   4  16
HETATM   16  C   UNL     1     -11.491  13.992  65.163  1.00  0.00    -0.328 C  
BRANCH  16  17
HETATM   17  C   UNL     1     -10.699  12.747  64.928  1.00  0.00    -0.329 C  
HETATM   18  C   UNL     1     -11.057  11.695  64.168  1.00  0.00    -0.435 C  
HETATM   19  C   UNL     1     -12.318  11.603  63.350  1.00  0.00    -0.334 C  
BRANCH  18  20
HETATM   20  C   UNL     1     -10.156  10.485  64.123  1.00  0.00    -0.351 C  
BRANCH  20  21
HETATM   21  C   UNL     1      -9.456  10.391  62.773  1.00  0.00    -0.351 C  
BRANCH  21  22
HETATM   22  C   UNL     1      -7.972  10.233  62.955  1.00  0.00    -0.150 C  
HETATM   23  O   UNL     1      -7.108  10.854  62.357  1.00  0.00    -0.104 OA 
BRANCH  22  24
HETATM   24  O   UNL     1      -7.748   9.178  63.783  1.00  0.00    -0.110 OA 
BRANCH  24  25
HETATM   25  C   UNL     1      -7.775   7.913  63.102  1.00  0.00    -0.136 C  
BRANCH  25  26
HETATM   26  C   UNL     1      -8.034   6.846  64.181  1.00  0.00    -0.078 C  
BRANCH  26  27
HETATM   27  N   UNL     1      -7.683   5.466  63.833  1.00  0.00    -0.077 NA 
HETATM   28  C   UNL     1      -6.325   5.076  64.264  1.00  0.00    -0.033 C  
HETATM   29  C   UNL     1      -6.183   4.901  65.785  1.00  0.00    -0.034 C  
HETATM   30  O   UNL     1      -7.126   3.949  66.289  1.00  0.00    -0.061 OA 
HETATM   31  C   UNL     1      -8.467   4.329  65.961  1.00  0.00    -0.113 C  
HETATM   32  C   UNL     1      -8.647   4.517  64.443  1.00  0.00    -0.138 C  
ENDBRANCH  26  27
ENDBRANCH  25  26
ENDBRANCH  24  25
ENDBRANCH  22  24
ENDBRANCH  21  22
ENDBRANCH  20  21
ENDBRANCH  18  20
ENDBRANCH  16  17
ENDBRANCH   4  16
ENDBRANCH   2   3
TORSDOF 10
ENDMDL
MODEL      193
REMARK 921   NORMALIZED FREE ENERGY PREDICTED BY IDOCK:   -4.01 KCAL/MOL
REMARK 922        TOTAL FREE ENERGY PREDICTED BY IDOCK:   -7.90 KCAL/MOL
REMARK 923 INTER-LIGAND FREE ENERGY PREDICTED BY IDOCK:   -7.34 KCAL/MOL
REMARK 924 INTRA-LIGAND FREE ENERGY PREDICTED BY IDOCK:   -0.56 KCAL/MOL
REMARK 927      BINDING AFFINITY PREDICTED BY RF-SCORE:    0.00 PKD
ROOT
HETATM    1  C   UNL     1      -9.115   3.404  67.698  1.00  0.00    -0.169 C  
HETATM    2  O   UNL     1      -8.225   3.913  68.689  1.00  0.00    -0.073 OA 
ENDROOT
BRANCH   2   3
HETATM    3  C   UNL     1      -8.776   4.696  69.682  1.00  0.00    -0.081 A  
HETATM    4  C   UNL     1      -8.904   6.118  69.588  1.00  0.00    -0.134 A  
HETATM    5  C   UNL     1      -9.579   6.786  70.636  1.00  0.00    -0.169 A  
HETATM    6  C   UNL     1     -10.033   4.674  71.734  1.00  0.00    -0.260 A  
HETATM    7  O   UNL     1      -9.675   8.141  70.731  1.00  0.00    -0.168 OA 
HETATM    8  C   UNL     1      -9.342   3.966  70.757  1.00  0.00    -0.214 A  
HETATM    9  C   UNL     1     -10.147   6.047  71.666  1.00  0.00    -0.227 A  
HETATM   10  C   UNL     1     -10.944   6.510  72.805  1.00  0.00    -0.253 C  
HETATM   11  C   UNL     1      -9.191   2.473  70.846  1.00  0.00    -0.199 C  
HETATM   12  H   UNL     1     -10.128   8.590  71.434  1.00  0.00     0.000 HD 
HETATM   13  O   UNL     1     -11.265   5.389  73.536  1.00  0.00    -0.274 OA 
HETATM   14  C   UNL     1     -10.716   4.195  72.958  1.00  0.00    -0.173 C  
HETATM   15  O   UNL     1     -11.311   7.636  73.077  1.00  0.00    -0.372 OA 
BRANCH   4  16
HETATM   16  C   UNL     1      -8.234   6.830  68.429  1.00  0.00    -0.119 C  
BRANCH  16  17
HETATM   17  C   UNL     1      -8.927   7.969  67.754  1.00  0.00    -0.133 C  
HETATM   18  C   UNL     1     -10.139   7.942  67.168  1.00  0.00    -0.328 C  
HETATM   19  C   UNL     1     -11.064   6.754  67.140  1.00  0.00    -0.404 C  
BRANCH  18  20
HETATM   20  C   UNL     1     -10.636   9.178  66.458  1.00  0.00    -0.096 C  
BRANCH  20  21
HETATM   21  C   UNL     1     -10.017  10.429  67.068  1.00  0.00    -0.252 C  
BRANCH  21  22
HETATM   22  C   UNL     1     -11.076  11.291  67.696  1.00  0.00    -0.277 C  
HETATM   23  O   UNL     1     -12.115  10.896  68.199  1.00  0.00    -0.563 OA 
BRANCH  22  24
HETATM   24  O   UNL     1     -10.759  12.595  67.475  1.00  0.00    -0.221 OA 
BRANCH  24  25
HETATM   25  C   UNL     1      -9.344  12.841  67.487  1.00  0.00    -0.189 C  
BRANCH  25  26
HETATM   26  C   UNL     1      -9.133  14.195  66.786  1.00  0.00    -0.247 C  
BRANCH  26  27
HETATM   27  N   UNL     1      -9.447  15.393  67.571  1.00  0.00    -0.204 NA 
HETATM   28  C   UNL     1      -8.346  16.376  67.611  1.00  0.00    -0.165 C  
HETATM   29  C   UNL     1      -8.118  17.109  66.279  1.00  0.00    -0.290 C  
HETATM   30  O   UNL     1      -9.313  17.762  65.835  1.00  0.00    -0.514 OA 
HETATM   31  C   UNL     1     -10.391  16.829  65.704  1.00  0.00    -0.265 C  
HETATM   32  C   UNL     1     -10.647  16.072  67.021  1.00  0.00    -0.302 C  
ENDBRANCH  26  27
ENDBRANCH  25  26
ENDBRANCH  24  25
ENDBRANCH  22  24
ENDBRANCH  21  22
ENDBRANCH  20  21
ENDBRANCH  18  20
ENDBRANCH  16  17
ENDBRANCH   4  16
ENDBRANCH   2   3
TORSDOF 10
ENDMDL
MODEL      194
REMARK 921   NORMALIZED FREE ENERGY PREDICTED BY IDOCK:   -4.00 KCAL/MOL
REMARK 922        TOTAL FREE ENERGY PREDICTED BY IDOCK:   -7.88 KCAL/MOL
REMARK 923 INTER-LIGAND FREE ENERGY PREDICTED BY IDOCK:   -5.90 KCAL/MOL
REMARK 924 INTRA-LIGAND FREE ENERGY PREDICTED BY IDOCK:   -1.98 KCAL/MOL
REMARK 927      BINDING AFFINITY PREDICTED BY RF-SCORE:    0.00 PKD
ROOT
HETATM    1  C   UNL     1      -9.837   4.517  66.159  1.00  0.00    -0.230 C  
HETATM    2  O   UNL     1      -9.093   5.555  66.793  1.00  0.00    -0.116 OA 
ENDROOT
BRANCH   2   3
HETATM    3  C   UNL     1      -9.490   6.852  66.541  1.00  0.00    -0.153 A  
HETATM    4  C   UNL     1     -10.419   7.569  67.361  1.00  0.00    -0.367 A  
HETATM    5  C   UNL     1     -10.661   8.926  67.046  1.00  0.00    -0.209 A  
HETATM    6  C   UNL     1      -9.041   8.830  65.245  1.00  0.00    -0.156 A  
HETATM    7  O   UNL     1     -11.599   9.691  67.669  1.00  0.00    -0.302 OA 
HETATM    8  C   UNL     1      -8.794   7.482  65.479  1.00  0.00    -0.012 A  
HETATM    9  C   UNL     1      -9.949   9.527  66.016  1.00  0.00    -0.348 A  
HETATM   10  C   UNL     1      -9.978  10.920  65.562  1.00  0.00    -0.260 C  
HETATM   11  C   UNL     1      -7.827   6.713  64.621  1.00  0.00    -0.116 C  
HETATM   12  H   UNL     1     -11.761  10.602  67.457  1.00  0.00     0.000 HD 
HETATM   13  O   UNL     1      -9.095  11.005  64.511  1.00  0.00    -0.185 OA 
HETATM   14  C   UNL     1      -8.479   9.741  64.222  1.00  0.00    -0.178 C  
HETATM   15  O   UNL     1     -10.606  11.859  66.010  1.00  0.00    -0.248 OA 
BRANCH   4  16
HETATM   16  C   UNL     1     -11.154   6.813  68.451  1.00  0.00    -0.214 C  
BRANCH  16  17
HETATM   17  C   UNL     1     -10.950   7.187  69.883  1.00  0.00    -0.278 C  
HETATM   18  C   UNL     1     -10.610   6.363  70.892  1.00  0.00    -0.285 C  
HETATM   19  C   UNL     1     -10.307   4.895  70.749  1.00  0.00    -0.228 C  
BRANCH  18  20
HETATM   20  C   UNL     1     -10.536   6.916  72.295  1.00  0.00    -0.244 C  
BRANCH  20  21
HETATM   21  C   UNL     1      -9.861   8.281  72.296  1.00  0.00    -0.364 C  
BRANCH  21  22
HETATM   22  C   UNL     1      -8.465   8.181  72.843  1.00  0.00    -0.196 C  
HETATM   23  O   UNL     1      -8.077   8.643  73.904  1.00  0.00    -0.398 OA 
BRANCH  22  24
HETATM   24  O   UNL     1      -7.666   7.626  71.892  1.00  0.00    -0.081 OA 
BRANCH  24  25
HETATM   25  C   UNL     1      -6.395   8.284  71.769  1.00  0.00    -0.052 C  
BRANCH  25  26
HETATM   26  C   UNL     1      -6.575   9.377  70.701  1.00  0.00    -0.087 C  
BRANCH  26  27
HETATM   27  N   UNL     1      -7.546   9.098  69.638  1.00  0.00    -0.075 NA 
HETATM   28  C   UNL     1      -8.488  10.209  69.393  1.00  0.00    -0.171 C  
HETATM   29  C   UNL     1      -7.846  11.428  68.711  1.00  0.00    -0.128 C  
HETATM   30  O   UNL     1      -7.220  11.064  67.475  1.00  0.00    -0.090 OA 
HETATM   31  C   UNL     1      -6.239  10.040  67.678  1.00  0.00    -0.058 C  
HETATM   32  C   UNL     1      -6.847   8.802  68.362  1.00  0.00    -0.065 C  
ENDBRANCH  26  27
ENDBRANCH  25  26
ENDBRANCH  24  25
ENDBRANCH  22  24
ENDBRANCH  21  22
ENDBRANCH  20  21
ENDBRANCH  18  20
ENDBRANCH  16  17
ENDBRANCH   4  16
ENDBRANCH   2   3
TORSDOF 10
ENDMDL
MODEL      195
REMARK 921   NORMALIZED FREE ENERGY PREDICTED BY IDOCK:   -3.98 KCAL/MOL
REMARK 922        TOTAL FREE ENERGY PREDICTED BY IDOCK:   -7.85 KCAL/MOL
REMARK 923 INTER-LIGAND FREE ENERGY PREDICTED BY IDOCK:   -7.80 KCAL/MOL
REMARK 924 INTRA-LIGAND FREE ENERGY PREDICTED BY IDOCK:   -0.06 KCAL/MOL
REMARK 927      BINDING AFFINITY PREDICTED BY RF-SCORE:    0.00 PKD
ROOT
HETATM    1  C   UNL     1     -11.447  13.123  66.659  1.00  0.00    -0.348 C  
HETATM    2  O   UNL     1     -10.871  12.674  67.884  1.00  0.00    -0.209 OA 
ENDROOT
BRANCH   2   3
HETATM    3  C   UNL     1     -11.378  13.213  69.049  1.00  0.00    -0.282 A  
HETATM    4  C   UNL     1     -12.069  12.446  70.040  1.00  0.00    -0.335 A  
HETATM    5  C   UNL     1     -12.448  13.105  71.232  1.00  0.00    -0.232 A  
HETATM    6  C   UNL     1     -11.397  15.153  70.473  1.00  0.00    -0.334 A  
HETATM    7  O   UNL     1     -13.205  12.530  72.206  1.00  0.00    -0.469 OA 
HETATM    8  C   UNL     1     -11.036  14.572  69.262  1.00  0.00    -0.296 A  
HETATM    9  C   UNL     1     -12.081  14.431  71.429  1.00  0.00    -0.397 A  
HETATM   10  C   UNL     1     -12.297  15.286  72.599  1.00  0.00    -0.386 C  
HETATM   11  C   UNL     1     -10.318  15.367  68.207  1.00  0.00    -0.238 C  
HETATM   12  H   UNL     1     -13.459  12.972  73.007  1.00  0.00     0.000 HD 
HETATM   13  O   UNL     1     -11.749  16.510  72.292  1.00  0.00    -0.501 OA 
HETATM   14  C   UNL     1     -11.185  16.531  70.971  1.00  0.00     0.045 C  
HETATM   15  O   UNL     1     -12.813  15.011  73.664  1.00  0.00    -0.515 OA 
BRANCH   4  16
HETATM   16  C   UNL     1     -12.435  11.010  69.719  1.00  0.00    -0.251 C  
BRANCH  16  17
HETATM   17  C   UNL     1     -11.508   9.902  70.103  1.00  0.00    -0.309 C  
HETATM   18  C   UNL     1     -11.632   9.077  71.160  1.00  0.00    -0.372 C  
HETATM   19  C   UNL     1     -12.780   9.080  72.134  1.00  0.00    -0.470 C  
BRANCH  18  20
HETATM   20  C   UNL     1     -10.542   8.070  71.432  1.00  0.00    -0.258 C  
BRANCH  20  21
HETATM   21  C   UNL     1      -9.425   8.701  72.253  1.00  0.00    -0.336 C  
BRANCH  21  22
HETATM   22  C   UNL     1      -8.080   8.253  71.752  1.00  0.00    -0.141 C  
HETATM   23  O   UNL     1      -7.798   7.996  70.592  1.00  0.00    -0.086 OA 
BRANCH  22  24
HETATM   24  O   UNL     1      -7.272   8.030  72.822  1.00  0.00    -0.084 OA 
BRANCH  24  25
HETATM   25  C   UNL     1      -6.396   6.906  72.642  1.00  0.00    -0.053 C  
BRANCH  25  26
HETATM   26  C   UNL     1      -7.299   5.698  72.336  1.00  0.00    -0.095 C  
BRANCH  26  27
HETATM   27  N   UNL     1      -7.661   4.847  73.474  1.00  0.00    -0.090 NA 
HETATM   28  C   UNL     1      -8.445   5.550  74.510  1.00  0.00    -0.104 C  
HETATM   29  C   UNL     1      -9.886   5.875  74.084  1.00  0.00    -0.216 C  
HETATM   30  O   UNL     1     -10.590   4.692  73.687  1.00  0.00    -0.196 OA 
HETATM   31  C   UNL     1      -9.904   4.017  72.625  1.00  0.00    -0.152 C  
HETATM   32  C   UNL     1      -8.453   3.678  73.016  1.00  0.00    -0.090 C  
ENDBRANCH  26  27
ENDBRANCH  25  26
ENDBRANCH  24  25
ENDBRANCH  22  24
ENDBRANCH  21  22
ENDBRANCH  20  21
ENDBRANCH  18  20
ENDBRANCH  16  17
ENDBRANCH   4  16
ENDBRANCH   2   3
TORSDOF 10
ENDMDL
MODEL      196
REMARK 921   NORMALIZED FREE ENERGY PREDICTED BY IDOCK:   -3.98 KCAL/MOL
REMARK 922        TOTAL FREE ENERGY PREDICTED BY IDOCK:   -7.85 KCAL/MOL
REMARK 923 INTER-LIGAND FREE ENERGY PREDICTED BY IDOCK:   -7.96 KCAL/MOL
REMARK 924 INTRA-LIGAND FREE ENERGY PREDICTED BY IDOCK:    0.11 KCAL/MOL
REMARK 927      BINDING AFFINITY PREDICTED BY RF-SCORE:    0.00 PKD
ROOT
HETATM    1  C   UNL     1      -7.693   7.160  68.130  1.00  0.00    -0.117 C  
HETATM    2  O   UNL     1      -9.058   7.102  68.540  1.00  0.00    -0.133 OA 
ENDROOT
BRANCH   2   3
HETATM    3  C   UNL     1      -9.311   6.616  69.807  1.00  0.00    -0.145 A  
HETATM    4  C   UNL     1      -9.615   7.453  70.928  1.00  0.00    -0.166 A  
HETATM    5  C   UNL     1      -9.952   6.818  72.146  1.00  0.00    -0.162 A  
HETATM    6  C   UNL     1      -9.768   4.640  71.101  1.00  0.00    -0.252 A  
HETATM    7  O   UNL     1     -10.154   7.486  73.316  1.00  0.00    -0.271 OA 
HETATM    8  C   UNL     1      -9.388   5.203  69.888  1.00  0.00    -0.196 A  
HETATM    9  C   UNL     1     -10.044   5.433  72.195  1.00  0.00    -0.237 A  
HETATM   10  C   UNL     1     -10.442   4.572  73.312  1.00  0.00    -0.195 C  
HETATM   11  C   UNL     1      -9.056   4.339  68.704  1.00  0.00    -0.178 C  
HETATM   12  H   UNL     1     -10.380   7.060  74.134  1.00  0.00     0.000 HD 
HETATM   13  O   UNL     1     -10.367   3.278  72.850  1.00  0.00    -0.153 OA 
HETATM   14  C   UNL     1      -9.928   3.218  71.485  1.00  0.00    -0.077 C  
HETATM   15  O   UNL     1     -10.810   4.884  74.427  1.00  0.00    -0.346 OA 
BRANCH   4  16
HETATM   16  C   UNL     1      -9.469   8.954  70.772  1.00  0.00    -0.280 C  
BRANCH  16  17
HETATM   17  C   UNL     1     -10.056   9.639  69.582  1.00  0.00    -0.242 C  
HETATM   18  C   UNL     1     -11.172  10.393  69.554  1.00  0.00    -0.325 C  
HETATM   19  C   UNL     1     -12.016  10.739  70.752  1.00  0.00    -0.464 C  
BRANCH  18  20
HETATM   20  C   UNL     1     -11.656  10.933  68.231  1.00  0.00    -0.335 C  
BRANCH  20  21
HETATM   21  C   UNL     1     -12.093  12.385  68.375  1.00  0.00    -0.114 C  
BRANCH  21  22
HETATM   22  C   UNL     1     -10.899  13.299  68.390  1.00  0.00    -0.258 C  
HETATM   23  O   UNL     1      -9.776  13.015  68.004  1.00  0.00    -0.211 OA 
BRANCH  22  24
HETATM   24  O   UNL     1     -11.237  14.441  69.046  1.00  0.00    -0.240 OA 
BRANCH  24  25
HETATM   25  C   UNL     1     -10.150  14.996  69.805  1.00  0.00    -0.087 C  
BRANCH  25  26
HETATM   26  C   UNL     1     -10.672  15.174  71.242  1.00  0.00     0.190 C  
BRANCH  26  27
HETATM   27  N   UNL     1     -11.906  15.950  71.397  1.00  0.00    -0.427 NA 
HETATM   28  C   UNL     1     -13.114  15.235  70.938  1.00  0.00    -0.464 C  
HETATM   29  C   UNL     1     -13.535  14.075  71.854  1.00  0.00    -0.421 C  
HETATM   30  O   UNL     1     -13.739  14.522  73.199  1.00  0.00    -0.536 OA 
HETATM   31  C   UNL     1     -12.562  15.154  73.716  1.00  0.00    -0.575 C  
HETATM   32  C   UNL     1     -12.109  16.322  72.820  1.00  0.00    -0.540 C  
ENDBRANCH  26  27
ENDBRANCH  25  26
ENDBRANCH  24  25
ENDBRANCH  22  24
ENDBRANCH  21  22
ENDBRANCH  20  21
ENDBRANCH  18  20
ENDBRANCH  16  17
ENDBRANCH   4  16
ENDBRANCH   2   3
TORSDOF 10
ENDMDL
MODEL      197
REMARK 921   NORMALIZED FREE ENERGY PREDICTED BY IDOCK:   -3.98 KCAL/MOL
REMARK 922        TOTAL FREE ENERGY PREDICTED BY IDOCK:   -7.84 KCAL/MOL
REMARK 923 INTER-LIGAND FREE ENERGY PREDICTED BY IDOCK:   -7.22 KCAL/MOL
REMARK 924 INTRA-LIGAND FREE ENERGY PREDICTED BY IDOCK:   -0.63 KCAL/MOL
REMARK 927      BINDING AFFINITY PREDICTED BY RF-SCORE:    0.00 PKD
ROOT
HETATM    1  C   UNL     1     -10.216   6.647  68.394  1.00  0.00    -0.171 C  
HETATM    2  O   UNL     1      -8.834   6.779  68.068  1.00  0.00    -0.121 OA 
ENDROOT
BRANCH   2   3
HETATM    3  C   UNL     1      -8.521   7.570  66.981  1.00  0.00    -0.122 A  
HETATM    4  C   UNL     1      -8.270   8.976  67.072  1.00  0.00    -0.109 A  
HETATM    5  C   UNL     1      -7.861   9.646  65.896  1.00  0.00    -0.102 A  
HETATM    6  C   UNL     1      -7.878   7.560  64.662  1.00  0.00    -0.130 A  
HETATM    7  O   UNL     1      -7.698  10.995  65.813  1.00  0.00    -0.325 OA 
HETATM    8  C   UNL     1      -8.324   6.854  65.774  1.00  0.00    -0.142 A  
HETATM    9  C   UNL     1      -7.652   8.920  64.731  1.00  0.00    -0.106 A  
HETATM   10  C   UNL     1      -7.165   9.381  63.428  1.00  0.00    -0.102 C  
HETATM   11  C   UNL     1      -8.600   5.379  65.692  1.00  0.00    -0.146 C  
HETATM   12  H   UNL     1      -7.423  11.446  65.023  1.00  0.00     0.000 HD 
HETATM   13  O   UNL     1      -7.138   8.277  62.610  1.00  0.00    -0.089 OA 
HETATM   14  C   UNL     1      -7.592   7.094  63.286  1.00  0.00    -0.109 C  
HETATM   15  O   UNL     1      -6.807  10.494  63.094  1.00  0.00    -0.105 OA 
BRANCH   4  16
HETATM   16  C   UNL     1      -8.545   9.676  68.389  1.00  0.00    -0.119 C  
BRANCH  16  17
HETATM   17  C   UNL     1      -9.734  10.571  68.522  1.00  0.00    -0.170 C  
HETATM   18  C   UNL     1     -10.670  10.531  69.488  1.00  0.00    -0.291 C  
HETATM   19  C   UNL     1     -10.659   9.597  70.670  1.00  0.00    -0.386 C  
BRANCH  18  20
HETATM   20  C   UNL     1     -11.851  11.467  69.404  1.00  0.00    -0.417 C  
BRANCH  20  21
HETATM   21  C   UNL     1     -11.747  12.346  68.164  1.00  0.00    -0.408 C  
BRANCH  21  22
HETATM   22  C   UNL     1     -12.018  13.784  68.510  1.00  0.00    -0.367 C  
HETATM   23  O   UNL     1     -12.279  14.216  69.621  1.00  0.00    -0.326 OA 
BRANCH  22  24
HETATM   24  O   UNL     1     -12.078  14.502  67.356  1.00  0.00    -0.380 OA 
BRANCH  24  25
HETATM   25  C   UNL     1     -10.887  14.388  66.560  1.00  0.00    -0.310 C  
BRANCH  25  26
HETATM   26  C   UNL     1     -10.813  15.667  65.707  1.00  0.00    -0.306 C  
BRANCH  26  27
HETATM   27  N   UNL     1      -9.606  16.485  65.860  1.00  0.00    -0.483 NA 
HETATM   28  C   UNL     1      -9.888  17.916  66.094  1.00  0.00    -0.249 C  
HETATM   29  C   UNL     1     -10.464  18.215  67.487  1.00  0.00    -0.410 C  
HETATM   30  O   UNL     1      -9.599  17.733  68.522  1.00  0.00    -0.297 OA 
HETATM   31  C   UNL     1      -9.360  16.328  68.380  1.00  0.00    -0.210 C  
HETATM   32  C   UNL     1      -8.784  15.990  66.992  1.00  0.00    -0.210 C  
ENDBRANCH  26  27
ENDBRANCH  25  26
ENDBRANCH  24  25
ENDBRANCH  22  24
ENDBRANCH  21  22
ENDBRANCH  20  21
ENDBRANCH  18  20
ENDBRANCH  16  17
ENDBRANCH   4  16
ENDBRANCH   2   3
TORSDOF 10
ENDMDL
MODEL      198
REMARK 921   NORMALIZED FREE ENERGY PREDICTED BY IDOCK:   -3.96 KCAL/MOL
REMARK 922        TOTAL FREE ENERGY PREDICTED BY IDOCK:   -7.82 KCAL/MOL
REMARK 923 INTER-LIGAND FREE ENERGY PREDICTED BY IDOCK:   -6.97 KCAL/MOL
REMARK 924 INTRA-LIGAND FREE ENERGY PREDICTED BY IDOCK:   -0.86 KCAL/MOL
REMARK 927      BINDING AFFINITY PREDICTED BY RF-SCORE:    0.00 PKD
ROOT
HETATM    1  C   UNL     1     -10.919   9.821  70.839  1.00  0.00    -0.341 C  
HETATM    2  O   UNL     1      -9.836   9.117  71.446  1.00  0.00    -0.298 OA 
ENDROOT
BRANCH   2   3
HETATM    3  C   UNL     1      -9.590   7.837  70.993  1.00  0.00    -0.159 A  
HETATM    4  C   UNL     1      -8.638   7.530  69.969  1.00  0.00    -0.139 A  
HETATM    5  C   UNL     1      -8.413   6.166  69.672  1.00  0.00    -0.127 A  
HETATM    6  C   UNL     1      -9.957   5.497  71.416  1.00  0.00    -0.241 A  
HETATM    7  O   UNL     1      -7.623   5.736  68.650  1.00  0.00    -0.086 OA 
HETATM    8  C   UNL     1     -10.253   6.820  71.724  1.00  0.00    -0.206 A  
HETATM    9  C   UNL     1      -9.056   5.187  70.417  1.00  0.00    -0.173 A  
HETATM   10  C   UNL     1      -8.925   3.730  70.339  1.00  0.00    -0.096 C  
HETATM   11  C   UNL     1     -11.257   7.159  72.791  1.00  0.00    -0.314 C  
HETATM   12  H   UNL     1      -7.472   4.820  68.450  1.00  0.00     0.000 HD 
HETATM   13  O   UNL     1      -9.776   3.211  71.287  1.00  0.00    -0.157 OA 
HETATM   14  C   UNL     1     -10.485   4.240  71.994  1.00  0.00    -0.026 C  
HETATM   15  O   UNL     1      -8.199   3.062  69.628  1.00  0.00    -0.047 OA 
BRANCH   4  16
HETATM   16  C   UNL     1      -8.003   8.675  69.205  1.00  0.00    -0.103 C  
BRANCH  16  17
HETATM   17  C   UNL     1      -8.063   8.698  67.712  1.00  0.00    -0.107 C  
HETATM   18  C   UNL     1      -9.163   8.569  66.947  1.00  0.00    -0.197 C  
HETATM   19  C   UNL     1     -10.571   8.436  67.465  1.00  0.00    -0.285 C  
BRANCH  18  20
HETATM   20  C   UNL     1      -9.010   8.531  65.446  1.00  0.00    -0.150 C  
BRANCH  20  21
HETATM   21  C   UNL     1      -8.547   9.885  64.922  1.00  0.00    -0.183 C  
BRANCH  21  22
HETATM   22  C   UNL     1      -9.547  10.954  65.262  1.00  0.00    -0.229 C  
HETATM   23  O   UNL     1     -10.618  11.137  64.705  1.00  0.00    -0.325 OA 
BRANCH  22  24
HETATM   24  O   UNL     1      -8.995  11.782  66.190  1.00  0.00    -0.201 OA 
BRANCH  24  25
HETATM   25  C   UNL     1      -9.952  12.285  67.136  1.00  0.00    -0.205 C  
BRANCH  25  26
HETATM   26  C   UNL     1      -9.698  13.799  67.247  1.00  0.00    -0.242 C  
BRANCH  26  27
HETATM   27  N   UNL     1     -10.882  14.662  67.240  1.00  0.00    -0.298 NA 
HETATM   28  C   UNL     1     -10.561  16.104  67.217  1.00  0.00    -0.305 C  
HETATM   29  C   UNL     1      -9.995  16.593  65.874  1.00  0.00    -0.295 C  
HETATM   30  O   UNL     1     -10.888  16.295  64.795  1.00  0.00    -0.671 OA 
HETATM   31  C   UNL     1     -11.166  14.892  64.729  1.00  0.00    -0.386 C  
HETATM   32  C   UNL     1     -11.733  14.366  66.061  1.00  0.00    -0.375 C  
ENDBRANCH  26  27
ENDBRANCH  25  26
ENDBRANCH  24  25
ENDBRANCH  22  24
ENDBRANCH  21  22
ENDBRANCH  20  21
ENDBRANCH  18  20
ENDBRANCH  16  17
ENDBRANCH   4  16
ENDBRANCH   2   3
TORSDOF 10
ENDMDL
MODEL      199
REMARK 921   NORMALIZED FREE ENERGY PREDICTED BY IDOCK:   -3.94 KCAL/MOL
REMARK 922        TOTAL FREE ENERGY PREDICTED BY IDOCK:   -7.78 KCAL/MOL
REMARK 923 INTER-LIGAND FREE ENERGY PREDICTED BY IDOCK:   -6.94 KCAL/MOL
REMARK 924 INTRA-LIGAND FREE ENERGY PREDICTED BY IDOCK:   -0.85 KCAL/MOL
REMARK 927      BINDING AFFINITY PREDICTED BY RF-SCORE:    0.00 PKD
ROOT
HETATM    1  C   UNL     1     -12.263  11.717  70.774  1.00  0.00    -0.326 C  
HETATM    2  O   UNL     1     -12.379  10.369  70.323  1.00  0.00    -0.287 OA 
ENDROOT
BRANCH   2   3
HETATM    3  C   UNL     1     -11.206   9.703  70.033  1.00  0.00    -0.231 A  
HETATM    4  C   UNL     1     -10.520   9.819  68.782  1.00  0.00    -0.240 A  
HETATM    5  C   UNL     1      -9.275   9.160  68.654  1.00  0.00    -0.136 A  
HETATM    6  C   UNL     1      -9.400   8.408  70.955  1.00  0.00    -0.201 A  
HETATM    7  O   UNL     1      -8.572   9.094  67.491  1.00  0.00    -0.116 OA 
HETATM    8  C   UNL     1     -10.647   8.997  71.127  1.00  0.00    -0.361 A  
HETATM    9  C   UNL     1      -8.737   8.495  69.748  1.00  0.00    -0.132 A  
HETATM   10  C   UNL     1      -7.446   7.811  69.871  1.00  0.00    -0.081 C  
HETATM   11  C   UNL     1     -11.385   8.877  72.431  1.00  0.00    -0.173 C  
HETATM   12  H   UNL     1      -7.736   8.651  67.404  1.00  0.00     0.000 HD 
HETATM   13  O   UNL     1      -7.390   7.314  71.152  1.00  0.00    -0.072 OA 
HETATM   14  C   UNL     1      -8.580   7.614  71.898  1.00  0.00    -0.109 C  
HETATM   15  O   UNL     1      -6.553   7.707  69.053  1.00  0.00    -0.045 OA 
BRANCH   4  16
HETATM   16  C   UNL     1     -11.203  10.556  67.647  1.00  0.00    -0.338 C  
BRANCH  16  17
HETATM   17  C   UNL     1     -10.638  11.846  67.149  1.00  0.00    -0.264 C  
HETATM   18  C   UNL     1     -11.096  12.585  66.121  1.00  0.00    -0.336 C  
HETATM   19  C   UNL     1     -12.324  12.273  65.307  1.00  0.00    -0.225 C  
BRANCH  18  20
HETATM   20  C   UNL     1     -10.334  13.821  65.711  1.00  0.00    -0.315 C  
BRANCH  20  21
HETATM   21  C   UNL     1     -10.841  14.342  64.373  1.00  0.00    -0.126 C  
BRANCH  21  22
HETATM   22  C   UNL     1     -11.145  15.812  64.457  1.00  0.00    -0.277 C  
HETATM   23  O   UNL     1     -12.103  16.374  63.951  1.00  0.00    -0.977 OA 
BRANCH  22  24
HETATM   24  O   UNL     1     -10.097  16.437  65.057  1.00  0.00    -0.486 OA 
BRANCH  24  25
HETATM   25  C   UNL     1     -10.504  17.459  65.980  1.00  0.00    -0.276 C  
BRANCH  25  26
HETATM   26  C   UNL     1     -10.864  16.740  67.292  1.00  0.00    -0.137 C  
BRANCH  26  27
HETATM   27  N   UNL     1      -9.981  16.987  68.436  1.00  0.00    -0.273 NA 
HETATM   28  C   UNL     1     -10.555  16.559  69.728  1.00  0.00    -0.265 C  
HETATM   29  C   UNL     1     -10.625  15.033  69.902  1.00  0.00    -0.186 C  
HETATM   30  O   UNL     1      -9.335  14.433  69.742  1.00  0.00     0.419 OA 
HETATM   31  C   UNL     1      -8.771  14.756  68.465  1.00  0.00    -0.174 C  
HETATM   32  C   UNL     1      -8.688  16.280  68.254  1.00  0.00    -0.190 C  
ENDBRANCH  26  27
ENDBRANCH  25  26
ENDBRANCH  24  25
ENDBRANCH  22  24
ENDBRANCH  21  22
ENDBRANCH  20  21
ENDBRANCH  18  20
ENDBRANCH  16  17
ENDBRANCH   4  16
ENDBRANCH   2   3
TORSDOF 10
ENDMDL
MODEL      200
REMARK 921   NORMALIZED FREE ENERGY PREDICTED BY IDOCK:   -3.93 KCAL/MOL
REMARK 922        TOTAL FREE ENERGY PREDICTED BY IDOCK:   -7.77 KCAL/MOL
REMARK 923 INTER-LIGAND FREE ENERGY PREDICTED BY IDOCK:   -7.20 KCAL/MOL
REMARK 924 INTRA-LIGAND FREE ENERGY PREDICTED BY IDOCK:   -0.57 KCAL/MOL
REMARK 927      BINDING AFFINITY PREDICTED BY RF-SCORE:    0.00 PKD
ROOT
HETATM    1  C   UNL     1     -11.930  11.187  70.881  1.00  0.00    -0.257 C  
HETATM    2  O   UNL     1     -12.300  10.023  70.145  1.00  0.00    -0.143 OA 
ENDROOT
BRANCH   2   3
HETATM    3  C   UNL     1     -11.525   8.895  70.328  1.00  0.00    -0.105 A  
HETATM    4  C   UNL     1     -10.495   8.488  69.421  1.00  0.00    -0.223 A  
HETATM    5  C   UNL     1      -9.710   7.368  69.781  1.00  0.00    -0.170 A  
HETATM    6  C   UNL     1     -10.897   7.171  71.885  1.00  0.00    -0.255 A  
HETATM    7  O   UNL     1      -8.775   6.807  68.966  1.00  0.00    -0.130 OA 
HETATM    8  C   UNL     1     -11.730   8.238  71.567  1.00  0.00    -0.337 A  
HETATM    9  C   UNL     1      -9.913   6.756  71.011  1.00  0.00    -0.196 A  
HETATM   10  C   UNL     1      -9.183   5.642  71.621  1.00  0.00    -0.142 C  
HETATM   11  C   UNL     1     -12.822   8.673  72.505  1.00  0.00    -0.352 C  
HETATM   12  H   UNL     1      -8.248   6.055  69.207  1.00  0.00     0.000 HD 
HETATM   13  O   UNL     1      -9.774   5.411  72.842  1.00  0.00    -0.147 OA 
HETATM   14  C   UNL     1     -10.874   6.302  73.084  1.00  0.00    -0.254 C  
HETATM   15  O   UNL     1      -8.219   5.034  71.198  1.00  0.00    -0.109 OA 
BRANCH   4  16
HETATM   16  C   UNL     1     -10.367   9.216  68.097  1.00  0.00    -0.263 C  
BRANCH  16  17
HETATM   17  C   UNL     1      -9.839  10.613  68.063  1.00  0.00    -0.177 C  
HETATM   18  C   UNL     1     -10.485  11.709  67.623  1.00  0.00    -0.219 C  
HETATM   19  C   UNL     1     -11.908  11.740  67.132  1.00  0.00    -0.157 C  
BRANCH  18  20
HETATM   20  C   UNL     1      -9.750  13.027  67.588  1.00  0.00    -0.212 C  
BRANCH  20  21
HETATM   21  C   UNL     1     -10.580  14.083  66.870  1.00  0.00    -0.280 C  
BRANCH  21  22
HETATM   22  C   UNL     1      -9.698  14.990  66.059  1.00  0.00    -0.328 C  
HETATM   23  O   UNL     1      -9.798  15.202  64.861  1.00  0.00    -0.178 OA 
BRANCH  22  24
HETATM   24  O   UNL     1      -8.676  15.417  66.848  1.00  0.00    -0.215 OA 
BRANCH  24  25
HETATM   25  C   UNL     1      -7.813  16.359  66.190  1.00  0.00    -0.022 C  
BRANCH  25  26
HETATM   26  C   UNL     1      -8.100  17.729  66.829  1.00  0.00    -0.239 C  
BRANCH  26  27
HETATM   27  N   UNL     1      -8.820  18.699  65.999  1.00  0.00    -0.482 NA 
HETATM   28  C   UNL     1     -10.289  18.599  66.115  1.00  0.00    -0.443 C  
HETATM   29  C   UNL     1     -10.841  19.094  67.461  1.00  0.00    -0.414 C  
HETATM   30  O   UNL     1     -10.443  20.445  67.721  1.00  0.00    -0.259 OA 
HETATM   31  C   UNL     1      -9.016  20.574  67.698  1.00  0.00    -0.197 C  
HETATM   32  C   UNL     1      -8.427  20.084  66.362  1.00  0.00    -0.296 C  
ENDBRANCH  26  27
ENDBRANCH  25  26
ENDBRANCH  24  25
ENDBRANCH  22  24
ENDBRANCH  21  22
ENDBRANCH  20  21
ENDBRANCH  18  20
ENDBRANCH  16  17
ENDBRANCH   4  16
ENDBRANCH   2   3
TORSDOF 10
ENDMDL
MODEL      201
REMARK 921   NORMALIZED FREE ENERGY PREDICTED BY IDOCK:   -3.91 KCAL/MOL
REMARK 922        TOTAL FREE ENERGY PREDICTED BY IDOCK:   -7.74 KCAL/MOL
REMARK 923 INTER-LIGAND FREE ENERGY PREDICTED BY IDOCK:   -6.99 KCAL/MOL
REMARK 924 INTRA-LIGAND FREE ENERGY PREDICTED BY IDOCK:   -0.75 KCAL/MOL
REMARK 927      BINDING AFFINITY PREDICTED BY RF-SCORE:    0.00 PKD
ROOT
HETATM    1  C   UNL     1      -7.376  12.312  68.040  1.00  0.00    -0.105 C  
HETATM    2  O   UNL     1      -8.702  11.788  68.058  1.00  0.00    -0.152 OA 
ENDROOT
BRANCH   2   3
HETATM    3  C   UNL     1      -9.510  12.093  66.981  1.00  0.00    -0.201 A  
HETATM    4  C   UNL     1      -9.527  11.337  65.766  1.00  0.00    -0.252 A  
HETATM    5  C   UNL     1     -10.475  11.699  64.782  1.00  0.00    -0.295 A  
HETATM    6  C   UNL     1     -11.374  13.419  66.235  1.00  0.00    -0.329 A  
HETATM    7  O   UNL     1     -10.528  11.142  63.541  1.00  0.00    -0.384 OA 
HETATM    8  C   UNL     1     -10.436  13.138  67.222  1.00  0.00    -0.243 A  
HETATM    9  C   UNL     1     -11.388  12.711  65.050  1.00  0.00    -0.345 A  
HETATM   10  C   UNL     1     -12.493  13.203  64.223  1.00  0.00    -0.288 C  
HETATM   11  C   UNL     1     -10.400  13.928  68.500  1.00  0.00    -0.244 C  
HETATM   12  H   UNL     1     -11.165  11.385  62.880  1.00  0.00     0.000 HD 
HETATM   13  O   UNL     1     -13.094  14.213  64.937  1.00  0.00    -0.677 OA 
HETATM   14  C   UNL     1     -12.447  14.439  66.199  1.00  0.00    -0.252 C  
HETATM   15  O   UNL     1     -12.871  12.809  63.137  1.00  0.00    -0.558 OA 
BRANCH   4  16
HETATM   16  C   UNL     1      -8.475  10.262  65.567  1.00  0.00    -0.167 C  
BRANCH  16  17
HETATM   17  C   UNL     1      -8.603   8.955  66.279  1.00  0.00    -0.145 C  
HETATM   18  C   UNL     1      -7.640   8.028  66.444  1.00  0.00    -0.091 C  
HETATM   19  C   UNL     1      -6.213   8.168  65.985  1.00  0.00    -0.045 C  
BRANCH  18  20
HETATM   20  C   UNL     1      -7.987   6.725  67.121  1.00  0.00    -0.116 C  
BRANCH  20  21
HETATM   21  C   UNL     1      -8.135   6.927  68.623  1.00  0.00    -0.121 C  
BRANCH  21  22
HETATM   22  C   UNL     1      -7.501   5.791  69.376  1.00  0.00    -0.079 C  
HETATM   23  O   UNL     1      -7.558   4.610  69.072  1.00  0.00    -0.059 OA 
BRANCH  22  24
HETATM   24  O   UNL     1      -6.982   6.277  70.535  1.00  0.00    -0.060 OA 
BRANCH  24  25
HETATM   25  C   UNL     1      -7.794   7.303  71.129  1.00  0.00    -0.093 C  
BRANCH  25  26
HETATM   26  C   UNL     1      -8.570   6.631  72.276  1.00  0.00    -0.121 C  
BRANCH  26  27
HETATM   27  N   UNL     1      -9.681   7.396  72.850  1.00  0.00    -0.166 NA 
HETATM   28  C   UNL     1     -10.363   8.269  71.873  1.00  0.00    -0.255 C  
HETATM   29  C   UNL     1     -11.207   7.505  70.840  1.00  0.00    -0.269 C  
HETATM   30  O   UNL     1     -12.179   6.670  71.480  1.00  0.00    -0.344 OA 
HETATM   31  C   UNL     1     -11.554   5.749  72.381  1.00  0.00    -0.264 C  
HETATM   32  C   UNL     1     -10.695   6.481  73.430  1.00  0.00    -0.270 C  
ENDBRANCH  26  27
ENDBRANCH  25  26
ENDBRANCH  24  25
ENDBRANCH  22  24
ENDBRANCH  21  22
ENDBRANCH  20  21
ENDBRANCH  18  20
ENDBRANCH  16  17
ENDBRANCH   4  16
ENDBRANCH   2   3
TORSDOF 10
ENDMDL
MODEL      202
REMARK 921   NORMALIZED FREE ENERGY PREDICTED BY IDOCK:   -3.89 KCAL/MOL
REMARK 922        TOTAL FREE ENERGY PREDICTED BY IDOCK:   -7.71 KCAL/MOL
REMARK 923 INTER-LIGAND FREE ENERGY PREDICTED BY IDOCK:   -8.15 KCAL/MOL
REMARK 924 INTRA-LIGAND FREE ENERGY PREDICTED BY IDOCK:    0.44 KCAL/MOL
REMARK 927      BINDING AFFINITY PREDICTED BY RF-SCORE:    0.00 PKD
ROOT
HETATM    1  C   UNL     1      -8.800  14.188  67.749  1.00  0.00    -0.185 C  
HETATM    2  O   UNL     1     -10.164  13.914  67.436  1.00  0.00    -0.248 OA 
ENDROOT
BRANCH   2   3
HETATM    3  C   UNL     1     -11.035  13.776  68.498  1.00  0.00    -0.262 A  
HETATM    4  C   UNL     1     -11.281  12.531  69.161  1.00  0.00    -0.297 A  
HETATM    5  C   UNL     1     -12.120  12.550  70.299  1.00  0.00    -0.294 A  
HETATM    6  C   UNL     1     -12.347  14.958  70.132  1.00  0.00    -0.376 A  
HETATM    7  O   UNL     1     -12.528  11.430  70.956  1.00  0.00    -0.386 OA 
HETATM    8  C   UNL     1     -11.566  14.997  68.983  1.00  0.00    -0.342 A  
HETATM    9  C   UNL     1     -12.609  13.762  70.769  1.00  0.00    -0.410 A  
HETATM   10  C   UNL     1     -13.426  14.032  71.956  1.00  0.00    -0.439 C  
HETATM   11  C   UNL     1     -11.304  16.294  68.270  1.00  0.00    -0.280 C  
HETATM   12  H   UNL     1     -13.091  11.442  71.720  1.00  0.00     0.000 HD 
HETATM   13  O   UNL     1     -13.645  15.389  71.977  1.00  0.00    -0.410 OA 
HETATM   14  C   UNL     1     -13.031  16.051  70.860  1.00  0.00     0.330 C  
HETATM   15  O   UNL     1     -13.823  13.258  72.805  1.00  0.00    -0.690 OA 
BRANCH   4  16
HETATM   16  C   UNL     1     -10.712  11.263  68.555  1.00  0.00    -0.235 C  
BRANCH  16  17
HETATM   17  C   UNL     1     -10.390  10.098  69.434  1.00  0.00    -0.251 C  
HETATM   18  C   UNL     1      -9.175   9.749  69.898  1.00  0.00    -0.263 C  
HETATM   19  C   UNL     1      -7.901  10.517  69.662  1.00  0.00    -0.097 C  
BRANCH  18  20
HETATM   20  C   UNL     1      -9.037   8.481  70.706  1.00  0.00    -0.196 C  
BRANCH  20  21
HETATM   21  C   UNL     1     -10.032   8.473  71.859  1.00  0.00    -0.365 C  
BRANCH  21  22
HETATM   22  C   UNL     1     -11.326   7.836  71.439  1.00  0.00    -0.251 C  
HETATM   23  O   UNL     1     -12.445   8.273  71.662  1.00  0.00    -0.299 OA 
BRANCH  22  24
HETATM   24  O   UNL     1     -11.054   6.615  70.904  1.00  0.00    -0.255 OA 
BRANCH  24  25
HETATM   25  C   UNL     1     -11.556   6.462  69.567  1.00  0.00    -0.233 C  
BRANCH  25  26
HETATM   26  C   UNL     1     -10.452   6.980  68.628  1.00  0.00    -0.204 C  
BRANCH  26  27
HETATM   27  N   UNL     1     -10.801   7.094  67.209  1.00  0.00    -0.322 NA 
HETATM   28  C   UNL     1     -10.012   8.112  66.487  1.00  0.00    -0.232 C  
HETATM   29  C   UNL     1      -8.544   7.715  66.262  1.00  0.00    -0.144 C  
HETATM   30  O   UNL     1      -8.444   6.467  65.568  1.00  0.00    -0.148 OA 
HETATM   31  C   UNL     1      -9.131   5.428  66.275  1.00  0.00    -0.143 C  
HETATM   32  C   UNL     1     -10.607   5.793  66.521  1.00  0.00    -0.229 C  
ENDBRANCH  26  27
ENDBRANCH  25  26
ENDBRANCH  24  25
ENDBRANCH  22  24
ENDBRANCH  21  22
ENDBRANCH  20  21
ENDBRANCH  18  20
ENDBRANCH  16  17
ENDBRANCH   4  16
ENDBRANCH   2   3
TORSDOF 10
ENDMDL
MODEL      203
REMARK 921   NORMALIZED FREE ENERGY PREDICTED BY IDOCK:   -3.89 KCAL/MOL
REMARK 922        TOTAL FREE ENERGY PREDICTED BY IDOCK:   -7.71 KCAL/MOL
REMARK 923 INTER-LIGAND FREE ENERGY PREDICTED BY IDOCK:   -7.48 KCAL/MOL
REMARK 924 INTRA-LIGAND FREE ENERGY PREDICTED BY IDOCK:   -0.23 KCAL/MOL
REMARK 927      BINDING AFFINITY PREDICTED BY RF-SCORE:    0.00 PKD
ROOT
HETATM    1  C   UNL     1     -10.728   6.282  67.012  1.00  0.00    -0.362 C  
HETATM    2  O   UNL     1     -11.105   6.043  68.367  1.00  0.00    -0.314 OA 
ENDROOT
BRANCH   2   3
HETATM    3  C   UNL     1     -10.293   6.577  69.346  1.00  0.00    -0.205 A  
HETATM    4  C   UNL     1     -10.324   7.954  69.735  1.00  0.00    -0.219 A  
HETATM    5  C   UNL     1      -9.508   8.347  70.822  1.00  0.00    -0.169 A  
HETATM    6  C   UNL     1      -8.767   6.060  71.134  1.00  0.00    -0.132 A  
HETATM    7  O   UNL     1      -9.356   9.638  71.224  1.00  0.00    -0.321 OA 
HETATM    8  C   UNL     1      -9.514   5.622  70.046  1.00  0.00    -0.199 A  
HETATM    9  C   UNL     1      -8.773   7.388  71.507  1.00  0.00    -0.122 A  
HETATM   10  C   UNL     1      -7.925   7.547  72.692  1.00  0.00    -0.100 C  
HETATM   11  C   UNL     1      -9.485   4.181  69.619  1.00  0.00    -0.259 C  
HETATM   12  H   UNL     1      -8.808   9.902  71.954  1.00  0.00     0.000 HD 
HETATM   13  O   UNL     1      -7.419   6.300  72.977  1.00  0.00    -0.094 OA 
HETATM   14  C   UNL     1      -7.869   5.309  72.040  1.00  0.00    -0.108 C  
HETATM   15  O   UNL     1      -7.709   8.544  73.353  1.00  0.00    -0.343 OA 
BRANCH   4  16
HETATM   16  C   UNL     1     -11.149   8.921  68.910  1.00  0.00     0.159 C  
BRANCH  16  17
HETATM   17  C   UNL     1     -10.853  10.385  68.960  1.00  0.00    -0.273 C  
HETATM   18  C   UNL     1     -10.446  11.162  67.938  1.00  0.00    -0.220 C  
HETATM   19  C   UNL     1     -10.270  10.702  66.515  1.00  0.00    -0.288 C  
BRANCH  18  20
HETATM   20  C   UNL     1     -10.112  12.609  68.207  1.00  0.00    -0.233 C  
BRANCH  20  21
HETATM   21  C   UNL     1      -8.652  12.889  67.877  1.00  0.00    -0.185 C  
BRANCH  21  22
HETATM   22  C   UNL     1      -8.502  14.247  67.249  1.00  0.00    -0.210 C  
HETATM   23  O   UNL     1      -7.483  14.919  67.232  1.00  0.00    -0.197 OA 
BRANCH  22  24
HETATM   24  O   UNL     1      -9.727  14.671  66.838  1.00  0.00    -0.228 OA 
BRANCH  24  25
HETATM   25  C   UNL     1      -9.662  15.631  65.772  1.00  0.00    -0.345 C  
BRANCH  25  26
HETATM   26  C   UNL     1     -10.250  16.939  66.331  1.00  0.00    -0.321 C  
BRANCH  26  27
HETATM   27  N   UNL     1      -9.400  18.130  66.238  1.00  0.00    -0.457 NA 
HETATM   28  C   UNL     1     -10.162  19.392  66.135  1.00  0.00    -0.484 C  
HETATM   29  C   UNL     1     -10.869  19.798  67.438  1.00  0.00    -0.310 C  
HETATM   30  O   UNL     1      -9.941  19.898  68.524  1.00  0.00    -0.410 OA 
HETATM   31  C   UNL     1      -9.233  18.667  68.712  1.00  0.00    -0.285 C  
HETATM   32  C   UNL     1      -8.513  18.227  67.424  1.00  0.00    -0.249 C  
ENDBRANCH  26  27
ENDBRANCH  25  26
ENDBRANCH  24  25
ENDBRANCH  22  24
ENDBRANCH  21  22
ENDBRANCH  20  21
ENDBRANCH  18  20
ENDBRANCH  16  17
ENDBRANCH   4  16
ENDBRANCH   2   3
TORSDOF 10
ENDMDL
MODEL      204
REMARK 921   NORMALIZED FREE ENERGY PREDICTED BY IDOCK:   -3.89 KCAL/MOL
REMARK 922        TOTAL FREE ENERGY PREDICTED BY IDOCK:   -7.71 KCAL/MOL
REMARK 923 INTER-LIGAND FREE ENERGY PREDICTED BY IDOCK:   -6.30 KCAL/MOL
REMARK 924 INTRA-LIGAND FREE ENERGY PREDICTED BY IDOCK:   -1.41 KCAL/MOL
REMARK 927      BINDING AFFINITY PREDICTED BY RF-SCORE:    0.00 PKD
ROOT
HETATM    1  C   UNL     1     -10.153   4.540  65.536  1.00  0.00    -0.222 C  
HETATM    2  O   UNL     1      -9.191   5.340  66.220  1.00  0.00    -0.139 OA 
ENDROOT
BRANCH   2   3
HETATM    3  C   UNL     1      -9.478   6.683  66.358  1.00  0.00    -0.123 A  
HETATM    4  C   UNL     1     -10.331   7.208  67.380  1.00  0.00    -0.324 A  
HETATM    5  C   UNL     1     -10.460   8.614  67.468  1.00  0.00    -0.266 A  
HETATM    6  C   UNL     1      -8.878   8.905  65.654  1.00  0.00    -0.230 A  
HETATM    7  O   UNL     1     -11.320   9.242  68.315  1.00  0.00    -0.438 OA 
HETATM    8  C   UNL     1      -8.744   7.530  65.490  1.00  0.00    -0.062 A  
HETATM    9  C   UNL     1      -9.713   9.424  66.623  1.00  0.00    -0.280 A  
HETATM   10  C   UNL     1      -9.628  10.886  66.580  1.00  0.00    -0.185 C  
HETATM   11  C   UNL     1      -7.859   6.963  64.416  1.00  0.00    -0.112 C  
HETATM   12  H   UNL     1     -11.407  10.186  68.374  1.00  0.00     0.000 HD 
HETATM   13  O   UNL     1      -8.755  11.196  65.564  1.00  0.00    -0.176 OA 
HETATM   14  C   UNL     1      -8.254  10.021  64.908  1.00  0.00    -0.154 C  
HETATM   15  O   UNL     1     -10.167  11.707  67.297  1.00  0.00    -0.197 OA 
BRANCH   4  16
HETATM   16  C   UNL     1     -11.114   6.235  68.240  1.00  0.00    -0.364 C  
BRANCH  16  17
HETATM   17  C   UNL     1     -11.409   6.573  69.665  1.00  0.00    -0.443 C  
HETATM   18  C   UNL     1     -10.924   5.955  70.758  1.00  0.00    -0.343 C  
HETATM   19  C   UNL     1      -9.926   4.827  70.747  1.00  0.00    -0.291 C  
BRANCH  18  20
HETATM   20  C   UNL     1     -11.410   6.387  72.120  1.00  0.00    -0.332 C  
BRANCH  20  21
HETATM   21  C   UNL     1     -11.770   7.867  72.113  1.00  0.00    -0.385 C  
BRANCH  21  22
HETATM   22  C   UNL     1     -10.533   8.713  72.006  1.00  0.00    -0.352 C  
HETATM   23  O   UNL     1     -10.286   9.512  71.115  1.00  0.00    -0.308 OA 
BRANCH  22  24
HETATM   24  O   UNL     1      -9.663   8.332  72.979  1.00  0.00    -0.269 OA 
BRANCH  24  25
HETATM   25  C   UNL     1      -8.302   8.693  72.691  1.00  0.00     0.017 C  
BRANCH  25  26
HETATM   26  C   UNL     1      -7.668   7.471  72.002  1.00  0.00    -0.089 C  
BRANCH  26  27
HETATM   27  N   UNL     1      -6.389   7.696  71.321  1.00  0.00    -0.035 NA 
HETATM   28  C   UNL     1      -5.498   6.519  71.336  1.00  0.00    -0.027 C  
HETATM   29  C   UNL     1      -5.967   5.372  70.426  1.00  0.00    -0.021 C  
HETATM   30  O   UNL     1      -6.133   5.816  69.074  1.00  0.00    -0.022 OA 
HETATM   31  C   UNL     1      -7.054   6.911  69.001  1.00  0.00    -0.088 C  
HETATM   32  C   UNL     1      -6.616   8.079  69.905  1.00  0.00    -0.036 C  
ENDBRANCH  26  27
ENDBRANCH  25  26
ENDBRANCH  24  25
ENDBRANCH  22  24
ENDBRANCH  21  22
ENDBRANCH  20  21
ENDBRANCH  18  20
ENDBRANCH  16  17
ENDBRANCH   4  16
ENDBRANCH   2   3
TORSDOF 10
ENDMDL
MODEL      205
REMARK 921   NORMALIZED FREE ENERGY PREDICTED BY IDOCK:   -3.88 KCAL/MOL
REMARK 922        TOTAL FREE ENERGY PREDICTED BY IDOCK:   -7.69 KCAL/MOL
REMARK 923 INTER-LIGAND FREE ENERGY PREDICTED BY IDOCK:   -6.59 KCAL/MOL
REMARK 924 INTRA-LIGAND FREE ENERGY PREDICTED BY IDOCK:   -1.10 KCAL/MOL
REMARK 927      BINDING AFFINITY PREDICTED BY RF-SCORE:    0.00 PKD
ROOT
HETATM    1  C   UNL     1     -10.181   9.453  67.479  1.00  0.00    -0.231 C  
HETATM    2  O   UNL     1     -11.530   9.883  67.651  1.00  0.00    -0.106 OA 
ENDROOT
BRANCH   2   3
HETATM    3  C   UNL     1     -11.723  11.112  68.248  1.00  0.00    -0.252 A  
HETATM    4  C   UNL     1     -12.060  11.276  69.630  1.00  0.00    -0.391 A  
HETATM    5  C   UNL     1     -12.130  12.594  70.136  1.00  0.00    -0.294 A  
HETATM    6  C   UNL     1     -11.461  13.490  67.985  1.00  0.00    -0.342 A  
HETATM    7  O   UNL     1     -12.547  12.900  71.395  1.00  0.00    -0.322 OA 
HETATM    8  C   UNL     1     -11.419  12.221  67.419  1.00  0.00    -0.422 A  
HETATM    9  C   UNL     1     -11.805  13.663  69.310  1.00  0.00    -0.395 A  
HETATM   10  C   UNL     1     -11.736  15.091  69.630  1.00  0.00    -0.321 C  
HETATM   11  C   UNL     1     -11.075  12.033  65.968  1.00  0.00    -0.364 C  
HETATM   12  H   UNL     1     -12.594  13.785  71.735  1.00  0.00     0.000 HD 
HETATM   13  O   UNL     1     -11.372  15.733  68.469  1.00  0.00    -0.337 OA 
HETATM   14  C   UNL     1     -11.203  14.816  67.378  1.00  0.00    -0.339 C  
HETATM   15  O   UNL     1     -11.915  15.647  70.696  1.00  0.00    -0.342 OA 
BRANCH   4  16
HETATM   16  C   UNL     1     -12.412  10.043  70.440  1.00  0.00    -0.179 C  
BRANCH  16  17
HETATM   17  C   UNL     1     -11.339   9.084  70.841  1.00  0.00    -0.351 C  
HETATM   18  C   UNL     1     -11.458   8.052  71.697  1.00  0.00    -0.310 C  
HETATM   19  C   UNL     1     -12.735   7.628  72.374  1.00  0.00    -0.004 C  
BRANCH  18  20
HETATM   20  C   UNL     1     -10.232   7.244  72.045  1.00  0.00    -0.212 C  
BRANCH  20  21
HETATM   21  C   UNL     1      -9.102   8.159  72.500  1.00  0.00    -0.302 C  
BRANCH  21  22
HETATM   22  C   UNL     1      -7.820   7.806  71.800  1.00  0.00    -0.090 C  
HETATM   23  O   UNL     1      -6.750   7.573  72.340  1.00  0.00    -0.054 OA 
BRANCH  22  24
HETATM   24  O   UNL     1      -8.008   7.939  70.459  1.00  0.00    -0.093 OA 
BRANCH  24  25
HETATM   25  C   UNL     1      -6.872   7.518  69.687  1.00  0.00    -0.044 C  
BRANCH  25  26
HETATM   26  C   UNL     1      -6.853   8.403  68.428  1.00  0.00    -0.065 C  
BRANCH  26  27
HETATM   27  N   UNL     1      -5.731   9.338  68.304  1.00  0.00    -0.038 NA 
HETATM   28  C   UNL     1      -5.800  10.185  67.096  1.00  0.00    -0.050 C  
HETATM   29  C   UNL     1      -6.901  11.257  67.151  1.00  0.00    -0.114 C  
HETATM   30  O   UNL     1      -6.753  12.095  68.302  1.00  0.00    -0.055 OA 
HETATM   31  C   UNL     1      -6.761  11.321  69.507  1.00  0.00    -0.128 C  
HETATM   32  C   UNL     1      -5.670  10.233  69.486  1.00  0.00    -0.038 C  
ENDBRANCH  26  27
ENDBRANCH  25  26
ENDBRANCH  24  25
ENDBRANCH  22  24
ENDBRANCH  21  22
ENDBRANCH  20  21
ENDBRANCH  18  20
ENDBRANCH  16  17
ENDBRANCH   4  16
ENDBRANCH   2   3
TORSDOF 10
ENDMDL
MODEL      206
REMARK 921   NORMALIZED FREE ENERGY PREDICTED BY IDOCK:   -3.87 KCAL/MOL
REMARK 922        TOTAL FREE ENERGY PREDICTED BY IDOCK:   -7.68 KCAL/MOL
REMARK 923 INTER-LIGAND FREE ENERGY PREDICTED BY IDOCK:   -7.15 KCAL/MOL
REMARK 924 INTRA-LIGAND FREE ENERGY PREDICTED BY IDOCK:   -0.53 KCAL/MOL
REMARK 927      BINDING AFFINITY PREDICTED BY RF-SCORE:    0.00 PKD
ROOT
HETATM    1  C   UNL     1     -12.580  10.350  71.589  1.00  0.00    -0.417 C  
HETATM    2  O   UNL     1     -13.035  11.079  70.451  1.00  0.00    -0.201 OA 
ENDROOT
BRANCH   2   3
HETATM    3  C   UNL     1     -12.259  12.143  70.037  1.00  0.00    -0.198 A  
HETATM    4  C   UNL     1     -11.433  12.112  68.869  1.00  0.00    -0.350 A  
HETATM    5  C   UNL     1     -10.768  13.305  68.505  1.00  0.00    -0.262 A  
HETATM    6  C   UNL     1     -11.805  14.485  70.350  1.00  0.00    -0.378 A  
HETATM    7  O   UNL     1      -9.868  13.388  67.487  1.00  0.00    -0.219 OA 
HETATM    8  C   UNL     1     -12.451  13.332  70.784  1.00  0.00    -0.403 A  
HETATM    9  C   UNL     1     -10.990  14.464  69.237  1.00  0.00    -0.281 A  
HETATM   10  C   UNL     1     -10.475  15.817  69.007  1.00  0.00    -0.225 C  
HETATM   11  C   UNL     1     -13.315  13.346  72.014  1.00  0.00    -0.569 C  
HETATM   12  H   UNL     1      -9.421  14.190  67.242  1.00  0.00     0.000 HD 
HETATM   13  O   UNL     1     -10.986  16.604  70.013  1.00  0.00    -0.333 OA 
HETATM   14  C   UNL     1     -11.809  15.853  70.918  1.00  0.00    -0.417 C  
HETATM   15  O   UNL     1      -9.769  16.225  68.106  1.00  0.00    -0.222 OA 
BRANCH   4  16
HETATM   16  C   UNL     1     -11.246  10.790  68.150  1.00  0.00    -0.365 C  
BRANCH  16  17
HETATM   17  C   UNL     1     -10.650   9.627  68.873  1.00  0.00    -0.239 C  
HETATM   18  C   UNL     1      -9.393   9.158  68.749  1.00  0.00    -0.139 C  
HETATM   19  C   UNL     1      -8.319   9.768  67.888  1.00  0.00    -0.114 C  
BRANCH  18  20
HETATM   20  C   UNL     1      -9.000   7.911  69.504  1.00  0.00    -0.142 C  
BRANCH  20  21
HETATM   21  C   UNL     1      -9.163   6.680  68.623  1.00  0.00    -0.128 C  
BRANCH  21  22
HETATM   22  C   UNL     1     -10.338   5.858  69.073  1.00  0.00    -0.233 C  
HETATM   23  O   UNL     1     -11.292   6.265  69.717  1.00  0.00    -0.405 OA 
BRANCH  22  24
HETATM   24  O   UNL     1     -10.090   4.553  68.779  1.00  0.00    -0.099 OA 
BRANCH  24  25
HETATM   25  C   UNL     1      -8.695   4.277  68.573  1.00  0.00    -0.097 C  
BRANCH  25  26
HETATM   26  C   UNL     1      -8.625   3.183  67.493  1.00  0.00    -0.105 C  
BRANCH  26  27
HETATM   27  N   UNL     1      -7.588   3.341  66.470  1.00  0.00    -0.076 NA 
HETATM   28  C   UNL     1      -7.712   2.383  65.352  1.00  0.00    -0.077 C  
HETATM   29  C   UNL     1      -8.903   2.666  64.422  1.00  0.00    -0.106 C  
HETATM   30  O   UNL     1      -8.847   3.996  63.894  1.00  0.00    -0.107 OA 
HETATM   31  C   UNL     1      -8.805   4.966  64.948  1.00  0.00    -0.152 C  
HETATM   32  C   UNL     1      -7.624   4.712  65.903  1.00  0.00    -0.090 C  
ENDBRANCH  26  27
ENDBRANCH  25  26
ENDBRANCH  24  25
ENDBRANCH  22  24
ENDBRANCH  21  22
ENDBRANCH  20  21
ENDBRANCH  18  20
ENDBRANCH  16  17
ENDBRANCH   4  16
ENDBRANCH   2   3
TORSDOF 10
ENDMDL
MODEL      207
REMARK 921   NORMALIZED FREE ENERGY PREDICTED BY IDOCK:   -3.86 KCAL/MOL
REMARK 922        TOTAL FREE ENERGY PREDICTED BY IDOCK:   -7.65 KCAL/MOL
REMARK 923 INTER-LIGAND FREE ENERGY PREDICTED BY IDOCK:   -6.59 KCAL/MOL
REMARK 924 INTRA-LIGAND FREE ENERGY PREDICTED BY IDOCK:   -1.07 KCAL/MOL
REMARK 927      BINDING AFFINITY PREDICTED BY RF-SCORE:    0.00 PKD
ROOT
HETATM    1  C   UNL     1     -11.448   8.459  72.478  1.00  0.00    -0.352 C  
HETATM    2  O   UNL     1     -12.262   8.991  71.436  1.00  0.00    -0.298 OA 
ENDROOT
BRANCH   2   3
HETATM    3  C   UNL     1     -11.723  10.012  70.680  1.00  0.00    -0.337 A  
HETATM    4  C   UNL     1     -10.757   9.805  69.645  1.00  0.00    -0.264 A  
HETATM    5  C   UNL     1     -10.363  10.928  68.881  1.00  0.00    -0.204 A  
HETATM    6  C   UNL     1     -11.915  12.339  70.096  1.00  0.00    -0.377 A  
HETATM    7  O   UNL     1      -9.375  10.896  67.945  1.00  0.00    -0.151 OA 
HETATM    8  C   UNL     1     -12.310  11.282  70.909  1.00  0.00    -0.490 A  
HETATM    9  C   UNL     1     -10.969  12.157  69.108  1.00  0.00    -0.215 A  
HETATM   10  C   UNL     1     -10.777  13.426  68.401  1.00  0.00    -0.256 C  
HETATM   11  C   UNL     1     -13.317  11.486  72.005  1.00  0.00    -0.397 C  
HETATM   12  H   UNL     1      -9.111  11.650  67.432  1.00  0.00     0.000 HD 
HETATM   13  O   UNL     1     -11.607  14.339  69.010  1.00  0.00    -0.266 OA 
HETATM   14  C   UNL     1     -12.339  13.758  70.100  1.00  0.00    -0.323 C  
HETATM   15  O   UNL     1     -10.073  13.671  67.441  1.00  0.00    -0.236 OA 
BRANCH   4  16
HETATM   16  C   UNL     1     -10.146   8.426  69.491  1.00  0.00    -0.200 C  
BRANCH  16  17
HETATM   17  C   UNL     1     -10.219   7.722  68.175  1.00  0.00    -0.244 C  
HETATM   18  C   UNL     1      -9.181   7.290  67.432  1.00  0.00    -0.140 C  
HETATM   19  C   UNL     1      -7.731   7.384  67.828  1.00  0.00    -0.112 C  
BRANCH  18  20
HETATM   20  C   UNL     1      -9.455   6.675  66.082  1.00  0.00    -0.057 C  
BRANCH  20  21
HETATM   21  C   UNL     1     -10.422   5.506  66.213  1.00  0.00    -0.230 C  
BRANCH  21  22
HETATM   22  C   UNL     1      -9.837   4.263  65.604  1.00  0.00    -0.218 C  
HETATM   23  O   UNL     1     -10.309   3.633  64.670  1.00  0.00    -0.175 OA 
BRANCH  22  24
HETATM   24  O   UNL     1      -8.780   3.866  66.363  1.00  0.00    -0.109 OA 
BRANCH  24  25
HETATM   25  C   UNL     1      -8.922   2.529  66.870  1.00  0.00    -0.136 C  
BRANCH  25  26
HETATM   26  C   UNL     1      -9.363   2.668  68.338  1.00  0.00    -0.197 C  
BRANCH  26  27
HETATM   27  N   UNL     1      -8.904   3.865  69.048  1.00  0.00    -0.094 NA 
HETATM   28  C   UNL     1      -9.734   4.210  70.220  1.00  0.00    -0.207 C  
HETATM   29  C   UNL     1      -9.568   3.244  71.405  1.00  0.00    -0.160 C  
HETATM   30  O   UNL     1      -8.199   3.151  71.812  1.00  0.00    -0.057 OA 
HETATM   31  C   UNL     1      -7.364   2.741  70.723  1.00  0.00    -0.033 C  
HETATM   32  C   UNL     1      -7.506   3.686  69.515  1.00  0.00    -0.052 C  
ENDBRANCH  26  27
ENDBRANCH  25  26
ENDBRANCH  24  25
ENDBRANCH  22  24
ENDBRANCH  21  22
ENDBRANCH  20  21
ENDBRANCH  18  20
ENDBRANCH  16  17
ENDBRANCH   4  16
ENDBRANCH   2   3
TORSDOF 10
ENDMDL
MODEL      208
REMARK 921   NORMALIZED FREE ENERGY PREDICTED BY IDOCK:   -3.85 KCAL/MOL
REMARK 922        TOTAL FREE ENERGY PREDICTED BY IDOCK:   -7.64 KCAL/MOL
REMARK 923 INTER-LIGAND FREE ENERGY PREDICTED BY IDOCK:   -7.00 KCAL/MOL
REMARK 924 INTRA-LIGAND FREE ENERGY PREDICTED BY IDOCK:   -0.64 KCAL/MOL
REMARK 927      BINDING AFFINITY PREDICTED BY RF-SCORE:    0.00 PKD
ROOT
HETATM    1  C   UNL     1      -8.939  15.338  66.754  1.00  0.00    -0.262 C  
HETATM    2  O   UNL     1     -10.330  15.106  66.546  1.00  0.00    -0.269 OA 
ENDROOT
BRANCH   2   3
HETATM    3  C   UNL     1     -11.025  14.505  67.575  1.00  0.00    -0.293 A  
HETATM    4  C   UNL     1     -11.173  13.087  67.707  1.00  0.00    -0.313 A  
HETATM    5  C   UNL     1     -11.824  12.601  68.865  1.00  0.00    -0.302 A  
HETATM    6  C   UNL     1     -12.059  14.857  69.719  1.00  0.00    -0.357 A  
HETATM    7  O   UNL     1     -12.131  11.290  69.065  1.00  0.00    -0.394 OA 
HETATM    8  C   UNL     1     -11.467  15.397  68.584  1.00  0.00    -0.357 A  
HETATM    9  C   UNL     1     -12.226  13.493  69.850  1.00  0.00    -0.356 A  
HETATM   10  C   UNL     1     -12.846  13.218  71.149  1.00  0.00    -0.280 C  
HETATM   11  C   UNL     1     -11.312  16.884  68.426  1.00  0.00     0.019 C  
HETATM   12  H   UNL     1     -12.568  10.963  69.842  1.00  0.00     0.000 HD 
HETATM   13  O   UNL     1     -13.051  14.440  71.748  1.00  0.00    -0.320 OA 
HETATM   14  C   UNL     1     -12.615  15.527  70.918  1.00  0.00    -0.456 C  
HETATM   15  O   UNL     1     -13.111  12.148  71.661  1.00  0.00    -0.418 OA 
BRANCH   4  16
HETATM   16  C   UNL     1     -10.712  12.202  66.566  1.00  0.00    -0.290 C  
BRANCH  16  17
HETATM   17  C   UNL     1      -9.808  11.044  66.839  1.00  0.00    -0.222 C  
HETATM   18  C   UNL     1      -8.499  11.099  67.150  1.00  0.00    -0.137 C  
HETATM   19  C   UNL     1      -7.704  12.363  67.342  1.00  0.00    -0.170 C  
BRANCH  18  20
HETATM   20  C   UNL     1      -7.730   9.810  67.306  1.00  0.00    -0.095 C  
BRANCH  20  21
HETATM   21  C   UNL     1      -6.725   9.923  68.445  1.00  0.00    -0.055 C  
BRANCH  21  22
HETATM   22  C   UNL     1      -7.267   9.288  69.695  1.00  0.00    -0.063 C  
HETATM   23  O   UNL     1      -7.575   9.875  70.720  1.00  0.00    -0.305 OA 
BRANCH  22  24
HETATM   24  O   UNL     1      -7.212   7.936  69.552  1.00  0.00    -0.076 OA 
BRANCH  24  25
HETATM   25  C   UNL     1      -8.449   7.285  69.883  1.00  0.00    -0.140 C  
BRANCH  25  26
HETATM   26  C   UNL     1      -9.112   6.910  68.546  1.00  0.00    -0.127 C  
BRANCH  26  27
HETATM   27  N   UNL     1     -10.315   6.076  68.624  1.00  0.00    -0.191 NA 
HETATM   28  C   UNL     1     -11.069   6.008  67.355  1.00  0.00    -0.132 C  
HETATM   29  C   UNL     1     -10.370   5.184  66.261  1.00  0.00    -0.268 C  
HETATM   30  O   UNL     1     -10.090   3.854  66.711  1.00  0.00    -0.078 OA 
HETATM   31  C   UNL     1      -9.290   3.870  67.900  1.00  0.00    -0.177 C  
HETATM   32  C   UNL     1      -9.959   4.690  69.019  1.00  0.00    -0.116 C  
ENDBRANCH  26  27
ENDBRANCH  25  26
ENDBRANCH  24  25
ENDBRANCH  22  24
ENDBRANCH  21  22
ENDBRANCH  20  21
ENDBRANCH  18  20
ENDBRANCH  16  17
ENDBRANCH   4  16
ENDBRANCH   2   3
TORSDOF 10
ENDMDL
MODEL      209
REMARK 921   NORMALIZED FREE ENERGY PREDICTED BY IDOCK:   -3.83 KCAL/MOL
REMARK 922        TOTAL FREE ENERGY PREDICTED BY IDOCK:   -7.61 KCAL/MOL
REMARK 923 INTER-LIGAND FREE ENERGY PREDICTED BY IDOCK:   -6.73 KCAL/MOL
REMARK 924 INTRA-LIGAND FREE ENERGY PREDICTED BY IDOCK:   -0.88 KCAL/MOL
REMARK 927      BINDING AFFINITY PREDICTED BY RF-SCORE:    0.00 PKD
ROOT
HETATM    1  C   UNL     1     -10.908  19.353  67.379  1.00  0.00    -0.440 C  
HETATM    2  O   UNL     1     -10.042  19.212  68.504  1.00  0.00    -0.393 OA 
ENDROOT
BRANCH   2   3
HETATM    3  C   UNL     1      -9.072  18.233  68.427  1.00  0.00    -0.316 A  
HETATM    4  C   UNL     1      -9.244  16.907  68.938  1.00  0.00    -0.229 A  
HETATM    5  C   UNL     1      -8.207  15.975  68.703  1.00  0.00    -0.193 A  
HETATM    6  C   UNL     1      -6.967  17.625  67.433  1.00  0.00    -0.187 A  
HETATM    7  O   UNL     1      -8.188  14.718  69.225  1.00  0.00    -0.281 OA 
HETATM    8  C   UNL     1      -7.931  18.598  67.669  1.00  0.00    -0.261 A  
HETATM    9  C   UNL     1      -7.110  16.349  67.937  1.00  0.00    -0.149 A  
HETATM   10  C   UNL     1      -5.965  15.542  67.507  1.00  0.00    -0.070 C  
HETATM   11  C   UNL     1      -7.761  19.997  67.146  1.00  0.00    -0.328 C  
HETATM   12  H   UNL     1      -7.492  14.092  69.068  1.00  0.00     0.000 HD 
HETATM   13  O   UNL     1      -5.155  16.377  66.772  1.00  0.00    -0.342 OA 
HETATM   14  C   UNL     1      -5.686  17.709  66.693  1.00  0.00    -0.181 C  
HETATM   15  O   UNL     1      -5.743  14.362  67.698  1.00  0.00    -0.306 OA 
BRANCH   4  16
HETATM   16  C   UNL     1     -10.472  16.608  69.774  1.00  0.00    -0.182 C  
BRANCH  16  17
HETATM   17  C   UNL     1     -11.316  15.416  69.458  1.00  0.00    -0.308 C  
HETATM   18  C   UNL     1     -11.829  14.534  70.337  1.00  0.00    -0.378 C  
HETATM   19  C   UNL     1     -11.696  14.624  71.835  1.00  0.00    -0.180 C  
BRANCH  18  20
HETATM   20  C   UNL     1     -12.588  13.339  69.816  1.00  0.00     0.069 C  
BRANCH  20  21
HETATM   21  C   UNL     1     -12.157  13.012  68.392  1.00  0.00    -0.193 C  
BRANCH  21  22
HETATM   22  C   UNL     1     -11.531  11.647  68.328  1.00  0.00    -0.303 C  
HETATM   23  O   UNL     1     -11.258  10.939  69.285  1.00  0.00    -0.222 OA 
BRANCH  22  24
HETATM   24  O   UNL     1     -11.175  11.395  67.040  1.00  0.00    -0.294 OA 
BRANCH  24  25
HETATM   25  C   UNL     1      -9.910  11.974  66.681  1.00  0.00    -0.204 C  
BRANCH  25  26
HETATM   26  C   UNL     1      -8.972  10.798  66.356  1.00  0.00    -0.166 C  
BRANCH  26  27
HETATM   27  N   UNL     1      -9.282   9.518  66.999  1.00  0.00    -0.137 NA 
HETATM   28  C   UNL     1      -9.395   8.392  66.050  1.00  0.00    -0.177 C  
HETATM   29  C   UNL     1      -8.052   7.950  65.447  1.00  0.00    -0.130 C  
HETATM   30  O   UNL     1      -7.111   7.606  66.470  1.00  0.00    -0.071 OA 
HETATM   31  C   UNL     1      -6.909   8.700  67.373  1.00  0.00    -0.071 C  
HETATM   32  C   UNL     1      -8.237   9.172  67.995  1.00  0.00    -0.112 C  
ENDBRANCH  26  27
ENDBRANCH  25  26
ENDBRANCH  24  25
ENDBRANCH  22  24
ENDBRANCH  21  22
ENDBRANCH  20  21
ENDBRANCH  18  20
ENDBRANCH  16  17
ENDBRANCH   4  16
ENDBRANCH   2   3
TORSDOF 10
ENDMDL
MODEL      210
REMARK 921   NORMALIZED FREE ENERGY PREDICTED BY IDOCK:   -3.82 KCAL/MOL
REMARK 922        TOTAL FREE ENERGY PREDICTED BY IDOCK:   -7.60 KCAL/MOL
REMARK 923 INTER-LIGAND FREE ENERGY PREDICTED BY IDOCK:   -6.59 KCAL/MOL
REMARK 924 INTRA-LIGAND FREE ENERGY PREDICTED BY IDOCK:   -1.01 KCAL/MOL
REMARK 927      BINDING AFFINITY PREDICTED BY RF-SCORE:    0.00 PKD
ROOT
HETATM    1  C   UNL     1     -11.408  12.216  64.183  1.00  0.00    -0.380 C  
HETATM    2  O   UNL     1     -11.394  11.747  65.530  1.00  0.00    -0.300 OA 
ENDROOT
BRANCH   2   3
HETATM    3  C   UNL     1     -10.345  12.163  66.326  1.00  0.00    -0.221 A  
HETATM    4  C   UNL     1      -9.030  11.602  66.258  1.00  0.00    -0.194 A  
HETATM    5  C   UNL     1      -8.024  12.190  67.059  1.00  0.00    -0.138 A  
HETATM    6  C   UNL     1      -9.591  13.859  67.858  1.00  0.00    -0.227 A  
HETATM    7  O   UNL     1      -6.764  11.690  67.177  1.00  0.00    -0.116 OA 
HETATM    8  C   UNL     1     -10.631  13.297  67.126  1.00  0.00    -0.259 A  
HETATM    9  C   UNL     1      -8.323  13.315  67.817  1.00  0.00    -0.171 A  
HETATM   10  C   UNL     1      -7.437  14.127  68.656  1.00  0.00    -0.125 C  
HETATM   11  C   UNL     1     -12.020  13.869  67.193  1.00  0.00    -0.455 C  
HETATM   12  H   UNL     1      -6.088  12.085  67.715  1.00  0.00     0.000 HD 
HETATM   13  O   UNL     1      -8.217  15.124  69.193  1.00  0.00    -0.188 OA 
HETATM   14  C   UNL     1      -9.586  15.023  68.772  1.00  0.00    -0.220 C  
HETATM   15  O   UNL     1      -6.242  14.012  68.844  1.00  0.00    -0.081 OA 
BRANCH   4  16
HETATM   16  C   UNL     1      -8.815  10.363  65.410  1.00  0.00    -0.197 C  
BRANCH  16  17
HETATM   17  C   UNL     1      -8.751   9.019  66.060  1.00  0.00    -0.184 C  
HETATM   18  C   UNL     1      -7.713   8.162  66.039  1.00  0.00    -0.090 C  
HETATM   19  C   UNL     1      -6.377   8.430  65.397  1.00  0.00    -0.048 C  
BRANCH  18  20
HETATM   20  C   UNL     1      -7.871   6.806  66.684  1.00  0.00    -0.107 C  
BRANCH  20  21
HETATM   21  C   UNL     1      -9.091   6.088  66.125  1.00  0.00    -0.159 C  
BRANCH  21  22
HETATM   22  C   UNL     1      -9.479   4.935  67.008  1.00  0.00    -0.148 C  
HETATM   23  O   UNL     1      -9.706   3.794  66.637  1.00  0.00    -0.203 OA 
BRANCH  22  24
HETATM   24  O   UNL     1      -9.685   5.405  68.267  1.00  0.00    -0.122 OA 
BRANCH  24  25
HETATM   25  C   UNL     1     -10.807   6.299  68.357  1.00  0.00    -0.319 C  
BRANCH  25  26
HETATM   26  C   UNL     1     -10.637   7.074  69.676  1.00  0.00    -0.234 C  
BRANCH  26  27
HETATM   27  N   UNL     1     -11.457   6.629  70.806  1.00  0.00    -0.331 NA 
HETATM   28  C   UNL     1     -10.712   5.825  71.796  1.00  0.00    -0.249 C  
HETATM   29  C   UNL     1      -9.712   6.641  72.632  1.00  0.00    -0.160 C  
HETATM   30  O   UNL     1     -10.360   7.727  73.304  1.00  0.00    -0.334 OA 
HETATM   31  C   UNL     1     -11.033   8.581  72.371  1.00  0.00    -0.320 C  
HETATM   32  C   UNL     1     -12.043   7.795  71.513  1.00  0.00    -0.309 C  
ENDBRANCH  26  27
ENDBRANCH  25  26
ENDBRANCH  24  25
ENDBRANCH  22  24
ENDBRANCH  21  22
ENDBRANCH  20  21
ENDBRANCH  18  20
ENDBRANCH  16  17
ENDBRANCH   4  16
ENDBRANCH   2   3
TORSDOF 10
ENDMDL
MODEL      211
REMARK 921   NORMALIZED FREE ENERGY PREDICTED BY IDOCK:   -3.79 KCAL/MOL
REMARK 922        TOTAL FREE ENERGY PREDICTED BY IDOCK:   -7.55 KCAL/MOL
REMARK 923 INTER-LIGAND FREE ENERGY PREDICTED BY IDOCK:   -6.73 KCAL/MOL
REMARK 924 INTRA-LIGAND FREE ENERGY PREDICTED BY IDOCK:   -0.82 KCAL/MOL
REMARK 927      BINDING AFFINITY PREDICTED BY RF-SCORE:    0.00 PKD
ROOT
HETATM    1  C   UNL     1     -11.901  11.710  68.344  1.00  0.00    -0.278 C  
HETATM    2  O   UNL     1     -11.363  12.317  67.171  1.00  0.00    -0.293 OA 
ENDROOT
BRANCH   2   3
HETATM    3  C   UNL     1     -10.171  12.999  67.310  1.00  0.00    -0.239 A  
HETATM    4  C   UNL     1      -8.891  12.418  67.041  1.00  0.00    -0.210 A  
HETATM    5  C   UNL     1      -7.758  13.260  67.127  1.00  0.00    -0.003 A  
HETATM    6  C   UNL     1      -9.170  15.164  67.633  1.00  0.00    -0.181 A  
HETATM    7  O   UNL     1      -6.476  12.817  67.007  1.00  0.00    -0.442 OA 
HETATM    8  C   UNL     1     -10.317  14.378  67.606  1.00  0.00    -0.237 A  
HETATM    9  C   UNL     1      -7.928  14.612  67.395  1.00  0.00    -0.223 A  
HETATM   10  C   UNL     1      -6.922  15.676  67.461  1.00  0.00    -0.189 C  
HETATM   11  C   UNL     1     -11.668  14.971  67.895  1.00  0.00    -0.310 C  
HETATM   12  H   UNL     1      -5.715  13.382  67.065  1.00  0.00     0.000 HD 
HETATM   13  O   UNL     1      -7.600  16.834  67.761  1.00  0.00    -0.161 OA 
HETATM   14  C   UNL     1      -9.010  16.609  67.914  1.00  0.00    -0.217 C  
HETATM   15  O   UNL     1      -5.725  15.612  67.261  1.00  0.00    -0.330 OA 
BRANCH   4  16
HETATM   16  C   UNL     1      -8.814  10.928  66.773  1.00  0.00    -0.149 C  
BRANCH  16  17
HETATM   17  C   UNL     1      -8.893   9.962  67.910  1.00  0.00    -0.129 C  
HETATM   18  C   UNL     1      -9.338   8.692  67.861  1.00  0.00    -0.155 C  
HETATM   19  C   UNL     1      -9.790   7.978  66.615  1.00  0.00    -0.322 C  
BRANCH  18  20
HETATM   20  C   UNL     1      -9.423   7.897  69.141  1.00  0.00    -0.155 C  
BRANCH  20  21
HETATM   21  C   UNL     1      -8.495   8.483  70.196  1.00  0.00    -0.126 C  
BRANCH  21  22
HETATM   22  C   UNL     1      -9.276   8.936  71.397  1.00  0.00    -0.258 C  
HETATM   23  O   UNL     1     -10.419   9.366  71.387  1.00  0.00    -0.333 OA 
BRANCH  22  24
HETATM   24  O   UNL     1      -8.449   8.935  72.477  1.00  0.00    -0.395 OA 
BRANCH  24  25
HETATM   25  C   UNL     1      -7.979   7.622  72.824  1.00  0.00    -0.111 C  
BRANCH  25  26
HETATM   26  C   UNL     1      -9.070   6.991  73.707  1.00  0.00    -0.185 C  
BRANCH  26  27
HETATM   27  N   UNL     1      -8.914   5.567  74.020  1.00  0.00    -0.119 NA 
HETATM   28  C   UNL     1     -10.165   4.921  74.465  1.00  0.00    -0.268 C  
HETATM   29  C   UNL     1     -11.198   4.729  73.343  1.00  0.00    -0.343 C  
HETATM   30  O   UNL     1     -10.648   3.981  72.252  1.00  0.00    -0.107 OA 
HETATM   31  C   UNL     1      -9.472   4.616  71.735  1.00  0.00    -0.150 C  
HETATM   32  C   UNL     1      -8.414   4.827  72.834  1.00  0.00    -0.111 C  
ENDBRANCH  26  27
ENDBRANCH  25  26
ENDBRANCH  24  25
ENDBRANCH  22  24
ENDBRANCH  21  22
ENDBRANCH  20  21
ENDBRANCH  18  20
ENDBRANCH  16  17
ENDBRANCH   4  16
ENDBRANCH   2   3
TORSDOF 10
ENDMDL
MODEL      212
REMARK 921   NORMALIZED FREE ENERGY PREDICTED BY IDOCK:   -3.78 KCAL/MOL
REMARK 922        TOTAL FREE ENERGY PREDICTED BY IDOCK:   -7.53 KCAL/MOL
REMARK 923 INTER-LIGAND FREE ENERGY PREDICTED BY IDOCK:   -5.99 KCAL/MOL
REMARK 924 INTRA-LIGAND FREE ENERGY PREDICTED BY IDOCK:   -1.53 KCAL/MOL
REMARK 927      BINDING AFFINITY PREDICTED BY RF-SCORE:    0.00 PKD
ROOT
HETATM    1  C   UNL     1      -6.582   6.659  65.582  1.00  0.00    -0.050 C  
HETATM    2  O   UNL     1      -6.941   5.419  66.190  1.00  0.00    -0.060 OA 
ENDROOT
BRANCH   2   3
HETATM    3  C   UNL     1      -7.952   4.697  65.588  1.00  0.00    -0.095 A  
HETATM    4  C   UNL     1      -9.336   5.052  65.674  1.00  0.00    -0.163 A  
HETATM    5  C   UNL     1     -10.257   4.282  64.927  1.00  0.00    -0.175 A  
HETATM    6  C   UNL     1      -8.451   2.954  64.006  1.00  0.00    -0.086 A  
HETATM    7  O   UNL     1     -11.608   4.437  65.002  1.00  0.00    -1.067 OA 
HETATM    8  C   UNL     1      -7.502   3.646  64.751  1.00  0.00    -0.073 A  
HETATM    9  C   UNL     1      -9.790   3.273  64.095  1.00  0.00    -0.171 A  
HETATM   10  C   UNL     1     -10.541   2.404  63.184  1.00  0.00    -0.193 C  
HETATM   11  C   UNL     1      -6.046   3.280  64.678  1.00  0.00    -0.023 C  
HETATM   12  H   UNL     1     -12.226   3.920  64.501  1.00  0.00     0.000 HD 
HETATM   13  O   UNL     1      -9.619   1.572  62.592  1.00  0.00    -0.087 OA 
HETATM   14  C   UNL     1      -8.286   1.824  63.063  1.00  0.00    -0.068 C  
HETATM   15  O   UNL     1     -11.730   2.402  62.933  1.00  0.00    -0.168 OA 
BRANCH   4  16
HETATM   16  C   UNL     1      -9.741   6.161  66.625  1.00  0.00    -0.196 C  
BRANCH  16  17
HETATM   17  C   UNL     1     -10.401   5.825  67.923  1.00  0.00    -0.266 C  
HETATM   18  C   UNL     1      -9.797   5.653  69.114  1.00  0.00    -0.216 C  
HETATM   19  C   UNL     1      -8.324   5.831  69.375  1.00  0.00    -0.112 C  
BRANCH  18  20
HETATM   20  C   UNL     1     -10.627   5.230  70.301  1.00  0.00    -0.288 C  
BRANCH  20  21
HETATM   21  C   UNL     1     -10.129   5.908  71.570  1.00  0.00    -0.238 C  
BRANCH  21  22
HETATM   22  C   UNL     1     -10.905   7.167  71.838  1.00  0.00    -0.226 C  
HETATM   23  O   UNL     1     -12.095   7.232  72.103  1.00  0.00    -0.293 OA 
BRANCH  22  24
HETATM   24  O   UNL     1     -10.100   8.233  71.585  1.00  0.00    -0.186 OA 
BRANCH  24  25
HETATM   25  C   UNL     1     -10.758   9.272  70.841  1.00  0.00    -0.301 C  
BRANCH  25  26
HETATM   26  C   UNL     1      -9.696   9.870  69.901  1.00  0.00    -0.235 C  
BRANCH  26  27
HETATM   27  N   UNL     1      -9.609   9.287  68.559  1.00  0.00    -0.146 NA 
HETATM   28  C   UNL     1     -10.445   9.980  67.558  1.00  0.00    -0.254 C  
HETATM   29  C   UNL     1      -9.919  11.371  67.166  1.00  0.00    -0.192 C  
HETATM   30  O   UNL     1      -8.573  11.300  66.683  1.00  0.00    -0.156 OA 
HETATM   31  C   UNL     1      -7.707  10.704  67.656  1.00  0.00    -0.097 C  
HETATM   32  C   UNL     1      -8.205   9.308  68.075  1.00  0.00    -0.115 C  
ENDBRANCH  26  27
ENDBRANCH  25  26
ENDBRANCH  24  25
ENDBRANCH  22  24
ENDBRANCH  21  22
ENDBRANCH  20  21
ENDBRANCH  18  20
ENDBRANCH  16  17
ENDBRANCH   4  16
ENDBRANCH   2   3
TORSDOF 10
ENDMDL
MODEL      213
REMARK 921   NORMALIZED FREE ENERGY PREDICTED BY IDOCK:   -3.73 KCAL/MOL
REMARK 922        TOTAL FREE ENERGY PREDICTED BY IDOCK:   -7.46 KCAL/MOL
REMARK 923 INTER-LIGAND FREE ENERGY PREDICTED BY IDOCK:   -6.72 KCAL/MOL
REMARK 924 INTRA-LIGAND FREE ENERGY PREDICTED BY IDOCK:   -0.74 KCAL/MOL
REMARK 927      BINDING AFFINITY PREDICTED BY RF-SCORE:    0.00 PKD
ROOT
HETATM    1  C   UNL     1      -9.168  10.863  62.709  1.00  0.00    -0.339 C  
HETATM    2  O   UNL     1     -10.132  10.314  63.606  1.00  0.00    -0.163 OA 
ENDROOT
BRANCH   2   3
HETATM    3  C   UNL     1     -10.347  10.996  64.787  1.00  0.00    -0.324 A  
HETATM    4  C   UNL     1      -9.619  10.738  65.992  1.00  0.00    -0.244 A  
HETATM    5  C   UNL     1      -9.870  11.579  67.101  1.00  0.00    -0.191 A  
HETATM    6  C   UNL     1     -11.426  12.897  65.791  1.00  0.00    -0.376 A  
HETATM    7  O   UNL     1      -9.335  11.379  68.337  1.00  0.00    -0.183 OA 
HETATM    8  C   UNL     1     -11.254  12.080  64.680  1.00  0.00    -0.380 A  
HETATM    9  C   UNL     1     -10.745  12.649  66.966  1.00  0.00    -0.268 A  
HETATM   10  C   UNL     1     -11.101  13.682  67.942  1.00  0.00    -0.261 C  
HETATM   11  C   UNL     1     -12.017  12.331  63.410  1.00  0.00    -0.588 C  
HETATM   12  H   UNL     1      -9.504  11.943  69.082  1.00  0.00     0.000 HD 
HETATM   13  O   UNL     1     -12.008  14.508  67.321  1.00  0.00    -0.405 OA 
HETATM   14  C   UNL     1     -12.294  14.082  65.980  1.00  0.00    -0.473 C  
HETATM   15  O   UNL     1     -10.682  13.846  69.071  1.00  0.00    -0.240 OA 
BRANCH   4  16
HETATM   16  C   UNL     1      -8.699   9.534  66.039  1.00  0.00    -0.166 C  
BRANCH  16  17
HETATM   17  C   UNL     1      -9.269   8.157  65.937  1.00  0.00    -0.158 C  
HETATM   18  C   UNL     1     -10.038   7.532  66.849  1.00  0.00    -0.336 C  
HETATM   19  C   UNL     1     -10.525   8.141  68.137  1.00  0.00    -0.225 C  
BRANCH  18  20
HETATM   20  C   UNL     1     -10.448   6.101  66.603  1.00  0.00    -0.267 C  
BRANCH  20  21
HETATM   21  C   UNL     1      -9.242   5.176  66.703  1.00  0.00    -0.129 C  
BRANCH  21  22
HETATM   22  C   UNL     1      -9.499   4.078  67.697  1.00  0.00    -0.183 C  
HETATM   23  O   UNL     1      -9.610   2.890  67.438  1.00  0.00    -0.150 OA 
BRANCH  22  24
HETATM   24  O   UNL     1      -9.740   4.641  68.911  1.00  0.00    -0.160 OA 
BRANCH  24  25
HETATM   25  C   UNL     1      -8.567   5.220  69.507  1.00  0.00    -0.097 C  
BRANCH  25  26
HETATM   26  C   UNL     1      -8.444   4.601  70.910  1.00  0.00    -0.098 C  
BRANCH  26  27
HETATM   27  N   UNL     1      -7.372   5.123  71.763  1.00  0.00    -0.082 NA 
HETATM   28  C   UNL     1      -7.744   5.214  73.189  1.00  0.00    -0.097 C  
HETATM   29  C   UNL     1      -7.859   3.850  73.889  1.00  0.00    -0.080 C  
HETATM   30  O   UNL     1      -6.645   3.100  73.769  1.00  0.00    -0.027 OA 
HETATM   31  C   UNL     1      -6.287   2.917  72.395  1.00  0.00    -0.014 C  
HETATM   32  C   UNL     1      -6.164   4.266  71.659  1.00  0.00    -0.018 C  
ENDBRANCH  26  27
ENDBRANCH  25  26
ENDBRANCH  24  25
ENDBRANCH  22  24
ENDBRANCH  21  22
ENDBRANCH  20  21
ENDBRANCH  18  20
ENDBRANCH  16  17
ENDBRANCH   4  16
ENDBRANCH   2   3
TORSDOF 10
ENDMDL
MODEL      214
REMARK 921   NORMALIZED FREE ENERGY PREDICTED BY IDOCK:   -3.73 KCAL/MOL
REMARK 922        TOTAL FREE ENERGY PREDICTED BY IDOCK:   -7.45 KCAL/MOL
REMARK 923 INTER-LIGAND FREE ENERGY PREDICTED BY IDOCK:   -6.56 KCAL/MOL
REMARK 924 INTRA-LIGAND FREE ENERGY PREDICTED BY IDOCK:   -0.89 KCAL/MOL
REMARK 927      BINDING AFFINITY PREDICTED BY RF-SCORE:    0.00 PKD
ROOT
HETATM    1  C   UNL     1     -11.614   6.248  69.946  1.00  0.00    -0.291 C  
HETATM    2  O   UNL     1     -11.469   7.495  70.622  1.00  0.00    -0.283 OA 
ENDROOT
BRANCH   2   3
HETATM    3  C   UNL     1     -10.204   7.821  71.067  1.00  0.00    -0.197 A  
HETATM    4  C   UNL     1      -9.278   8.609  70.311  1.00  0.00    -0.178 A  
HETATM    5  C   UNL     1      -8.053   8.953  70.929  1.00  0.00    -0.166 A  
HETATM    6  C   UNL     1      -8.733   7.839  72.971  1.00  0.00    -0.239 A  
HETATM    7  O   UNL     1      -7.040   9.600  70.290  1.00  0.00    -0.094 OA 
HETATM    8  C   UNL     1      -9.935   7.433  72.403  1.00  0.00    -0.221 A  
HETATM    9  C   UNL     1      -7.823   8.583  72.247  1.00  0.00    -0.122 A  
HETATM   10  C   UNL     1      -6.675   8.885  73.106  1.00  0.00     0.204 C  
HETATM   11  C   UNL     1     -10.914   6.598  73.181  1.00  0.00    -0.263 C  
HETATM   12  H   UNL     1      -6.218   9.831  70.704  1.00  0.00     0.000 HD 
HETATM   13  O   UNL     1      -6.928   8.288  74.319  1.00  0.00    -0.139 OA 
HETATM   14  C   UNL     1      -8.181   7.587  74.322  1.00  0.00    -0.200 C  
HETATM   15  O   UNL     1      -5.690   9.555  72.861  1.00  0.00    -0.289 OA 
BRANCH   4  16
HETATM   16  C   UNL     1      -9.621   8.948  68.874  1.00  0.00    -0.160 C  
BRANCH  16  17
HETATM   17  C   UNL     1     -10.470  10.139  68.571  1.00  0.00    -0.221 C  
HETATM   18  C   UNL     1     -10.047  11.348  68.157  1.00  0.00    -0.200 C  
HETATM   19  C   UNL     1      -8.616  11.711  67.857  1.00  0.00    -0.150 C  
BRANCH  18  20
HETATM   20  C   UNL     1     -11.055  12.458  67.986  1.00  0.00    -0.288 C  
BRANCH  20  21
HETATM   21  C   UNL     1     -11.809  12.297  66.673  1.00  0.00    -0.362 C  
BRANCH  21  22
HETATM   22  C   UNL     1     -11.205  13.164  65.605  1.00  0.00    -0.283 C  
HETATM   23  O   UNL     1     -11.354  13.025  64.401  1.00  0.00    -0.326 OA 
BRANCH  22  24
HETATM   24  O   UNL     1     -10.341  14.034  66.192  1.00  0.00    -0.283 OA 
BRANCH  24  25
HETATM   25  C   UNL     1     -10.492  15.383  65.719  1.00  0.00    -0.355 C  
BRANCH  25  26
HETATM   26  C   UNL     1      -9.255  16.155  66.212  1.00  0.00    -0.331 C  
BRANCH  26  27
HETATM   27  N   UNL     1      -8.477  15.527  67.284  1.00  0.00    -0.178 NA 
HETATM   28  C   UNL     1      -7.016  15.649  67.101  1.00  0.00    -0.134 C  
HETATM   29  C   UNL     1      -6.480  17.073  67.323  1.00  0.00    -0.163 C  
HETATM   30  O   UNL     1      -6.832  17.564  68.622  1.00  0.00    -0.206 OA 
HETATM   31  C   UNL     1      -8.251  17.538  68.815  1.00  0.00    -0.222 C  
HETATM   32  C   UNL     1      -8.825  16.125  68.597  1.00  0.00    -0.218 C  
ENDBRANCH  26  27
ENDBRANCH  25  26
ENDBRANCH  24  25
ENDBRANCH  22  24
ENDBRANCH  21  22
ENDBRANCH  20  21
ENDBRANCH  18  20
ENDBRANCH  16  17
ENDBRANCH   4  16
ENDBRANCH   2   3
TORSDOF 10
ENDMDL
MODEL      215
REMARK 921   NORMALIZED FREE ENERGY PREDICTED BY IDOCK:   -3.72 KCAL/MOL
REMARK 922        TOTAL FREE ENERGY PREDICTED BY IDOCK:   -7.44 KCAL/MOL
REMARK 923 INTER-LIGAND FREE ENERGY PREDICTED BY IDOCK:   -6.62 KCAL/MOL
REMARK 924 INTRA-LIGAND FREE ENERGY PREDICTED BY IDOCK:   -0.83 KCAL/MOL
REMARK 927      BINDING AFFINITY PREDICTED BY RF-SCORE:    0.00 PKD
ROOT
HETATM    1  C   UNL     1     -11.802  12.723  68.096  1.00  0.00    -0.324 C  
HETATM    2  O   UNL     1     -10.905  13.406  68.970  1.00  0.00    -0.245 OA 
ENDROOT
BRANCH   2   3
HETATM    3  C   UNL     1     -10.098  14.373  68.407  1.00  0.00    -0.244 A  
HETATM    4  C   UNL     1      -8.842  14.089  67.782  1.00  0.00    -0.187 A  
HETATM    5  C   UNL     1      -8.164  15.162  67.157  1.00  0.00    -0.221 A  
HETATM    6  C   UNL     1      -9.982  16.670  67.699  1.00  0.00    -0.264 A  
HETATM    7  O   UNL     1      -6.915  15.059  66.625  1.00  0.00    -0.136 OA 
HETATM    8  C   UNL     1     -10.676  15.667  68.367  1.00  0.00    -0.271 A  
HETATM    9  C   UNL     1      -8.761  16.415  67.109  1.00  0.00    -0.207 A  
HETATM   10  C   UNL     1      -8.287  17.641  66.462  1.00  0.00    -0.268 C  
HETATM   11  C   UNL     1     -11.992  15.951  69.036  1.00  0.00    -0.243 C  
HETATM   12  H   UNL     1      -6.460  15.778  66.205  1.00  0.00     0.000 HD 
HETATM   13  O   UNL     1      -9.238  18.603  66.707  1.00  0.00    -0.288 OA 
HETATM   14  C   UNL     1     -10.325  18.097  67.497  1.00  0.00    -0.392 C  
HETATM   15  O   UNL     1      -7.285  17.819  65.797  1.00  0.00    -0.469 OA 
BRANCH   4  16
HETATM   16  C   UNL     1      -8.272  12.690  67.906  1.00  0.00    -0.170 C  
BRANCH  16  17
HETATM   17  C   UNL     1      -8.547  11.677  66.843  1.00  0.00    -0.174 C  
HETATM   18  C   UNL     1      -7.636  10.996  66.122  1.00  0.00    -0.084 C  
HETATM   19  C   UNL     1      -6.144  11.086  66.300  1.00  0.00    -0.136 C  
BRANCH  18  20
HETATM   20  C   UNL     1      -8.112  10.073  65.027  1.00  0.00    -0.145 C  
BRANCH  20  21
HETATM   21  C   UNL     1      -9.591   9.755  65.201  1.00  0.00    -0.356 C  
BRANCH  21  22
HETATM   22  C   UNL     1      -9.775   8.555  66.086  1.00  0.00    -0.189 C  
HETATM   23  O   UNL     1     -10.587   8.450  66.992  1.00  0.00    -0.314 OA 
BRANCH  22  24
HETATM   24  O   UNL     1      -8.785   7.662  65.815  1.00  0.00    -0.156 OA 
BRANCH  24  25
HETATM   25  C   UNL     1      -8.059   7.254  66.986  1.00  0.00    -0.117 C  
BRANCH  25  26
HETATM   26  C   UNL     1      -8.136   5.717  67.029  1.00  0.00    -0.102 C  
BRANCH  26  27
HETATM   27  N   UNL     1      -9.480   5.131  67.041  1.00  0.00    -0.130 NA 
HETATM   28  C   UNL     1      -9.583   3.878  66.264  1.00  0.00    -0.185 C  
HETATM   29  C   UNL     1      -8.876   2.681  66.920  1.00  0.00    -0.133 C  
HETATM   30  O   UNL     1      -9.366   2.451  68.246  1.00  0.00    -0.188 OA 
HETATM   31  C   UNL     1      -9.213   3.619  69.061  1.00  0.00    -0.159 C  
HETATM   32  C   UNL     1      -9.907   4.842  68.433  1.00  0.00    -0.121 C  
ENDBRANCH  26  27
ENDBRANCH  25  26
ENDBRANCH  24  25
ENDBRANCH  22  24
ENDBRANCH  21  22
ENDBRANCH  20  21
ENDBRANCH  18  20
ENDBRANCH  16  17
ENDBRANCH   4  16
ENDBRANCH   2   3
TORSDOF 10
ENDMDL
MODEL      216
REMARK 921   NORMALIZED FREE ENERGY PREDICTED BY IDOCK:   -3.71 KCAL/MOL
REMARK 922        TOTAL FREE ENERGY PREDICTED BY IDOCK:   -7.42 KCAL/MOL
REMARK 923 INTER-LIGAND FREE ENERGY PREDICTED BY IDOCK:   -7.22 KCAL/MOL
REMARK 924 INTRA-LIGAND FREE ENERGY PREDICTED BY IDOCK:   -0.20 KCAL/MOL
REMARK 927      BINDING AFFINITY PREDICTED BY RF-SCORE:    0.00 PKD
ROOT
HETATM    1  C   UNL     1      -8.526  13.241  67.904  1.00  0.00    -0.177 C  
HETATM    2  O   UNL     1      -8.926  14.273  68.804  1.00  0.00    -0.173 OA 
ENDROOT
BRANCH   2   3
HETATM    3  C   UNL     1      -8.928  15.564  68.315  1.00  0.00    -0.185 A  
HETATM    4  C   UNL     1     -10.120  16.325  68.098  1.00  0.00    -0.244 A  
HETATM    5  C   UNL     1      -9.973  17.671  67.689  1.00  0.00    -0.323 A  
HETATM    6  C   UNL     1      -7.560  17.479  67.815  1.00  0.00    -0.197 A  
HETATM    7  O   UNL     1     -11.016  18.473  67.340  1.00  0.00    -0.376 OA 
HETATM    8  C   UNL     1      -7.640  16.139  68.177  1.00  0.00    -0.140 A  
HETATM    9  C   UNL     1      -8.702  18.219  67.583  1.00  0.00    -0.261 A  
HETATM   10  C   UNL     1      -8.312  19.592  67.251  1.00  0.00    -0.302 C  
HETATM   11  C   UNL     1      -6.397  15.324  68.400  1.00  0.00    -0.107 C  
HETATM   12  H   UNL     1     -10.918  19.376  67.065  1.00  0.00     0.000 HD 
HETATM   13  O   UNL     1      -6.937  19.622  67.274  1.00  0.00    -0.205 OA 
HETATM   14  C   UNL     1      -6.375  18.339  67.592  1.00  0.00    -0.186 C  
HETATM   15  O   UNL     1      -9.017  20.557  67.030  1.00  0.00    -0.326 OA 
BRANCH   4  16
HETATM   16  C   UNL     1     -11.459  15.625  68.226  1.00  0.00    -0.353 C  
BRANCH  16  17
HETATM   17  C   UNL     1     -11.726  14.379  67.445  1.00  0.00    -0.424 C  
HETATM   18  C   UNL     1     -11.564  14.208  66.120  1.00  0.00    -0.377 C  
HETATM   19  C   UNL     1     -11.016  15.241  65.171  1.00  0.00    -0.428 C  
BRANCH  18  20
HETATM   20  C   UNL     1     -11.972  12.895  65.497  1.00  0.00    -0.482 C  
BRANCH  20  21
HETATM   21  C   UNL     1     -11.730  12.919  63.993  1.00  0.00    -0.499 C  
BRANCH  21  22
HETATM   22  C   UNL     1     -10.528  12.091  63.637  1.00  0.00    -0.454 C  
HETATM   23  O   UNL     1      -9.912  12.140  62.584  1.00  0.00     0.114 OA 
BRANCH  22  24
HETATM   24  O   UNL     1     -10.331  11.169  64.617  1.00  0.00    -0.289 OA 
BRANCH  24  25
HETATM   25  C   UNL     1      -8.957  10.771  64.748  1.00  0.00    -0.178 C  
BRANCH  25  26
HETATM   26  C   UNL     1      -8.836   9.400  64.058  1.00  0.00    -0.177 C  
BRANCH  26  27
HETATM   27  N   UNL     1      -7.515   9.049  63.529  1.00  0.00    -0.101 NA 
HETATM   28  C   UNL     1      -6.445   9.078  64.547  1.00  0.00    -0.071 C  
HETATM   29  C   UNL     1      -6.524   7.927  65.563  1.00  0.00    -0.042 C  
HETATM   30  O   UNL     1      -6.513   6.654  64.908  1.00  0.00    -0.040 OA 
HETATM   31  C   UNL     1      -7.586   6.550  63.965  1.00  0.00    -0.100 C  
HETATM   32  C   UNL     1      -7.540   7.691  62.930  1.00  0.00    -0.118 C  
ENDBRANCH  26  27
ENDBRANCH  25  26
ENDBRANCH  24  25
ENDBRANCH  22  24
ENDBRANCH  21  22
ENDBRANCH  20  21
ENDBRANCH  18  20
ENDBRANCH  16  17
ENDBRANCH   4  16
ENDBRANCH   2   3
TORSDOF 10
ENDMDL
MODEL      217
REMARK 921   NORMALIZED FREE ENERGY PREDICTED BY IDOCK:   -3.69 KCAL/MOL
REMARK 922        TOTAL FREE ENERGY PREDICTED BY IDOCK:   -7.38 KCAL/MOL
REMARK 923 INTER-LIGAND FREE ENERGY PREDICTED BY IDOCK:   -7.42 KCAL/MOL
REMARK 924 INTRA-LIGAND FREE ENERGY PREDICTED BY IDOCK:    0.04 KCAL/MOL
REMARK 927      BINDING AFFINITY PREDICTED BY RF-SCORE:    0.00 PKD
ROOT
HETATM    1  C   UNL     1     -10.134  10.252  64.920  1.00  0.00    -0.276 C  
HETATM    2  O   UNL     1      -8.837   9.756  65.247  1.00  0.00    -0.152 OA 
ENDROOT
BRANCH   2   3
HETATM    3  C   UNL     1      -8.621   9.388  66.559  1.00  0.00    -0.134 A  
HETATM    4  C   UNL     1      -8.604  10.316  67.648  1.00  0.00    -0.118 A  
HETATM    5  C   UNL     1      -8.471   9.791  68.955  1.00  0.00    -0.129 A  
HETATM    6  C   UNL     1      -8.472   7.530  68.082  1.00  0.00    -0.124 A  
HETATM    7  O   UNL     1      -8.328  10.562  70.068  1.00  0.00    -0.346 OA 
HETATM    8  C   UNL     1      -8.557   7.988  66.771  1.00  0.00    -0.133 A  
HETATM    9  C   UNL     1      -8.434   8.415  69.140  1.00  0.00    -0.123 A  
HETATM   10  C   UNL     1      -8.374   7.651  70.389  1.00  0.00    -0.124 C  
HETATM   11  C   UNL     1      -8.567   7.026  65.616  1.00  0.00    -0.121 C  
HETATM   12  H   UNL     1      -8.239  10.209  70.945  1.00  0.00     0.000 HD 
HETATM   13  O   UNL     1      -8.355   6.323  70.032  1.00  0.00    -0.125 OA 
HETATM   14  C   UNL     1      -8.387   6.148  68.607  1.00  0.00    -0.114 C  
HETATM   15  O   UNL     1      -8.378   8.055  71.535  1.00  0.00    -0.102 OA 
BRANCH   4  16
HETATM   16  C   UNL     1      -8.634  11.799  67.336  1.00  0.00    -0.160 C  
BRANCH  16  17
HETATM   17  C   UNL     1      -9.709  12.661  67.915  1.00  0.00    -0.216 C  
HETATM   18  C   UNL     1     -10.979  12.300  68.176  1.00  0.00    -0.269 C  
HETATM   19  C   UNL     1     -11.546  10.917  67.984  1.00  0.00    -0.295 C  
BRANCH  18  20
HETATM   20  C   UNL     1     -11.946  13.341  68.682  1.00  0.00    -0.345 C  
BRANCH  20  21
HETATM   21  C   UNL     1     -11.492  13.879  70.033  1.00  0.00    -0.208 C  
BRANCH  21  22
HETATM   22  C   UNL     1     -12.285  15.099  70.411  1.00  0.00    -0.344 C  
HETATM   23  O   UNL     1     -13.488  15.135  70.615  1.00  0.00    -0.318 OA 
BRANCH  22  24
HETATM   24  O   UNL     1     -11.469  16.185  70.339  1.00  0.00    -0.360 OA 
BRANCH  24  25
HETATM   25  C   UNL     1     -10.362  15.998  69.444  1.00  0.00    -0.272 C  
BRANCH  25  26
HETATM   26  C   UNL     1     -10.729  16.733  68.142  1.00  0.00    -0.361 C  
BRANCH  26  27
HETATM   27  N   UNL     1      -9.634  17.418  67.448  1.00  0.00    -0.253 NA 
HETATM   28  C   UNL     1     -10.085  18.255  66.317  1.00  0.00    -0.380 C  
HETATM   29  C   UNL     1     -10.828  19.530  66.747  1.00  0.00    -0.390 C  
HETATM   30  O   UNL     1     -10.028  20.326  67.629  1.00  0.00    -0.409 OA 
HETATM   31  C   UNL     1      -9.632  19.576  68.783  1.00  0.00    -0.412 C  
HETATM   32  C   UNL     1      -8.885  18.287  68.390  1.00  0.00    -0.305 C  
ENDBRANCH  26  27
ENDBRANCH  25  26
ENDBRANCH  24  25
ENDBRANCH  22  24
ENDBRANCH  21  22
ENDBRANCH  20  21
ENDBRANCH  18  20
ENDBRANCH  16  17
ENDBRANCH   4  16
ENDBRANCH   2   3
TORSDOF 10
ENDMDL
MODEL      218
REMARK 921   NORMALIZED FREE ENERGY PREDICTED BY IDOCK:   -3.59 KCAL/MOL
REMARK 922        TOTAL FREE ENERGY PREDICTED BY IDOCK:   -7.23 KCAL/MOL
REMARK 923 INTER-LIGAND FREE ENERGY PREDICTED BY IDOCK:   -7.34 KCAL/MOL
REMARK 924 INTRA-LIGAND FREE ENERGY PREDICTED BY IDOCK:    0.12 KCAL/MOL
REMARK 927      BINDING AFFINITY PREDICTED BY RF-SCORE:    0.00 PKD
ROOT
HETATM    1  C   UNL     1      -9.968  11.361  68.509  1.00  0.00    -0.201 C  
HETATM    2  O   UNL     1      -9.088  11.852  67.500  1.00  0.00    -0.169 OA 
ENDROOT
BRANCH   2   3
HETATM    3  C   UNL     1      -9.603  12.780  66.617  1.00  0.00    -0.255 A  
HETATM    4  C   UNL     1     -10.539  12.454  65.584  1.00  0.00    -0.297 A  
HETATM    5  C   UNL     1     -11.062  13.519  64.815  1.00  0.00    -0.359 A  
HETATM    6  C   UNL     1      -9.824  15.128  66.139  1.00  0.00    -0.325 A  
HETATM    7  O   UNL     1     -11.871  13.344  63.734  1.00  0.00    -0.544 OA 
HETATM    8  C   UNL     1      -9.242  14.121  66.901  1.00  0.00    -0.270 A  
HETATM    9  C   UNL     1     -10.713  14.826  65.127  1.00  0.00    -0.433 A  
HETATM   10  C   UNL     1     -11.180  16.077  64.524  1.00  0.00    -0.297 C  
HETATM   11  C   UNL     1      -8.251  14.446  67.983  1.00  0.00    -0.149 C  
HETATM   12  H   UNL     1     -12.222  14.058  63.217  1.00  0.00     0.000 HD 
HETATM   13  O   UNL     1     -10.532  17.094  65.186  1.00  0.00    -0.666 OA 
HETATM   14  C   UNL     1      -9.642  16.596  66.197  1.00  0.00    -0.294 C  
HETATM   15  O   UNL     1     -12.000  16.244  63.643  1.00  0.00    -0.840 OA 
BRANCH   4  16
HETATM   16  C   UNL     1     -10.841  10.993  65.316  1.00  0.00    -0.172 C  
BRANCH  16  17
HETATM   17  C   UNL     1      -9.735  10.062  64.935  1.00  0.00    -0.377 C  
HETATM   18  C   UNL     1      -9.121   9.985  63.739  1.00  0.00    -0.302 C  
HETATM   19  C   UNL     1      -9.399  10.880  62.561  1.00  0.00    -0.308 C  
BRANCH  18  20
HETATM   20  C   UNL     1      -8.080   8.914  63.520  1.00  0.00    -0.168 C  
BRANCH  20  21
HETATM   21  C   UNL     1      -6.684   9.469  63.769  1.00  0.00    -0.105 C  
BRANCH  21  22
HETATM   22  C   UNL     1      -6.369   9.474  65.238  1.00  0.00    -0.073 C  
HETATM   23  O   UNL     1      -6.423  10.444  65.978  1.00  0.00    -0.101 OA 
BRANCH  22  24
HETATM   24  O   UNL     1      -5.867   8.257  65.577  1.00  0.00    -0.043 OA 
BRANCH  24  25
HETATM   25  C   UNL     1      -5.926   7.304  64.503  1.00  0.00    -0.037 C  
BRANCH  25  26
HETATM   26  C   UNL     1      -6.863   6.178  64.974  1.00  0.00    -0.051 C  
BRANCH  26  27
HETATM   27  N   UNL     1      -6.650   4.857  64.376  1.00  0.00    -0.041 NA 
HETATM   28  C   UNL     1      -7.328   3.764  65.102  1.00  0.00    -0.068 C  
HETATM   29  C   UNL     1      -8.857   3.769  64.945  1.00  0.00    -0.121 C  
HETATM   30  O   UNL     1      -9.237   3.720  63.565  1.00  0.00    -0.109 OA 
HETATM   31  C   UNL     1      -8.664   4.811  62.834  1.00  0.00    -0.126 C  
HETATM   32  C   UNL     1      -7.130   4.840  62.972  1.00  0.00    -0.039 C  
ENDBRANCH  26  27
ENDBRANCH  25  26
ENDBRANCH  24  25
ENDBRANCH  22  24
ENDBRANCH  21  22
ENDBRANCH  20  21
ENDBRANCH  18  20
ENDBRANCH  16  17
ENDBRANCH   4  16
ENDBRANCH   2   3
TORSDOF 10
ENDMDL
MODEL      219
REMARK 921   NORMALIZED FREE ENERGY PREDICTED BY IDOCK:   -3.57 KCAL/MOL
REMARK 922        TOTAL FREE ENERGY PREDICTED BY IDOCK:   -7.19 KCAL/MOL
REMARK 923 INTER-LIGAND FREE ENERGY PREDICTED BY IDOCK:   -6.17 KCAL/MOL
REMARK 924 INTRA-LIGAND FREE ENERGY PREDICTED BY IDOCK:   -1.02 KCAL/MOL
REMARK 927      BINDING AFFINITY PREDICTED BY RF-SCORE:    0.00 PKD
ROOT
HETATM    1  C   UNL     1     -12.282  11.833  69.213  1.00  0.00    -0.140 C  
HETATM    2  O   UNL     1     -11.608  11.951  67.962  1.00  0.00    -0.303 OA 
ENDROOT
BRANCH   2   3
HETATM    3  C   UNL     1     -10.369  12.558  67.973  1.00  0.00    -0.222 A  
HETATM    4  C   UNL     1      -9.134  11.835  67.985  1.00  0.00    -0.180 A  
HETATM    5  C   UNL     1      -7.936  12.581  67.894  1.00  0.00    -0.157 A  
HETATM    6  C   UNL     1      -9.197  14.642  67.698  1.00  0.00    -0.193 A  
HETATM    7  O   UNL     1      -6.695  12.035  68.006  1.00  0.00    -0.062 OA 
HETATM    8  C   UNL     1     -10.406  13.968  67.827  1.00  0.00    -0.236 A  
HETATM    9  C   UNL     1      -7.999  13.959  67.728  1.00  0.00    -0.174 A  
HETATM   10  C   UNL     1      -6.907  14.918  67.540  1.00  0.00    -0.161 C  
HETATM   11  C   UNL     1     -11.711  14.713  67.826  1.00  0.00    -0.386 C  
HETATM   12  H   UNL     1      -5.890  12.536  67.945  1.00  0.00     0.000 HD 
HETATM   13  O   UNL     1      -7.493  16.157  67.426  1.00  0.00    -0.139 OA 
HETATM   14  C   UNL     1      -8.923  16.089  67.539  1.00  0.00    -0.194 C  
HETATM   15  O   UNL     1      -5.712  14.712  67.456  1.00  0.00    -0.337 OA 
BRANCH   4  16
HETATM   16  C   UNL     1      -9.177  10.333  68.186  1.00  0.00    -0.137 C  
BRANCH  16  17
HETATM   17  C   UNL     1      -9.492   9.771  69.535  1.00  0.00    -0.226 C  
HETATM   18  C   UNL     1      -8.609   9.417  70.488  1.00  0.00    -0.265 C  
HETATM   19  C   UNL     1      -7.115   9.581  70.391  1.00  0.00    -0.120 C  
BRANCH  18  20
HETATM   20  C   UNL     1      -9.119   8.784  71.759  1.00  0.00    -0.305 C  
BRANCH  20  21
HETATM   21  C   UNL     1      -9.394   7.301  71.544  1.00  0.00    -0.155 C  
BRANCH  21  22
HETATM   22  C   UNL     1     -10.873   7.037  71.503  1.00  0.00    -0.230 C  
HETATM   23  O   UNL     1     -11.753   7.878  71.603  1.00  0.00    -0.263 OA 
BRANCH  22  24
HETATM   24  O   UNL     1     -11.072   5.692  71.493  1.00  0.00    -0.245 OA 
BRANCH  24  25
HETATM   25  C   UNL     1     -10.213   5.003  70.570  1.00  0.00    -0.246 C  
BRANCH  25  26
HETATM   26  C   UNL     1     -10.607   5.490  69.165  1.00  0.00    -0.230 C  
BRANCH  26  27
HETATM   27  N   UNL     1      -9.835   4.946  68.044  1.00  0.00    -0.152 NA 
HETATM   28  C   UNL     1     -10.164   5.566  66.744  1.00  0.00    -0.233 C  
HETATM   29  C   UNL     1      -9.664   7.012  66.601  1.00  0.00    -0.166 C  
HETATM   30  O   UNL     1      -8.250   7.097  66.814  1.00  0.00    -0.110 OA 
HETATM   31  C   UNL     1      -7.891   6.577  68.100  1.00  0.00    -0.106 C  
HETATM   32  C   UNL     1      -8.381   5.128  68.281  1.00  0.00    -0.096 C  
ENDBRANCH  26  27
ENDBRANCH  25  26
ENDBRANCH  24  25
ENDBRANCH  22  24
ENDBRANCH  21  22
ENDBRANCH  20  21
ENDBRANCH  18  20
ENDBRANCH  16  17
ENDBRANCH   4  16
ENDBRANCH   2   3
TORSDOF 10
ENDMDL
MODEL      220
REMARK 921   NORMALIZED FREE ENERGY PREDICTED BY IDOCK:   -3.56 KCAL/MOL
REMARK 922        TOTAL FREE ENERGY PREDICTED BY IDOCK:   -7.18 KCAL/MOL
REMARK 923 INTER-LIGAND FREE ENERGY PREDICTED BY IDOCK:   -6.72 KCAL/MOL
REMARK 924 INTRA-LIGAND FREE ENERGY PREDICTED BY IDOCK:   -0.45 KCAL/MOL
REMARK 927      BINDING AFFINITY PREDICTED BY RF-SCORE:    0.00 PKD
ROOT
HETATM    1  C   UNL     1      -7.514   9.913  67.555  1.00  0.00    -0.091 C  
HETATM    2  O   UNL     1      -8.737   9.343  67.093  1.00  0.00    -0.127 OA 
ENDROOT
BRANCH   2   3
HETATM    3  C   UNL     1      -8.787   7.968  66.989  1.00  0.00    -0.133 A  
HETATM    4  C   UNL     1      -9.325   7.117  68.007  1.00  0.00    -0.129 A  
HETATM    5  C   UNL     1      -9.407   5.733  67.729  1.00  0.00    -0.105 A  
HETATM    6  C   UNL     1      -8.538   6.098  65.496  1.00  0.00    -0.133 A  
HETATM    7  O   UNL     1      -9.791   4.800  68.642  1.00  0.00    -0.161 OA 
HETATM    8  C   UNL     1      -8.392   7.461  65.726  1.00  0.00    -0.141 A  
HETATM    9  C   UNL     1      -9.036   5.264  66.475  1.00  0.00    -0.129 A  
HETATM   10  C   UNL     1      -9.102   3.900  65.942  1.00  0.00    -0.146 C  
HETATM   11  C   UNL     1      -7.821   8.366  64.671  1.00  0.00    -0.127 C  
HETATM   12  H   UNL     1      -9.846   3.871  68.456  1.00  0.00     0.000 HD 
HETATM   13  O   UNL     1      -8.616   3.961  64.657  1.00  0.00    -0.107 OA 
HETATM   14  C   UNL     1      -8.212   5.291  64.297  1.00  0.00    -0.132 C  
HETATM   15  O   UNL     1      -9.528   2.891  66.469  1.00  0.00    -0.095 OA 
BRANCH   4  16
HETATM   16  C   UNL     1      -9.685   7.730  69.346  1.00  0.00    -0.169 C  
BRANCH  16  17
HETATM   17  C   UNL     1     -10.450   9.013  69.397  1.00  0.00    -0.229 C  
HETATM   18  C   UNL     1     -11.094   9.527  70.462  1.00  0.00    -0.342 C  
HETATM   19  C   UNL     1     -11.112   8.922  71.841  1.00  0.00    -0.442 C  
BRANCH  18  20
HETATM   20  C   UNL     1     -11.888  10.799  70.292  1.00  0.00    -0.438 C  
BRANCH  20  21
HETATM   21  C   UNL     1     -11.790  11.302  68.858  1.00  0.00    -0.413 C  
BRANCH  21  22
HETATM   22  C   UNL     1     -10.913  12.521  68.783  1.00  0.00    -0.253 C  
HETATM   23  O   UNL     1      -9.757  12.548  68.392  1.00  0.00    -0.221 OA 
BRANCH  22  24
HETATM   24  O   UNL     1     -11.567  13.561  69.368  1.00  0.00    -0.280 OA 
BRANCH  24  25
HETATM   25  C   UNL     1     -12.074  14.512  68.418  1.00  0.00    -0.214 C  
BRANCH  25  26
HETATM   26  C   UNL     1     -11.245  15.795  68.606  1.00  0.00    -0.351 C  
BRANCH  26  27
HETATM   27  N   UNL     1     -10.660  16.379  67.396  1.00  0.00    -0.317 NA 
HETATM   28  C   UNL     1     -10.495  17.845  67.468  1.00  0.00    -0.390 C  
HETATM   29  C   UNL     1      -9.378  18.298  68.423  1.00  0.00    -0.314 C  
HETATM   30  O   UNL     1      -8.123  17.703  68.075  1.00  0.00    -0.229 OA 
HETATM   31  C   UNL     1      -8.215  16.273  68.069  1.00  0.00    -0.156 C  
HETATM   32  C   UNL     1      -9.328  15.783  67.124  1.00  0.00    -0.213 C  
ENDBRANCH  26  27
ENDBRANCH  25  26
ENDBRANCH  24  25
ENDBRANCH  22  24
ENDBRANCH  21  22
ENDBRANCH  20  21
ENDBRANCH  18  20
ENDBRANCH  16  17
ENDBRANCH   4  16
ENDBRANCH   2   3
TORSDOF 10
ENDMDL
MODEL      221
REMARK 921   NORMALIZED FREE ENERGY PREDICTED BY IDOCK:   -3.52 KCAL/MOL
REMARK 922        TOTAL FREE ENERGY PREDICTED BY IDOCK:   -7.11 KCAL/MOL
REMARK 923 INTER-LIGAND FREE ENERGY PREDICTED BY IDOCK:   -5.17 KCAL/MOL
REMARK 924 INTRA-LIGAND FREE ENERGY PREDICTED BY IDOCK:   -1.95 KCAL/MOL
REMARK 927      BINDING AFFINITY PREDICTED BY RF-SCORE:    0.00 PKD
ROOT
HETATM    1  C   UNL     1      -7.295   8.825  63.159  1.00  0.00    -0.099 C  
HETATM    2  O   UNL     1      -8.261   8.669  64.197  1.00  0.00    -0.160 OA 
ENDROOT
BRANCH   2   3
HETATM    3  C   UNL     1      -8.036   9.363  65.369  1.00  0.00    -0.118 A  
HETATM    4  C   UNL     1      -7.068   8.970  66.348  1.00  0.00    -0.080 A  
HETATM    5  C   UNL     1      -6.871   9.827  67.455  1.00  0.00    -0.082 A  
HETATM    6  C   UNL     1      -8.474  11.409  66.558  1.00  0.00    -0.170 A  
HETATM    7  O   UNL     1      -6.067   9.524  68.511  1.00  0.00    -0.044 OA 
HETATM    8  C   UNL     1      -8.743  10.587  65.469  1.00  0.00    -0.197 A  
HETATM    9  C   UNL     1      -7.557  11.033  67.519  1.00  0.00    -0.106 A  
HETATM   10  C   UNL     1      -7.462  12.099  68.520  1.00  0.00    -0.117 C  
HETATM   11  C   UNL     1      -9.763  10.981  64.438  1.00  0.00    -0.330 C  
HETATM   12  H   UNL     1      -5.935  10.099  69.255  1.00  0.00     0.000 HD 
HETATM   13  O   UNL     1      -8.349  13.076  68.132  1.00  0.00    -0.151 OA 
HETATM   14  C   UNL     1      -9.048  12.722  66.930  1.00  0.00    -0.221 C  
HETATM   15  O   UNL     1      -6.736  12.175  69.492  1.00  0.00    -0.096 OA 
BRANCH   4  16
HETATM   16  C   UNL     1      -6.385   7.626  66.191  1.00  0.00    -0.042 C  
BRANCH  16  17
HETATM   17  C   UNL     1      -7.173   6.367  66.348  1.00  0.00    -0.073 C  
HETATM   18  C   UNL     1      -7.473   5.742  67.503  1.00  0.00    -0.078 C  
HETATM   19  C   UNL     1      -7.114   6.239  68.878  1.00  0.00    -0.082 C  
BRANCH  18  20
HETATM   20  C   UNL     1      -8.210   4.426  67.452  1.00  0.00    -0.100 C  
BRANCH  20  21
HETATM   21  C   UNL     1      -9.636   4.593  67.961  1.00  0.00    -0.207 C  
BRANCH  21  22
HETATM   22  C   UNL     1     -10.530   5.114  66.871  1.00  0.00    -0.223 C  
HETATM   23  O   UNL     1     -10.570   4.706  65.721  1.00  0.00    -0.301 OA 
BRANCH  22  24
HETATM   24  O   UNL     1     -11.177   6.218  67.334  1.00  0.00    -0.328 OA 
BRANCH  24  25
HETATM   25  C   UNL     1     -10.495   7.443  67.021  1.00  0.00    -0.333 C  
BRANCH  25  26
HETATM   26  C   UNL     1     -10.980   8.482  68.046  1.00  0.00     0.174 C  
BRANCH  26  27
HETATM   27  N   UNL     1     -10.071   8.777  69.158  1.00  0.00    -0.192 NA 
HETATM   28  C   UNL     1     -10.322  10.086  69.794  1.00  0.00    -0.255 C  
HETATM   29  C   UNL     1     -11.615  10.136  70.624  1.00  0.00    -0.343 C  
HETATM   30  O   UNL     1     -11.626   9.117  71.630  1.00  0.00    -0.330 OA 
HETATM   31  C   UNL     1     -11.465   7.818  71.049  1.00  0.00    -0.281 C  
HETATM   32  C   UNL     1     -10.178   7.732  70.206  1.00  0.00    -0.199 C  
ENDBRANCH  26  27
ENDBRANCH  25  26
ENDBRANCH  24  25
ENDBRANCH  22  24
ENDBRANCH  21  22
ENDBRANCH  20  21
ENDBRANCH  18  20
ENDBRANCH  16  17
ENDBRANCH   4  16
ENDBRANCH   2   3
TORSDOF 10
ENDMDL
MODEL      222
REMARK 921   NORMALIZED FREE ENERGY PREDICTED BY IDOCK:   -3.51 KCAL/MOL
REMARK 922        TOTAL FREE ENERGY PREDICTED BY IDOCK:   -7.10 KCAL/MOL
REMARK 923 INTER-LIGAND FREE ENERGY PREDICTED BY IDOCK:   -6.83 KCAL/MOL
REMARK 924 INTRA-LIGAND FREE ENERGY PREDICTED BY IDOCK:   -0.27 KCAL/MOL
REMARK 927      BINDING AFFINITY PREDICTED BY RF-SCORE:    0.00 PKD
ROOT
HETATM    1  C   UNL     1      -8.532  10.473  63.775  1.00  0.00    -0.127 C  
HETATM    2  O   UNL     1      -8.838   9.136  64.166  1.00  0.00    -0.185 OA 
ENDROOT
BRANCH   2   3
HETATM    3  C   UNL     1      -8.760   8.845  65.513  1.00  0.00    -0.183 A  
HETATM    4  C   UNL     1      -9.717   9.300  66.476  1.00  0.00    -0.305 A  
HETATM    5  C   UNL     1      -9.573   8.845  67.808  1.00  0.00    -0.147 A  
HETATM    6  C   UNL     1      -7.668   7.488  67.172  1.00  0.00    -0.112 A  
HETATM    7  O   UNL     1     -10.340   9.284  68.843  1.00  0.00    -0.204 OA 
HETATM    8  C   UNL     1      -7.731   7.934  65.857  1.00  0.00    -0.093 A  
HETATM    9  C   UNL     1      -8.571   7.933  68.116  1.00  0.00    -0.123 A  
HETATM   10  C   UNL     1      -8.279   7.277  69.393  1.00  0.00    -0.131 C  
HETATM   11  C   UNL     1      -6.729   7.473  64.836  1.00  0.00    -0.047 C  
HETATM   12  H   UNL     1     -10.243   8.978  69.737  1.00  0.00     0.000 HD 
HETATM   13  O   UNL     1      -7.187   6.469  69.174  1.00  0.00    -0.085 OA 
HETATM   14  C   UNL     1      -6.717   6.555  67.820  1.00  0.00    -0.071 C  
HETATM   15  O   UNL     1      -8.872   7.360  70.451  1.00  0.00    -0.147 OA 
BRANCH   4  16
HETATM   16  C   UNL     1     -10.762  10.306  66.039  1.00  0.00    -0.017 C  
BRANCH  16  17
HETATM   17  C   UNL     1     -10.836  11.641  66.707  1.00  0.00    -0.322 C  
HETATM   18  C   UNL     1     -11.181  12.811  66.136  1.00  0.00    -0.336 C  
HETATM   19  C   UNL     1     -11.622  12.983  64.707  1.00  0.00    -0.368 C  
BRANCH  18  20
HETATM   20  C   UNL     1     -11.112  14.074  66.959  1.00  0.00    -0.312 C  
BRANCH  20  21
HETATM   21  C   UNL     1     -11.284  15.300  66.071  1.00  0.00    -0.231 C  
BRANCH  21  22
HETATM   22  C   UNL     1      -9.974  16.016  65.897  1.00  0.00    -0.352 C  
HETATM   23  O   UNL     1      -8.865  15.530  66.062  1.00  0.00    -0.308 OA 
BRANCH  22  24
HETATM   24  O   UNL     1     -10.227  17.334  65.678  1.00  0.00    -0.579 OA 
BRANCH  24  25
HETATM   25  C   UNL     1     -10.484  18.067  66.887  1.00  0.00    -0.341 C  
BRANCH  25  26
HETATM   26  C   UNL     1      -9.167  18.061  67.684  1.00  0.00    -0.259 C  
BRANCH  26  27
HETATM   27  N   UNL     1      -8.293  19.225  67.510  1.00  0.00    -0.285 NA 
HETATM   28  C   UNL     1      -7.267  19.355  68.564  1.00  0.00    -0.321 C  
HETATM   29  C   UNL     1      -6.152  18.300  68.480  1.00  0.00    -0.196 C  
HETATM   30  O   UNL     1      -5.512  18.321  67.199  1.00  0.00    -0.131 OA 
HETATM   31  C   UNL     1      -6.461  18.119  66.145  1.00  0.00    -0.235 C  
HETATM   32  C   UNL     1      -7.597  19.158  66.200  1.00  0.00    -0.280 C  
ENDBRANCH  26  27
ENDBRANCH  25  26
ENDBRANCH  24  25
ENDBRANCH  22  24
ENDBRANCH  21  22
ENDBRANCH  20  21
ENDBRANCH  18  20
ENDBRANCH  16  17
ENDBRANCH   4  16
ENDBRANCH   2   3
TORSDOF 10
ENDMDL
MODEL      223
REMARK 921   NORMALIZED FREE ENERGY PREDICTED BY IDOCK:   -3.51 KCAL/MOL
REMARK 922        TOTAL FREE ENERGY PREDICTED BY IDOCK:   -7.10 KCAL/MOL
REMARK 923 INTER-LIGAND FREE ENERGY PREDICTED BY IDOCK:   -7.22 KCAL/MOL
REMARK 924 INTRA-LIGAND FREE ENERGY PREDICTED BY IDOCK:    0.12 KCAL/MOL
REMARK 927      BINDING AFFINITY PREDICTED BY RF-SCORE:    0.00 PKD
ROOT
HETATM    1  C   UNL     1      -9.972   9.982  64.987  1.00  0.00    -0.250 C  
HETATM    2  O   UNL     1      -9.264   9.050  65.801  1.00  0.00    -0.206 OA 
ENDROOT
BRANCH   2   3
HETATM    3  C   UNL     1      -9.683   8.917  67.110  1.00  0.00    -0.184 A  
HETATM    4  C   UNL     1      -9.848  10.023  68.003  1.00  0.00    -0.164 A  
HETATM    5  C   UNL     1     -10.381   9.756  69.286  1.00  0.00    -0.215 A  
HETATM    6  C   UNL     1     -10.638   7.412  68.726  1.00  0.00    -0.189 A  
HETATM    7  O   UNL     1     -10.486  10.691  70.270  1.00  0.00    -0.434 OA 
HETATM    8  C   UNL     1     -10.080   7.604  67.467  1.00  0.00    -0.264 A  
HETATM    9  C   UNL     1     -10.784   8.466  69.604  1.00  0.00    -0.201 A  
HETATM   10  C   UNL     1     -11.421   7.973  70.828  1.00  0.00    -0.263 C  
HETATM   11  C   UNL     1      -9.892   6.452  66.521  1.00  0.00    -0.170 C  
HETATM   12  H   UNL     1     -10.843  10.511  71.131  1.00  0.00     0.000 HD 
HETATM   13  O   UNL     1     -11.616   6.623  70.648  1.00  0.00    -0.338 OA 
HETATM   14  C   UNL     1     -11.133   6.175  69.372  1.00  0.00    -0.409 C  
HETATM   15  O   UNL     1     -11.766   8.591  71.816  1.00  0.00    -0.286 OA 
BRANCH   4  16
HETATM   16  C   UNL     1      -9.361  11.389  67.561  1.00  0.00    -0.166 C  
BRANCH  16  17
HETATM   17  C   UNL     1      -8.098  11.949  68.130  1.00  0.00    -0.155 C  
HETATM   18  C   UNL     1      -7.928  13.171  68.670  1.00  0.00    -0.033 C  
HETATM   19  C   UNL     1      -9.015  14.196  68.859  1.00  0.00     0.019 C  
BRANCH  18  20
HETATM   20  C   UNL     1      -6.547  13.588  69.115  1.00  0.00    -0.109 C  
BRANCH  20  21
HETATM   21  C   UNL     1      -6.462  15.104  69.240  1.00  0.00    -0.125 C  
BRANCH  21  22
HETATM   22  C   UNL     1      -6.058  15.722  67.931  1.00  0.00    -0.143 C  
HETATM   23  O   UNL     1      -5.145  15.345  67.213  1.00  0.00    -0.332 OA 
BRANCH  22  24
HETATM   24  O   UNL     1      -6.776  16.863  67.752  1.00  0.00    -0.137 OA 
BRANCH  24  25
HETATM   25  C   UNL     1      -6.474  17.876  68.725  1.00  0.00    -0.230 C  
BRANCH  25  26
HETATM   26  C   UNL     1      -7.628  18.893  68.664  1.00  0.00    -0.331 C  
BRANCH  26  27
HETATM   27  N   UNL     1      -8.008  19.370  67.331  1.00  0.00    -0.263 NA 
HETATM   28  C   UNL     1      -8.764  18.377  66.541  1.00  0.00    -0.278 C  
HETATM   29  C   UNL     1     -10.197  18.144  67.045  1.00  0.00    -0.365 C  
HETATM   30  O   UNL     1     -10.938  19.369  67.088  1.00  0.00    -0.483 OA 
HETATM   31  C   UNL     1     -10.280  20.340  67.911  1.00  0.00    -0.304 C  
HETATM   32  C   UNL     1      -8.837  20.597  67.436  1.00  0.00    -0.212 C  
ENDBRANCH  26  27
ENDBRANCH  25  26
ENDBRANCH  24  25
ENDBRANCH  22  24
ENDBRANCH  21  22
ENDBRANCH  20  21
ENDBRANCH  18  20
ENDBRANCH  16  17
ENDBRANCH   4  16
ENDBRANCH   2   3
TORSDOF 10
ENDMDL
MODEL      224
REMARK 921   NORMALIZED FREE ENERGY PREDICTED BY IDOCK:   -3.50 KCAL/MOL
REMARK 922        TOTAL FREE ENERGY PREDICTED BY IDOCK:   -7.09 KCAL/MOL
REMARK 923 INTER-LIGAND FREE ENERGY PREDICTED BY IDOCK:   -6.12 KCAL/MOL
REMARK 924 INTRA-LIGAND FREE ENERGY PREDICTED BY IDOCK:   -0.97 KCAL/MOL
REMARK 927      BINDING AFFINITY PREDICTED BY RF-SCORE:    0.00 PKD
ROOT
HETATM    1  C   UNL     1     -10.475  13.222  67.159  1.00  0.00    -0.248 C  
HETATM    2  O   UNL     1      -9.844  12.639  68.297  1.00  0.00    -0.223 OA 
ENDROOT
BRANCH   2   3
HETATM    3  C   UNL     1     -10.523  11.623  68.937  1.00  0.00    -0.175 A  
HETATM    4  C   UNL     1     -10.232  10.234  68.747  1.00  0.00    -0.205 A  
HETATM    5  C   UNL     1     -10.938   9.302  69.542  1.00  0.00    -0.151 A  
HETATM    6  C   UNL     1     -12.079  11.101  70.698  1.00  0.00    -0.477 A  
HETATM    7  O   UNL     1     -10.842   7.953  69.388  1.00  0.00    -0.357 OA 
HETATM    8  C   UNL     1     -11.449  12.063  69.916  1.00  0.00    -0.239 A  
HETATM    9  C   UNL     1     -11.822   9.758  70.511  1.00  0.00    -0.316 A  
HETATM   10  C   UNL     1     -12.600   8.991  71.488  1.00  0.00    -0.338 C  
HETATM   11  C   UNL     1     -11.750  13.525  70.097  1.00  0.00    -0.280 C  
HETATM   12  H   UNL     1     -11.316   7.326  69.922  1.00  0.00     0.000 HD 
HETATM   13  O   UNL     1     -13.321   9.908  72.217  1.00  0.00    -0.435 OA 
HETATM   14  C   UNL     1     -13.080  11.254  71.778  1.00  0.00    -0.422 C  
HETATM   15  O   UNL     1     -12.615   7.792  71.684  1.00  0.00    -0.314 OA 
BRANCH   4  16
HETATM   16  C   UNL     1      -9.261   9.842  67.651  1.00  0.00    -0.146 C  
BRANCH  16  17
HETATM   17  C   UNL     1      -8.056   9.023  67.981  1.00  0.00    -0.105 C  
HETATM   18  C   UNL     1      -7.573   7.979  67.281  1.00  0.00    -0.097 C  
HETATM   19  C   UNL     1      -8.133   7.474  65.978  1.00  0.00    -0.123 C  
BRANCH  18  20
HETATM   20  C   UNL     1      -6.388   7.219  67.825  1.00  0.00    -0.048 C  
BRANCH  20  21
HETATM   21  C   UNL     1      -6.707   5.733  67.926  1.00  0.00    -0.058 C  
BRANCH  21  22
HETATM   22  C   UNL     1      -7.788   5.491  68.942  1.00  0.00    -0.095 C  
HETATM   23  O   UNL     1      -8.987   5.634  68.760  1.00  0.00    -0.114 OA 
BRANCH  22  24
HETATM   24  O   UNL     1      -7.203   5.237  70.143  1.00  0.00    -0.059 OA 
BRANCH  24  25
HETATM   25  C   UNL     1      -6.640   6.409  70.754  1.00  0.00    -0.053 C  
BRANCH  25  26
HETATM   26  C   UNL     1      -7.439   6.649  72.048  1.00  0.00    -0.094 C  
BRANCH  26  27
HETATM   27  N   UNL     1      -8.827   7.092  71.885  1.00  0.00    -0.124 NA 
HETATM   28  C   UNL     1      -9.809   5.991  71.950  1.00  0.00    -0.161 C  
HETATM   29  C   UNL     1      -9.990   5.401  73.358  1.00  0.00    -0.173 C  
HETATM   30  O   UNL     1     -10.359   6.413  74.301  1.00  0.00    -0.332 OA 
HETATM   31  C   UNL     1      -9.391   7.468  74.331  1.00  0.00     0.110 C  
HETATM   32  C   UNL     1      -9.181   8.082  72.934  1.00  0.00    -0.265 C  
ENDBRANCH  26  27
ENDBRANCH  25  26
ENDBRANCH  24  25
ENDBRANCH  22  24
ENDBRANCH  21  22
ENDBRANCH  20  21
ENDBRANCH  18  20
ENDBRANCH  16  17
ENDBRANCH   4  16
ENDBRANCH   2   3
TORSDOF 10
ENDMDL
MODEL      225
REMARK 921   NORMALIZED FREE ENERGY PREDICTED BY IDOCK:   -3.47 KCAL/MOL
REMARK 922        TOTAL FREE ENERGY PREDICTED BY IDOCK:   -7.05 KCAL/MOL
REMARK 923 INTER-LIGAND FREE ENERGY PREDICTED BY IDOCK:   -6.03 KCAL/MOL
REMARK 924 INTRA-LIGAND FREE ENERGY PREDICTED BY IDOCK:   -1.01 KCAL/MOL
REMARK 927      BINDING AFFINITY PREDICTED BY RF-SCORE:    0.00 PKD
ROOT
HETATM    1  C   UNL     1     -12.726  12.451  64.169  1.00  0.00    -0.347 C  
HETATM    2  O   UNL     1     -11.430  13.027  64.322  1.00  0.00    -0.343 OA 
ENDROOT
BRANCH   2   3
HETATM    3  C   UNL     1     -11.105  13.512  65.573  1.00  0.00    -0.294 A  
HETATM    4  C   UNL     1     -10.696  12.678  66.662  1.00  0.00    -0.275 A  
HETATM    5  C   UNL     1     -10.295  13.315  67.859  1.00  0.00    -0.238 A  
HETATM    6  C   UNL     1     -10.622  15.494  66.849  1.00  0.00    -0.307 A  
HETATM    7  O   UNL     1      -9.991  12.646  69.005  1.00  0.00    -0.421 OA 
HETATM    8  C   UNL     1     -11.068  14.926  65.661  1.00  0.00    -0.348 A  
HETATM    9  C   UNL     1     -10.244  14.702  67.914  1.00  0.00    -0.226 A  
HETATM   10  C   UNL     1      -9.797  15.568  69.008  1.00  0.00    -0.235 C  
HETATM   11  C   UNL     1     -11.509  15.787  64.510  1.00  0.00    -0.292 C  
HETATM   12  H   UNL     1      -9.722  13.074  69.810  1.00  0.00     0.000 HD 
HETATM   13  O   UNL     1      -9.945  16.862  68.565  1.00  0.00    -0.247 OA 
HETATM   14  C   UNL     1     -10.481  16.917  67.233  1.00  0.00    -0.301 C  
HETATM   15  O   UNL     1      -9.342  15.261  70.092  1.00  0.00    -0.013 OA 
BRANCH   4  16
HETATM   16  C   UNL     1     -10.805  11.175  66.503  1.00  0.00    -0.302 C  
BRANCH  16  17
HETATM   17  C   UNL     1      -9.567  10.346  66.393  1.00  0.00    -0.225 C  
HETATM   18  C   UNL     1      -8.964   9.943  65.258  1.00  0.00    -0.228 C  
HETATM   19  C   UNL     1      -9.400  10.312  63.865  1.00  0.00    -0.337 C  
BRANCH  18  20
HETATM   20  C   UNL     1      -7.763   9.033  65.351  1.00  0.00    -0.095 C  
BRANCH  20  21
HETATM   21  C   UNL     1      -8.113   7.764  66.116  1.00  0.00    -0.113 C  
BRANCH  21  22
HETATM   22  C   UNL     1      -7.240   7.620  67.331  1.00  0.00    -0.087 C  
HETATM   23  O   UNL     1      -6.101   7.180  67.345  1.00  0.00    -0.034 OA 
BRANCH  22  24
HETATM   24  O   UNL     1      -7.980   7.913  68.433  1.00  0.00    -0.117 OA 
BRANCH  24  25
HETATM   25  C   UNL     1      -9.051   6.982  68.656  1.00  0.00    -0.132 C  
BRANCH  25  26
HETATM   26  C   UNL     1      -8.466   5.846  69.513  1.00  0.00    -0.114 C  
BRANCH  26  27
HETATM   27  N   UNL     1      -8.797   4.479  69.100  1.00  0.00    -0.087 NA 
HETATM   28  C   UNL     1      -7.775   3.862  68.229  1.00  0.00    -0.065 C  
HETATM   29  C   UNL     1      -6.472   3.500  68.961  1.00  0.00    -0.033 C  
HETATM   30  O   UNL     1      -6.725   2.634  70.074  1.00  0.00    -0.032 OA 
HETATM   31  C   UNL     1      -7.654   3.227  70.988  1.00  0.00    -0.040 C  
HETATM   32  C   UNL     1      -8.972   3.606  70.287  1.00  0.00    -0.103 C  
ENDBRANCH  26  27
ENDBRANCH  25  26
ENDBRANCH  24  25
ENDBRANCH  22  24
ENDBRANCH  21  22
ENDBRANCH  20  21
ENDBRANCH  18  20
ENDBRANCH  16  17
ENDBRANCH   4  16
ENDBRANCH   2   3
TORSDOF 10
ENDMDL
MODEL      226
REMARK 921   NORMALIZED FREE ENERGY PREDICTED BY IDOCK:   -3.44 KCAL/MOL
REMARK 922        TOTAL FREE ENERGY PREDICTED BY IDOCK:   -6.99 KCAL/MOL
REMARK 923 INTER-LIGAND FREE ENERGY PREDICTED BY IDOCK:   -6.73 KCAL/MOL
REMARK 924 INTRA-LIGAND FREE ENERGY PREDICTED BY IDOCK:   -0.26 KCAL/MOL
REMARK 927      BINDING AFFINITY PREDICTED BY RF-SCORE:    0.00 PKD
ROOT
HETATM    1  C   UNL     1     -12.503  12.185  71.050  1.00  0.00    -0.269 C  
HETATM    2  O   UNL     1     -13.002  10.914  70.639  1.00  0.00    -0.292 OA 
ENDROOT
BRANCH   2   3
HETATM    3  C   UNL     1     -12.071   9.924  70.401  1.00  0.00    -0.153 A  
HETATM    4  C   UNL     1     -11.136   9.962  69.318  1.00  0.00    -0.220 A  
HETATM    5  C   UNL     1     -10.170   8.931  69.249  1.00  0.00    -0.209 A  
HETATM    6  C   UNL     1     -11.013   7.960  71.304  1.00  0.00    -0.266 A  
HETATM    7  O   UNL     1      -9.296   8.782  68.216  1.00  0.00    -0.137 OA 
HETATM    8  C   UNL     1     -12.012   8.922  71.402  1.00  0.00    -0.374 A  
HETATM    9  C   UNL     1     -10.117   7.974  70.254  1.00  0.00    -0.192 A  
HETATM   10  C   UNL     1      -9.171   6.869  70.430  1.00  0.00    -0.156 C  
HETATM   11  C   UNL     1     -13.007   8.890  72.528  1.00  0.00    -0.415 C  
HETATM   12  H   UNL     1      -8.648   8.090  68.170  1.00  0.00     0.000 HD 
HETATM   13  O   UNL     1      -9.549   6.212  71.578  1.00  0.00    -0.156 OA 
HETATM   14  C   UNL     1     -10.709   6.806  72.181  1.00  0.00    -0.220 C  
HETATM   15  O   UNL     1      -8.206   6.571  69.753  1.00  0.00    -0.122 OA 
BRANCH   4  16
HETATM   16  C   UNL     1     -11.291  11.042  68.265  1.00  0.00    -0.366 C  
BRANCH  16  17
HETATM   17  C   UNL     1     -10.248  12.103  68.128  1.00  0.00    -0.203 C  
HETATM   18  C   UNL     1      -9.589  12.446  67.005  1.00  0.00    -0.211 C  
HETATM   19  C   UNL     1      -9.828  11.853  65.642  1.00  0.00    -0.266 C  
BRANCH  18  20
HETATM   20  C   UNL     1      -8.502  13.491  67.085  1.00  0.00    -0.177 C  
BRANCH  20  21
HETATM   21  C   UNL     1      -8.346  13.990  68.515  1.00  0.00    -0.143 C  
BRANCH  21  22
HETATM   22  C   UNL     1      -7.698  15.346  68.535  1.00  0.00    -0.132 C  
HETATM   23  O   UNL     1      -7.161  15.868  69.500  1.00  0.00    -0.203 OA 
BRANCH  22  24
HETATM   24  O   UNL     1      -7.945  15.961  67.348  1.00  0.00    -0.138 OA 
BRANCH  24  25
HETATM   25  C   UNL     1      -6.790  16.621  66.805  1.00  0.00    -0.217 C  
BRANCH  25  26
HETATM   26  C   UNL     1      -7.309  17.580  65.719  1.00  0.00     0.014 C  
BRANCH  26  27
HETATM   27  N   UNL     1      -6.645  18.883  65.627  1.00  0.00    -0.252 NA 
HETATM   28  C   UNL     1      -7.572  20.027  65.744  1.00  0.00    -0.269 C  
HETATM   29  C   UNL     1      -8.132  20.230  67.162  1.00  0.00    -0.335 C  
HETATM   30  O   UNL     1      -7.079  20.381  68.120  1.00  0.00    -0.284 OA 
HETATM   31  C   UNL     1      -6.196  19.253  68.097  1.00  0.00    -0.218 C  
HETATM   32  C   UNL     1      -5.617  19.018  66.689  1.00  0.00    -0.154 C  
ENDBRANCH  26  27
ENDBRANCH  25  26
ENDBRANCH  24  25
ENDBRANCH  22  24
ENDBRANCH  21  22
ENDBRANCH  20  21
ENDBRANCH  18  20
ENDBRANCH  16  17
ENDBRANCH   4  16
ENDBRANCH   2   3
TORSDOF 10
ENDMDL
MODEL      227
REMARK 921   NORMALIZED FREE ENERGY PREDICTED BY IDOCK:   -3.43 KCAL/MOL
REMARK 922        TOTAL FREE ENERGY PREDICTED BY IDOCK:   -6.98 KCAL/MOL
REMARK 923 INTER-LIGAND FREE ENERGY PREDICTED BY IDOCK:   -7.22 KCAL/MOL
REMARK 924 INTRA-LIGAND FREE ENERGY PREDICTED BY IDOCK:    0.24 KCAL/MOL
REMARK 927      BINDING AFFINITY PREDICTED BY RF-SCORE:    0.00 PKD
ROOT
HETATM    1  C   UNL     1      -8.050  10.687  67.187  1.00  0.00    -0.121 C  
HETATM    2  O   UNL     1      -9.274   9.961  67.103  1.00  0.00    -0.137 OA 
ENDROOT
BRANCH   2   3
HETATM    3  C   UNL     1      -9.324   8.742  67.748  1.00  0.00    -0.141 A  
HETATM    4  C   UNL     1      -9.841   8.567  69.071  1.00  0.00    -0.184 A  
HETATM    5  C   UNL     1      -9.926   7.247  69.572  1.00  0.00    -0.170 A  
HETATM    6  C   UNL     1      -9.100   6.361  67.473  1.00  0.00    -0.114 A  
HETATM    7  O   UNL     1     -10.291   6.946  70.849  1.00  0.00    -0.198 OA 
HETATM    8  C   UNL     1      -8.952   7.637  66.941  1.00  0.00    -0.156 A  
HETATM    9  C   UNL     1      -9.578   6.180  68.754  1.00  0.00    -0.137 A  
HETATM   10  C   UNL     1      -9.652   4.742  69.029  1.00  0.00    -0.165 C  
HETATM   11  C   UNL     1      -8.402   7.838  65.556  1.00  0.00    -0.151 C  
HETATM   12  H   UNL     1     -10.348   6.060  71.186  1.00  0.00     0.000 HD 
HETATM   13  O   UNL     1      -9.189   4.107  67.900  1.00  0.00    -0.130 OA 
HETATM   14  C   UNL     1      -8.795   5.038  66.881  1.00  0.00    -0.106 C  
HETATM   15  O   UNL     1     -10.065   4.171  70.019  1.00  0.00    -0.159 OA 
BRANCH   4  16
HETATM   16  C   UNL     1     -10.177   9.800  69.885  1.00  0.00    -0.291 C  
BRANCH  16  17
HETATM   17  C   UNL     1     -10.635  11.045  69.197  1.00  0.00    -0.253 C  
HETATM   18  C   UNL     1     -11.602  11.886  69.610  1.00  0.00    -0.387 C  
HETATM   19  C   UNL     1     -12.374  11.758  70.897  1.00  0.00    -0.420 C  
BRANCH  18  20
HETATM   20  C   UNL     1     -11.984  13.051  68.729  1.00  0.00    -0.302 C  
BRANCH  20  21
HETATM   21  C   UNL     1     -11.208  13.006  67.419  1.00  0.00    -0.325 C  
BRANCH  21  22
HETATM   22  C   UNL     1     -10.082  14.001  67.435  1.00  0.00    -0.244 C  
HETATM   23  O   UNL     1      -8.947  13.792  67.832  1.00  0.00    -0.175 OA 
BRANCH  22  24
HETATM   24  O   UNL     1     -10.576  15.218  67.079  1.00  0.00    -0.293 OA 
BRANCH  24  25
HETATM   25  C   UNL     1      -9.555  16.142  66.669  1.00  0.00    -0.244 C  
BRANCH  25  26
HETATM   26  C   UNL     1      -9.363  17.122  67.840  1.00  0.00    -0.249 C  
BRANCH  26  27
HETATM   27  N   UNL     1      -8.606  18.344  67.552  1.00  0.00    -0.256 NA 
HETATM   28  C   UNL     1      -8.895  18.917  66.222  1.00  0.00    -0.252 C  
HETATM   29  C   UNL     1     -10.287  19.558  66.111  1.00  0.00    -0.520 C  
HETATM   30  O   UNL     1     -10.474  20.570  67.108  1.00  0.00    -0.197 OA 
HETATM   31  C   UNL     1     -10.281  20.039  68.424  1.00  0.00    -0.379 C  
HETATM   32  C   UNL     1      -8.894  19.384  68.571  1.00  0.00    -0.366 C  
ENDBRANCH  26  27
ENDBRANCH  25  26
ENDBRANCH  24  25
ENDBRANCH  22  24
ENDBRANCH  21  22
ENDBRANCH  20  21
ENDBRANCH  18  20
ENDBRANCH  16  17
ENDBRANCH   4  16
ENDBRANCH   2   3
TORSDOF 10
ENDMDL
MODEL      228
REMARK 921   NORMALIZED FREE ENERGY PREDICTED BY IDOCK:   -3.42 KCAL/MOL
REMARK 922        TOTAL FREE ENERGY PREDICTED BY IDOCK:   -6.96 KCAL/MOL
REMARK 923 INTER-LIGAND FREE ENERGY PREDICTED BY IDOCK:   -5.70 KCAL/MOL
REMARK 924 INTRA-LIGAND FREE ENERGY PREDICTED BY IDOCK:   -1.26 KCAL/MOL
REMARK 927      BINDING AFFINITY PREDICTED BY RF-SCORE:    0.00 PKD
ROOT
HETATM    1  C   UNL     1      -7.147   9.658  67.727  1.00  0.00    -0.081 C  
HETATM    2  O   UNL     1      -7.527  10.482  68.828  1.00  0.00    -0.084 OA 
ENDROOT
BRANCH   2   3
HETATM    3  C   UNL     1      -8.635  10.088  69.551  1.00  0.00    -0.186 A  
HETATM    4  C   UNL     1      -8.564   9.266  70.720  1.00  0.00    -0.254 A  
HETATM    5  C   UNL     1      -9.767   9.021  71.422  1.00  0.00    -0.299 A  
HETATM    6  C   UNL     1     -10.992  10.440  69.885  1.00  0.00    -0.364 A  
HETATM    7  O   UNL     1      -9.865   8.170  72.481  1.00  0.00    -0.237 OA 
HETATM    8  C   UNL     1      -9.851  10.681  69.128  1.00  0.00    -0.217 A  
HETATM    9  C   UNL     1     -10.942   9.633  71.003  1.00  0.00    -0.431 A  
HETATM   10  C   UNL     1     -12.276   9.585  71.608  1.00  0.00    -0.398 C  
HETATM   11  C   UNL     1      -9.910  11.535  67.893  1.00  0.00    -0.192 C  
HETATM   12  H   UNL     1     -10.672   8.006  72.952  1.00  0.00     0.000 HD 
HETATM   13  O   UNL     1     -13.091  10.354  70.812  1.00  0.00    -0.385 OA 
HETATM   14  C   UNL     1     -12.383  10.910  69.693  1.00  0.00    -0.221 C  
HETATM   15  O   UNL     1     -12.636   9.028  72.627  1.00  0.00    -0.326 OA 
BRANCH   4  16
HETATM   16  C   UNL     1      -7.235   8.634  71.082  1.00  0.00    -0.085 C  
BRANCH  16  17
HETATM   17  C   UNL     1      -7.142   7.156  71.280  1.00  0.00    -0.069 C  
HETATM   18  C   UNL     1      -6.725   6.245  70.380  1.00  0.00    -0.053 C  
HETATM   19  C   UNL     1      -6.207   6.561  69.002  1.00  0.00    -0.030 C  
BRANCH  18  20
HETATM   20  C   UNL     1      -6.784   4.781  70.740  1.00  0.00    -0.036 C  
BRANCH  20  21
HETATM   21  C   UNL     1      -8.065   4.471  71.505  1.00  0.00    -0.100 C  
BRANCH  21  22
HETATM   22  C   UNL     1      -8.924   3.511  70.731  1.00  0.00    -0.094 C  
HETATM   23  O   UNL     1      -9.861   2.868  71.179  1.00  0.00    -0.150 OA 
BRANCH  22  24
HETATM   24  O   UNL     1      -8.393   3.359  69.489  1.00  0.00    -0.058 OA 
BRANCH  24  25
HETATM   25  C   UNL     1      -9.388   3.167  68.470  1.00  0.00    -0.177 C  
BRANCH  25  26
HETATM   26  C   UNL     1      -8.768   3.677  67.157  1.00  0.00    -0.116 C  
BRANCH  26  27
HETATM   27  N   UNL     1      -9.690   4.275  66.188  1.00  0.00    -0.196 NA 
HETATM   28  C   UNL     1     -10.521   5.357  66.754  1.00  0.00    -0.289 C  
HETATM   29  C   UNL     1      -9.741   6.648  67.053  1.00  0.00    -0.157 C  
HETATM   30  O   UNL     1      -9.072   7.134  65.884  1.00  0.00    -0.122 OA 
HETATM   31  C   UNL     1      -8.192   6.141  65.344  1.00  0.00    -0.145 C  
HETATM   32  C   UNL     1      -8.940   4.831  65.034  1.00  0.00    -0.153 C  
ENDBRANCH  26  27
ENDBRANCH  25  26
ENDBRANCH  24  25
ENDBRANCH  22  24
ENDBRANCH  21  22
ENDBRANCH  20  21
ENDBRANCH  18  20
ENDBRANCH  16  17
ENDBRANCH   4  16
ENDBRANCH   2   3
TORSDOF 10
ENDMDL
MODEL      229
REMARK 921   NORMALIZED FREE ENERGY PREDICTED BY IDOCK:   -3.41 KCAL/MOL
REMARK 922        TOTAL FREE ENERGY PREDICTED BY IDOCK:   -6.94 KCAL/MOL
REMARK 923 INTER-LIGAND FREE ENERGY PREDICTED BY IDOCK:   -5.93 KCAL/MOL
REMARK 924 INTRA-LIGAND FREE ENERGY PREDICTED BY IDOCK:   -1.02 KCAL/MOL
REMARK 927      BINDING AFFINITY PREDICTED BY RF-SCORE:    0.00 PKD
ROOT
HETATM    1  C   UNL     1      -5.543  14.033  68.147  1.00  0.00    -0.123 C  
HETATM    2  O   UNL     1      -6.500  13.876  67.101  1.00  0.00    -0.188 OA 
ENDROOT
BRANCH   2   3
HETATM    3  C   UNL     1      -7.831  13.895  67.463  1.00  0.00    -0.181 A  
HETATM    4  C   UNL     1      -8.527  12.756  67.980  1.00  0.00    -0.177 A  
HETATM    5  C   UNL     1      -9.863  12.941  68.406  1.00  0.00    -0.197 A  
HETATM    6  C   UNL     1      -9.732  15.307  67.894  1.00  0.00    -0.211 A  
HETATM    7  O   UNL     1     -10.674  11.926  68.811  1.00  0.00    -0.219 OA 
HETATM    8  C   UNL     1      -8.431  15.179  67.420  1.00  0.00    -0.202 A  
HETATM    9  C   UNL     1     -10.421  14.212  68.376  1.00  0.00    -0.254 A  
HETATM   10  C   UNL     1     -11.744  14.652  68.828  1.00  0.00    -0.324 C  
HETATM   11  C   UNL     1      -7.691  16.364  66.866  1.00  0.00    -0.276 C  
HETATM   12  H   UNL     1     -11.571  12.050  69.097  1.00  0.00     0.000 HD 
HETATM   13  O   UNL     1     -11.811  16.003  68.579  1.00  0.00    -0.343 OA 
HETATM   14  C   UNL     1     -10.608  16.498  67.970  1.00  0.00    -0.328 C  
HETATM   15  O   UNL     1     -12.626  14.006  69.359  1.00  0.00    -0.193 OA 
BRANCH   4  16
HETATM   16  C   UNL     1      -7.830  11.410  67.954  1.00  0.00    -0.117 C  
BRANCH  16  17
HETATM   17  C   UNL     1      -7.498  10.769  66.645  1.00  0.00    -0.135 C  
HETATM   18  C   UNL     1      -8.356  10.165  65.801  1.00  0.00    -0.147 C  
HETATM   19  C   UNL     1      -9.847  10.076  65.995  1.00  0.00    -0.321 C  
BRANCH  18  20
HETATM   20  C   UNL     1      -7.814   9.496  64.562  1.00  0.00    -0.126 C  
BRANCH  20  21
HETATM   21  C   UNL     1      -8.273   8.045  64.494  1.00  0.00    -0.097 C  
BRANCH  21  22
HETATM   22  C   UNL     1      -7.468   7.190  65.430  1.00  0.00    -0.087 C  
HETATM   23  O   UNL     1      -6.382   7.478  65.909  1.00  0.00    -0.041 OA 
BRANCH  22  24
HETATM   24  O   UNL     1      -8.073   5.976  65.536  1.00  0.00    -0.118 OA 
BRANCH  24  25
HETATM   25  C   UNL     1      -9.279   6.014  66.316  1.00  0.00    -0.154 C  
BRANCH  25  26
HETATM   26  C   UNL     1      -8.927   5.409  67.687  1.00  0.00    -0.108 C  
BRANCH  26  27
HETATM   27  N   UNL     1     -10.048   5.156  68.596  1.00  0.00    -0.168 NA 
HETATM   28  C   UNL     1      -9.635   4.963  70.001  1.00  0.00    -0.191 C  
HETATM   29  C   UNL     1      -9.155   6.251  70.690  1.00  0.00    -0.151 C  
HETATM   30  O   UNL     1     -10.154   7.275  70.631  1.00  0.00    -0.194 OA 
HETATM   31  C   UNL     1     -10.529   7.553  69.277  1.00  0.00    -0.214 C  
HETATM   32  C   UNL     1     -11.014   6.282  68.554  1.00  0.00    -0.340 C  
ENDBRANCH  26  27
ENDBRANCH  25  26
ENDBRANCH  24  25
ENDBRANCH  22  24
ENDBRANCH  21  22
ENDBRANCH  20  21
ENDBRANCH  18  20
ENDBRANCH  16  17
ENDBRANCH   4  16
ENDBRANCH   2   3
TORSDOF 10
ENDMDL
MODEL      230
REMARK 921   NORMALIZED FREE ENERGY PREDICTED BY IDOCK:   -3.39 KCAL/MOL
REMARK 922        TOTAL FREE ENERGY PREDICTED BY IDOCK:   -6.92 KCAL/MOL
REMARK 923 INTER-LIGAND FREE ENERGY PREDICTED BY IDOCK:   -6.42 KCAL/MOL
REMARK 924 INTRA-LIGAND FREE ENERGY PREDICTED BY IDOCK:   -0.50 KCAL/MOL
REMARK 927      BINDING AFFINITY PREDICTED BY RF-SCORE:    0.00 PKD
ROOT
HETATM    1  C   UNL     1      -8.792   7.095  71.957  1.00  0.00    -0.126 C  
HETATM    2  O   UNL     1      -8.304   7.380  70.648  1.00  0.00    -0.124 OA 
ENDROOT
BRANCH   2   3
HETATM    3  C   UNL     1      -8.940   6.757  69.593  1.00  0.00    -0.143 A  
HETATM    4  C   UNL     1      -9.876   7.415  68.734  1.00  0.00    -0.164 A  
HETATM    5  C   UNL     1     -10.377   6.686  67.630  1.00  0.00    -0.199 A  
HETATM    6  C   UNL     1      -8.982   4.790  68.207  1.00  0.00    -0.132 A  
HETATM    7  O   UNL     1     -11.353   7.148  66.801  1.00  0.00    -0.479 OA 
HETATM    8  C   UNL     1      -8.486   5.439  69.332  1.00  0.00    -0.099 A  
HETATM    9  C   UNL     1      -9.900   5.406  67.381  1.00  0.00    -0.175 A  
HETATM   10  C   UNL     1     -10.216   4.501  66.273  1.00  0.00    -0.239 C  
HETATM   11  C   UNL     1      -7.510   4.759  70.249  1.00  0.00    -0.051 C  
HETATM   12  H   UNL     1     -11.690   6.658  66.060  1.00  0.00     0.000 HD 
HETATM   13  O   UNL     1      -9.486   3.355  66.486  1.00  0.00    -0.182 OA 
HETATM   14  C   UNL     1      -8.703   3.431  67.688  1.00  0.00    -0.111 C  
HETATM   15  O   UNL     1     -10.937   4.688  65.312  1.00  0.00    -0.220 OA 
BRANCH   4  16
HETATM   16  C   UNL     1     -10.343   8.809  69.105  1.00  0.00    -0.227 C  
BRANCH  16  17
HETATM   17  C   UNL     1      -9.350   9.919  69.228  1.00  0.00    -0.215 C  
HETATM   18  C   UNL     1      -8.976  10.778  68.262  1.00  0.00    -0.143 C  
HETATM   19  C   UNL     1      -9.545  10.819  66.868  1.00  0.00    -0.198 C  
BRANCH  18  20
HETATM   20  C   UNL     1      -7.888  11.782  68.556  1.00  0.00    -0.144 C  
BRANCH  20  21
HETATM   21  C   UNL     1      -8.390  13.200  68.315  1.00  0.00    -0.152 C  
BRANCH  21  22
HETATM   22  C   UNL     1      -7.450  14.205  68.918  1.00  0.00    -0.112 C  
HETATM   23  O   UNL     1      -6.237  14.093  68.998  1.00  0.00    -0.086 OA 
BRANCH  22  24
HETATM   24  O   UNL     1      -8.186  15.190  69.500  1.00  0.00    -0.224 OA 
BRANCH  24  25
HETATM   25  C   UNL     1      -9.573  15.150  69.130  1.00  0.00    -0.232 C  
BRANCH  25  26
HETATM   26  C   UNL     1      -9.947  16.579  68.696  1.00  0.00    -0.248 C  
BRANCH  26  27
HETATM   27  N   UNL     1      -9.077  17.207  67.698  1.00  0.00    -0.225 NA 
HETATM   28  C   UNL     1      -9.289  16.699  66.327  1.00  0.00    -0.292 C  
HETATM   29  C   UNL     1     -10.615  17.152  65.695  1.00  0.00    -0.179 C  
HETATM   30  O   UNL     1     -10.727  18.579  65.687  1.00  0.00    -0.549 OA 
HETATM   31  C   UNL     1     -10.607  19.112  67.012  1.00  0.00    -0.457 C  
HETATM   32  C   UNL     1      -9.288  18.676  67.678  1.00  0.00    -0.288 C  
ENDBRANCH  26  27
ENDBRANCH  25  26
ENDBRANCH  24  25
ENDBRANCH  22  24
ENDBRANCH  21  22
ENDBRANCH  20  21
ENDBRANCH  18  20
ENDBRANCH  16  17
ENDBRANCH   4  16
ENDBRANCH   2   3
TORSDOF 10
ENDMDL
MODEL      231
REMARK 921   NORMALIZED FREE ENERGY PREDICTED BY IDOCK:   -3.39 KCAL/MOL
REMARK 922        TOTAL FREE ENERGY PREDICTED BY IDOCK:   -6.91 KCAL/MOL
REMARK 923 INTER-LIGAND FREE ENERGY PREDICTED BY IDOCK:   -7.18 KCAL/MOL
REMARK 924 INTRA-LIGAND FREE ENERGY PREDICTED BY IDOCK:    0.27 KCAL/MOL
REMARK 927      BINDING AFFINITY PREDICTED BY RF-SCORE:    0.00 PKD
ROOT
HETATM    1  C   UNL     1      -9.062  10.216  67.341  1.00  0.00    -0.137 C  
HETATM    2  O   UNL     1      -8.423   9.071  67.902  1.00  0.00    -0.120 OA 
ENDROOT
BRANCH   2   3
HETATM    3  C   UNL     1      -8.898   8.623  69.118  1.00  0.00    -0.137 A  
HETATM    4  C   UNL     1      -8.350   9.025  70.378  1.00  0.00    -0.180 A  
HETATM    5  C   UNL     1      -8.997   8.568  71.549  1.00  0.00    -0.213 A  
HETATM    6  C   UNL     1     -10.690   7.454  70.219  1.00  0.00    -0.250 A  
HETATM    7  O   UNL     1      -8.521   8.779  72.807  1.00  0.00    -0.414 OA 
HETATM    8  C   UNL     1     -10.074   7.836  69.033  1.00  0.00    -0.198 A  
HETATM    9  C   UNL     1     -10.161   7.818  71.441  1.00  0.00    -0.211 A  
HETATM   10  C   UNL     1     -11.031   7.304  72.502  1.00  0.00    -0.282 C  
HETATM   11  C   UNL     1     -10.632   7.415  67.702  1.00  0.00    -0.309 C  
HETATM   12  H   UNL     1      -8.955   8.473  73.594  1.00  0.00     0.000 HD 
HETATM   13  O   UNL     1     -12.049   6.624  71.874  1.00  0.00    -0.326 OA 
HETATM   14  C   UNL     1     -11.907   6.641  70.445  1.00  0.00    -0.346 C  
HETATM   15  O   UNL     1     -10.942   7.450  73.705  1.00  0.00    -0.306 OA 
BRANCH   4  16
HETATM   16  C   UNL     1      -7.066   9.831  70.384  1.00  0.00    -0.146 C  
BRANCH  16  17
HETATM   17  C   UNL     1      -6.826  10.858  69.326  1.00  0.00    -0.105 C  
HETATM   18  C   UNL     1      -6.218  12.049  69.480  1.00  0.00    -0.117 C  
HETATM   19  C   UNL     1      -5.601  12.550  70.759  1.00  0.00    -0.157 C  
BRANCH  18  20
HETATM   20  C   UNL     1      -6.146  12.992  68.303  1.00  0.00    -0.086 C  
BRANCH  20  21
HETATM   21  C   UNL     1      -6.895  14.282  68.608  1.00  0.00    -0.098 C  
BRANCH  21  22
HETATM   22  C   UNL     1      -6.559  15.341  67.595  1.00  0.00    -0.171 C  
HETATM   23  O   UNL     1      -5.651  16.153  67.683  1.00  0.00    -0.128 OA 
BRANCH  22  24
HETATM   24  O   UNL     1      -7.527  15.348  66.639  1.00  0.00    -0.058 OA 
BRANCH  24  25
HETATM   25  C   UNL     1      -8.812  15.746  67.142  1.00  0.00    -0.203 C  
BRANCH  25  26
HETATM   26  C   UNL     1      -9.164  17.067  66.434  1.00  0.00    -0.271 C  
BRANCH  26  27
HETATM   27  N   UNL     1      -8.422  18.256  66.863  1.00  0.00    -0.250 NA 
HETATM   28  C   UNL     1      -8.883  19.503  66.220  1.00  0.00    -0.361 C  
HETATM   29  C   UNL     1     -10.259  19.983  66.710  1.00  0.00    -0.462 C  
HETATM   30  O   UNL     1     -10.272  20.157  68.132  1.00  0.00    -0.410 OA 
HETATM   31  C   UNL     1      -9.906  18.945  68.803  1.00  0.00    -0.404 C  
HETATM   32  C   UNL     1      -8.532  18.432  68.333  1.00  0.00    -0.326 C  
ENDBRANCH  26  27
ENDBRANCH  25  26
ENDBRANCH  24  25
ENDBRANCH  22  24
ENDBRANCH  21  22
ENDBRANCH  20  21
ENDBRANCH  18  20
ENDBRANCH  16  17
ENDBRANCH   4  16
ENDBRANCH   2   3
TORSDOF 10
ENDMDL
MODEL      232
REMARK 921   NORMALIZED FREE ENERGY PREDICTED BY IDOCK:   -3.38 KCAL/MOL
REMARK 922        TOTAL FREE ENERGY PREDICTED BY IDOCK:   -6.90 KCAL/MOL
REMARK 923 INTER-LIGAND FREE ENERGY PREDICTED BY IDOCK:   -6.15 KCAL/MOL
REMARK 924 INTRA-LIGAND FREE ENERGY PREDICTED BY IDOCK:   -0.74 KCAL/MOL
REMARK 927      BINDING AFFINITY PREDICTED BY RF-SCORE:    0.00 PKD
ROOT
HETATM    1  C   UNL     1      -9.255   3.442  67.986  1.00  0.00    -0.187 C  
HETATM    2  O   UNL     1      -8.687   3.960  69.187  1.00  0.00    -0.076 OA 
ENDROOT
BRANCH   2   3
HETATM    3  C   UNL     1      -8.865   5.307  69.433  1.00  0.00    -0.100 A  
HETATM    4  C   UNL     1      -8.233   6.340  68.672  1.00  0.00    -0.112 A  
HETATM    5  C   UNL     1      -8.582   7.679  68.967  1.00  0.00    -0.136 A  
HETATM    6  C   UNL     1     -10.177   6.930  70.631  1.00  0.00    -0.212 A  
HETATM    7  O   UNL     1      -7.978   8.759  68.401  1.00  0.00    -0.106 OA 
HETATM    8  C   UNL     1      -9.844   5.597  70.417  1.00  0.00    -0.253 A  
HETATM    9  C   UNL     1      -9.561   7.937  69.918  1.00  0.00    -0.168 A  
HETATM   10  C   UNL     1     -10.130   9.223  70.332  1.00  0.00    -0.236 C  
HETATM   11  C   UNL     1     -10.493   4.501  71.214  1.00  0.00    -0.009 C  
HETATM   12  H   UNL     1      -8.212   9.658  68.599  1.00  0.00     0.000 HD 
HETATM   13  O   UNL     1     -11.061   8.940  71.305  1.00  0.00    -0.252 OA 
HETATM   14  C   UNL     1     -11.142   7.533  71.579  1.00  0.00    -0.236 C  
HETATM   15  O   UNL     1      -9.894  10.338  69.910  1.00  0.00    -0.211 OA 
BRANCH   4  16
HETATM   16  C   UNL     1      -7.166   5.950  67.667  1.00  0.00    -0.076 C  
BRANCH  16  17
HETATM   17  C   UNL     1      -7.194   6.527  66.289  1.00  0.00    -0.072 C  
HETATM   18  C   UNL     1      -8.255   6.589  65.462  1.00  0.00    -0.138 C  
HETATM   19  C   UNL     1      -9.650   6.135  65.802  1.00  0.00     0.173 C  
BRANCH  18  20
HETATM   20  C   UNL     1      -8.063   7.134  64.067  1.00  0.00    -0.018 C  
BRANCH  20  21
HETATM   21  C   UNL     1      -7.630   8.593  64.119  1.00  0.00    -0.121 C  
BRANCH  21  22
HETATM   22  C   UNL     1      -8.824   9.496  64.248  1.00  0.00    -0.213 C  
HETATM   23  O   UNL     1      -9.529   9.885  63.330  1.00  0.00    -0.268 OA 
BRANCH  22  24
HETATM   24  O   UNL     1      -8.898   9.935  65.533  1.00  0.00    -0.144 OA 
BRANCH  24  25
HETATM   25  C   UNL     1     -10.241  10.228  65.951  1.00  0.00    -0.223 C  
BRANCH  25  26
HETATM   26  C   UNL     1     -10.534  11.666  65.489  1.00  0.00    -0.273 C  
BRANCH  26  27
HETATM   27  N   UNL     1     -11.937  12.089  65.520  1.00  0.00    -0.439 NA 
HETATM   28  C   UNL     1     -12.134  13.438  66.088  1.00  0.00    -0.429 C  
HETATM   29  C   UNL     1     -11.642  14.574  65.176  1.00  0.00    -0.371 C  
HETATM   30  O   UNL     1     -12.265  14.512  63.888  1.00  0.00    -0.603 OA 
HETATM   31  C   UNL     1     -12.033  13.244  63.263  1.00  0.00    -0.310 C  
HETATM   32  C   UNL     1     -12.512  12.081  64.152  1.00  0.00    -0.333 C  
ENDBRANCH  26  27
ENDBRANCH  25  26
ENDBRANCH  24  25
ENDBRANCH  22  24
ENDBRANCH  21  22
ENDBRANCH  20  21
ENDBRANCH  18  20
ENDBRANCH  16  17
ENDBRANCH   4  16
ENDBRANCH   2   3
TORSDOF 10
ENDMDL
MODEL      233
REMARK 921   NORMALIZED FREE ENERGY PREDICTED BY IDOCK:   -3.31 KCAL/MOL
REMARK 922        TOTAL FREE ENERGY PREDICTED BY IDOCK:   -6.79 KCAL/MOL
REMARK 923 INTER-LIGAND FREE ENERGY PREDICTED BY IDOCK:   -5.67 KCAL/MOL
REMARK 924 INTRA-LIGAND FREE ENERGY PREDICTED BY IDOCK:   -1.12 KCAL/MOL
REMARK 927      BINDING AFFINITY PREDICTED BY RF-SCORE:    0.00 PKD
ROOT
HETATM    1  C   UNL     1     -11.109  11.922  64.587  1.00  0.00    -0.317 C  
HETATM    2  O   UNL     1     -11.107  11.899  66.013  1.00  0.00    -0.303 OA 
ENDROOT
BRANCH   2   3
HETATM    3  C   UNL     1     -10.184  12.703  66.650  1.00  0.00    -0.236 A  
HETATM    4  C   UNL     1      -8.782  12.421  66.688  1.00  0.00    -0.119 A  
HETATM    5  C   UNL     1      -7.936  13.381  67.289  1.00  0.00    -0.119 A  
HETATM    6  C   UNL     1      -9.826  14.844  67.689  1.00  0.00    -0.217 A  
HETATM    7  O   UNL     1      -6.603  13.192  67.493  1.00  0.00    -0.159 OA 
HETATM    8  C   UNL     1     -10.714  13.919  67.149  1.00  0.00    -0.282 A  
HETATM    9  C   UNL     1      -8.474  14.576  67.750  1.00  0.00    -0.176 A  
HETATM   10  C   UNL     1      -7.792  15.733  68.335  1.00  0.00    -0.136 C  
HETATM   11  C   UNL     1     -12.190  14.197  67.110  1.00  0.00    -0.348 C  
HETATM   12  H   UNL     1      -6.035  13.837  67.897  1.00  0.00     0.000 HD 
HETATM   13  O   UNL     1      -8.770  16.654  68.628  1.00  0.00    -0.230 OA 
HETATM   14  C   UNL     1     -10.080  16.177  68.283  1.00  0.00    -0.232 C  
HETATM   15  O   UNL     1      -6.603  15.912  68.513  1.00  0.00    -0.114 OA 
BRANCH   4  16
HETATM   16  C   UNL     1      -8.299  11.079  66.171  1.00  0.00    -0.163 C  
BRANCH  16  17
HETATM   17  C   UNL     1      -7.742  10.071  67.123  1.00  0.00    -0.092 C  
HETATM   18  C   UNL     1      -6.534   9.480  67.057  1.00  0.00    -0.067 C  
HETATM   19  C   UNL     1      -5.478   9.776  66.025  1.00  0.00    -0.047 C  
BRANCH  18  20
HETATM   20  C   UNL     1      -6.184   8.417  68.069  1.00  0.00    -0.052 C  
BRANCH  20  21
HETATM   21  C   UNL     1      -7.128   7.228  67.943  1.00  0.00    -0.085 C  
BRANCH  21  22
HETATM   22  C   UNL     1      -7.430   6.645  69.295  1.00  0.00    -0.095 C  
HETATM   23  O   UNL     1      -7.100   5.536  69.686  1.00  0.00    -0.060 OA 
BRANCH  22  24
HETATM   24  O   UNL     1      -8.262   7.494  69.955  1.00  0.00    -0.125 OA 
BRANCH  24  25
HETATM   25  C   UNL     1      -9.570   7.572  69.365  1.00  0.00    -0.155 C  
BRANCH  25  26
HETATM   26  C   UNL     1     -10.151   8.936  69.779  1.00  0.00    -0.199 C  
BRANCH  26  27
HETATM   27  N   UNL     1     -10.561   9.074  71.179  1.00  0.00    -0.263 NA 
HETATM   28  C   UNL     1     -11.573  10.128  71.397  1.00  0.00    -0.235 C  
HETATM   29  C   UNL     1     -12.966   9.773  70.853  1.00  0.00    -0.228 C  
HETATM   30  O   UNL     1     -13.444   8.544  71.411  1.00  0.00    -0.305 OA 
HETATM   31  C   UNL     1     -12.529   7.472  71.155  1.00  0.00    -0.275 C  
HETATM   32  C   UNL     1     -11.119   7.794  71.685  1.00  0.00    -0.237 C  
ENDBRANCH  26  27
ENDBRANCH  25  26
ENDBRANCH  24  25
ENDBRANCH  22  24
ENDBRANCH  21  22
ENDBRANCH  20  21
ENDBRANCH  18  20
ENDBRANCH  16  17
ENDBRANCH   4  16
ENDBRANCH   2   3
TORSDOF 10
ENDMDL
MODEL      234
REMARK 921   NORMALIZED FREE ENERGY PREDICTED BY IDOCK:   -3.28 KCAL/MOL
REMARK 922        TOTAL FREE ENERGY PREDICTED BY IDOCK:   -6.74 KCAL/MOL
REMARK 923 INTER-LIGAND FREE ENERGY PREDICTED BY IDOCK:   -6.08 KCAL/MOL
REMARK 924 INTRA-LIGAND FREE ENERGY PREDICTED BY IDOCK:   -0.67 KCAL/MOL
REMARK 927      BINDING AFFINITY PREDICTED BY RF-SCORE:    0.00 PKD
ROOT
HETATM    1  C   UNL     1     -12.795  10.325  70.225  1.00  0.00    -0.064 C  
HETATM    2  O   UNL     1     -11.441   9.936  70.447  1.00  0.00    -0.265 OA 
ENDROOT
BRANCH   2   3
HETATM    3  C   UNL     1     -11.170   8.583  70.438  1.00  0.00    -0.211 A  
HETATM    4  C   UNL     1     -10.438   7.930  69.396  1.00  0.00    -0.222 A  
HETATM    5  C   UNL     1     -10.144   6.556  69.563  1.00  0.00    -0.176 A  
HETATM    6  C   UNL     1     -11.195   6.564  71.747  1.00  0.00    -0.312 A  
HETATM    7  O   UNL     1      -9.556   5.788  68.606  1.00  0.00    -0.120 OA 
HETATM    8  C   UNL     1     -11.550   7.902  71.622  1.00  0.00    -0.311 A  
HETATM    9  C   UNL     1     -10.506   5.917  70.741  1.00  0.00    -0.311 A  
HETATM   10  C   UNL     1     -10.247   4.537  71.162  1.00  0.00    -0.092 C  
HETATM   11  C   UNL     1     -12.327   8.600  72.703  1.00  0.00    -0.282 C  
HETATM   12  H   UNL     1      -9.359   4.865  68.718  1.00  0.00     0.000 HD 
HETATM   13  O   UNL     1     -10.814   4.397  72.408  1.00  0.00    -0.107 OA 
HETATM   14  C   UNL     1     -11.453   5.606  72.847  1.00  0.00    -0.243 C  
HETATM   15  O   UNL     1      -9.629   3.663  70.586  1.00  0.00    -0.167 OA 
BRANCH   4  16
HETATM   16  C   UNL     1     -10.104   8.716  68.144  1.00  0.00    -0.236 C  
BRANCH  16  17
HETATM   17  C   UNL     1      -8.678   8.893  67.733  1.00  0.00    -0.125 C  
HETATM   18  C   UNL     1      -7.675   9.377  68.490  1.00  0.00    -0.085 C  
HETATM   19  C   UNL     1      -7.794   9.779  69.936  1.00  0.00    -0.168 C  
BRANCH  18  20
HETATM   20  C   UNL     1      -6.313   9.562  67.866  1.00  0.00    -0.054 C  
BRANCH  20  21
HETATM   21  C   UNL     1      -5.673  10.854  68.356  1.00  0.00    -0.043 C  
BRANCH  21  22
HETATM   22  C   UNL     1      -5.890  11.962  67.365  1.00  0.00    -0.115 C  
HETATM   23  O   UNL     1      -5.196  12.194  66.387  1.00  0.00    -0.304 OA 
BRANCH  22  24
HETATM   24  O   UNL     1      -6.895  12.759  67.819  1.00  0.00    -0.103 OA 
BRANCH  24  25
HETATM   25  C   UNL     1      -8.091  12.661  67.030  1.00  0.00    -0.085 C  
BRANCH  25  26
HETATM   26  C   UNL     1      -9.133  13.567  67.709  1.00  0.00    -0.207 C  
BRANCH  26  27
HETATM   27  N   UNL     1      -9.705  14.636  66.886  1.00  0.00    -0.234 NA 
HETATM   28  C   UNL     1     -11.134  14.891  67.159  1.00  0.00    -0.332 C  
HETATM   29  C   UNL     1     -11.396  15.570  68.513  1.00  0.00    -0.351 C  
HETATM   30  O   UNL     1     -10.671  16.801  68.626  1.00  0.00    -0.322 OA 
HETATM   31  C   UNL     1      -9.266  16.589  68.446  1.00  0.00    -0.222 C  
HETATM   32  C   UNL     1      -8.966  15.906  67.098  1.00  0.00    -0.208 C  
ENDBRANCH  26  27
ENDBRANCH  25  26
ENDBRANCH  24  25
ENDBRANCH  22  24
ENDBRANCH  21  22
ENDBRANCH  20  21
ENDBRANCH  18  20
ENDBRANCH  16  17
ENDBRANCH   4  16
ENDBRANCH   2   3
TORSDOF 10
ENDMDL
MODEL      235
REMARK 921   NORMALIZED FREE ENERGY PREDICTED BY IDOCK:   -3.25 KCAL/MOL
REMARK 922        TOTAL FREE ENERGY PREDICTED BY IDOCK:   -6.69 KCAL/MOL
REMARK 923 INTER-LIGAND FREE ENERGY PREDICTED BY IDOCK:   -5.78 KCAL/MOL
REMARK 924 INTRA-LIGAND FREE ENERGY PREDICTED BY IDOCK:   -0.91 KCAL/MOL
REMARK 927      BINDING AFFINITY PREDICTED BY RF-SCORE:    0.00 PKD
ROOT
HETATM    1  C   UNL     1     -12.072  11.649  68.488  1.00  0.00    -0.080 C  
HETATM    2  O   UNL     1     -11.557  12.323  67.341  1.00  0.00    -0.328 OA 
ENDROOT
BRANCH   2   3
HETATM    3  C   UNL     1     -10.344  12.965  67.486  1.00  0.00    -0.223 A  
HETATM    4  C   UNL     1      -9.081  12.320  67.295  1.00  0.00    -0.184 A  
HETATM    5  C   UNL     1      -7.918  13.121  67.376  1.00  0.00    -0.171 A  
HETATM    6  C   UNL     1      -9.268  15.104  67.725  1.00  0.00    -0.180 A  
HETATM    7  O   UNL     1      -6.652  12.622  67.327  1.00  0.00    -0.211 OA 
HETATM    8  C   UNL     1     -10.444  14.363  67.700  1.00  0.00    -0.245 A  
HETATM    9  C   UNL     1      -8.042  14.492  67.563  1.00  0.00    -0.204 A  
HETATM   10  C   UNL     1      -6.995  15.517  67.606  1.00  0.00    -0.179 C  
HETATM   11  C   UNL     1     -11.778  15.023  67.907  1.00  0.00    -0.310 C  
HETATM   12  H   UNL     1      -5.871  13.160  67.382  1.00  0.00     0.000 HD 
HETATM   13  O   UNL     1      -7.635  16.716  67.817  1.00  0.00    -0.153 OA 
HETATM   14  C   UNL     1      -9.057  16.555  67.931  1.00  0.00    -0.206 C  
HETATM   15  O   UNL     1      -5.796  15.395  67.453  1.00  0.00    -0.321 OA 
BRANCH   4  16
HETATM   16  C   UNL     1      -9.056  10.815  67.113  1.00  0.00    -0.153 C  
BRANCH  16  17
HETATM   17  C   UNL     1      -9.211   9.919  68.299  1.00  0.00    -0.130 C  
HETATM   18  C   UNL     1      -8.250   9.175  68.878  1.00  0.00    -0.112 C  
HETATM   19  C   UNL     1      -6.801   9.155  68.468  1.00  0.00    -0.063 C  
BRANCH  18  20
HETATM   20  C   UNL     1      -8.621   8.261  70.021  1.00  0.00    -0.128 C  
BRANCH  20  21
HETATM   21  C   UNL     1     -10.110   7.940  69.985  1.00  0.00    -0.199 C  
BRANCH  21  22
HETATM   22  C   UNL     1     -10.329   6.467  69.781  1.00  0.00    -0.200 C  
HETATM   23  O   UNL     1      -9.518   5.680  69.319  1.00  0.00    -0.124 OA 
BRANCH  22  24
HETATM   24  O   UNL     1     -11.631   6.182  70.051  1.00  0.00    -0.392 OA 
BRANCH  24  25
HETATM   25  C   UNL     1     -12.002   6.475  71.408  1.00  0.00    -0.316 C  
BRANCH  25  26
HETATM   26  C   UNL     1     -11.415   5.344  72.271  1.00  0.00    -0.090 C  
BRANCH  26  27
HETATM   27  N   UNL     1     -11.236   5.634  73.696  1.00  0.00    -0.040 NA 
HETATM   28  C   UNL     1     -10.380   4.655  74.395  1.00  0.00    -0.273 C  
HETATM   29  C   UNL     1      -8.892   4.751  74.021  1.00  0.00    -0.110 C  
HETATM   30  O   UNL     1      -8.382   6.069  74.255  1.00  0.00    -0.108 OA 
HETATM   31  C   UNL     1      -9.136   7.049  73.531  1.00  0.00    -0.156 C  
HETATM   32  C   UNL     1     -10.635   6.979  73.879  1.00  0.00    -0.194 C  
ENDBRANCH  26  27
ENDBRANCH  25  26
ENDBRANCH  24  25
ENDBRANCH  22  24
ENDBRANCH  21  22
ENDBRANCH  20  21
ENDBRANCH  18  20
ENDBRANCH  16  17
ENDBRANCH   4  16
ENDBRANCH   2   3
TORSDOF 10
ENDMDL
MODEL      236
REMARK 921   NORMALIZED FREE ENERGY PREDICTED BY IDOCK:   -3.25 KCAL/MOL
REMARK 922        TOTAL FREE ENERGY PREDICTED BY IDOCK:   -6.69 KCAL/MOL
REMARK 923 INTER-LIGAND FREE ENERGY PREDICTED BY IDOCK:   -7.38 KCAL/MOL
REMARK 924 INTRA-LIGAND FREE ENERGY PREDICTED BY IDOCK:    0.69 KCAL/MOL
REMARK 927      BINDING AFFINITY PREDICTED BY RF-SCORE:    0.00 PKD
ROOT
HETATM    1  C   UNL     1      -9.135  13.081  67.949  1.00  0.00    -0.207 C  
HETATM    2  O   UNL     1     -10.380  13.770  67.858  1.00  0.00    -0.236 OA 
ENDROOT
BRANCH   2   3
HETATM    3  C   UNL     1     -10.371  14.999  67.231  1.00  0.00    -0.249 A  
HETATM    4  C   UNL     1     -10.947  15.234  65.942  1.00  0.00    -0.325 A  
HETATM    5  C   UNL     1     -10.956  16.564  65.461  1.00  0.00    -0.092 A  
HETATM    6  C   UNL     1      -9.943  17.350  67.518  1.00  0.00    -0.298 A  
HETATM    7  O   UNL     1     -11.369  16.913  64.211  1.00  0.00    -1.296 OA 
HETATM    8  C   UNL     1      -9.867  16.058  68.027  1.00  0.00    -0.222 A  
HETATM    9  C   UNL     1     -10.479  17.588  66.269  1.00  0.00    -0.283 A  
HETATM   10  C   UNL     1     -10.455  19.031  66.015  1.00  0.00    -0.458 C  
HETATM   11  C   UNL     1      -9.256  15.793  69.375  1.00  0.00    -0.263 C  
HETATM   12  H   UNL     1     -11.375  17.805  63.888  1.00  0.00     0.000 HD 
HETATM   13  O   UNL     1      -9.879  19.611  67.121  1.00  0.00    -0.329 OA 
HETATM   14  C   UNL     1      -9.502  18.636  68.105  1.00  0.00    -0.325 C  
HETATM   15  O   UNL     1     -10.878  19.648  65.057  1.00  0.00    -0.304 OA 
BRANCH   4  16
HETATM   16  C   UNL     1     -11.426  14.043  65.135  1.00  0.00    -0.328 C  
BRANCH  16  17
HETATM   17  C   UNL     1     -10.637  12.774  65.141  1.00  0.00    -0.324 C  
HETATM   18  C   UNL     1     -10.904  11.655  64.442  1.00  0.00    -0.399 C  
HETATM   19  C   UNL     1     -12.035  11.493  63.460  1.00  0.00    -0.191 C  
BRANCH  18  20
HETATM   20  C   UNL     1     -10.034  10.439  64.648  1.00  0.00    -0.408 C  
BRANCH  20  21
HETATM   21  C   UNL     1      -8.771  10.810  65.414  1.00  0.00    -0.190 C  
BRANCH  21  22
HETATM   22  C   UNL     1      -8.570   9.886  66.583  1.00  0.00    -0.125 C  
HETATM   23  O   UNL     1      -8.400  10.227  67.743  1.00  0.00    -0.110 OA 
BRANCH  22  24
HETATM   24  O   UNL     1      -8.454   8.615  66.114  1.00  0.00    -0.120 OA 
BRANCH  24  25
HETATM   25  C   UNL     1      -7.101   8.131  66.131  1.00  0.00    -0.062 C  
BRANCH  25  26
HETATM   26  C   UNL     1      -6.647   8.065  64.661  1.00  0.00    -0.056 C  
BRANCH  26  27
HETATM   27  N   UNL     1      -5.506   7.193  64.369  1.00  0.00    -0.032 NA 
HETATM   28  C   UNL     1      -5.566   5.889  65.061  1.00  0.00    -0.020 C  
HETATM   29  C   UNL     1      -6.642   4.941  64.506  1.00  0.00    -0.043 C  
HETATM   30  O   UNL     1      -6.465   4.718  63.103  1.00  0.00    -0.025 OA 
HETATM   31  C   UNL     1      -6.479   5.954  62.379  1.00  0.00    -0.029 C  
HETATM   32  C   UNL     1      -5.414   6.932  62.910  1.00  0.00    -0.032 C  
ENDBRANCH  26  27
ENDBRANCH  25  26
ENDBRANCH  24  25
ENDBRANCH  22  24
ENDBRANCH  21  22
ENDBRANCH  20  21
ENDBRANCH  18  20
ENDBRANCH  16  17
ENDBRANCH   4  16
ENDBRANCH   2   3
TORSDOF 10
ENDMDL
MODEL      237
REMARK 921   NORMALIZED FREE ENERGY PREDICTED BY IDOCK:   -3.24 KCAL/MOL
REMARK 922        TOTAL FREE ENERGY PREDICTED BY IDOCK:   -6.68 KCAL/MOL
REMARK 923 INTER-LIGAND FREE ENERGY PREDICTED BY IDOCK:   -6.07 KCAL/MOL
REMARK 924 INTRA-LIGAND FREE ENERGY PREDICTED BY IDOCK:   -0.62 KCAL/MOL
REMARK 927      BINDING AFFINITY PREDICTED BY RF-SCORE:    0.00 PKD
ROOT
HETATM    1  C   UNL     1     -12.069  13.100  67.539  1.00  0.00    -0.248 C  
HETATM    2  O   UNL     1     -11.170  13.292  68.629  1.00  0.00    -0.244 OA 
ENDROOT
BRANCH   2   3
HETATM    3  C   UNL     1      -9.982  13.938  68.354  1.00  0.00    -0.233 A  
HETATM    4  C   UNL     1      -8.813  13.269  67.870  1.00  0.00    -0.192 A  
HETATM    5  C   UNL     1      -7.694  14.066  67.534  1.00  0.00    -0.182 A  
HETATM    6  C   UNL     1      -8.930  16.082  68.063  1.00  0.00    -0.187 A  
HETATM    7  O   UNL     1      -6.485  13.556  67.170  1.00  0.00    -0.455 OA 
HETATM    8  C   UNL     1     -10.047  15.350  68.451  1.00  0.00    -0.215 A  
HETATM    9  C   UNL     1      -7.789  15.449  67.614  1.00  0.00    -0.175 A  
HETATM   10  C   UNL     1      -6.798  16.467  67.253  1.00  0.00    -0.187 C  
HETATM   11  C   UNL     1     -11.279  16.037  68.969  1.00  0.00    -0.347 C  
HETATM   12  H   UNL     1      -5.734  14.091  66.944  1.00  0.00     0.000 HD 
HETATM   13  O   UNL     1      -7.377  17.685  67.522  1.00  0.00    -0.184 OA 
HETATM   14  C   UNL     1      -8.702  17.546  68.057  1.00  0.00    -0.254 C  
HETATM   15  O   UNL     1      -5.691  16.322  66.773  1.00  0.00    -0.334 OA 
BRANCH   4  16
HETATM   16  C   UNL     1      -8.808  11.753  67.836  1.00  0.00    -0.165 C  
BRANCH  16  17
HETATM   17  C   UNL     1      -9.245  10.980  69.037  1.00  0.00    -0.077 C  
HETATM   18  C   UNL     1     -10.271  10.110  69.108  1.00  0.00    -0.229 C  
HETATM   19  C   UNL     1     -11.145   9.702  67.951  1.00  0.00    -0.102 C  
BRANCH  18  20
HETATM   20  C   UNL     1     -10.613   9.489  70.440  1.00  0.00    -0.333 C  
BRANCH  20  21
HETATM   21  C   UNL     1      -9.345   9.147  71.211  1.00  0.00    -0.285 C  
BRANCH  21  22
HETATM   22  C   UNL     1      -9.423   7.753  71.767  1.00  0.00    -0.151 C  
HETATM   23  O   UNL     1      -8.914   7.369  72.809  1.00  0.00    -0.130 OA 
BRANCH  22  24
HETATM   24  O   UNL     1     -10.021   6.952  70.845  1.00  0.00    -0.189 OA 
BRANCH  24  25
HETATM   25  C   UNL     1      -9.086   6.152  70.104  1.00  0.00    -0.152 C  
BRANCH  25  26
HETATM   26  C   UNL     1      -9.471   4.685  70.362  1.00  0.00    -0.171 C  
BRANCH  26  27
HETATM   27  N   UNL     1      -8.596   3.928  71.263  1.00  0.00    -0.083 NA 
HETATM   28  C   UNL     1      -9.049   3.935  72.669  1.00  0.00    -0.108 C  
HETATM   29  C   UNL     1     -10.309   3.091  72.919  1.00  0.00    -0.161 C  
HETATM   30  O   UNL     1     -10.120   1.736  72.495  1.00  0.00    -0.117 OA 
HETATM   31  C   UNL     1      -9.755   1.676  71.111  1.00  0.00    -0.120 C  
HETATM   32  C   UNL     1      -8.496   2.515  70.822  1.00  0.00    -0.054 C  
ENDBRANCH  26  27
ENDBRANCH  25  26
ENDBRANCH  24  25
ENDBRANCH  22  24
ENDBRANCH  21  22
ENDBRANCH  20  21
ENDBRANCH  18  20
ENDBRANCH  16  17
ENDBRANCH   4  16
ENDBRANCH   2   3
TORSDOF 10
ENDMDL
MODEL      238
REMARK 921   NORMALIZED FREE ENERGY PREDICTED BY IDOCK:   -3.24 KCAL/MOL
REMARK 922        TOTAL FREE ENERGY PREDICTED BY IDOCK:   -6.67 KCAL/MOL
REMARK 923 INTER-LIGAND FREE ENERGY PREDICTED BY IDOCK:   -5.59 KCAL/MOL
REMARK 924 INTRA-LIGAND FREE ENERGY PREDICTED BY IDOCK:   -1.08 KCAL/MOL
REMARK 927      BINDING AFFINITY PREDICTED BY RF-SCORE:    0.00 PKD
ROOT
HETATM    1  C   UNL     1     -11.402  11.451  69.270  1.00  0.00    -0.289 C  
HETATM    2  O   UNL     1     -10.879  11.600  67.951  1.00  0.00    -0.191 OA 
ENDROOT
BRANCH   2   3
HETATM    3  C   UNL     1     -10.195  12.767  67.678  1.00  0.00    -0.219 A  
HETATM    4  C   UNL     1      -8.809  12.960  67.978  1.00  0.00    -0.195 A  
HETATM    5  C   UNL     1      -8.208  14.168  67.553  1.00  0.00    -0.186 A  
HETATM    6  C   UNL     1     -10.281  14.869  66.511  1.00  0.00    -0.281 A  
HETATM    7  O   UNL     1      -6.934  14.530  67.868  1.00  0.00    -0.127 OA 
HETATM    8  C   UNL     1     -10.938  13.722  66.940  1.00  0.00    -0.296 A  
HETATM    9  C   UNL     1      -8.950  15.077  66.811  1.00  0.00    -0.293 A  
HETATM   10  C   UNL     1      -8.525  16.344  66.209  1.00  0.00    -0.337 C  
HETATM   11  C   UNL     1     -12.395  13.508  66.640  1.00  0.00    -0.351 C  
HETATM   12  H   UNL     1      -6.531  15.341  67.583  1.00  0.00     0.000 HD 
HETATM   13  O   UNL     1      -9.632  16.868  65.583  1.00  0.00    -0.534 OA 
HETATM   14  C   UNL     1     -10.787  16.028  65.739  1.00  0.00    -0.230 C  
HETATM   15  O   UNL     1      -7.424  16.857  66.200  1.00  0.00    -0.283 OA 
BRANCH   4  16
HETATM   16  C   UNL     1      -8.095  11.911  68.808  1.00  0.00    -0.021 C  
BRANCH  16  17
HETATM   17  C   UNL     1      -7.063  11.036  68.175  1.00  0.00    -0.074 C  
HETATM   18  C   UNL     1      -6.354  10.061  68.775  1.00  0.00    -0.041 C  
HETATM   19  C   UNL     1      -6.517   9.623  70.206  1.00  0.00    -0.083 C  
BRANCH  18  20
HETATM   20  C   UNL     1      -5.288   9.341  67.985  1.00  0.00    -0.034 C  
BRANCH  20  21
HETATM   21  C   UNL     1      -5.920   8.442  66.931  1.00  0.00    -0.053 C  
BRANCH  21  22
HETATM   22  C   UNL     1      -6.984   7.575  67.543  1.00  0.00    -0.080 C  
HETATM   23  O   UNL     1      -6.792   6.616  68.274  1.00  0.00    -0.068 OA 
BRANCH  22  24
HETATM   24  O   UNL     1      -8.188   7.937  67.026  1.00  0.00    -0.114 OA 
BRANCH  24  25
HETATM   25  C   UNL     1      -8.448   7.350  65.740  1.00  0.00    -0.143 C  
BRANCH  25  26
HETATM   26  C   UNL     1      -9.151   8.434  64.904  1.00  0.00     0.329 C  
BRANCH  26  27
HETATM   27  N   UNL     1      -8.717   9.816  65.128  1.00  0.00    -0.156 NA 
HETATM   28  C   UNL     1      -7.668  10.265  64.190  1.00  0.00    -0.097 C  
HETATM   29  C   UNL     1      -8.171  10.483  62.754  1.00  0.00    -0.160 C  
HETATM   30  O   UNL     1      -9.259  11.414  62.720  1.00  0.00    -0.358 OA 
HETATM   31  C   UNL     1     -10.336  10.978  63.557  1.00  0.00    -0.340 C  
HETATM   32  C   UNL     1      -9.868  10.746  65.006  1.00  0.00    -0.288 C  
ENDBRANCH  26  27
ENDBRANCH  25  26
ENDBRANCH  24  25
ENDBRANCH  22  24
ENDBRANCH  21  22
ENDBRANCH  20  21
ENDBRANCH  18  20
ENDBRANCH  16  17
ENDBRANCH   4  16
ENDBRANCH   2   3
TORSDOF 10
ENDMDL
MODEL      239
REMARK 921   NORMALIZED FREE ENERGY PREDICTED BY IDOCK:   -3.20 KCAL/MOL
REMARK 922        TOTAL FREE ENERGY PREDICTED BY IDOCK:   -6.62 KCAL/MOL
REMARK 923 INTER-LIGAND FREE ENERGY PREDICTED BY IDOCK:   -6.70 KCAL/MOL
REMARK 924 INTRA-LIGAND FREE ENERGY PREDICTED BY IDOCK:    0.08 KCAL/MOL
REMARK 927      BINDING AFFINITY PREDICTED BY RF-SCORE:    0.00 PKD
ROOT
HETATM    1  C   UNL     1     -11.071   6.088  68.841  1.00  0.00    -0.279 C  
HETATM    2  O   UNL     1     -11.159   6.891  70.016  1.00  0.00    -0.268 OA 
ENDROOT
BRANCH   2   3
HETATM    3  C   UNL     1      -9.973   7.354  70.548  1.00  0.00    -0.184 A  
HETATM    4  C   UNL     1      -9.473   8.678  70.333  1.00  0.00    -0.192 A  
HETATM    5  C   UNL     1      -8.295   9.053  71.019  1.00  0.00    -0.189 A  
HETATM    6  C   UNL     1      -8.217   6.900  72.129  1.00  0.00    -0.105 A  
HETATM    7  O   UNL     1      -7.650  10.236  70.822  1.00  0.00    -0.377 OA 
HETATM    8  C   UNL     1      -9.347   6.458  71.450  1.00  0.00    -0.157 A  
HETATM    9  C   UNL     1      -7.713   8.167  71.916  1.00  0.00    -0.129 A  
HETATM   10  C   UNL     1      -6.547   8.360  72.782  1.00  0.00    -0.091 C  
HETATM   11  C   UNL     1      -9.879   5.067  71.658  1.00  0.00    -0.239 C  
HETATM   12  H   UNL     1      -6.859  10.488  71.283  1.00  0.00     0.000 HD 
HETATM   13  O   UNL     1      -6.377   7.184  73.474  1.00  0.00    -0.064 OA 
HETATM   14  C   UNL     1      -7.359   6.200  73.113  1.00  0.00    -0.092 C  
HETATM   15  O   UNL     1      -5.857   9.350  72.929  1.00  0.00    -0.288 OA 
BRANCH   4  16
HETATM   16  C   UNL     1     -10.176   9.561  69.320  1.00  0.00    -0.212 C  
BRANCH  16  17
HETATM   17  C   UNL     1      -9.566  10.865  68.919  1.00  0.00    -0.192 C  
HETATM   18  C   UNL     1     -10.205  11.927  68.395  1.00  0.00    -0.205 C  
HETATM   19  C   UNL     1     -11.691  12.022  68.167  1.00  0.00    -0.398 C  
BRANCH  18  20
HETATM   20  C   UNL     1      -9.398  13.130  67.971  1.00  0.00    -0.219 C  
BRANCH  20  21
HETATM   21  C   UNL     1     -10.199  13.998  67.009  1.00  0.00    -0.261 C  
BRANCH  21  22
HETATM   22  C   UNL     1     -10.218  15.427  67.474  1.00  0.00    -0.244 C  
HETATM   23  O   UNL     1     -10.825  15.856  68.443  1.00  0.00    -0.285 OA 
BRANCH  22  24
HETATM   24  O   UNL     1      -9.576  16.191  66.551  1.00  0.00    -0.232 OA 
BRANCH  24  25
HETATM   25  C   UNL     1      -8.190  16.406  66.863  1.00  0.00    -0.218 C  
BRANCH  25  26
HETATM   26  C   UNL     1      -8.057  17.892  67.240  1.00  0.00    -0.212 C  
BRANCH  26  27
HETATM   27  N   UNL     1      -6.704  18.455  67.209  1.00  0.00    -0.195 NA 
HETATM   28  C   UNL     1      -6.581  19.737  67.933  1.00  0.00    -0.241 C  
HETATM   29  C   UNL     1      -6.665  19.597  69.462  1.00  0.00    -0.344 C  
HETATM   30  O   UNL     1      -5.677  18.684  69.955  1.00  0.00    -0.227 OA 
HETATM   31  C   UNL     1      -5.808  17.399  69.336  1.00  0.00    -0.224 C  
HETATM   32  C   UNL     1      -5.732  17.501  67.801  1.00  0.00    -0.139 C  
ENDBRANCH  26  27
ENDBRANCH  25  26
ENDBRANCH  24  25
ENDBRANCH  22  24
ENDBRANCH  21  22
ENDBRANCH  20  21
ENDBRANCH  18  20
ENDBRANCH  16  17
ENDBRANCH   4  16
ENDBRANCH   2   3
TORSDOF 10
ENDMDL
MODEL      240
REMARK 921   NORMALIZED FREE ENERGY PREDICTED BY IDOCK:   -3.18 KCAL/MOL
REMARK 922        TOTAL FREE ENERGY PREDICTED BY IDOCK:   -6.57 KCAL/MOL
REMARK 923 INTER-LIGAND FREE ENERGY PREDICTED BY IDOCK:   -5.98 KCAL/MOL
REMARK 924 INTRA-LIGAND FREE ENERGY PREDICTED BY IDOCK:   -0.60 KCAL/MOL
REMARK 927      BINDING AFFINITY PREDICTED BY RF-SCORE:    0.00 PKD
ROOT
HETATM    1  C   UNL     1     -12.296  12.143  70.702  1.00  0.00    -0.295 C  
HETATM    2  O   UNL     1     -12.646  10.926  70.046  1.00  0.00    -0.295 OA 
ENDROOT
BRANCH   2   3
HETATM    3  C   UNL     1     -11.888   9.812  70.348  1.00  0.00    -0.193 A  
HETATM    4  C   UNL     1     -10.691   9.457  69.649  1.00  0.00    -0.251 A  
HETATM    5  C   UNL     1      -9.958   8.346  70.128  1.00  0.00    -0.187 A  
HETATM    6  C   UNL     1     -11.523   8.060  71.956  1.00  0.00    -0.364 A  
HETATM    7  O   UNL     1      -8.868   7.831  69.495  1.00  0.00    -0.138 OA 
HETATM    8  C   UNL     1     -12.309   9.115  71.509  1.00  0.00    -0.421 A  
HETATM    9  C   UNL     1     -10.377   7.694  71.280  1.00  0.00    -0.215 A  
HETATM   10  C   UNL     1      -9.746   6.580  71.993  1.00  0.00    -0.149 C  
HETATM   11  C   UNL     1     -13.574   9.495  72.227  1.00  0.00    -0.494 C  
HETATM   12  H   UNL     1      -8.375   7.086  69.817  1.00  0.00     0.000 HD 
HETATM   13  O   UNL     1     -10.554   6.300  73.070  1.00  0.00    -0.215 OA 
HETATM   14  C   UNL     1     -11.706   7.157  73.116  1.00  0.00     0.302 C  
HETATM   15  O   UNL     1      -8.701   6.008  71.751  1.00  0.00    -0.137 OA 
BRANCH   4  16
HETATM   16  C   UNL     1     -10.331  10.225  68.393  1.00  0.00    -0.202 C  
BRANCH  16  17
HETATM   17  C   UNL     1      -8.913  10.621  68.142  1.00  0.00    -0.141 C  
HETATM   18  C   UNL     1      -8.165  10.306  67.067  1.00  0.00    -0.122 C  
HETATM   19  C   UNL     1      -8.649   9.535  65.868  1.00  0.00    -0.144 C  
BRANCH  18  20
HETATM   20  C   UNL     1      -6.716  10.728  67.035  1.00  0.00    -0.090 C  
BRANCH  20  21
HETATM   21  C   UNL     1      -6.317  11.369  68.358  1.00  0.00    -0.046 C  
BRANCH  21  22
HETATM   22  C   UNL     1      -6.112  12.848  68.189  1.00  0.00    -0.094 C  
HETATM   23  O   UNL     1      -5.127  13.478  68.540  1.00  0.00    -0.071 OA 
BRANCH  22  24
HETATM   24  O   UNL     1      -7.267  13.395  67.723  1.00  0.00    -0.121 OA 
BRANCH  24  25
HETATM   25  C   UNL     1      -7.941  14.205  68.700  1.00  0.00    -0.132 C  
BRANCH  25  26
HETATM   26  C   UNL     1      -8.427  15.462  67.958  1.00  0.00    -0.146 C  
BRANCH  26  27
HETATM   27  N   UNL     1      -9.875  15.595  67.778  1.00  0.00    -0.220 NA 
HETATM   28  C   UNL     1     -10.252  16.305  66.538  1.00  0.00    -0.300 C  
HETATM   29  C   UNL     1     -10.002  15.492  65.257  1.00  0.00    -0.238 C  
HETATM   30  O   UNL     1     -10.681  14.232  65.300  1.00  0.00    -0.321 OA 
HETATM   31  C   UNL     1     -10.285  13.473  66.448  1.00  0.00    -0.291 C  
HETATM   32  C   UNL     1     -10.519  14.258  67.753  1.00  0.00    -0.245 C  
ENDBRANCH  26  27
ENDBRANCH  25  26
ENDBRANCH  24  25
ENDBRANCH  22  24
ENDBRANCH  21  22
ENDBRANCH  20  21
ENDBRANCH  18  20
ENDBRANCH  16  17
ENDBRANCH   4  16
ENDBRANCH   2   3
TORSDOF 10
ENDMDL
MODEL      241
REMARK 921   NORMALIZED FREE ENERGY PREDICTED BY IDOCK:   -3.16 KCAL/MOL
REMARK 922        TOTAL FREE ENERGY PREDICTED BY IDOCK:   -6.55 KCAL/MOL
REMARK 923 INTER-LIGAND FREE ENERGY PREDICTED BY IDOCK:   -5.96 KCAL/MOL
REMARK 924 INTRA-LIGAND FREE ENERGY PREDICTED BY IDOCK:   -0.59 KCAL/MOL
REMARK 927      BINDING AFFINITY PREDICTED BY RF-SCORE:    0.00 PKD
ROOT
HETATM    1  C   UNL     1     -10.246   6.070  67.673  1.00  0.00    -0.181 C  
HETATM    2  O   UNL     1     -10.883   5.718  68.900  1.00  0.00    -0.275 OA 
ENDROOT
BRANCH   2   3
HETATM    3  C   UNL     1     -10.090   5.688  70.029  1.00  0.00    -0.228 A  
HETATM    4  C   UNL     1      -9.991   6.776  70.955  1.00  0.00    -0.200 A  
HETATM    5  C   UNL     1      -9.220   6.573  72.123  1.00  0.00    -0.139 A  
HETATM    6  C   UNL     1      -8.776   4.281  71.473  1.00  0.00    -0.138 A  
HETATM    7  O   UNL     1      -8.950   7.553  73.029  1.00  0.00    -0.134 OA 
HETATM    8  C   UNL     1      -9.484   4.433  70.286  1.00  0.00    -0.242 A  
HETATM    9  C   UNL     1      -8.656   5.327  72.364  1.00  0.00    -0.122 A  
HETATM   10  C   UNL     1      -7.889   4.869  73.526  1.00  0.00    -0.099 C  
HETATM   11  C   UNL     1      -9.590   3.303  69.300  1.00  0.00    -0.110 C  
HETATM   12  H   UNL     1      -8.433   7.417  73.813  1.00  0.00     0.000 HD 
HETATM   13  O   UNL     1      -7.554   3.558  73.278  1.00  0.00    -0.062 OA 
HETATM   14  C   UNL     1      -8.043   3.109  72.004  1.00  0.00    -0.062 C  
HETATM   15  O   UNL     1      -7.609   5.469  74.545  1.00  0.00    -0.094 OA 
BRANCH   4  16
HETATM   16  C   UNL     1     -10.633   8.099  70.588  1.00  0.00    -0.229 C  
BRANCH  16  17
HETATM   17  C   UNL     1      -9.779   9.305  70.366  1.00  0.00    -0.293 C  
HETATM   18  C   UNL     1      -9.461   9.863  69.182  1.00  0.00    -0.201 C  
HETATM   19  C   UNL     1      -9.969   9.402  67.841  1.00  0.00    -0.220 C  
BRANCH  18  20
HETATM   20  C   UNL     1      -8.509  11.033  69.157  1.00  0.00    -0.022 C  
BRANCH  20  21
HETATM   21  C   UNL     1      -7.337  10.747  68.228  1.00  0.00    -0.086 C  
BRANCH  21  22
HETATM   22  C   UNL     1      -6.924  11.994  67.496  1.00  0.00    -0.130 C  
HETATM   23  O   UNL     1      -6.026  12.077  66.673  1.00  0.00    -0.219 OA 
BRANCH  22  24
HETATM   24  O   UNL     1      -7.612  13.047  68.014  1.00  0.00    -0.112 OA 
BRANCH  24  25
HETATM   25  C   UNL     1      -8.109  13.944  67.008  1.00  0.00     0.008 C  
BRANCH  25  26
HETATM   26  C   UNL     1      -9.440  13.349  66.517  1.00  0.00    -0.245 C  
BRANCH  26  27
HETATM   27  N   UNL     1     -10.260  14.205  65.655  1.00  0.00    -0.324 NA 
HETATM   28  C   UNL     1     -10.841  13.494  64.498  1.00  0.00    -0.410 C  
HETATM   29  C   UNL     1     -11.965  12.515  64.871  1.00  0.00    -0.412 C  
HETATM   30  O   UNL     1     -13.014  13.177  65.588  1.00  0.00    -0.435 OA 
HETATM   31  C   UNL     1     -12.508  13.817  66.766  1.00  0.00    -0.209 C  
HETATM   32  C   UNL     1     -11.375  14.805  66.429  1.00  0.00    -0.339 C  
ENDBRANCH  26  27
ENDBRANCH  25  26
ENDBRANCH  24  25
ENDBRANCH  22  24
ENDBRANCH  21  22
ENDBRANCH  20  21
ENDBRANCH  18  20
ENDBRANCH  16  17
ENDBRANCH   4  16
ENDBRANCH   2   3
TORSDOF 10
ENDMDL
MODEL      242
REMARK 921   NORMALIZED FREE ENERGY PREDICTED BY IDOCK:   -3.14 KCAL/MOL
REMARK 922        TOTAL FREE ENERGY PREDICTED BY IDOCK:   -6.52 KCAL/MOL
REMARK 923 INTER-LIGAND FREE ENERGY PREDICTED BY IDOCK:   -6.05 KCAL/MOL
REMARK 924 INTRA-LIGAND FREE ENERGY PREDICTED BY IDOCK:   -0.47 KCAL/MOL
REMARK 927      BINDING AFFINITY PREDICTED BY RF-SCORE:    0.00 PKD
ROOT
HETATM    1  C   UNL     1      -9.994   9.928  65.040  1.00  0.00    -0.165 C  
HETATM    2  O   UNL     1      -9.295   9.126  65.989  1.00  0.00    -0.200 OA 
ENDROOT
BRANCH   2   3
HETATM    3  C   UNL     1      -9.842   9.031  67.252  1.00  0.00    -0.196 A  
HETATM    4  C   UNL     1     -10.318  10.159  67.994  1.00  0.00    -0.227 A  
HETATM    5  C   UNL     1     -10.947   9.908  69.236  1.00  0.00    -0.211 A  
HETATM    6  C   UNL     1     -10.698   7.519  68.917  1.00  0.00    -0.135 A  
HETATM    7  O   UNL     1     -11.344  10.888  70.093  1.00  0.00    -0.297 OA 
HETATM    8  C   UNL     1     -10.032   7.703  67.710  1.00  0.00    -0.219 A  
HETATM    9  C   UNL     1     -11.144   8.598  69.652  1.00  0.00    -0.023 A  
HETATM   10  C   UNL     1     -11.827   8.101  70.849  1.00  0.00    -0.218 C  
HETATM   11  C   UNL     1      -9.519   6.530  66.923  1.00  0.00    -0.178 C  
HETATM   12  H   UNL     1     -11.767  10.720  70.927  1.00  0.00     0.000 HD 
HETATM   13  O   UNL     1     -11.746   6.728  70.801  1.00  0.00    -0.345 OA 
HETATM   14  C   UNL     1     -11.034   6.271  69.641  1.00  0.00    -0.374 C  
HETATM   15  O   UNL     1     -12.399   8.726  71.720  1.00  0.00    -0.309 OA 
BRANCH   4  16
HETATM   16  C   UNL     1     -10.038  11.549  67.457  1.00  0.00    -0.203 C  
BRANCH  16  17
HETATM   17  C   UNL     1      -8.855  12.315  67.954  1.00  0.00    -0.178 C  
HETATM   18  C   UNL     1      -8.869  13.517  68.561  1.00  0.00    -0.086 C  
HETATM   19  C   UNL     1     -10.107  14.298  68.912  1.00  0.00    -0.179 C  
BRANCH  18  20
HETATM   20  C   UNL     1      -7.556  14.173  68.914  1.00  0.00    -0.098 C  
BRANCH  20  21
HETATM   21  C   UNL     1      -7.692  15.690  68.883  1.00  0.00    -0.181 C  
BRANCH  21  22
HETATM   22  C   UNL     1      -7.176  16.242  67.584  1.00  0.00    -0.140 C  
HETATM   23  O   UNL     1      -6.193  16.954  67.449  1.00  0.00    -0.130 OA 
BRANCH  22  24
HETATM   24  O   UNL     1      -8.071  15.947  66.603  1.00  0.00    -0.247 OA 
BRANCH  24  25
HETATM   25  C   UNL     1      -8.903  17.063  66.246  1.00  0.00    -0.254 C  
BRANCH  25  26
HETATM   26  C   UNL     1     -10.306  16.489  65.980  1.00  0.00    -0.345 C  
BRANCH  26  27
HETATM   27  N   UNL     1     -10.461  15.674  64.772  1.00  0.00    -0.425 NA 
HETATM   28  C   UNL     1     -10.435  14.220  65.033  1.00  0.00    -0.435 C  
HETATM   29  C   UNL     1     -11.692  13.695  65.745  1.00  0.00    -0.348 C  
HETATM   30  O   UNL     1     -12.879  14.017  65.011  1.00  0.00    -0.695 OA 
HETATM   31  C   UNL     1     -12.987  15.430  64.802  1.00  0.00     0.950 C  
HETATM   32  C   UNL     1     -11.741  15.993  64.092  1.00  0.00     0.043 C  
ENDBRANCH  26  27
ENDBRANCH  25  26
ENDBRANCH  24  25
ENDBRANCH  22  24
ENDBRANCH  21  22
ENDBRANCH  20  21
ENDBRANCH  18  20
ENDBRANCH  16  17
ENDBRANCH   4  16
ENDBRANCH   2   3
TORSDOF 10
ENDMDL
MODEL      243
REMARK 921   NORMALIZED FREE ENERGY PREDICTED BY IDOCK:   -3.11 KCAL/MOL
REMARK 922        TOTAL FREE ENERGY PREDICTED BY IDOCK:   -6.47 KCAL/MOL
REMARK 923 INTER-LIGAND FREE ENERGY PREDICTED BY IDOCK:   -5.71 KCAL/MOL
REMARK 924 INTRA-LIGAND FREE ENERGY PREDICTED BY IDOCK:   -0.76 KCAL/MOL
REMARK 927      BINDING AFFINITY PREDICTED BY RF-SCORE:    0.00 PKD
ROOT
HETATM    1  C   UNL     1      -7.036  12.196  69.210  1.00  0.00     0.041 C  
HETATM    2  O   UNL     1      -7.113  12.259  67.787  1.00  0.00    -0.093 OA 
ENDROOT
BRANCH   2   3
HETATM    3  C   UNL     1      -7.759  13.350  67.243  1.00  0.00    -0.079 A  
HETATM    4  C   UNL     1      -9.079  13.293  66.692  1.00  0.00    -0.181 A  
HETATM    5  C   UNL     1      -9.661  14.507  66.259  1.00  0.00    -0.309 A  
HETATM    6  C   UNL     1      -7.711  15.743  66.995  1.00  0.00    -0.267 A  
HETATM    7  O   UNL     1     -10.859  14.584  65.617  1.00  0.00    -0.301 OA 
HETATM    8  C   UNL     1      -7.068  14.577  67.399  1.00  0.00    -0.138 A  
HETATM    9  C   UNL     1      -8.975  15.700  66.444  1.00  0.00    -0.362 A  
HETATM   10  C   UNL     1      -9.403  17.069  66.145  1.00  0.00    -0.214 C  
HETATM   11  C   UNL     1      -5.679  14.619  67.971  1.00  0.00    -0.145 C  
HETATM   12  H   UNL     1     -11.250  15.399  65.326  1.00  0.00     0.000 HD 
HETATM   13  O   UNL     1      -8.362  17.891  66.509  1.00  0.00    -0.248 OA 
HETATM   14  C   UNL     1      -7.247  17.149  67.028  1.00  0.00    -0.184 C  
HETATM   15  O   UNL     1     -10.465  17.461  65.702  1.00  0.00    -0.577 OA 
BRANCH   4  16
HETATM   16  C   UNL     1      -9.734  11.936  66.520  1.00  0.00    -0.226 C  
BRANCH  16  17
HETATM   17  C   UNL     1      -9.220  10.987  65.488  1.00  0.00    -0.235 C  
HETATM   18  C   UNL     1      -9.539  10.966  64.180  1.00  0.00    -0.321 C  
HETATM   19  C   UNL     1     -10.444  11.953  63.491  1.00  0.00    -0.505 C  
BRANCH  18  20
HETATM   20  C   UNL     1      -8.979   9.869  63.308  1.00  0.00    -0.276 C  
BRANCH  20  21
HETATM   21  C   UNL     1      -7.760  10.366  62.541  1.00  0.00    -0.167 C  
BRANCH  21  22
HETATM   22  C   UNL     1      -6.493   9.975  63.249  1.00  0.00    -0.134 C  
HETATM   23  O   UNL     1      -5.417  10.545  63.157  1.00  0.00    -0.139 OA 
BRANCH  22  24
HETATM   24  O   UNL     1      -6.701   8.792  63.886  1.00  0.00    -0.086 OA 
BRANCH  24  25
HETATM   25  C   UNL     1      -5.828   8.598  65.011  1.00  0.00    -0.048 C  
BRANCH  25  26
HETATM   26  C   UNL     1      -6.739   8.390  66.235  1.00  0.00    -0.065 C  
BRANCH  26  27
HETATM   27  N   UNL     1      -6.513   7.172  67.017  1.00  0.00    -0.055 NA 
HETATM   28  C   UNL     1      -7.757   6.561  67.530  1.00  0.00    -0.106 C  
HETATM   29  C   UNL     1      -8.618   5.899  66.442  1.00  0.00    -0.127 C  
HETATM   30  O   UNL     1      -7.874   4.910  65.721  1.00  0.00    -0.093 OA 
HETATM   31  C   UNL     1      -6.695   5.477  65.137  1.00  0.00    -0.044 C  
HETATM   32  C   UNL     1      -5.808   6.153  66.200  1.00  0.00    -0.024 C  
ENDBRANCH  26  27
ENDBRANCH  25  26
ENDBRANCH  24  25
ENDBRANCH  22  24
ENDBRANCH  21  22
ENDBRANCH  20  21
ENDBRANCH  18  20
ENDBRANCH  16  17
ENDBRANCH   4  16
ENDBRANCH   2   3
TORSDOF 10
ENDMDL
MODEL      244
REMARK 921   NORMALIZED FREE ENERGY PREDICTED BY IDOCK:   -3.10 KCAL/MOL
REMARK 922        TOTAL FREE ENERGY PREDICTED BY IDOCK:   -6.46 KCAL/MOL
REMARK 923 INTER-LIGAND FREE ENERGY PREDICTED BY IDOCK:   -5.29 KCAL/MOL
REMARK 924 INTRA-LIGAND FREE ENERGY PREDICTED BY IDOCK:   -1.17 KCAL/MOL
REMARK 927      BINDING AFFINITY PREDICTED BY RF-SCORE:    0.00 PKD
ROOT
HETATM    1  C   UNL     1      -8.518   8.996  63.887  1.00  0.00    -0.160 C  
HETATM    2  O   UNL     1      -9.619   9.338  64.726  1.00  0.00    -0.060 OA 
ENDROOT
BRANCH   2   3
HETATM    3  C   UNL     1      -9.535  10.534  65.411  1.00  0.00    -0.223 A  
HETATM    4  C   UNL     1      -8.793  10.700  66.623  1.00  0.00    -0.149 A  
HETATM    5  C   UNL     1      -8.709  12.004  67.166  1.00  0.00    -0.183 A  
HETATM    6  C   UNL     1      -9.975  12.897  65.303  1.00  0.00    -0.192 A  
HETATM    7  O   UNL     1      -8.133  12.286  68.367  1.00  0.00    -0.157 OA 
HETATM    8  C   UNL     1     -10.129  11.634  64.743  1.00  0.00    -0.304 A  
HETATM    9  C   UNL     1      -9.278  13.069  66.482  1.00  0.00    -0.187 A  
HETATM   10  C   UNL     1      -9.256  14.497  66.810  1.00  0.00    -0.267 C  
HETATM   11  C   UNL     1     -10.914  11.441  63.476  1.00  0.00    -0.406 C  
HETATM   12  H   UNL     1      -8.076  13.161  68.732  1.00  0.00     0.000 HD 
HETATM   13  O   UNL     1      -9.966  15.135  65.819  1.00  0.00    -0.297 OA 
HETATM   14  C   UNL     1     -10.478  14.213  64.845  1.00  0.00    -0.438 C  
HETATM   15  O   UNL     1      -8.705  15.063  67.734  1.00  0.00    -0.157 OA 
BRANCH   4  16
HETATM   16  C   UNL     1      -8.223   9.468  67.298  1.00  0.00    -0.114 C  
BRANCH  16  17
HETATM   17  C   UNL     1      -8.841   8.958  68.559  1.00  0.00    -0.134 C  
HETATM   18  C   UNL     1      -8.213   8.320  69.565  1.00  0.00    -0.119 C  
HETATM   19  C   UNL     1      -6.732   8.052  69.633  1.00  0.00    -0.038 C  
BRANCH  18  20
HETATM   20  C   UNL     1      -9.028   7.800  70.724  1.00  0.00    -0.148 C  
BRANCH  20  21
HETATM   21  C   UNL     1     -10.402   7.347  70.250  1.00  0.00    -0.217 C  
BRANCH  21  22
HETATM   22  C   UNL     1     -10.467   5.848  70.168  1.00  0.00    -0.262 C  
HETATM   23  O   UNL     1      -9.838   5.065  70.863  1.00  0.00    -0.179 OA 
BRANCH  22  24
HETATM   24  O   UNL     1     -11.223   5.506  69.091  1.00  0.00    -0.026 OA 
BRANCH  24  25
HETATM   25  C   UNL     1     -10.787   6.133  67.874  1.00  0.00    -0.319 C  
BRANCH  25  26
HETATM   26  C   UNL     1      -9.678   5.235  67.297  1.00  0.00    -0.149 C  
BRANCH  26  27
HETATM   27  N   UNL     1      -9.321   5.458  65.893  1.00  0.00    -0.159 NA 
HETATM   28  C   UNL     1      -7.920   5.111  65.578  1.00  0.00    -0.109 C  
HETATM   29  C   UNL     1      -7.639   3.600  65.580  1.00  0.00    -0.078 C  
HETATM   30  O   UNL     1      -8.506   2.909  64.675  1.00  0.00    -0.090 OA 
HETATM   31  C   UNL     1      -9.882   3.153  64.992  1.00  0.00     0.017 C  
HETATM   32  C   UNL     1     -10.200   4.660  65.002  1.00  0.00     0.019 C  
ENDBRANCH  26  27
ENDBRANCH  25  26
ENDBRANCH  24  25
ENDBRANCH  22  24
ENDBRANCH  21  22
ENDBRANCH  20  21
ENDBRANCH  18  20
ENDBRANCH  16  17
ENDBRANCH   4  16
ENDBRANCH   2   3
TORSDOF 10
ENDMDL
MODEL      245
REMARK 921   NORMALIZED FREE ENERGY PREDICTED BY IDOCK:   -3.09 KCAL/MOL
REMARK 922        TOTAL FREE ENERGY PREDICTED BY IDOCK:   -6.45 KCAL/MOL
REMARK 923 INTER-LIGAND FREE ENERGY PREDICTED BY IDOCK:   -5.33 KCAL/MOL
REMARK 924 INTRA-LIGAND FREE ENERGY PREDICTED BY IDOCK:   -1.11 KCAL/MOL
REMARK 927      BINDING AFFINITY PREDICTED BY RF-SCORE:    0.00 PKD
ROOT
HETATM    1  C   UNL     1      -5.713  13.817  68.025  1.00  0.00    -0.132 C  
HETATM    2  O   UNL     1      -6.764  13.846  67.061  1.00  0.00    -0.021 OA 
ENDROOT
BRANCH   2   3
HETATM    3  C   UNL     1      -8.056  13.877  67.546  1.00  0.00    -0.182 A  
HETATM    4  C   UNL     1      -8.703  12.749  68.143  1.00  0.00    -0.193 A  
HETATM    5  C   UNL     1      -9.993  12.947  68.689  1.00  0.00    -0.092 A  
HETATM    6  C   UNL     1      -9.904  15.304  68.128  1.00  0.00    -0.217 A  
HETATM    7  O   UNL     1     -10.766  11.942  69.185  1.00  0.00    -0.347 OA 
HETATM    8  C   UNL     1      -8.653  15.162  67.537  1.00  0.00    -0.193 A  
HETATM    9  C   UNL     1     -10.548  14.220  68.690  1.00  0.00    -0.254 A  
HETATM   10  C   UNL     1     -11.821  14.673  69.257  1.00  0.00    -0.321 C  
HETATM   11  C   UNL     1      -7.964  16.334  66.898  1.00  0.00    -0.278 C  
HETATM   12  H   UNL     1     -11.632  12.075  69.551  1.00  0.00     0.000 HD 
HETATM   13  O   UNL     1     -11.907  16.020  68.992  1.00  0.00    -0.362 OA 
HETATM   14  C   UNL     1     -10.765  16.500  68.266  1.00  0.00    -0.345 C  
HETATM   15  O   UNL     1     -12.653  14.040  69.878  1.00  0.00    -0.304 OA 
BRANCH   4  16
HETATM   16  C   UNL     1      -8.016  11.399  68.075  1.00  0.00    -0.127 C  
BRANCH  16  17
HETATM   17  C   UNL     1      -7.764  10.759  66.748  1.00  0.00    -0.136 C  
HETATM   18  C   UNL     1      -8.667  10.135  65.968  1.00  0.00    -0.153 C  
HETATM   19  C   UNL     1     -10.139  10.019  66.266  1.00  0.00    -0.310 C  
BRANCH  18  20
HETATM   20  C   UNL     1      -8.200   9.472  64.696  1.00  0.00    -0.146 C  
BRANCH  20  21
HETATM   21  C   UNL     1      -8.524   7.984  64.720  1.00  0.00    -0.037 C  
BRANCH  21  22
HETATM   22  C   UNL     1      -7.515   7.235  65.545  1.00  0.00    -0.085 C  
HETATM   23  O   UNL     1      -6.417   6.859  65.164  1.00  0.00    -0.041 OA 
BRANCH  22  24
HETATM   24  O   UNL     1      -8.086   6.909  66.735  1.00  0.00    -0.106 OA 
BRANCH  24  25
HETATM   25  C   UNL     1      -9.263   6.099  66.592  1.00  0.00    -0.144 C  
BRANCH  25  26
HETATM   26  C   UNL     1      -8.796   4.636  66.689  1.00  0.00    -0.111 C  
BRANCH  26  27
HETATM   27  N   UNL     1      -9.515   3.664  65.860  1.00  0.00    -0.172 NA 
HETATM   28  C   UNL     1      -9.722   4.115  64.468  1.00  0.00    -0.165 C  
HETATM   29  C   UNL     1      -8.438   4.132  63.623  1.00  0.00    -0.101 C  
HETATM   30  O   UNL     1      -7.808   2.846  63.609  1.00  0.00    -0.070 OA 
HETATM   31  C   UNL     1      -7.515   2.402  64.939  1.00  0.00    -0.067 C  
HETATM   32  C   UNL     1      -8.781   2.375  65.817  1.00  0.00    -0.121 C  
ENDBRANCH  26  27
ENDBRANCH  25  26
ENDBRANCH  24  25
ENDBRANCH  22  24
ENDBRANCH  21  22
ENDBRANCH  20  21
ENDBRANCH  18  20
ENDBRANCH  16  17
ENDBRANCH   4  16
ENDBRANCH   2   3
TORSDOF 10
ENDMDL
MODEL      246
REMARK 921   NORMALIZED FREE ENERGY PREDICTED BY IDOCK:   -3.09 KCAL/MOL
REMARK 922        TOTAL FREE ENERGY PREDICTED BY IDOCK:   -6.44 KCAL/MOL
REMARK 923 INTER-LIGAND FREE ENERGY PREDICTED BY IDOCK:   -5.48 KCAL/MOL
REMARK 924 INTRA-LIGAND FREE ENERGY PREDICTED BY IDOCK:   -0.96 KCAL/MOL
REMARK 927      BINDING AFFINITY PREDICTED BY RF-SCORE:    0.00 PKD
ROOT
HETATM    1  C   UNL     1     -11.419  14.763  66.122  1.00  0.00    -0.311 C  
HETATM    2  O   UNL     1     -10.700  14.672  67.350  1.00  0.00    -0.272 OA 
ENDROOT
BRANCH   2   3
HETATM    3  C   UNL     1     -11.295  13.960  68.372  1.00  0.00    -0.285 A  
HETATM    4  C   UNL     1     -11.257  12.532  68.468  1.00  0.00    -0.322 A  
HETATM    5  C   UNL     1     -11.821  11.938  69.620  1.00  0.00    -0.337 A  
HETATM    6  C   UNL     1     -12.333  14.122  70.537  1.00  0.00    -0.434 A  
HETATM    7  O   UNL     1     -11.954  10.593  69.789  1.00  0.00    -0.304 OA 
HETATM    8  C   UNL     1     -11.832  14.763  69.409  1.00  0.00    -0.360 A  
HETATM    9  C   UNL     1     -12.320  12.746  70.633  1.00  0.00    -0.381 A  
HETATM   10  C   UNL     1     -12.879  12.361  71.932  1.00  0.00    -0.210 C  
HETATM   11  C   UNL     1     -11.873  16.261  69.289  1.00  0.00    -0.051 C  
HETATM   12  H   UNL     1     -12.333  10.194  70.562  1.00  0.00     0.000 HD 
HETATM   13  O   UNL     1     -13.231  13.530  72.566  1.00  0.00    -0.486 OA 
HETATM   14  C   UNL     1     -12.951  14.685  71.759  1.00  0.00    -0.335 C  
HETATM   15  O   UNL     1     -12.996  11.253  72.419  1.00  0.00    -0.105 OA 
BRANCH   4  16
HETATM   16  C   UNL     1     -10.704  11.743  67.298  1.00  0.00    -0.279 C  
BRANCH  16  17
HETATM   17  C   UNL     1      -9.237  11.472  67.209  1.00  0.00    -0.168 C  
HETATM   18  C   UNL     1      -8.491  10.771  68.084  1.00  0.00    -0.125 C  
HETATM   19  C   UNL     1      -9.019  10.066  69.306  1.00  0.00    -0.186 C  
BRANCH  18  20
HETATM   20  C   UNL     1      -7.001  10.680  67.867  1.00  0.00    -0.077 C  
BRANCH  20  21
HETATM   21  C   UNL     1      -6.251  11.272  69.053  1.00  0.00    -0.056 C  
BRANCH  21  22
HETATM   22  C   UNL     1      -6.415  12.765  69.091  1.00  0.00    -0.109 C  
HETATM   23  O   UNL     1      -7.169  13.384  69.826  1.00  0.00     0.284 OA 
BRANCH  22  24
HETATM   24  O   UNL     1      -5.700  13.306  68.068  1.00  0.00    -0.095 OA 
BRANCH  24  25
HETATM   25  C   UNL     1      -6.392  14.374  67.401  1.00  0.00     0.164 C  
BRANCH  25  26
HETATM   26  C   UNL     1      -5.572  15.650  67.662  1.00  0.00    -0.097 C  
BRANCH  26  27
HETATM   27  N   UNL     1      -6.217  16.921  67.322  1.00  0.00    -0.148 NA 
HETATM   28  C   UNL     1      -7.633  16.995  67.738  1.00  0.00    -0.170 C  
HETATM   29  C   UNL     1      -7.828  17.115  69.258  1.00  0.00     0.054 C  
HETATM   30  O   UNL     1      -7.127  18.247  69.784  1.00  0.00     0.099 OA 
HETATM   31  C   UNL     1      -5.730  18.178  69.472  1.00  0.00    -0.230 C  
HETATM   32  C   UNL     1      -5.496  18.054  67.955  1.00  0.00    -0.151 C  
ENDBRANCH  26  27
ENDBRANCH  25  26
ENDBRANCH  24  25
ENDBRANCH  22  24
ENDBRANCH  21  22
ENDBRANCH  20  21
ENDBRANCH  18  20
ENDBRANCH  16  17
ENDBRANCH   4  16
ENDBRANCH   2   3
TORSDOF 10
ENDMDL
MODEL      247
REMARK 921   NORMALIZED FREE ENERGY PREDICTED BY IDOCK:   -3.08 KCAL/MOL
REMARK 922        TOTAL FREE ENERGY PREDICTED BY IDOCK:   -6.42 KCAL/MOL
REMARK 923 INTER-LIGAND FREE ENERGY PREDICTED BY IDOCK:   -6.45 KCAL/MOL
REMARK 924 INTRA-LIGAND FREE ENERGY PREDICTED BY IDOCK:    0.02 KCAL/MOL
REMARK 927      BINDING AFFINITY PREDICTED BY RF-SCORE:    0.00 PKD
ROOT
HETATM    1  C   UNL     1      -7.957   8.649  71.176  1.00  0.00    -0.138 C  
HETATM    2  O   UNL     1      -7.753   8.741  69.767  1.00  0.00    -0.079 OA 
ENDROOT
BRANCH   2   3
HETATM    3  C   UNL     1      -8.306   7.744  68.989  1.00  0.00    -0.131 A  
HETATM    4  C   UNL     1      -9.377   7.965  68.066  1.00  0.00    -0.152 A  
HETATM    5  C   UNL     1      -9.781   6.877  67.258  1.00  0.00    -0.146 A  
HETATM    6  C   UNL     1      -8.046   5.480  68.216  1.00  0.00    -0.096 A  
HETATM    7  O   UNL     1     -10.854   6.914  66.421  1.00  0.00    -0.446 OA 
HETATM    8  C   UNL     1      -7.633   6.499  69.067  1.00  0.00    -0.100 A  
HETATM    9  C   UNL     1      -9.091   5.674  67.335  1.00  0.00    -0.110 A  
HETATM   10  C   UNL     1      -9.280   4.448  66.555  1.00  0.00    -0.142 C  
HETATM   11  C   UNL     1      -6.516   6.281  70.048  1.00  0.00    -0.043 C  
HETATM   12  H   UNL     1     -11.125   6.183  65.879  1.00  0.00     0.000 HD 
HETATM   13  O   UNL     1      -8.349   3.546  67.015  1.00  0.00    -0.093 OA 
HETATM   14  C   UNL     1      -7.548   4.093  68.074  1.00  0.00    -0.068 C  
HETATM   15  O   UNL     1     -10.059   4.229  65.648  1.00  0.00    -0.220 OA 
BRANCH   4  16
HETATM   16  C   UNL     1     -10.073   9.312  68.073  1.00  0.00    -0.234 C  
BRANCH  16  17
HETATM   17  C   UNL     1      -9.333  10.530  68.522  1.00  0.00    -0.168 C  
HETATM   18  C   UNL     1      -8.438  11.240  67.809  1.00  0.00    -0.126 C  
HETATM   19  C   UNL     1      -8.056  10.968  66.378  1.00  0.00    -0.166 C  
BRANCH  18  20
HETATM   20  C   UNL     1      -7.727  12.395  68.470  1.00  0.00    -0.120 C  
BRANCH  20  21
HETATM   21  C   UNL     1      -7.863  13.657  67.628  1.00  0.00    -0.178 C  
BRANCH  21  22
HETATM   22  C   UNL     1      -8.397  14.792  68.457  1.00  0.00    -0.160 C  
HETATM   23  O   UNL     1      -7.947  15.170  69.527  1.00  0.00    -0.215 OA 
BRANCH  22  24
HETATM   24  O   UNL     1      -9.556  15.230  67.895  1.00  0.00    -0.198 OA 
BRANCH  24  25
HETATM   25  C   UNL     1     -10.717  14.551  68.400  1.00  0.00    -0.243 C  
BRANCH  25  26
HETATM   26  C   UNL     1     -11.584  14.208  67.176  1.00  0.00    -0.377 C  
BRANCH  26  27
HETATM   27  N   UNL     1     -10.886  13.638  66.020  1.00  0.00    -0.275 NA 
HETATM   28  C   UNL     1     -11.496  12.389  65.519  1.00  0.00    -0.361 C  
HETATM   29  C   UNL     1     -12.843  12.598  64.809  1.00  0.00    -0.265 C  
HETATM   30  O   UNL     1     -12.722  13.527  63.725  1.00  0.00    -0.682 OA 
HETATM   31  C   UNL     1     -12.206  14.783  64.180  1.00  0.00    -0.295 C  
HETATM   32  C   UNL     1     -10.855  14.613  64.900  1.00  0.00    -0.419 C  
ENDBRANCH  26  27
ENDBRANCH  25  26
ENDBRANCH  24  25
ENDBRANCH  22  24
ENDBRANCH  21  22
ENDBRANCH  20  21
ENDBRANCH  18  20
ENDBRANCH  16  17
ENDBRANCH   4  16
ENDBRANCH   2   3
TORSDOF 10
ENDMDL
MODEL      248
REMARK 921   NORMALIZED FREE ENERGY PREDICTED BY IDOCK:   -2.98 KCAL/MOL
REMARK 922        TOTAL FREE ENERGY PREDICTED BY IDOCK:   -6.26 KCAL/MOL
REMARK 923 INTER-LIGAND FREE ENERGY PREDICTED BY IDOCK:   -5.31 KCAL/MOL
REMARK 924 INTRA-LIGAND FREE ENERGY PREDICTED BY IDOCK:   -0.94 KCAL/MOL
REMARK 927      BINDING AFFINITY PREDICTED BY RF-SCORE:    0.00 PKD
ROOT
HETATM    1  C   UNL     1     -10.763   8.634  70.966  1.00  0.00    -0.228 C  
HETATM    2  O   UNL     1      -9.709   8.075  71.748  1.00  0.00    -0.158 OA 
ENDROOT
BRANCH   2   3
HETATM    3  C   UNL     1      -9.192   6.867  71.328  1.00  0.00    -0.157 A  
HETATM    4  C   UNL     1      -8.280   6.735  70.232  1.00  0.00    -0.125 A  
HETATM    5  C   UNL     1      -7.750   5.450  69.972  1.00  0.00    -0.077 A  
HETATM    6  C   UNL     1      -8.934   4.539  71.880  1.00  0.00    -0.148 A  
HETATM    7  O   UNL     1      -6.964   5.160  68.899  1.00  0.00    -0.050 OA 
HETATM    8  C   UNL     1      -9.522   5.767  72.159  1.00  0.00    -0.164 A  
HETATM    9  C   UNL     1      -8.069   4.393  70.815  1.00  0.00    -0.071 A  
HETATM   10  C   UNL     1      -7.589   3.009  70.785  1.00  0.00    -0.040 C  
HETATM   11  C   UNL     1     -10.488   5.920  73.300  1.00  0.00    -0.255 C  
HETATM   12  H   UNL     1      -6.607   4.298  68.724  1.00  0.00     0.000 HD 
HETATM   13  O   UNL     1      -8.206   2.361  71.830  1.00  0.00    -0.055 OA 
HETATM   14  C   UNL     1      -9.088   3.230  72.557  1.00  0.00    -0.092 C  
HETATM   15  O   UNL     1      -6.781   2.494  70.037  1.00  0.00    -0.032 OA 
BRANCH   4  16
HETATM   16  C   UNL     1      -8.011   7.949  69.365  1.00  0.00    -0.117 C  
BRANCH  16  17
HETATM   17  C   UNL     1      -8.070   7.829  67.877  1.00  0.00    -0.126 C  
HETATM   18  C   UNL     1      -9.171   7.640  67.125  1.00  0.00    -0.158 C  
HETATM   19  C   UNL     1     -10.581   7.575  67.652  1.00  0.00    -0.303 C  
BRANCH  18  20
HETATM   20  C   UNL     1      -9.018   7.456  65.635  1.00  0.00     0.002 C  
BRANCH  20  21
HETATM   21  C   UNL     1      -7.818   8.240  65.121  1.00  0.00    -0.120 C  
BRANCH  21  22
HETATM   22  C   UNL     1      -8.263   9.500  64.435  1.00  0.00    -0.148 C  
HETATM   23  O   UNL     1      -8.509   9.618  63.244  1.00  0.00    -0.160 OA 
BRANCH  22  24
HETATM   24  O   UNL     1      -8.197  10.525  65.326  1.00  0.00    -0.161 OA 
BRANCH  24  25
HETATM   25  C   UNL     1      -9.343  11.390  65.275  1.00  0.00    -0.171 C  
BRANCH  25  26
HETATM   26  C   UNL     1      -9.794  11.598  66.732  1.00  0.00    -0.200 C  
BRANCH  26  27
HETATM   27  N   UNL     1     -11.236  11.538  66.984  1.00  0.00    -0.320 NA 
HETATM   28  C   UNL     1     -11.578  11.357  68.410  1.00  0.00    -0.315 C  
HETATM   29  C   UNL     1     -11.313  12.600  69.275  1.00  0.00    -0.245 C  
HETATM   30  O   UNL     1     -12.010  13.744  68.768  1.00  0.00    -0.346 OA 
HETATM   31  C   UNL     1     -11.648  14.006  67.407  1.00  0.00    -0.368 C  
HETATM   32  C   UNL     1     -11.898  12.779  66.510  1.00  0.00    -0.405 C  
ENDBRANCH  26  27
ENDBRANCH  25  26
ENDBRANCH  24  25
ENDBRANCH  22  24
ENDBRANCH  21  22
ENDBRANCH  20  21
ENDBRANCH  18  20
ENDBRANCH  16  17
ENDBRANCH   4  16
ENDBRANCH   2   3
TORSDOF 10
ENDMDL
MODEL      249
REMARK 921   NORMALIZED FREE ENERGY PREDICTED BY IDOCK:   -2.90 KCAL/MOL
REMARK 922        TOTAL FREE ENERGY PREDICTED BY IDOCK:   -6.14 KCAL/MOL
REMARK 923 INTER-LIGAND FREE ENERGY PREDICTED BY IDOCK:   -7.46 KCAL/MOL
REMARK 924 INTRA-LIGAND FREE ENERGY PREDICTED BY IDOCK:    1.32 KCAL/MOL
REMARK 927      BINDING AFFINITY PREDICTED BY RF-SCORE:    0.00 PKD
ROOT
HETATM    1  C   UNL     1      -9.965  12.267  67.083  1.00  0.00    -0.205 C  
HETATM    2  O   UNL     1     -10.077  11.749  68.407  1.00  0.00    -0.192 OA 
ENDROOT
BRANCH   2   3
HETATM    3  C   UNL     1     -11.044  12.308  69.218  1.00  0.00    -0.158 A  
HETATM    4  C   UNL     1     -11.754  11.576  70.222  1.00  0.00    -0.379 A  
HETATM    5  C   UNL     1     -12.647  12.296  71.049  1.00  0.00    -0.257 A  
HETATM    6  C   UNL     1     -12.045  14.371  69.950  1.00  0.00    -0.398 A  
HETATM    7  O   UNL     1     -13.467  11.711  71.966  1.00  0.00    -0.427 OA 
HETATM    8  C   UNL     1     -11.185  13.712  69.078  1.00  0.00    -0.316 A  
HETATM    9  C   UNL     1     -12.750  13.674  70.910  1.00  0.00    -0.382 A  
HETATM   10  C   UNL     1     -13.544  14.626  71.693  1.00  0.00    -0.393 C  
HETATM   11  C   UNL     1     -10.439  14.465  68.013  1.00  0.00    -0.237 C  
HETATM   12  H   UNL     1     -14.066  12.194  72.521  1.00  0.00     0.000 HD 
HETATM   13  O   UNL     1     -13.301  15.868  71.155  1.00  0.00    -0.516 OA 
HETATM   14  C   UNL     1     -12.395  15.806  70.043  1.00  0.00    -0.219 C  
HETATM   15  O   UNL     1     -14.257  14.420  72.655  1.00  0.00    -0.531 OA 
BRANCH   4  16
HETATM   16  C   UNL     1     -11.581  10.071  70.279  1.00  0.00    -0.354 C  
BRANCH  16  17
HETATM   17  C   UNL     1     -10.934   9.353  69.140  1.00  0.00    -0.114 C  
HETATM   18  C   UNL     1      -9.910   8.481  69.212  1.00  0.00    -0.185 C  
HETATM   19  C   UNL     1      -9.255   8.015  70.486  1.00  0.00    -0.154 C  
BRANCH  18  20
HETATM   20  C   UNL     1      -9.334   7.921  67.935  1.00  0.00    -0.150 C  
BRANCH  20  21
HETATM   21  C   UNL     1     -10.442   7.382  67.040  1.00  0.00    -0.404 C  
BRANCH  21  22
HETATM   22  C   UNL     1     -10.743   5.948  67.375  1.00  0.00    -0.287 C  
HETATM   23  O   UNL     1     -10.863   5.485  68.498  1.00  0.00    -0.166 OA 
BRANCH  22  24
HETATM   24  O   UNL     1     -10.704   5.219  66.227  1.00  0.00    -0.294 OA 
BRANCH  24  25
HETATM   25  C   UNL     1      -9.937   4.011  66.352  1.00  0.00    -0.091 C  
BRANCH  25  26
HETATM   26  C   UNL     1      -9.486   3.635  64.930  1.00  0.00    -0.161 C  
BRANCH  26  27
HETATM   27  N   UNL     1      -8.056   3.776  64.639  1.00  0.00    -0.089 NA 
HETATM   28  C   UNL     1      -7.728   3.629  63.206  1.00  0.00    -0.067 C  
HETATM   29  C   UNL     1      -8.188   4.812  62.339  1.00  0.00    -0.083 C  
HETATM   30  O   UNL     1      -7.647   6.048  62.818  1.00  0.00    -0.064 OA 
HETATM   31  C   UNL     1      -8.007   6.272  64.186  1.00  0.00    -0.103 C  
HETATM   32  C   UNL     1      -7.564   5.103  65.086  1.00  0.00    -0.082 C  
ENDBRANCH  26  27
ENDBRANCH  25  26
ENDBRANCH  24  25
ENDBRANCH  22  24
ENDBRANCH  21  22
ENDBRANCH  20  21
ENDBRANCH  18  20
ENDBRANCH  16  17
ENDBRANCH   4  16
ENDBRANCH   2   3
TORSDOF 10
ENDMDL
MODEL      250
REMARK 921   NORMALIZED FREE ENERGY PREDICTED BY IDOCK:   -2.90 KCAL/MOL
REMARK 922        TOTAL FREE ENERGY PREDICTED BY IDOCK:   -6.14 KCAL/MOL
REMARK 923 INTER-LIGAND FREE ENERGY PREDICTED BY IDOCK:   -6.26 KCAL/MOL
REMARK 924 INTRA-LIGAND FREE ENERGY PREDICTED BY IDOCK:    0.12 KCAL/MOL
REMARK 927      BINDING AFFINITY PREDICTED BY RF-SCORE:    0.00 PKD
ROOT
HETATM    1  C   UNL     1      -7.914   9.769  67.885  1.00  0.00    -0.104 C  
HETATM    2  O   UNL     1      -9.112   9.128  67.451  1.00  0.00    -0.126 OA 
ENDROOT
BRANCH   2   3
HETATM    3  C   UNL     1      -9.051   7.765  67.242  1.00  0.00    -0.131 A  
HETATM    4  C   UNL     1      -9.512   6.798  68.190  1.00  0.00    -0.120 A  
HETATM    5  C   UNL     1      -9.483   5.437  67.806  1.00  0.00    -0.120 A  
HETATM    6  C   UNL     1      -8.659   6.042  65.608  1.00  0.00    -0.154 A  
HETATM    7  O   UNL     1      -9.785   4.408  68.644  1.00  0.00    -0.158 OA 
HETATM    8  C   UNL     1      -8.623   7.391  65.943  1.00  0.00    -0.165 A  
HETATM    9  C   UNL     1      -9.083   5.097  66.520  1.00  0.00    -0.127 A  
HETATM   10  C   UNL     1      -9.041   3.778  65.883  1.00  0.00    -0.150 C  
HETATM   11  C   UNL     1      -8.132   8.418  64.961  1.00  0.00    -0.147 C  
HETATM   12  H   UNL     1      -9.766   3.495  68.386  1.00  0.00     0.000 HD 
HETATM   13  O   UNL     1      -8.568   3.977  64.607  1.00  0.00    -0.111 OA 
HETATM   14  C   UNL     1      -8.275   5.359  64.351  1.00  0.00    -0.133 C  
HETATM   15  O   UNL     1      -9.380   2.700  66.330  1.00  0.00    -0.097 OA 
BRANCH   4  16
HETATM   16  C   UNL     1      -9.914   7.274  69.572  1.00  0.00    -0.170 C  
BRANCH  16  17
HETATM   17  C   UNL     1     -10.677   8.549  69.728  1.00  0.00    -0.213 C  
HETATM   18  C   UNL     1     -11.037   9.138  70.884  1.00  0.00    -0.356 C  
HETATM   19  C   UNL     1     -10.675   8.644  72.260  1.00  0.00    -0.383 C  
BRANCH  18  20
HETATM   20  C   UNL     1     -11.886  10.385  70.837  1.00  0.00    -0.475 C  
BRANCH  20  21
HETATM   21  C   UNL     1     -11.984  10.910  69.410  1.00  0.00    -0.393 C  
BRANCH  21  22
HETATM   22  C   UNL     1     -11.130  12.134  69.235  1.00  0.00    -0.167 C  
HETATM   23  O   UNL     1      -9.987  12.154  68.806  1.00  0.00    -0.165 OA 
BRANCH  22  24
HETATM   24  O   UNL     1     -11.781  13.197  69.779  1.00  0.00    -0.299 OA 
BRANCH  24  25
HETATM   25  C   UNL     1     -12.448  14.009  68.799  1.00  0.00     0.185 C  
BRANCH  25  26
HETATM   26  C   UNL     1     -11.617  13.900  67.508  1.00  0.00    -0.360 C  
BRANCH  26  27
HETATM   27  N   UNL     1     -12.365  13.679  66.267  1.00  0.00    -0.430 NA 
HETATM   28  C   UNL     1     -11.873  14.484  65.131  1.00  0.00    -0.374 C  
HETATM   29  C   UNL     1     -10.512  14.022  64.585  1.00  0.00    -0.373 C  
HETATM   30  O   UNL     1     -10.547  12.643  64.201  1.00  0.00    -0.355 OA 
HETATM   31  C   UNL     1     -10.944  11.813  65.299  1.00  0.00    -0.295 C  
HETATM   32  C   UNL     1     -12.305  12.249  65.873  1.00  0.00     0.208 C  
ENDBRANCH  26  27
ENDBRANCH  25  26
ENDBRANCH  24  25
ENDBRANCH  22  24
ENDBRANCH  21  22
ENDBRANCH  20  21
ENDBRANCH  18  20
ENDBRANCH  16  17
ENDBRANCH   4  16
ENDBRANCH   2   3
TORSDOF 10
ENDMDL
MODEL      251
REMARK 921   NORMALIZED FREE ENERGY PREDICTED BY IDOCK:   -2.89 KCAL/MOL
REMARK 922        TOTAL FREE ENERGY PREDICTED BY IDOCK:   -6.12 KCAL/MOL
REMARK 923 INTER-LIGAND FREE ENERGY PREDICTED BY IDOCK:   -6.07 KCAL/MOL
REMARK 924 INTRA-LIGAND FREE ENERGY PREDICTED BY IDOCK:   -0.05 KCAL/MOL
REMARK 927      BINDING AFFINITY PREDICTED BY RF-SCORE:    0.00 PKD
ROOT
HETATM    1  C   UNL     1      -8.149  12.006  67.148  1.00  0.00    -0.177 C  
HETATM    2  O   UNL     1      -9.133  11.260  66.434  1.00  0.00    -0.179 OA 
ENDROOT
BRANCH   2   3
HETATM    3  C   UNL     1      -9.565  10.082  67.010  1.00  0.00    -0.172 A  
HETATM    4  C   UNL     1     -10.539  10.024  68.057  1.00  0.00    -0.280 A  
HETATM    5  C   UNL     1     -10.965   8.746  68.486  1.00  0.00     0.148 A  
HETATM    6  C   UNL     1      -9.561   7.683  66.820  1.00  0.00    -0.269 A  
HETATM    7  O   UNL     1     -11.798   8.542  69.543  1.00  0.00     0.033 OA 
HETATM    8  C   UNL     1      -9.072   8.910  66.384  1.00  0.00    -0.217 A  
HETATM    9  C   UNL     1     -10.486   7.612  67.841  1.00  0.00    -0.270 A  
HETATM   10  C   UNL     1     -10.835   6.206  68.062  1.00  0.00    -0.313 C  
HETATM   11  C   UNL     1      -8.042   8.987  65.292  1.00  0.00    -0.126 C  
HETATM   12  H   UNL     1     -12.084   7.684  69.831  1.00  0.00     0.000 HD 
HETATM   13  O   UNL     1     -10.084   5.475  67.172  1.00  0.00    -0.151 OA 
HETATM   14  C   UNL     1      -9.236   6.311  66.369  1.00  0.00    -0.156 C  
HETATM   15  O   UNL     1     -11.645   5.729  68.833  1.00  0.00     0.287 OA 
BRANCH   4  16
HETATM   16  C   UNL     1     -10.985  11.321  68.703  1.00  0.00    -0.266 C  
BRANCH  16  17
HETATM   17  C   UNL     1     -11.287  12.512  67.852  1.00  0.00    -0.343 C  
HETATM   18  C   UNL     1     -11.868  13.660  68.248  1.00  0.00    -0.404 C  
HETATM   19  C   UNL     1     -12.273  13.986  69.662  1.00  0.00    -0.383 C  
BRANCH  18  20
HETATM   20  C   UNL     1     -12.171  14.720  67.218  1.00  0.00     0.018 C  
BRANCH  20  21
HETATM   21  C   UNL     1     -12.463  14.083  65.866  1.00  0.00    -0.513 C  
BRANCH  21  22
HETATM   22  C   UNL     1     -11.374  14.406  64.882  1.00  0.00    -0.380 C  
HETATM   23  O   UNL     1     -11.009  13.694  63.959  1.00  0.00    -0.273 OA 
BRANCH  22  24
HETATM   24  O   UNL     1     -10.757  15.550  65.280  1.00  0.00    -0.368 OA 
BRANCH  24  25
HETATM   25  C   UNL     1      -9.356  15.371  65.546  1.00  0.00    -0.002 C  
BRANCH  25  26
HETATM   26  C   UNL     1      -8.762  16.782  65.705  1.00  0.00     0.165 C  
BRANCH  26  27
HETATM   27  N   UNL     1      -7.451  16.870  66.355  1.00  0.00    -0.286 NA 
HETATM   28  C   UNL     1      -6.795  18.183  66.186  1.00  0.00    -0.263 C  
HETATM   29  C   UNL     1      -7.453  19.314  66.993  1.00  0.00    -0.222 C  
HETATM   30  O   UNL     1      -7.507  18.994  68.388  1.00  0.00    -0.275 OA 
HETATM   31  C   UNL     1      -8.207  17.764  68.607  1.00  0.00    -0.271 C  
HETATM   32  C   UNL     1      -7.576  16.606  67.811  1.00  0.00    -0.159 C  
ENDBRANCH  26  27
ENDBRANCH  25  26
ENDBRANCH  24  25
ENDBRANCH  22  24
ENDBRANCH  21  22
ENDBRANCH  20  21
ENDBRANCH  18  20
ENDBRANCH  16  17
ENDBRANCH   4  16
ENDBRANCH   2   3
TORSDOF 10
ENDMDL
MODEL      252
REMARK 921   NORMALIZED FREE ENERGY PREDICTED BY IDOCK:   -2.87 KCAL/MOL
REMARK 922        TOTAL FREE ENERGY PREDICTED BY IDOCK:   -6.09 KCAL/MOL
REMARK 923 INTER-LIGAND FREE ENERGY PREDICTED BY IDOCK:   -5.09 KCAL/MOL
REMARK 924 INTRA-LIGAND FREE ENERGY PREDICTED BY IDOCK:   -1.00 KCAL/MOL
REMARK 927      BINDING AFFINITY PREDICTED BY RF-SCORE:    0.00 PKD
ROOT
HETATM    1  C   UNL     1      -6.085  10.604  64.985  1.00  0.00    -0.024 C  
HETATM    2  O   UNL     1      -7.403  10.061  65.006  1.00  0.00    -0.129 OA 
ENDROOT
BRANCH   2   3
HETATM    3  C   UNL     1      -8.310  10.651  65.862  1.00  0.00    -0.161 A  
HETATM    4  C   UNL     1      -8.041  10.906  67.245  1.00  0.00    -0.123 A  
HETATM    5  C   UNL     1      -9.021  11.609  67.984  1.00  0.00    -0.176 A  
HETATM    6  C   UNL     1     -10.394  11.846  66.001  1.00  0.00    -0.268 A  
HETATM    7  O   UNL     1      -8.947  11.820  69.327  1.00  0.00    -0.284 OA 
HETATM    8  C   UNL     1      -9.489  11.123  65.232  1.00  0.00    -0.257 A  
HETATM    9  C   UNL     1     -10.157  12.081  67.340  1.00  0.00    -0.206 A  
HETATM   10  C   UNL     1     -11.258  12.886  67.877  1.00  0.00    -0.269 C  
HETATM   11  C   UNL     1      -9.760  10.840  63.781  1.00  0.00    -0.372 C  
HETATM   12  H   UNL     1      -9.605  12.292  69.823  1.00  0.00     0.000 HD 
HETATM   13  O   UNL     1     -12.136  13.087  66.838  1.00  0.00    -0.373 OA 
HETATM   14  C   UNL     1     -11.693  12.451  65.629  1.00  0.00    -0.414 C  
HETATM   15  O   UNL     1     -11.399  13.342  68.995  1.00  0.00    -0.258 OA 
BRANCH   4  16
HETATM   16  C   UNL     1      -6.777  10.332  67.854  1.00  0.00    -0.066 C  
BRANCH  16  17
HETATM   17  C   UNL     1      -6.871   9.260  68.890  1.00  0.00    -0.056 C  
HETATM   18  C   UNL     1      -6.227   9.221  70.072  1.00  0.00    -0.043 C  
HETATM   19  C   UNL     1      -5.324  10.302  70.605  1.00  0.00    -0.067 C  
BRANCH  18  20
HETATM   20  C   UNL     1      -6.384   8.005  70.952  1.00  0.00    -0.037 C  
BRANCH  20  21
HETATM   21  C   UNL     1      -7.534   8.199  71.931  1.00  0.00    -0.105 C  
BRANCH  21  22
HETATM   22  C   UNL     1      -8.133   6.875  72.315  1.00  0.00    -0.093 C  
HETATM   23  O   UNL     1      -8.514   6.558  73.431  1.00  0.00    -0.119 OA 
BRANCH  22  24
HETATM   24  O   UNL     1      -8.040   6.034  71.251  1.00  0.00    -0.114 OA 
BRANCH  24  25
HETATM   25  C   UNL     1      -9.299   5.445  70.887  1.00  0.00    -0.156 C  
BRANCH  25  26
HETATM   26  C   UNL     1      -9.710   6.093  69.552  1.00  0.00    -0.146 C  
BRANCH  26  27
HETATM   27  N   UNL     1      -9.621   5.245  68.360  1.00  0.00    -0.127 NA 
HETATM   28  C   UNL     1     -10.254   5.839  67.165  1.00  0.00    -0.207 C  
HETATM   29  C   UNL     1      -9.478   7.028  66.577  1.00  0.00    -0.150 C  
HETATM   30  O   UNL     1      -8.130   6.663  66.259  1.00  0.00    -0.107 OA 
HETATM   31  C   UNL     1      -7.449   6.154  67.412  1.00  0.00    -0.082 C  
HETATM   32  C   UNL     1      -8.202   4.960  68.031  1.00  0.00    -0.096 C  
ENDBRANCH  26  27
ENDBRANCH  25  26
ENDBRANCH  24  25
ENDBRANCH  22  24
ENDBRANCH  21  22
ENDBRANCH  20  21
ENDBRANCH  18  20
ENDBRANCH  16  17
ENDBRANCH   4  16
ENDBRANCH   2   3
TORSDOF 10
ENDMDL
MODEL      253
REMARK 921   NORMALIZED FREE ENERGY PREDICTED BY IDOCK:   -2.84 KCAL/MOL
REMARK 922        TOTAL FREE ENERGY PREDICTED BY IDOCK:   -6.04 KCAL/MOL
REMARK 923 INTER-LIGAND FREE ENERGY PREDICTED BY IDOCK:   -5.58 KCAL/MOL
REMARK 924 INTRA-LIGAND FREE ENERGY PREDICTED BY IDOCK:   -0.47 KCAL/MOL
REMARK 927      BINDING AFFINITY PREDICTED BY RF-SCORE:    0.00 PKD
ROOT
HETATM    1  C   UNL     1      -7.284  10.958  69.090  1.00  0.00    -0.118 C  
HETATM    2  O   UNL     1      -8.660  11.317  68.988  1.00  0.00    -0.098 OA 
ENDROOT
BRANCH   2   3
HETATM    3  C   UNL     1      -9.168  11.494  67.717  1.00  0.00    -0.165 A  
HETATM    4  C   UNL     1      -9.566  10.414  66.867  1.00  0.00    -0.207 A  
HETATM    5  C   UNL     1     -10.165  10.742  65.628  1.00  0.00    -0.257 A  
HETATM    6  C   UNL     1     -10.036  13.104  66.153  1.00  0.00    -0.291 A  
HETATM    7  O   UNL     1     -10.487   9.822  64.677  1.00  0.00    -0.100 OA 
HETATM    8  C   UNL     1      -9.404  12.847  67.365  1.00  0.00    -0.194 A  
HETATM    9  C   UNL     1     -10.406  12.073  65.315  1.00  0.00    -0.311 A  
HETATM   10  C   UNL     1     -11.070  12.640  64.138  1.00  0.00    -0.382 C  
HETATM   11  C   UNL     1      -8.972  13.970  68.265  1.00  0.00    -0.190 C  
HETATM   12  H   UNL     1     -10.888  10.042  63.845  1.00  0.00     0.000 HD 
HETATM   13  O   UNL     1     -11.055  14.006  64.303  1.00  0.00    -0.325 OA 
HETATM   14  C   UNL     1     -10.404  14.393  65.523  1.00  0.00    -0.362 C  
HETATM   15  O   UNL     1     -11.584  12.067  63.197  1.00  0.00    -0.329 OA 
BRANCH   4  16
HETATM   16  C   UNL     1      -9.242   8.997  67.296  1.00  0.00    -0.159 C  
BRANCH  16  17
HETATM   17  C   UNL     1      -9.908   7.843  66.620  1.00  0.00    -0.311 C  
HETATM   18  C   UNL     1     -10.443   6.759  67.214  1.00  0.00    -0.352 C  
HETATM   19  C   UNL     1     -10.524   6.534  68.701  1.00  0.00    -0.252 C  
BRANCH  18  20
HETATM   20  C   UNL     1     -10.997   5.651  66.352  1.00  0.00    -0.083 C  
BRANCH  20  21
HETATM   21  C   UNL     1     -10.168   4.384  66.512  1.00  0.00    -0.155 C  
BRANCH  21  22
HETATM   22  C   UNL     1      -8.855   4.515  65.792  1.00  0.00    -0.124 C  
HETATM   23  O   UNL     1      -8.712   4.750  64.602  1.00  0.00    -0.145 OA 
BRANCH  22  24
HETATM   24  O   UNL     1      -7.855   4.178  66.650  1.00  0.00    -0.095 OA 
BRANCH  24  25
HETATM   25  C   UNL     1      -8.324   3.473  67.811  1.00  0.00    -0.089 C  
BRANCH  25  26
HETATM   26  C   UNL     1      -7.482   3.981  68.994  1.00  0.00    -0.054 C  
BRANCH  26  27
HETATM   27  N   UNL     1      -8.221   4.426  70.179  1.00  0.00    -0.062 NA 
HETATM   28  C   UNL     1      -9.289   3.493  70.593  1.00  0.00    -0.160 C  
HETATM   29  C   UNL     1      -8.767   2.185  71.209  1.00  0.00    -0.064 C  
HETATM   30  O   UNL     1      -7.911   2.444  72.329  1.00  0.00    -0.052 OA 
HETATM   31  C   UNL     1      -6.813   3.284  71.954  1.00  0.00    -0.026 C  
HETATM   32  C   UNL     1      -7.300   4.605  71.329  1.00  0.00    -0.063 C  
ENDBRANCH  26  27
ENDBRANCH  25  26
ENDBRANCH  24  25
ENDBRANCH  22  24
ENDBRANCH  21  22
ENDBRANCH  20  21
ENDBRANCH  18  20
ENDBRANCH  16  17
ENDBRANCH   4  16
ENDBRANCH   2   3
TORSDOF 10
ENDMDL
MODEL      254
REMARK 921   NORMALIZED FREE ENERGY PREDICTED BY IDOCK:   -2.80 KCAL/MOL
REMARK 922        TOTAL FREE ENERGY PREDICTED BY IDOCK:   -5.98 KCAL/MOL
REMARK 923 INTER-LIGAND FREE ENERGY PREDICTED BY IDOCK:   -5.10 KCAL/MOL
REMARK 924 INTRA-LIGAND FREE ENERGY PREDICTED BY IDOCK:   -0.88 KCAL/MOL
REMARK 927      BINDING AFFINITY PREDICTED BY RF-SCORE:    0.00 PKD
ROOT
HETATM    1  C   UNL     1     -10.563   8.887  69.169  1.00  0.00    -0.195 C  
HETATM    2  O   UNL     1      -9.827   8.504  70.329  1.00  0.00    -0.178 OA 
ENDROOT
BRANCH   2   3
HETATM    3  C   UNL     1      -9.768   7.155  70.615  1.00  0.00    -0.175 A  
HETATM    4  C   UNL     1      -8.889   6.243  69.949  1.00  0.00    -0.141 A  
HETATM    5  C   UNL     1      -8.859   4.906  70.410  1.00  0.00    -0.104 A  
HETATM    6  C   UNL     1     -10.444   5.442  72.164  1.00  0.00    -0.273 A  
HETATM    7  O   UNL     1      -8.158   3.912  69.800  1.00  0.00    -0.054 OA 
HETATM    8  C   UNL     1     -10.549   6.759  71.729  1.00  0.00    -0.237 A  
HETATM    9  C   UNL     1      -9.616   4.547  71.519  1.00  0.00    -0.227 A  
HETATM   10  C   UNL     1      -9.687   3.257  72.211  1.00  0.00    -0.153 C  
HETATM   11  C   UNL     1     -11.474   7.727  72.413  1.00  0.00    -0.418 C  
HETATM   12  H   UNL     1      -8.138   3.014  70.110  1.00  0.00     0.000 HD 
HETATM   13  O   UNL     1     -10.581   3.419  73.243  1.00  0.00    -0.163 OA 
HETATM   14  C   UNL     1     -11.127   4.747  73.279  1.00  0.00    -0.333 C  
HETATM   15  O   UNL     1      -9.075   2.232  71.986  1.00  0.00    -0.076 OA 
BRANCH   4  16
HETATM   16  C   UNL     1      -8.119   6.733  68.739  1.00  0.00    -0.120 C  
BRANCH  16  17
HETATM   17  C   UNL     1      -8.005   5.866  67.527  1.00  0.00    -0.102 C  
HETATM   18  C   UNL     1      -8.989   5.552  66.664  1.00  0.00    -0.118 C  
HETATM   19  C   UNL     1     -10.400   6.076  66.727  1.00  0.00    -0.296 C  
BRANCH  18  20
HETATM   20  C   UNL     1      -8.697   4.586  65.542  1.00  0.00    -0.127 C  
BRANCH  20  21
HETATM   21  C   UNL     1      -7.451   5.014  64.779  1.00  0.00    -0.075 C  
BRANCH  21  22
HETATM   22  C   UNL     1      -7.804   5.987  63.689  1.00  0.00    -0.112 C  
HETATM   23  O   UNL     1      -8.263   5.700  62.595  1.00  0.00    -0.100 OA 
BRANCH  22  24
HETATM   24  O   UNL     1      -7.386   7.226  64.063  1.00  0.00    -0.074 OA 
BRANCH  24  25
HETATM   25  C   UNL     1      -8.292   8.269  63.668  1.00  0.00    -0.016 C  
BRANCH  25  26
HETATM   26  C   UNL     1      -8.059   9.437  64.644  1.00  0.00    -0.133 C  
BRANCH  26  27
HETATM   27  N   UNL     1      -8.529   9.242  66.019  1.00  0.00    -0.132 NA 
HETATM   28  C   UNL     1      -7.907  10.165  66.990  1.00  0.00    -0.102 C  
HETATM   29  C   UNL     1      -8.386  11.620  66.859  1.00  0.00    -0.169 C  
HETATM   30  O   UNL     1      -9.811  11.711  66.973  1.00  0.00    -0.190 OA 
HETATM   31  C   UNL     1     -10.459  10.889  65.994  1.00  0.00    -0.225 C  
HETATM   32  C   UNL     1     -10.000   9.422  66.094  1.00  0.00    -0.281 C  
ENDBRANCH  26  27
ENDBRANCH  25  26
ENDBRANCH  24  25
ENDBRANCH  22  24
ENDBRANCH  21  22
ENDBRANCH  20  21
ENDBRANCH  18  20
ENDBRANCH  16  17
ENDBRANCH   4  16
ENDBRANCH   2   3
TORSDOF 10
ENDMDL
MODEL      255
REMARK 921   NORMALIZED FREE ENERGY PREDICTED BY IDOCK:   -2.65 KCAL/MOL
REMARK 922        TOTAL FREE ENERGY PREDICTED BY IDOCK:   -5.74 KCAL/MOL
REMARK 923 INTER-LIGAND FREE ENERGY PREDICTED BY IDOCK:   -6.24 KCAL/MOL
REMARK 924 INTRA-LIGAND FREE ENERGY PREDICTED BY IDOCK:    0.50 KCAL/MOL
REMARK 927      BINDING AFFINITY PREDICTED BY RF-SCORE:    0.00 PKD
ROOT
HETATM    1  C   UNL     1     -13.230  11.811  71.457  1.00  0.00    -0.192 C  
HETATM    2  O   UNL     1     -11.879  11.391  71.275  1.00  0.00     0.033 OA 
ENDROOT
BRANCH   2   3
HETATM    3  C   UNL     1     -11.681  10.115  70.788  1.00  0.00    -0.357 A  
HETATM    4  C   UNL     1     -10.837   9.817  69.671  1.00  0.00    -0.274 A  
HETATM    5  C   UNL     1     -10.644   8.456  69.340  1.00  0.00    -0.197 A  
HETATM    6  C   UNL     1     -12.006   7.771  71.224  1.00  0.00    -0.324 A  
HETATM    7  O   UNL     1      -9.961   8.035  68.240  1.00  0.00    -0.173 OA 
HETATM    8  C   UNL     1     -12.269   9.091  71.572  1.00  0.00    -0.403 A  
HETATM    9  C   UNL     1     -11.211   7.470  70.137  1.00  0.00    -0.213 A  
HETATM   10  C   UNL     1     -11.090   6.014  70.033  1.00  0.00    -0.381 C  
HETATM   11  C   UNL     1     -13.160   9.420  72.737  1.00  0.00    -0.078 C  
HETATM   12  H   UNL     1      -9.831   7.121  68.018  1.00  0.00     0.000 HD 
HETATM   13  O   UNL     1     -11.842   5.486  71.056  1.00  0.00     0.485 OA 
HETATM   14  C   UNL     1     -12.476   6.509  71.840  1.00  0.00    -0.240 C  
HETATM   15  O   UNL     1     -10.439   5.353  69.247  1.00  0.00    -0.256 OA 
BRANCH   4  16
HETATM   16  C   UNL     1     -10.279  10.969  68.858  1.00  0.00    -0.218 C  
BRANCH  16  17
HETATM   17  C   UNL     1      -9.040  10.776  68.046  1.00  0.00    -0.150 C  
HETATM   18  C   UNL     1      -7.824  10.419  68.502  1.00  0.00    -0.107 C  
HETATM   19  C   UNL     1      -7.498  10.081  69.932  1.00  0.00    -0.171 C  
BRANCH  18  20
HETATM   20  C   UNL     1      -6.669  10.359  67.533  1.00  0.00    -0.071 C  
BRANCH  20  21
HETATM   21  C   UNL     1      -7.017  11.086  66.241  1.00  0.00    -0.095 C  
BRANCH  21  22
HETATM   22  C   UNL     1      -7.598  10.131  65.236  1.00  0.00    -0.144 C  
HETATM   23  O   UNL     1      -7.297   8.955  65.109  1.00  0.00    -0.089 OA 
BRANCH  22  24
HETATM   24  O   UNL     1      -8.401  10.830  64.389  1.00  0.00    -0.088 OA 
BRANCH  24  25
HETATM   25  C   UNL     1      -9.772  10.403  64.432  1.00  0.00    -0.333 C  
BRANCH  25  26
HETATM   26  C   UNL     1     -10.600  11.543  63.814  1.00  0.00    -0.406 C  
BRANCH  26  27
HETATM   27  N   UNL     1     -11.828  11.917  64.522  1.00  0.00    -0.268 NA 
HETATM   28  C   UNL     1     -11.598  12.344  65.917  1.00  0.00    -0.396 C  
HETATM   29  C   UNL     1     -10.914  13.714  66.042  1.00  0.00    -0.286 C  
HETATM   30  O   UNL     1     -11.657  14.730  65.359  1.00  0.00    -0.343 OA 
HETATM   31  C   UNL     1     -11.837  14.395  63.978  1.00  0.00    -0.194 C  
HETATM   32  C   UNL     1     -12.518  13.024  63.813  1.00  0.00    -0.311 C  
ENDBRANCH  26  27
ENDBRANCH  25  26
ENDBRANCH  24  25
ENDBRANCH  22  24
ENDBRANCH  21  22
ENDBRANCH  20  21
ENDBRANCH  18  20
ENDBRANCH  16  17
ENDBRANCH   4  16
ENDBRANCH   2   3
TORSDOF 10
ENDMDL
MODEL      256
REMARK 921   NORMALIZED FREE ENERGY PREDICTED BY IDOCK:   -2.61 KCAL/MOL
REMARK 922        TOTAL FREE ENERGY PREDICTED BY IDOCK:   -5.68 KCAL/MOL
REMARK 923 INTER-LIGAND FREE ENERGY PREDICTED BY IDOCK:   -5.54 KCAL/MOL
REMARK 924 INTRA-LIGAND FREE ENERGY PREDICTED BY IDOCK:   -0.14 KCAL/MOL
REMARK 927      BINDING AFFINITY PREDICTED BY RF-SCORE:    0.00 PKD
ROOT
HETATM    1  C   UNL     1     -11.634  12.787  67.707  1.00  0.00    -0.353 C  
HETATM    2  O   UNL     1     -10.822  13.457  68.669  1.00  0.00    -0.251 OA 
ENDROOT
BRANCH   2   3
HETATM    3  C   UNL     1      -9.925  14.390  68.190  1.00  0.00    -0.223 A  
HETATM    4  C   UNL     1      -8.585  14.071  67.801  1.00  0.00    -0.183 A  
HETATM    5  C   UNL     1      -7.804  15.105  67.233  1.00  0.00    -0.211 A  
HETATM    6  C   UNL     1      -9.675  16.639  67.371  1.00  0.00    -0.251 A  
HETATM    7  O   UNL     1      -6.485  14.972  66.923  1.00  0.00    -0.212 OA 
HETATM    8  C   UNL     1     -10.478  15.677  67.974  1.00  0.00    -0.263 A  
HETATM    9  C   UNL     1      -8.375  16.351  67.009  1.00  0.00    -0.230 A  
HETATM   10  C   UNL     1      -7.790  17.535  66.375  1.00  0.00    -0.294 C  
HETATM   11  C   UNL     1     -11.884  15.999  68.396  1.00  0.00    -0.068 C  
HETATM   12  H   UNL     1      -5.961  15.665  66.541  1.00  0.00     0.000 HD 
HETATM   13  O   UNL     1      -8.762  18.509  66.399  1.00  0.00    -0.299 OA 
HETATM   14  C   UNL     1      -9.969  18.049  67.027  1.00  0.00    -0.329 C  
HETATM   15  O   UNL     1      -6.690  17.674  65.877  1.00  0.00    -0.259 OA 
BRANCH   4  16
HETATM   16  C   UNL     1      -8.054  12.684  68.104  1.00  0.00    -0.164 C  
BRANCH  16  17
HETATM   17  C   UNL     1      -7.478  11.851  67.006  1.00  0.00    -0.126 C  
HETATM   18  C   UNL     1      -6.215  11.392  66.919  1.00  0.00    -0.135 C  
HETATM   19  C   UNL     1      -5.147  11.586  67.963  1.00  0.00    -0.044 C  
BRANCH  18  20
HETATM   20  C   UNL     1      -5.795  10.635  65.683  1.00  0.00    -0.133 C  
BRANCH  20  21
HETATM   21  C   UNL     1      -6.981   9.890  65.085  1.00  0.00    -0.128 C  
BRANCH  21  22
HETATM   22  C   UNL     1      -6.615   8.464  64.784  1.00  0.00    -0.068 C  
HETATM   23  O   UNL     1      -7.005   7.811  63.829  1.00  0.00    -0.060 OA 
BRANCH  22  24
HETATM   24  O   UNL     1      -5.901   7.971  65.832  1.00  0.00    -0.037 OA 
BRANCH  24  25
HETATM   25  C   UNL     1      -6.670   7.097  66.674  1.00  0.00    -0.060 C  
BRANCH  25  26
HETATM   26  C   UNL     1      -8.127   7.584  66.589  1.00  0.00    -0.123 C  
BRANCH  26  27
HETATM   27  N   UNL     1      -8.700   8.147  67.815  1.00  0.00    -0.130 NA 
HETATM   28  C   UNL     1     -10.176   8.105  67.850  1.00  0.00    -0.218 C  
HETATM   29  C   UNL     1     -10.753   6.692  68.034  1.00  0.00    -0.265 C  
HETATM   30  O   UNL     1     -10.239   6.072  69.218  1.00  0.00    -0.175 OA 
HETATM   31  C   UNL     1      -8.808   6.019  69.193  1.00  0.00    -0.119 C  
HETATM   32  C   UNL     1      -8.194   7.419  69.006  1.00  0.00    -0.128 C  
ENDBRANCH  26  27
ENDBRANCH  25  26
ENDBRANCH  24  25
ENDBRANCH  22  24
ENDBRANCH  21  22
ENDBRANCH  20  21
ENDBRANCH  18  20
ENDBRANCH  16  17
ENDBRANCH   4  16
ENDBRANCH   2   3
TORSDOF 10
ENDMDL
MODEL      257
REMARK 921   NORMALIZED FREE ENERGY PREDICTED BY IDOCK:   -2.47 KCAL/MOL
REMARK 922        TOTAL FREE ENERGY PREDICTED BY IDOCK:   -5.46 KCAL/MOL
REMARK 923 INTER-LIGAND FREE ENERGY PREDICTED BY IDOCK:   -5.12 KCAL/MOL
REMARK 924 INTRA-LIGAND FREE ENERGY PREDICTED BY IDOCK:   -0.34 KCAL/MOL
REMARK 927      BINDING AFFINITY PREDICTED BY RF-SCORE:    0.00 PKD
ROOT
HETATM    1  C   UNL     1     -11.699  12.583  65.128  1.00  0.00    -0.378 C  
HETATM    2  O   UNL     1     -11.027  12.227  66.334  1.00  0.00    -0.264 OA 
ENDROOT
BRANCH   2   3
HETATM    3  C   UNL     1     -10.100  13.125  66.822  1.00  0.00    -0.253 A  
HETATM    4  C   UNL     1      -8.685  12.913  66.760  1.00  0.00    -0.112 A  
HETATM    5  C   UNL     1      -7.845  13.959  67.206  1.00  0.00    -0.114 A  
HETATM    6  C   UNL     1      -9.773  15.360  67.652  1.00  0.00    -0.211 A  
HETATM    7  O   UNL     1      -6.492  13.851  67.307  1.00  0.00    -0.409 OA 
HETATM    8  C   UNL     1     -10.651  14.352  67.268  1.00  0.00    -0.279 A  
HETATM    9  C   UNL     1      -8.408  15.162  67.616  1.00  0.00    -0.172 A  
HETATM   10  C   UNL     1      -7.742  16.395  68.045  1.00  0.00    -0.153 C  
HETATM   11  C   UNL     1     -12.138  14.556  67.336  1.00  0.00    -0.292 C  
HETATM   12  H   UNL     1      -5.928  14.554  67.607  1.00  0.00     0.000 HD 
HETATM   13  O   UNL     1      -8.741  17.290  68.348  1.00  0.00    -0.246 OA 
HETATM   14  C   UNL     1     -10.047  16.724  68.159  1.00  0.00    -0.282 C  
HETATM   15  O   UNL     1      -6.554  16.644  68.103  1.00  0.00    -0.136 OA 
BRANCH   4  16
HETATM   16  C   UNL     1      -8.176  11.557  66.311  1.00  0.00    -0.044 C  
BRANCH  16  17
HETATM   17  C   UNL     1      -8.318  10.373  67.211  1.00  0.00    -0.122 C  
HETATM   18  C   UNL     1      -7.323   9.687  67.805  1.00  0.00    -0.086 C  
HETATM   19  C   UNL     1      -5.859  10.031  67.719  1.00  0.00    -0.042 C  
BRANCH  18  20
HETATM   20  C   UNL     1      -7.662   8.459  68.614  1.00  0.00    -0.107 C  
BRANCH  20  21
HETATM   21  C   UNL     1      -8.741   7.642  67.916  1.00  0.00    -0.124 C  
BRANCH  21  22
HETATM   22  C   UNL     1      -8.979   6.348  68.644  1.00  0.00    -0.125 C  
HETATM   23  O   UNL     1      -8.300   5.905  69.557  1.00  0.00    -0.111 OA 
BRANCH  22  24
HETATM   24  O   UNL     1      -9.982   5.678  68.016  1.00  0.00    -0.127 OA 
BRANCH  24  25
HETATM   25  C   UNL     1      -9.614   4.342  67.635  1.00  0.00    -0.166 C  
BRANCH  25  26
HETATM   26  C   UNL     1      -8.546   4.485  66.536  1.00  0.00    -0.112 C  
BRANCH  26  27
HETATM   27  N   UNL     1      -9.036   4.710  65.173  1.00  0.00    -0.152 NA 
HETATM   28  C   UNL     1      -7.958   4.902  64.182  1.00  0.00    -0.105 C  
HETATM   29  C   UNL     1      -7.173   3.619  63.863  1.00  0.00    -0.051 C  
HETATM   30  O   UNL     1      -8.044   2.576  63.411  1.00  0.00    -0.072 OA 
HETATM   31  C   UNL     1      -9.063   2.300  64.379  1.00  0.00    -0.123 C  
HETATM   32  C   UNL     1      -9.869   3.566  64.726  1.00  0.00    -0.152 C  
ENDBRANCH  26  27
ENDBRANCH  25  26
ENDBRANCH  24  25
ENDBRANCH  22  24
ENDBRANCH  21  22
ENDBRANCH  20  21
ENDBRANCH  18  20
ENDBRANCH  16  17
ENDBRANCH   4  16
ENDBRANCH   2   3
TORSDOF 10
ENDMDL
MODEL      258
REMARK 921   NORMALIZED FREE ENERGY PREDICTED BY IDOCK:   -2.47 KCAL/MOL
REMARK 922        TOTAL FREE ENERGY PREDICTED BY IDOCK:   -5.46 KCAL/MOL
REMARK 923 INTER-LIGAND FREE ENERGY PREDICTED BY IDOCK:   -4.30 KCAL/MOL
REMARK 924 INTRA-LIGAND FREE ENERGY PREDICTED BY IDOCK:   -1.15 KCAL/MOL
REMARK 927      BINDING AFFINITY PREDICTED BY RF-SCORE:    0.00 PKD
ROOT
HETATM    1  C   UNL     1      -5.962  10.705  66.246  1.00  0.00    -0.106 C  
HETATM    2  O   UNL     1      -6.833  11.678  66.818  1.00  0.00    -0.137 OA 
ENDROOT
BRANCH   2   3
HETATM    3  C   UNL     1      -7.903  11.206  67.551  1.00  0.00    -0.117 A  
HETATM    4  C   UNL     1      -7.770  10.591  68.837  1.00  0.00    -0.117 A  
HETATM    5  C   UNL     1      -8.957  10.244  69.523  1.00  0.00    -0.157 A  
HETATM    6  C   UNL     1     -10.302  11.181  67.738  1.00  0.00    -0.215 A  
HETATM    7  O   UNL     1      -8.977   9.555  70.697  1.00  0.00    -0.241 OA 
HETATM    8  C   UNL     1      -9.172  11.506  66.996  1.00  0.00    -0.180 A  
HETATM    9  C   UNL     1     -10.188  10.569  68.969  1.00  0.00    -0.233 A  
HETATM   10  C   UNL     1     -11.531  10.377  69.524  1.00  0.00    -0.246 C  
HETATM   11  C   UNL     1      -9.295  12.144  65.640  1.00  0.00    -0.040 C  
HETATM   12  H   UNL     1      -9.774   9.321  71.158  1.00  0.00     0.000 HD 
HETATM   13  O   UNL     1     -12.412  10.863  68.586  1.00  0.00    -0.418 OA 
HETATM   14  C   UNL     1     -11.737  11.364  67.422  1.00  0.00    -0.089 C  
HETATM   15  O   UNL     1     -11.857   9.921  70.602  1.00  0.00    -0.277 OA 
BRANCH   4  16
HETATM   16  C   UNL     1      -6.379  10.264  69.343  1.00  0.00    -0.050 C  
BRANCH  16  17
HETATM   17  C   UNL     1      -6.074   8.893  69.850  1.00  0.00    -0.034 C  
HETATM   18  C   UNL     1      -5.795   7.802  69.111  1.00  0.00    -0.030 C  
HETATM   19  C   UNL     1      -5.678   7.777  67.610  1.00  0.00    -0.037 C  
BRANCH  18  20
HETATM   20  C   UNL     1      -5.598   6.477  69.807  1.00  0.00    -0.014 C  
BRANCH  20  21
HETATM   21  C   UNL     1      -6.362   6.448  71.124  1.00  0.00    -0.048 C  
BRANCH  21  22
HETATM   22  C   UNL     1      -7.802   6.086  70.893  1.00  0.00    -0.107 C  
HETATM   23  O   UNL     1      -8.754   6.484  71.547  1.00  0.00    -0.132 OA 
BRANCH  22  24
HETATM   24  O   UNL     1      -7.858   5.123  69.935  1.00  0.00    -0.072 OA 
BRANCH  24  25
HETATM   25  C   UNL     1      -9.202   4.773  69.566  1.00  0.00    -0.120 C  
BRANCH  25  26
HETATM   26  C   UNL     1      -9.186   4.537  68.045  1.00  0.00    -0.132 C  
BRANCH  26  27
HETATM   27  N   UNL     1     -10.285   5.134  67.280  1.00  0.00    -0.198 NA 
HETATM   28  C   UNL     1     -10.697   6.462  67.778  1.00  0.00    -0.303 C  
HETATM   29  C   UNL     1      -9.677   7.576  67.494  1.00  0.00    -0.150 C  
HETATM   30  O   UNL     1      -9.386   7.671  66.095  1.00  0.00    -0.159 OA 
HETATM   31  C   UNL     1      -8.905   6.422  65.584  1.00  0.00    -0.058 C  
HETATM   32  C   UNL     1      -9.903   5.280  65.853  1.00  0.00    -0.088 C  
ENDBRANCH  26  27
ENDBRANCH  25  26
ENDBRANCH  24  25
ENDBRANCH  22  24
ENDBRANCH  21  22
ENDBRANCH  20  21
ENDBRANCH  18  20
ENDBRANCH  16  17
ENDBRANCH   4  16
ENDBRANCH   2   3
TORSDOF 10
ENDMDL
MODEL      259
REMARK 921   NORMALIZED FREE ENERGY PREDICTED BY IDOCK:   -2.45 KCAL/MOL
REMARK 922        TOTAL FREE ENERGY PREDICTED BY IDOCK:   -5.43 KCAL/MOL
REMARK 923 INTER-LIGAND FREE ENERGY PREDICTED BY IDOCK:   -5.05 KCAL/MOL
REMARK 924 INTRA-LIGAND FREE ENERGY PREDICTED BY IDOCK:   -0.37 KCAL/MOL
REMARK 927      BINDING AFFINITY PREDICTED BY RF-SCORE:    0.00 PKD
ROOT
HETATM    1  C   UNL     1     -11.982  13.138  67.660  1.00  0.00    -0.315 C  
HETATM    2  O   UNL     1     -11.154  13.468  68.773  1.00  0.00    -0.246 OA 
ENDROOT
BRANCH   2   3
HETATM    3  C   UNL     1      -9.940  14.063  68.495  1.00  0.00    -0.230 A  
HETATM    4  C   UNL     1      -8.844  13.375  67.885  1.00  0.00    -0.194 A  
HETATM    5  C   UNL     1      -7.692  14.130  67.564  1.00  0.00    -0.185 A  
HETATM    6  C   UNL     1      -8.762  16.157  68.354  1.00  0.00    -0.190 A  
HETATM    7  O   UNL     1      -6.540  13.586  67.086  1.00  0.00    -0.451 OA 
HETATM    8  C   UNL     1      -9.905  15.460  68.731  1.00  0.00    -0.211 A  
HETATM    9  C   UNL     1      -7.690  15.502  67.783  1.00  0.00    -0.156 A  
HETATM   10  C   UNL     1      -6.652  16.487  67.467  1.00  0.00    -0.151 C  
HETATM   11  C   UNL     1     -11.061  16.167  69.382  1.00  0.00    -0.335 C  
HETATM   12  H   UNL     1      -5.766  14.093  66.871  1.00  0.00     0.000 HD 
HETATM   13  O   UNL     1      -7.133  17.706  67.884  1.00  0.00    -0.181 OA 
HETATM   14  C   UNL     1      -8.436  17.596  68.477  1.00  0.00    -0.289 C  
HETATM   15  O   UNL     1      -5.582  16.323  66.914  1.00  0.00    -0.347 OA 
BRANCH   4  16
HETATM   16  C   UNL     1      -8.942  11.873  67.704  1.00  0.00    -0.169 C  
BRANCH  16  17
HETATM   17  C   UNL     1      -7.704  11.066  67.484  1.00  0.00    -0.114 C  
HETATM   18  C   UNL     1      -6.968  10.444  68.425  1.00  0.00    -0.069 C  
HETATM   19  C   UNL     1      -7.298  10.395  69.893  1.00  0.00    -0.149 C  
BRANCH  18  20
HETATM   20  C   UNL     1      -5.694   9.747  68.014  1.00  0.00    -0.040 C  
BRANCH  20  21
HETATM   21  C   UNL     1      -5.767   9.318  66.555  1.00  0.00    -0.054 C  
BRANCH  21  22
HETATM   22  C   UNL     1      -5.822   7.820  66.444  1.00  0.00    -0.040 C  
HETATM   23  O   UNL     1      -5.300   7.147  65.569  1.00  0.00    -0.026 OA 
BRANCH  22  24
HETATM   24  O   UNL     1      -6.677   7.348  67.390  1.00  0.00    -0.064 OA 
BRANCH  24  25
HETATM   25  C   UNL     1      -8.013   7.154  66.896  1.00  0.00    -0.115 C  
BRANCH  25  26
HETATM   26  C   UNL     1      -8.411   5.717  67.277  1.00  0.00    -0.107 C  
BRANCH  26  27
HETATM   27  N   UNL     1      -8.468   4.743  66.183  1.00  0.00    -0.114 NA 
HETATM   28  C   UNL     1      -7.237   3.938  66.046  1.00  0.00    -0.068 C  
HETATM   29  C   UNL     1      -7.040   2.909  67.171  1.00  0.00    -0.053 C  
HETATM   30  O   UNL     1      -8.166   2.029  67.273  1.00  0.00    -0.069 OA 
HETATM   31  C   UNL     1      -9.377   2.765  67.486  1.00  0.00    -0.158 C  
HETATM   32  C   UNL     1      -9.605   3.810  66.378  1.00  0.00    -0.161 C  
ENDBRANCH  26  27
ENDBRANCH  25  26
ENDBRANCH  24  25
ENDBRANCH  22  24
ENDBRANCH  21  22
ENDBRANCH  20  21
ENDBRANCH  18  20
ENDBRANCH  16  17
ENDBRANCH   4  16
ENDBRANCH   2   3
TORSDOF 10
ENDMDL
MODEL      260
REMARK 921   NORMALIZED FREE ENERGY PREDICTED BY IDOCK:   -2.44 KCAL/MOL
REMARK 922        TOTAL FREE ENERGY PREDICTED BY IDOCK:   -5.42 KCAL/MOL
REMARK 923 INTER-LIGAND FREE ENERGY PREDICTED BY IDOCK:   -4.88 KCAL/MOL
REMARK 924 INTRA-LIGAND FREE ENERGY PREDICTED BY IDOCK:   -0.53 KCAL/MOL
REMARK 927      BINDING AFFINITY PREDICTED BY RF-SCORE:    0.00 PKD
ROOT
HETATM    1  C   UNL     1     -11.371  12.236  64.847  1.00  0.00    -0.325 C  
HETATM    2  O   UNL     1     -10.938  11.792  66.131  1.00  0.00    -0.288 OA 
ENDROOT
BRANCH   2   3
HETATM    3  C   UNL     1     -10.216  12.688  66.893  1.00  0.00    -0.234 A  
HETATM    4  C   UNL     1      -8.799  12.609  67.076  1.00  0.00    -0.212 A  
HETATM    5  C   UNL     1      -8.173  13.650  67.799  1.00  0.00    -0.179 A  
HETATM    6  C   UNL     1     -10.291  14.804  68.036  1.00  0.00    -0.237 A  
HETATM    7  O   UNL     1      -6.855  13.645  68.142  1.00  0.00    -0.091 OA 
HETATM    8  C   UNL     1     -10.970  13.789  67.371  1.00  0.00    -0.296 A  
HETATM    9  C   UNL     1      -8.928  14.730  68.237  1.00  0.00    -0.181 A  
HETATM   10  C   UNL     1      -8.489  15.943  68.933  1.00  0.00    -0.220 C  
HETATM   11  C   UNL     1     -12.459  13.853  67.179  1.00  0.00    -0.084 C  
HETATM   12  H   UNL     1      -6.434  14.344  68.627  1.00  0.00     0.000 HD 
HETATM   13  O   UNL     1      -9.619  16.699  69.147  1.00  0.00    -0.259 OA 
HETATM   14  C   UNL     1     -10.800  16.055  68.644  1.00  0.00    -0.301 C  
HETATM   15  O   UNL     1      -7.365  16.283  69.246  1.00  0.00    -0.221 OA 
BRANCH   4  16
HETATM   16  C   UNL     1      -8.072  11.378  66.570  1.00  0.00    -0.141 C  
BRANCH  16  17
HETATM   17  C   UNL     1      -8.130  10.106  67.351  1.00  0.00    -0.114 C  
HETATM   18  C   UNL     1      -7.112   9.512  68.003  1.00  0.00    -0.080 C  
HETATM   19  C   UNL     1      -5.715  10.062  68.118  1.00  0.00    -0.038 C  
BRANCH  18  20
HETATM   20  C   UNL     1      -7.348   8.177  68.667  1.00  0.00    -0.089 C  
BRANCH  20  21
HETATM   21  C   UNL     1      -8.187   7.276  67.770  1.00  0.00    -0.119 C  
BRANCH  21  22
HETATM   22  C   UNL     1      -8.359   5.920  68.394  1.00  0.00    -0.112 C  
HETATM   23  O   UNL     1      -8.601   4.882  67.797  1.00  0.00    -0.104 OA 
BRANCH  22  24
HETATM   24  O   UNL     1      -8.356   6.063  69.747  1.00  0.00    -0.121 OA 
BRANCH  24  25
HETATM   25  C   UNL     1      -9.614   5.722  70.352  1.00  0.00    -0.168 C  
BRANCH  25  26
HETATM   26  C   UNL     1      -9.327   5.496  71.847  1.00  0.00    -0.144 C  
BRANCH  26  27
HETATM   27  N   UNL     1      -8.773   4.191  72.217  1.00  0.00    -0.106 NA 
HETATM   28  C   UNL     1      -8.467   4.065  73.656  1.00  0.00    -0.092 C  
HETATM   29  C   UNL     1      -9.714   3.971  74.550  1.00  0.00    -0.129 C  
HETATM   30  O   UNL     1     -10.556   2.883  74.154  1.00  0.00    -0.158 OA 
HETATM   31  C   UNL     1     -10.944   3.005  72.781  1.00  0.00     0.126 C  
HETATM   32  C   UNL     1      -9.718   3.105  71.854  1.00  0.00    -0.164 C  
ENDBRANCH  26  27
ENDBRANCH  25  26
ENDBRANCH  24  25
ENDBRANCH  22  24
ENDBRANCH  21  22
ENDBRANCH  20  21
ENDBRANCH  18  20
ENDBRANCH  16  17
ENDBRANCH   4  16
ENDBRANCH   2   3
TORSDOF 10
ENDMDL
MODEL      261
REMARK 921   NORMALIZED FREE ENERGY PREDICTED BY IDOCK:   -2.34 KCAL/MOL
REMARK 922        TOTAL FREE ENERGY PREDICTED BY IDOCK:   -5.25 KCAL/MOL
REMARK 923 INTER-LIGAND FREE ENERGY PREDICTED BY IDOCK:   -4.23 KCAL/MOL
REMARK 924 INTRA-LIGAND FREE ENERGY PREDICTED BY IDOCK:   -1.02 KCAL/MOL
REMARK 927      BINDING AFFINITY PREDICTED BY RF-SCORE:    0.00 PKD
ROOT
HETATM    1  C   UNL     1     -10.601   7.812  68.507  1.00  0.00    -0.114 C  
HETATM    2  O   UNL     1      -9.215   7.574  68.271  1.00  0.00    -0.139 OA 
ENDROOT
BRANCH   2   3
HETATM    3  C   UNL     1      -8.635   8.252  67.218  1.00  0.00    -0.124 A  
HETATM    4  C   UNL     1      -8.069   9.561  67.336  1.00  0.00    -0.110 A  
HETATM    5  C   UNL     1      -7.417  10.098  66.202  1.00  0.00    -0.115 A  
HETATM    6  C   UNL     1      -7.820   8.055  64.962  1.00  0.00    -0.123 A  
HETATM    7  O   UNL     1      -6.935  11.370  66.139  1.00  0.00    -0.359 OA 
HETATM    8  C   UNL     1      -8.511   7.491  66.029  1.00  0.00    -0.152 A  
HETATM    9  C   UNL     1      -7.287   9.324  65.056  1.00  0.00    -0.102 A  
HETATM   10  C   UNL     1      -6.598   9.638  63.802  1.00  0.00    -0.112 C  
HETATM   11  C   UNL     1      -9.118   6.120  65.917  1.00  0.00    -0.101 C  
HETATM   12  H   UNL     1      -6.497  11.731  65.378  1.00  0.00     0.000 HD 
HETATM   13  O   UNL     1      -6.762   8.545  62.983  1.00  0.00    -0.090 OA 
HETATM   14  C   UNL     1      -7.537   7.513  63.613  1.00  0.00    -0.118 C  
HETATM   15  O   UNL     1      -5.961  10.630  63.504  1.00  0.00    -0.111 OA 
BRANCH   4  16
HETATM   16  C   UNL     1      -8.281  10.327  68.627  1.00  0.00    -0.116 C  
BRANCH  16  17
HETATM   17  C   UNL     1      -7.470   9.990  69.835  1.00  0.00    -0.171 C  
HETATM   18  C   UNL     1      -6.202  10.366  70.087  1.00  0.00    -0.108 C  
HETATM   19  C   UNL     1      -5.372  11.265  69.209  1.00  0.00    -0.044 C  
BRANCH  18  20
HETATM   20  C   UNL     1      -5.518   9.850  71.330  1.00  0.00    -0.075 C  
BRANCH  20  21
HETATM   21  C   UNL     1      -6.287   8.670  71.910  1.00  0.00    -0.073 C  
BRANCH  21  22
HETATM   22  C   UNL     1      -6.284   8.723  73.412  1.00  0.00    -0.037 C  
HETATM   23  O   UNL     1      -5.717   9.559  74.098  1.00  0.00    -0.302 OA 
BRANCH  22  24
HETATM   24  O   UNL     1      -6.887   7.600  73.886  1.00  0.00    -0.080 OA 
BRANCH  24  25
HETATM   25  C   UNL     1      -7.923   7.109  73.020  1.00  0.00    -0.101 C  
BRANCH  25  26
HETATM   26  C   UNL     1      -8.589   5.937  73.763  1.00  0.00    -0.121 C  
BRANCH  26  27
HETATM   27  N   UNL     1     -10.011   5.713  73.487  1.00  0.00    -0.168 NA 
HETATM   28  C   UNL     1     -10.293   5.376  72.077  1.00  0.00    -0.213 C  
HETATM   29  C   UNL     1      -9.824   3.971  71.668  1.00  0.00    -0.183 C  
HETATM   30  O   UNL     1     -10.397   2.966  72.512  1.00  0.00    -0.160 OA 
HETATM   31  C   UNL     1     -10.082   3.208  73.888  1.00  0.00    -0.125 C  
HETATM   32  C   UNL     1     -10.535   4.611  74.333  1.00  0.00    -0.282 C  
ENDBRANCH  26  27
ENDBRANCH  25  26
ENDBRANCH  24  25
ENDBRANCH  22  24
ENDBRANCH  21  22
ENDBRANCH  20  21
ENDBRANCH  18  20
ENDBRANCH  16  17
ENDBRANCH   4  16
ENDBRANCH   2   3
TORSDOF 10
ENDMDL
MODEL      262
REMARK 921   NORMALIZED FREE ENERGY PREDICTED BY IDOCK:   -2.31 KCAL/MOL
REMARK 922        TOTAL FREE ENERGY PREDICTED BY IDOCK:   -5.20 KCAL/MOL
REMARK 923 INTER-LIGAND FREE ENERGY PREDICTED BY IDOCK:   -5.70 KCAL/MOL
REMARK 924 INTRA-LIGAND FREE ENERGY PREDICTED BY IDOCK:    0.50 KCAL/MOL
REMARK 927      BINDING AFFINITY PREDICTED BY RF-SCORE:    0.00 PKD
ROOT
HETATM    1  C   UNL     1     -12.093  15.898  71.865  1.00  0.00    -0.498 C  
HETATM    2  O   UNL     1     -12.563  15.274  70.672  1.00  0.00    -0.363 OA 
ENDROOT
BRANCH   2   3
HETATM    3  C   UNL     1     -12.297  13.928  70.524  1.00  0.00    -0.369 A  
HETATM    4  C   UNL     1     -11.217  13.417  69.736  1.00  0.00    -0.044 A  
HETATM    5  C   UNL     1     -10.997  12.020  69.752  1.00  0.00     0.211 A  
HETATM    6  C   UNL     1     -12.801  11.722  71.343  1.00  0.00    -0.440 A  
HETATM    7  O   UNL     1     -10.081  11.391  68.966  1.00  0.00    -0.332 OA 
HETATM    8  C   UNL     1     -13.095  13.081  71.334  1.00  0.00    -0.336 A  
HETATM    9  C   UNL     1     -11.776  11.214  70.572  1.00  0.00    -0.392 A  
HETATM   10  C   UNL     1     -11.684   9.770  70.804  1.00  0.00    -0.328 C  
HETATM   11  C   UNL     1     -14.231  13.631  72.149  1.00  0.00    -0.481 C  
HETATM   12  H   UNL     1      -9.933  10.453  68.977  1.00  0.00     0.000 HD 
HETATM   13  O   UNL     1     -12.682   9.456  71.698  1.00  0.00    -0.326 OA 
HETATM   14  C   UNL     1     -13.451  10.609  72.072  1.00  0.00    -0.205 C  
HETATM   15  O   UNL     1     -10.885   8.970  70.357  1.00  0.00    -0.229 OA 
BRANCH   4  16
HETATM   16  C   UNL     1     -10.438  14.383  68.865  1.00  0.00    -0.246 C  
BRANCH  16  17
HETATM   17  C   UNL     1      -8.946  14.303  68.814  1.00  0.00    -0.097 C  
HETATM   18  C   UNL     1      -8.089  15.325  68.631  1.00  0.00    -0.156 C  
HETATM   19  C   UNL     1      -8.480  16.774  68.502  1.00  0.00    -0.244 C  
BRANCH  18  20
HETATM   20  C   UNL     1      -6.613  15.031  68.523  1.00  0.00    -0.096 C  
BRANCH  20  21
HETATM   21  C   UNL     1      -6.369  13.863  67.576  1.00  0.00    -0.047 C  
BRANCH  21  22
HETATM   22  C   UNL     1      -6.866  12.579  68.179  1.00  0.00    -0.084 C  
HETATM   23  O   UNL     1      -6.449  12.062  69.204  1.00  0.00    -0.084 OA 
BRANCH  22  24
HETATM   24  O   UNL     1      -7.748  12.009  67.316  1.00  0.00    -0.151 OA 
BRANCH  24  25
HETATM   25  C   UNL     1      -7.487  10.615  67.084  1.00  0.00    -0.099 C  
BRANCH  25  26
HETATM   26  C   UNL     1      -8.143  10.271  65.735  1.00  0.00    -0.149 C  
BRANCH  26  27
HETATM   27  N   UNL     1      -8.422  11.397  64.838  1.00  0.00     0.339 NA 
HETATM   28  C   UNL     1      -8.546  11.004  63.419  1.00  0.00     0.055 C  
HETATM   29  C   UNL     1      -9.831  10.221  63.102  1.00  0.00    -0.039 C  
HETATM   30  O   UNL     1     -10.997  10.958  63.488  1.00  0.00    -0.132 OA 
HETATM   31  C   UNL     1     -10.957  11.293  64.880  1.00  0.00    -0.173 C  
HETATM   32  C   UNL     1      -9.679  12.077  65.236  1.00  0.00    -0.164 C  
ENDBRANCH  26  27
ENDBRANCH  25  26
ENDBRANCH  24  25
ENDBRANCH  22  24
ENDBRANCH  21  22
ENDBRANCH  20  21
ENDBRANCH  18  20
ENDBRANCH  16  17
ENDBRANCH   4  16
ENDBRANCH   2   3
TORSDOF 10
ENDMDL
MODEL      263
REMARK 921   NORMALIZED FREE ENERGY PREDICTED BY IDOCK:   -2.25 KCAL/MOL
REMARK 922        TOTAL FREE ENERGY PREDICTED BY IDOCK:   -5.10 KCAL/MOL
REMARK 923 INTER-LIGAND FREE ENERGY PREDICTED BY IDOCK:   -5.28 KCAL/MOL
REMARK 924 INTRA-LIGAND FREE ENERGY PREDICTED BY IDOCK:    0.17 KCAL/MOL
REMARK 927      BINDING AFFINITY PREDICTED BY RF-SCORE:    0.00 PKD
ROOT
HETATM    1  C   UNL     1      -7.884  12.795  67.126  1.00  0.00    -0.092 C  
HETATM    2  O   UNL     1      -9.141  13.370  67.478  1.00  0.00    -0.194 OA 
ENDROOT
BRANCH   2   3
HETATM    3  C   UNL     1      -9.956  12.630  68.311  1.00  0.00    -0.229 A  
HETATM    4  C   UNL     1      -9.747  11.242  68.593  1.00  0.00    -0.200 A  
HETATM    5  C   UNL     1     -10.598  10.632  69.544  1.00  0.00    -0.230 A  
HETATM    6  C   UNL     1     -11.719  12.743  69.945  1.00  0.00    -0.321 A  
HETATM    7  O   UNL     1     -10.585   9.299  69.823  1.00  0.00    -0.216 OA 
HETATM    8  C   UNL     1     -10.943  13.389  68.989  1.00  0.00    -0.265 A  
HETATM    9  C   UNL     1     -11.542  11.400  70.212  1.00  0.00    -0.334 A  
HETATM   10  C   UNL     1     -12.471  11.006  71.274  1.00  0.00    -0.370 C  
HETATM   11  C   UNL     1     -11.156  14.843  68.675  1.00  0.00    -0.272 C  
HETATM   12  H   UNL     1     -11.156   8.889  70.462  1.00  0.00     0.000 HD 
HETATM   13  O   UNL     1     -13.195  12.131  71.595  1.00  0.00    -0.406 OA 
HETATM   14  C   UNL     1     -12.814  13.262  70.797  1.00  0.00    -0.121 C  
HETATM   15  O   UNL     1     -12.593   9.930  71.825  1.00  0.00    -0.378 OA 
BRANCH   4  16
HETATM   16  C   UNL     1      -8.699  10.492  67.796  1.00  0.00    -0.122 C  
BRANCH  16  17
HETATM   17  C   UNL     1      -9.026   9.159  67.205  1.00  0.00    -0.137 C  
HETATM   18  C   UNL     1      -8.203   8.369  66.489  1.00  0.00    -0.105 C  
HETATM   19  C   UNL     1      -6.754   8.662  66.198  1.00  0.00    -0.069 C  
BRANCH  18  20
HETATM   20  C   UNL     1      -8.745   7.091  65.899  1.00  0.00    -0.140 C  
BRANCH  20  21
HETATM   21  C   UNL     1     -10.230   6.948  66.208  1.00  0.00     0.145 C  
BRANCH  21  22
HETATM   22  C   UNL     1     -10.471   5.782  67.125  1.00  0.00    -0.273 C  
HETATM   23  O   UNL     1     -10.608   4.618  66.782  1.00  0.00    -0.148 OA 
BRANCH  22  24
HETATM   24  O   UNL     1     -10.666   6.255  68.385  1.00  0.00    -0.230 OA 
BRANCH  24  25
HETATM   25  C   UNL     1     -10.066   5.429  69.396  1.00  0.00    -0.234 C  
BRANCH  25  26
HETATM   26  C   UNL     1      -8.544   5.617  69.262  1.00  0.00    -0.106 C  
BRANCH  26  27
HETATM   27  N   UNL     1      -7.703   4.534  69.779  1.00  0.00    -0.054 NA 
HETATM   28  C   UNL     1      -6.397   4.423  69.098  1.00  0.00    -0.032 C  
HETATM   29  C   UNL     1      -5.422   5.562  69.436  1.00  0.00    -0.008 C  
HETATM   30  O   UNL     1      -5.206   5.659  70.849  1.00  0.00    -0.008 OA 
HETATM   31  C   UNL     1      -6.443   5.847  71.547  1.00  0.00    -0.049 C  
HETATM   32  C   UNL     1      -7.448   4.723  71.229  1.00  0.00    -0.076 C  
ENDBRANCH  26  27
ENDBRANCH  25  26
ENDBRANCH  24  25
ENDBRANCH  22  24
ENDBRANCH  21  22
ENDBRANCH  20  21
ENDBRANCH  18  20
ENDBRANCH  16  17
ENDBRANCH   4  16
ENDBRANCH   2   3
TORSDOF 10
ENDMDL
MODEL      264
REMARK 921   NORMALIZED FREE ENERGY PREDICTED BY IDOCK:   -2.06 KCAL/MOL
REMARK 922        TOTAL FREE ENERGY PREDICTED BY IDOCK:   -4.80 KCAL/MOL
REMARK 923 INTER-LIGAND FREE ENERGY PREDICTED BY IDOCK:   -5.26 KCAL/MOL
REMARK 924 INTRA-LIGAND FREE ENERGY PREDICTED BY IDOCK:    0.46 KCAL/MOL
REMARK 927      BINDING AFFINITY PREDICTED BY RF-SCORE:    0.00 PKD
ROOT
HETATM    1  C   UNL     1      -7.431  11.054  69.890  1.00  0.00     0.281 C  
HETATM    2  O   UNL     1      -8.571  10.423  69.310  1.00  0.00    -0.155 OA 
ENDROOT
BRANCH   2   3
HETATM    3  C   UNL     1      -8.863  10.740  67.999  1.00  0.00    -0.132 A  
HETATM    4  C   UNL     1      -8.187  10.164  66.877  1.00  0.00    -0.122 A  
HETATM    5  C   UNL     1      -8.654  10.502  65.586  1.00  0.00    -0.175 A  
HETATM    6  C   UNL     1     -10.431  11.842  66.545  1.00  0.00    -0.256 A  
HETATM    7  O   UNL     1      -8.038  10.118  64.434  1.00  0.00    -0.157 OA 
HETATM    8  C   UNL     1      -9.991  11.582  67.838  1.00  0.00    -0.193 A  
HETATM    9  C   UNL     1      -9.776  11.310  65.454  1.00  0.00    -0.271 A  
HETATM   10  C   UNL     1     -10.476  11.728  64.236  1.00  0.00    -0.325 C  
HETATM   11  C   UNL     1     -10.685  12.186  69.027  1.00  0.00    -0.163 C  
HETATM   12  H   UNL     1      -8.352  10.345  63.568  1.00  0.00     0.000 HD 
HETATM   13  O   UNL     1     -11.522  12.523  64.642  1.00  0.00    -0.305 OA 
HETATM   14  C   UNL     1     -11.560  12.675  66.070  1.00  0.00    -0.393 C  
HETATM   15  O   UNL     1     -10.246  11.432  63.080  1.00  0.00    -0.324 OA 
BRANCH   4  16
HETATM   16  C   UNL     1      -6.962   9.307  67.132  1.00  0.00    -0.085 C  
BRANCH  16  17
HETATM   17  C   UNL     1      -7.121   7.921  67.666  1.00  0.00    -0.083 C  
HETATM   18  C   UNL     1      -6.431   7.363  68.679  1.00  0.00    -0.044 C  
HETATM   19  C   UNL     1      -5.395   8.066  69.516  1.00  0.00    -0.026 C  
BRANCH  18  20
HETATM   20  C   UNL     1      -6.676   5.913  69.019  1.00  0.00    -0.060 C  
BRANCH  20  21
HETATM   21  C   UNL     1      -6.277   5.628  70.461  1.00  0.00    -0.030 C  
BRANCH  21  22
HETATM   22  C   UNL     1      -7.489   5.599  71.350  1.00  0.00    -0.095 C  
HETATM   23  O   UNL     1      -7.930   4.617  71.927  1.00  0.00    -0.095 OA 
BRANCH  22  24
HETATM   24  O   UNL     1      -8.104   6.810  71.283  1.00  0.00    -0.109 OA 
BRANCH  24  25
HETATM   25  C   UNL     1      -9.243   6.815  70.408  1.00  0.00    -0.156 C  
BRANCH  25  26
HETATM   26  C   UNL     1     -10.064   8.065  70.773  1.00  0.00    -0.192 C  
BRANCH  26  27
HETATM   27  N   UNL     1     -11.383   7.830  71.367  1.00  0.00    -0.247 NA 
HETATM   28  C   UNL     1     -11.855   6.438  71.224  1.00  0.00    -0.273 C  
HETATM   29  C   UNL     1     -11.098   5.432  72.106  1.00  0.00    -0.168 C  
HETATM   30  O   UNL     1     -11.155   5.806  73.487  1.00  0.00    -0.233 OA 
HETATM   31  C   UNL     1     -10.632   7.124  73.686  1.00  0.00    -0.333 C  
HETATM   32  C   UNL     1     -11.366   8.160  72.814  1.00  0.00    -0.336 C  
ENDBRANCH  26  27
ENDBRANCH  25  26
ENDBRANCH  24  25
ENDBRANCH  22  24
ENDBRANCH  21  22
ENDBRANCH  20  21
ENDBRANCH  18  20
ENDBRANCH  16  17
ENDBRANCH   4  16
ENDBRANCH   2   3
TORSDOF 10
ENDMDL
MODEL      265
REMARK 921   NORMALIZED FREE ENERGY PREDICTED BY IDOCK:   -2.05 KCAL/MOL
REMARK 922        TOTAL FREE ENERGY PREDICTED BY IDOCK:   -4.79 KCAL/MOL
REMARK 923 INTER-LIGAND FREE ENERGY PREDICTED BY IDOCK:   -4.28 KCAL/MOL
REMARK 924 INTRA-LIGAND FREE ENERGY PREDICTED BY IDOCK:   -0.51 KCAL/MOL
REMARK 927      BINDING AFFINITY PREDICTED BY RF-SCORE:    0.00 PKD
ROOT
HETATM    1  C   UNL     1      -5.937  10.659  66.280  1.00  0.00    -0.106 C  
HETATM    2  O   UNL     1      -6.761  11.587  66.982  1.00  0.00    -0.119 OA 
ENDROOT
BRANCH   2   3
HETATM    3  C   UNL     1      -7.711  11.061  67.833  1.00  0.00    -0.104 A  
HETATM    4  C   UNL     1      -7.390  10.338  69.026  1.00  0.00    -0.092 A  
HETATM    5  C   UNL     1      -8.461   9.940  69.860  1.00  0.00    -0.191 A  
HETATM    6  C   UNL     1     -10.051  11.034  68.393  1.00  0.00    -0.194 A  
HETATM    7  O   UNL     1      -8.310   9.154  70.961  1.00  0.00    -0.184 OA 
HETATM    8  C   UNL     1      -9.045  11.414  67.512  1.00  0.00    -0.157 A  
HETATM    9  C   UNL     1      -9.758  10.319  69.536  1.00  0.00    -0.235 A  
HETATM   10  C   UNL     1     -11.000  10.088  70.278  1.00  0.00    -0.316 C  
HETATM   11  C   UNL     1      -9.367  12.166  66.251  1.00  0.00    -0.221 C  
HETATM   12  H   UNL     1      -9.029   8.887  71.520  1.00  0.00     0.000 HD 
HETATM   13  O   UNL     1     -12.008  10.657  69.535  1.00  0.00    -0.288 OA 
HETATM   14  C   UNL     1     -11.514  11.251  68.324  1.00  0.00    -0.308 C  
HETATM   15  O   UNL     1     -11.162   9.544  71.353  1.00  0.00    -0.351 OA 
BRANCH   4  16
HETATM   16  C   UNL     1      -5.943   9.962  69.277  1.00  0.00    -0.037 C  
BRANCH  16  17
HETATM   17  C   UNL     1      -5.602   8.585  69.748  1.00  0.00    -0.029 C  
HETATM   18  C   UNL     1      -5.756   7.437  69.062  1.00  0.00    -0.019 C  
HETATM   19  C   UNL     1      -6.254   7.331  67.645  1.00  0.00    -0.046 C  
BRANCH  18  20
HETATM   20  C   UNL     1      -5.434   6.129  69.744  1.00  0.00    -0.013 C  
BRANCH  20  21
HETATM   21  C   UNL     1      -5.361   6.317  71.253  1.00  0.00    -0.018 C  
BRANCH  21  22
HETATM   22  C   UNL     1      -6.739   6.329  71.853  1.00  0.00    -0.064 C  
HETATM   23  O   UNL     1      -7.091   6.976  72.827  1.00  0.00    -0.073 OA 
BRANCH  22  24
HETATM   24  O   UNL     1      -7.491   5.383  71.227  1.00  0.00    -0.087 OA 
BRANCH  24  25
HETATM   25  C   UNL     1      -7.183   4.047  71.654  1.00  0.00    -0.053 C  
BRANCH  25  26
HETATM   26  C   UNL     1      -8.527   3.304  71.757  1.00  0.00    -0.069 C  
BRANCH  26  27
HETATM   27  N   UNL     1      -8.858   2.730  73.064  1.00  0.00    -0.078 NA 
HETATM   28  C   UNL     1      -8.402   3.554  74.203  1.00  0.00    -0.085 C  
HETATM   29  C   UNL     1      -9.201   4.854  74.388  1.00  0.00    -0.114 C  
HETATM   30  O   UNL     1     -10.601   4.587  74.535  1.00  0.00    -0.263 OA 
HETATM   31  C   UNL     1     -11.106   3.856  73.411  1.00  0.00    -0.232 C  
HETATM   32  C   UNL     1     -10.325   2.546  73.193  1.00  0.00    -0.138 C  
ENDBRANCH  26  27
ENDBRANCH  25  26
ENDBRANCH  24  25
ENDBRANCH  22  24
ENDBRANCH  21  22
ENDBRANCH  20  21
ENDBRANCH  18  20
ENDBRANCH  16  17
ENDBRANCH   4  16
ENDBRANCH   2   3
TORSDOF 10
ENDMDL
MODEL      266
REMARK 921   NORMALIZED FREE ENERGY PREDICTED BY IDOCK:   -1.94 KCAL/MOL
REMARK 922        TOTAL FREE ENERGY PREDICTED BY IDOCK:   -4.61 KCAL/MOL
REMARK 923 INTER-LIGAND FREE ENERGY PREDICTED BY IDOCK:   -5.00 KCAL/MOL
REMARK 924 INTRA-LIGAND FREE ENERGY PREDICTED BY IDOCK:    0.38 KCAL/MOL
REMARK 927      BINDING AFFINITY PREDICTED BY RF-SCORE:    0.00 PKD
ROOT
HETATM    1  C   UNL     1      -5.769   9.516  63.861  1.00  0.00    -0.082 C  
HETATM    2  O   UNL     1      -7.126   9.506  63.425  1.00  0.00    -0.096 OA 
ENDROOT
BRANCH   2   3
HETATM    3  C   UNL     1      -8.083   9.874  64.349  1.00  0.00    -0.157 A  
HETATM    4  C   UNL     1      -7.951   9.648  65.757  1.00  0.00    -0.109 A  
HETATM    5  C   UNL     1      -8.960  10.166  66.601  1.00  0.00    -0.140 A  
HETATM    6  C   UNL     1     -10.093  11.150  64.698  1.00  0.00    -0.358 A  
HETATM    7  O   UNL     1      -9.019   9.930  67.940  1.00  0.00    -0.128 OA 
HETATM    8  C   UNL     1      -9.156  10.629  63.813  1.00  0.00    -0.245 A  
HETATM    9  C   UNL     1      -9.989  10.923  66.055  1.00  0.00    -0.290 A  
HETATM   10  C   UNL     1     -11.090  11.612  66.732  1.00  0.00    -0.309 C  
HETATM   11  C   UNL     1      -9.285  10.850  62.332  1.00  0.00    -0.304 C  
HETATM   12  H   UNL     1      -9.697  10.277  68.507  1.00  0.00     0.000 HD 
HETATM   13  O   UNL     1     -11.836  12.215  65.747  1.00  0.00    -0.469 OA 
HETATM   14  C   UNL     1     -11.305  11.960  64.437  1.00  0.00    -0.326 C  
HETATM   15  O   UNL     1     -11.323  11.699  67.922  1.00  0.00    -0.254 OA 
BRANCH   4  16
HETATM   16  C   UNL     1      -6.798   8.795  66.248  1.00  0.00    -0.074 C  
BRANCH  16  17
HETATM   17  C   UNL     1      -6.958   7.313  66.349  1.00  0.00    -0.069 C  
HETATM   18  C   UNL     1      -7.309   6.612  67.444  1.00  0.00    -0.095 C  
HETATM   19  C   UNL     1      -7.671   7.210  68.778  1.00  0.00    -0.116 C  
BRANCH  18  20
HETATM   20  C   UNL     1      -7.335   5.105  67.371  1.00  0.00    -0.082 C  
BRANCH  20  21
HETATM   21  C   UNL     1      -8.484   4.550  68.201  1.00  0.00    -0.099 C  
BRANCH  21  22
HETATM   22  C   UNL     1      -8.064   3.298  68.919  1.00  0.00    -0.060 C  
HETATM   23  O   UNL     1      -7.825   3.203  70.113  1.00  0.00    -0.043 OA 
BRANCH  22  24
HETATM   24  O   UNL     1      -7.842   2.324  67.996  1.00  0.00    -0.058 OA 
BRANCH  24  25
HETATM   25  C   UNL     1      -9.054   1.776  67.453  1.00  0.00    -0.128 C  
BRANCH  25  26
HETATM   26  C   UNL     1      -8.874   1.758  65.924  1.00  0.00    -0.122 C  
BRANCH  26  27
HETATM   27  N   UNL     1      -8.412   3.004  65.306  1.00  0.00    -0.097 NA 
HETATM   28  C   UNL     1      -7.673   2.797  64.043  1.00  0.00    -0.076 C  
HETATM   29  C   UNL     1      -8.561   2.352  62.870  1.00  0.00    -0.081 C  
HETATM   30  O   UNL     1      -9.626   3.282  62.642  1.00  0.00    -0.093 OA 
HETATM   31  C   UNL     1     -10.420   3.455  63.821  1.00  0.00    -0.256 C  
HETATM   32  C   UNL     1      -9.562   3.899  65.021  1.00  0.00    -0.181 C  
ENDBRANCH  26  27
ENDBRANCH  25  26
ENDBRANCH  24  25
ENDBRANCH  22  24
ENDBRANCH  21  22
ENDBRANCH  20  21
ENDBRANCH  18  20
ENDBRANCH  16  17
ENDBRANCH   4  16
ENDBRANCH   2   3
TORSDOF 10
ENDMDL
MODEL      267
REMARK 921   NORMALIZED FREE ENERGY PREDICTED BY IDOCK:   -1.74 KCAL/MOL
REMARK 922        TOTAL FREE ENERGY PREDICTED BY IDOCK:   -4.30 KCAL/MOL
REMARK 923 INTER-LIGAND FREE ENERGY PREDICTED BY IDOCK:   -4.99 KCAL/MOL
REMARK 924 INTRA-LIGAND FREE ENERGY PREDICTED BY IDOCK:    0.69 KCAL/MOL
REMARK 927      BINDING AFFINITY PREDICTED BY RF-SCORE:    0.00 PKD
ROOT
HETATM    1  C   UNL     1      -6.548   8.373  73.073  1.00  0.00    -0.090 C  
HETATM    2  O   UNL     1      -6.471   7.446  71.992  1.00  0.00    -0.043 OA 
ENDROOT
BRANCH   2   3
HETATM    3  C   UNL     1      -7.321   6.360  72.037  1.00  0.00    -0.092 A  
HETATM    4  C   UNL     1      -8.429   6.186  71.148  1.00  0.00    -0.125 A  
HETATM    5  C   UNL     1      -9.158   4.977  71.239  1.00  0.00    -0.143 A  
HETATM    6  C   UNL     1      -7.658   4.163  72.959  1.00  0.00    -0.080 A  
HETATM    7  O   UNL     1     -10.297   4.727  70.536  1.00  0.00    -0.218 OA 
HETATM    8  C   UNL     1      -6.928   5.347  72.947  1.00  0.00    -0.083 A  
HETATM    9  C   UNL     1      -8.740   3.990  72.121  1.00  0.00    -0.121 A  
HETATM   10  C   UNL     1      -9.288   2.647  72.333  1.00  0.00    -0.094 C  
HETATM   11  C   UNL     1      -5.768   5.549  73.881  1.00  0.00    -0.036 C  
HETATM   12  H   UNL     1     -10.787   3.916  70.597  1.00  0.00     0.000 HD 
HETATM   13  O   UNL     1      -8.522   2.065  73.316  1.00  0.00    -0.060 OA 
HETATM   14  C   UNL     1      -7.492   2.947  73.789  1.00  0.00    -0.051 C  
HETATM   15  O   UNL     1     -10.206   2.094  71.759  1.00  0.00    -0.144 OA 
BRANCH   4  16
HETATM   16  C   UNL     1      -8.811   7.333  70.234  1.00  0.00    -0.147 C  
BRANCH  16  17
HETATM   17  C   UNL     1      -8.140   8.660  70.384  1.00  0.00    -0.107 C  
HETATM   18  C   UNL     1      -7.573   9.393  69.407  1.00  0.00    -0.083 C  
HETATM   19  C   UNL     1      -7.565   9.032  67.945  1.00  0.00    -0.093 C  
BRANCH  18  20
HETATM   20  C   UNL     1      -6.864  10.674  69.771  1.00  0.00    -0.143 C  
BRANCH  20  21
HETATM   21  C   UNL     1      -6.474  11.444  68.516  1.00  0.00    -0.056 C  
BRANCH  21  22
HETATM   22  C   UNL     1      -6.888  12.884  68.627  1.00  0.00    -0.099 C  
HETATM   23  O   UNL     1      -6.776  13.586  69.621  1.00  0.00    -0.069 OA 
BRANCH  22  24
HETATM   24  O   UNL     1      -7.547  13.234  67.491  1.00  0.00    -0.151 OA 
BRANCH  24  25
HETATM   25  C   UNL     1      -8.277  14.465  67.620  1.00  0.00    -0.176 C  
BRANCH  25  26
HETATM   26  C   UNL     1      -9.480  14.358  66.666  1.00  0.00    -0.283 C  
BRANCH  26  27
HETATM   27  N   UNL     1     -10.795  14.185  67.290  1.00  0.00    -0.282 NA 
HETATM   28  C   UNL     1     -11.920  14.555  66.407  1.00  0.00    -0.334 C  
HETATM   29  C   UNL     1     -12.155  13.567  65.253  1.00  0.00    -0.411 C  
HETATM   30  O   UNL     1     -12.363  12.237  65.743  1.00  0.00    -0.622 OA 
HETATM   31  C   UNL     1     -11.256  11.804  66.543  1.00  0.00    -0.321 C  
HETATM   32  C   UNL     1     -10.988  12.774  67.709  1.00  0.00    -0.237 C  
ENDBRANCH  26  27
ENDBRANCH  25  26
ENDBRANCH  24  25
ENDBRANCH  22  24
ENDBRANCH  21  22
ENDBRANCH  20  21
ENDBRANCH  18  20
ENDBRANCH  16  17
ENDBRANCH   4  16
ENDBRANCH   2   3
TORSDOF 10
ENDMDL
MODEL      268
REMARK 921   NORMALIZED FREE ENERGY PREDICTED BY IDOCK:   -1.42 KCAL/MOL
REMARK 922        TOTAL FREE ENERGY PREDICTED BY IDOCK:   -3.79 KCAL/MOL
REMARK 923 INTER-LIGAND FREE ENERGY PREDICTED BY IDOCK:   -4.47 KCAL/MOL
REMARK 924 INTRA-LIGAND FREE ENERGY PREDICTED BY IDOCK:    0.69 KCAL/MOL
REMARK 927      BINDING AFFINITY PREDICTED BY RF-SCORE:    0.00 PKD
ROOT
HETATM    1  C   UNL     1     -11.689   5.990  70.308  1.00  0.00     0.129 C  
HETATM    2  O   UNL     1     -11.574   7.300  70.860  1.00  0.00    -0.282 OA 
ENDROOT
BRANCH   2   3
HETATM    3  C   UNL     1     -10.331   7.675  71.328  1.00  0.00    -0.198 A  
HETATM    4  C   UNL     1      -9.503   8.647  70.681  1.00  0.00    -0.218 A  
HETATM    5  C   UNL     1      -8.296   9.011  71.323  1.00  0.00    -0.120 A  
HETATM    6  C   UNL     1      -8.813   7.556  73.191  1.00  0.00    -0.210 A  
HETATM    7  O   UNL     1      -7.365   9.834  70.769  1.00  0.00    -0.285 OA 
HETATM    8  C   UNL     1      -9.991   7.126  72.589  1.00  0.00    -0.208 A  
HETATM    9  C   UNL     1      -7.996   8.477  72.569  1.00  0.00    -0.105 A  
HETATM   10  C   UNL     1      -6.854   8.758  73.444  1.00  0.00     0.130 C  
HETATM   11  C   UNL     1     -10.867   6.100  73.252  1.00  0.00    -0.268 C  
HETATM   12  H   UNL     1      -6.554  10.078  71.200  1.00  0.00     0.000 HD 
HETATM   13  O   UNL     1      -7.018   7.972  74.561  1.00  0.00    -0.125 OA 
HETATM   14  C   UNL     1      -8.202   7.164  74.482  1.00  0.00    -0.173 C  
HETATM   15  O   UNL     1      -5.942   9.545  73.285  1.00  0.00    -0.307 OA 
BRANCH   4  16
HETATM   16  C   UNL     1      -9.916   9.155  69.314  1.00  0.00    -0.187 C  
BRANCH  16  17
HETATM   17  C   UNL     1     -10.605  10.475  69.187  1.00  0.00    -0.258 C  
HETATM   18  C   UNL     1     -10.044  11.647  68.835  1.00  0.00    -0.109 C  
HETATM   19  C   UNL     1      -8.604  11.836  68.437  1.00  0.00    -0.156 C  
BRANCH  18  20
HETATM   20  C   UNL     1     -10.891  12.896  68.847  1.00  0.00    -0.239 C  
BRANCH  20  21
HETATM   21  C   UNL     1     -11.995  12.802  67.802  1.00  0.00    -0.316 C  
BRANCH  21  22
HETATM   22  C   UNL     1     -11.491  13.247  66.457  1.00  0.00    -0.337 C  
HETATM   23  O   UNL     1     -12.168  13.391  65.451  1.00  0.00    -0.397 OA 
BRANCH  22  24
HETATM   24  O   UNL     1     -10.134  13.313  66.505  1.00  0.00    -0.262 OA 
BRANCH  24  25
HETATM   25  C   UNL     1      -9.516  13.128  65.221  1.00  0.00     0.310 C  
BRANCH  25  26
HETATM   26  C   UNL     1      -9.927  11.725  64.741  1.00  0.00    -0.243 C  
BRANCH  26  27
HETATM   27  N   UNL     1      -9.307  10.591  65.432  1.00  0.00    -0.195 NA 
HETATM   28  C   UNL     1      -9.561   9.291  64.777  1.00  0.00     0.232 C  
HETATM   29  C   UNL     1      -8.807   9.105  63.451  1.00  0.00    -0.063 C  
HETATM   30  O   UNL     1      -7.395   9.272  63.627  1.00  0.00    -0.098 OA 
HETATM   31  C   UNL     1      -7.095  10.556  64.188  1.00  0.00     0.127 C  
HETATM   32  C   UNL     1      -7.837  10.778  65.520  1.00  0.00    -0.041 C  
ENDBRANCH  26  27
ENDBRANCH  25  26
ENDBRANCH  24  25
ENDBRANCH  22  24
ENDBRANCH  21  22
ENDBRANCH  20  21
ENDBRANCH  18  20
ENDBRANCH  16  17
ENDBRANCH   4  16
ENDBRANCH   2   3
TORSDOF 10
ENDMDL
MODEL      269
REMARK 921   NORMALIZED FREE ENERGY PREDICTED BY IDOCK:   -1.19 KCAL/MOL
REMARK 922        TOTAL FREE ENERGY PREDICTED BY IDOCK:   -3.43 KCAL/MOL
REMARK 923 INTER-LIGAND FREE ENERGY PREDICTED BY IDOCK:   -3.08 KCAL/MOL
REMARK 924 INTRA-LIGAND FREE ENERGY PREDICTED BY IDOCK:   -0.35 KCAL/MOL
REMARK 927      BINDING AFFINITY PREDICTED BY RF-SCORE:    0.00 PKD
ROOT
HETATM    1  C   UNL     1      -6.236  11.554  68.330  1.00  0.00    -0.049 C  
HETATM    2  O   UNL     1      -7.235  10.550  68.163  1.00  0.00    -0.084 OA 
ENDROOT
BRANCH   2   3
HETATM    3  C   UNL     1      -7.409  10.048  66.890  1.00  0.00    -0.092 A  
HETATM    4  C   UNL     1      -6.710   8.904  66.388  1.00  0.00    -0.074 A  
HETATM    5  C   UNL     1      -7.058   8.435  65.100  1.00  0.00    -0.075 A  
HETATM    6  C   UNL     1      -8.776  10.134  64.911  1.00  0.00    -0.198 A  
HETATM    7  O   UNL     1      -6.400   7.431  64.458  1.00  0.00    -0.040 OA 
HETATM    8  C   UNL     1      -8.449  10.668  66.153  1.00  0.00    -0.159 A  
HETATM    9  C   UNL     1      -8.097   9.044  64.407  1.00  0.00    -0.146 A  
HETATM   10  C   UNL     1      -8.674   8.690  63.108  1.00  0.00     0.079 C  
HETATM   11  C   UNL     1      -9.168  11.874  66.689  1.00  0.00    -0.206 C  
HETATM   12  H   UNL     1      -6.634   7.116  63.593  1.00  0.00     0.000 HD 
HETATM   13  O   UNL     1      -9.674   9.602  62.865  1.00  0.00     0.175 OA 
HETATM   14  C   UNL     1      -9.796  10.563  63.926  1.00  0.00    -0.310 C  
HETATM   15  O   UNL     1      -8.392   7.766  62.370  1.00  0.00    -0.153 OA 
BRANCH   4  16
HETATM   16  C   UNL     1      -5.582   8.323  67.219  1.00  0.00    -0.038 C  
BRANCH  16  17
HETATM   17  C   UNL     1      -5.883   7.323  68.288  1.00  0.00    -0.023 C  
HETATM   18  C   UNL     1      -5.700   7.478  69.613  1.00  0.00    -0.023 C  
HETATM   19  C   UNL     1      -5.206   8.734  70.280  1.00  0.00    -0.021 C  
BRANCH  18  20
HETATM   20  C   UNL     1      -5.984   6.315  70.532  1.00  0.00    -0.026 C  
BRANCH  20  21
HETATM   21  C   UNL     1      -6.922   6.738  71.654  1.00  0.00    -0.070 C  
BRANCH  21  22
HETATM   22  C   UNL     1      -8.228   7.232  71.096  1.00  0.00    -0.107 C  
HETATM   23  O   UNL     1      -8.620   7.079  69.950  1.00  0.00    -0.139 OA 
BRANCH  22  24
HETATM   24  O   UNL     1      -8.832   8.010  72.034  1.00  0.00    -0.129 OA 
BRANCH  24  25
HETATM   25  C   UNL     1     -10.171   7.587  72.339  1.00  0.00    -0.212 C  
BRANCH  25  26
HETATM   26  C   UNL     1     -10.069   6.693  73.587  1.00  0.00    -0.276 C  
BRANCH  26  27
HETATM   27  N   UNL     1     -11.004   5.567  73.664  1.00  0.00    -0.248 NA 
HETATM   28  C   UNL     1     -11.504   5.125  72.346  1.00  0.00     0.001 C  
HETATM   29  C   UNL     1     -10.449   4.403  71.492  1.00  0.00     0.063 C  
HETATM   30  O   UNL     1      -9.901   3.277  72.186  1.00  0.00    -0.149 OA 
HETATM   31  C   UNL     1      -9.331   3.672  73.439  1.00  0.00    -0.104 C  
HETATM   32  C   UNL     1     -10.361   4.403  74.322  1.00  0.00    -0.245 C  
ENDBRANCH  26  27
ENDBRANCH  25  26
ENDBRANCH  24  25
ENDBRANCH  22  24
ENDBRANCH  21  22
ENDBRANCH  20  21
ENDBRANCH  18  20
ENDBRANCH  16  17
ENDBRANCH   4  16
ENDBRANCH   2   3
TORSDOF 10
ENDMDL
MODEL      270
REMARK 921   NORMALIZED FREE ENERGY PREDICTED BY IDOCK:   -1.18 KCAL/MOL
REMARK 922        TOTAL FREE ENERGY PREDICTED BY IDOCK:   -3.41 KCAL/MOL
REMARK 923 INTER-LIGAND FREE ENERGY PREDICTED BY IDOCK:   -4.23 KCAL/MOL
REMARK 924 INTRA-LIGAND FREE ENERGY PREDICTED BY IDOCK:    0.81 KCAL/MOL
REMARK 927      BINDING AFFINITY PREDICTED BY RF-SCORE:    0.00 PKD
ROOT
HETATM    1  C   UNL     1      -7.279   8.679  72.247  1.00  0.00    -0.001 C  
HETATM    2  O   UNL     1      -6.768   8.079  71.059  1.00  0.00    -0.040 OA 
ENDROOT
BRANCH   2   3
HETATM    3  C   UNL     1      -7.352   6.896  70.654  1.00  0.00    -0.074 A  
HETATM    4  C   UNL     1      -8.024   6.734  69.401  1.00  0.00    -0.115 A  
HETATM    5  C   UNL     1      -8.490   5.440  69.070  1.00  0.00    -0.100 A  
HETATM    6  C   UNL     1      -7.555   4.543  71.118  1.00  0.00    -0.071 A  
HETATM    7  O   UNL     1      -9.240   5.166  67.968  1.00  0.00    -0.110 OA 
HETATM    8  C   UNL     1      -7.112   5.799  71.519  1.00  0.00    -0.077 A  
HETATM    9  C   UNL     1      -8.222   4.376  69.922  1.00  0.00    -0.067 A  
HETATM   10  C   UNL     1      -8.537   2.955  69.755  1.00  0.00    -0.066 C  
HETATM   11  C   UNL     1      -6.412   5.987  72.836  1.00  0.00    -0.064 C  
HETATM   12  H   UNL     1      -9.553   4.298  67.745  1.00  0.00     0.000 HD 
HETATM   13  O   UNL     1      -8.064   2.317  70.877  1.00  0.00    -0.048 OA 
HETATM   14  C   UNL     1      -7.456   3.233  71.801  1.00  0.00    -0.051 C  
HETATM   15  O   UNL     1      -9.071   2.394  68.818  1.00  0.00    -0.109 OA 
BRANCH   4  16
HETATM   16  C   UNL     1      -8.279   7.963  68.552  1.00  0.00    -0.127 C  
BRANCH  16  17
HETATM   17  C   UNL     1      -7.819   9.304  69.026  1.00  0.00    -0.082 C  
HETATM   18  C   UNL     1      -7.292  10.288  68.274  1.00  0.00    -0.085 C  
HETATM   19  C   UNL     1      -7.122  10.242  66.778  1.00  0.00    -0.094 C  
BRANCH  18  20
HETATM   20  C   UNL     1      -6.804  11.545  68.952  1.00  0.00    -0.095 C  
BRANCH  20  21
HETATM   21  C   UNL     1      -6.718  12.692  67.952  1.00  0.00    -0.109 C  
BRANCH  21  22
HETATM   22  C   UNL     1      -7.320  13.943  68.527  1.00  0.00    -0.116 C  
HETATM   23  O   UNL     1      -7.137  14.372  69.656  1.00  0.00    -0.126 OA 
BRANCH  22  24
HETATM   24  O   UNL     1      -8.224  14.436  67.639  1.00  0.00    -0.149 OA 
BRANCH  24  25
HETATM   25  C   UNL     1      -9.516  14.670  68.221  1.00  0.00    -0.211 C  
BRANCH  25  26
HETATM   26  C   UNL     1     -10.533  14.578  67.069  1.00  0.00    -0.268 C  
BRANCH  26  27
HETATM   27  N   UNL     1      -9.988  14.648  65.710  1.00  0.00    -0.323 NA 
HETATM   28  C   UNL     1     -10.716  13.807  64.738  1.00  0.00    -0.416 C  
HETATM   29  C   UNL     1     -12.114  14.339  64.381  1.00  0.00    -0.468 C  
HETATM   30  O   UNL     1     -12.048  15.680  63.882  1.00  0.00    -0.574 OA 
HETATM   31  C   UNL     1     -11.418  16.551  64.829  1.00  0.00     0.042 C  
HETATM   32  C   UNL     1     -10.014  16.046  65.212  1.00  0.00    -0.029 C  
ENDBRANCH  26  27
ENDBRANCH  25  26
ENDBRANCH  24  25
ENDBRANCH  22  24
ENDBRANCH  21  22
ENDBRANCH  20  21
ENDBRANCH  18  20
ENDBRANCH  16  17
ENDBRANCH   4  16
ENDBRANCH   2   3
TORSDOF 10
ENDMDL
MODEL      271
REMARK 921   NORMALIZED FREE ENERGY PREDICTED BY IDOCK:   -0.87 KCAL/MOL
REMARK 922        TOTAL FREE ENERGY PREDICTED BY IDOCK:   -2.92 KCAL/MOL
REMARK 923 INTER-LIGAND FREE ENERGY PREDICTED BY IDOCK:   -4.16 KCAL/MOL
REMARK 924 INTRA-LIGAND FREE ENERGY PREDICTED BY IDOCK:    1.24 KCAL/MOL
REMARK 927      BINDING AFFINITY PREDICTED BY RF-SCORE:    0.00 PKD
ROOT
HETATM    1  C   UNL     1     -11.156   6.866  66.291  1.00  0.00     1.242 C  
HETATM    2  O   UNL     1     -11.410   6.541  67.656  1.00  0.00    -0.268 OA 
ENDROOT
BRANCH   2   3
HETATM    3  C   UNL     1     -10.653   5.529  68.210  1.00  0.00    -0.136 A  
HETATM    4  C   UNL     1     -10.487   5.345  69.619  1.00  0.00    -0.361 A  
HETATM    5  C   UNL     1      -9.767   4.207  70.052  1.00  0.00    -0.212 A  
HETATM    6  C   UNL     1      -9.498   3.466  67.760  1.00  0.00    -0.229 A  
HETATM    7  O   UNL     1      -9.439   3.969  71.351  1.00  0.00    -0.137 OA 
HETATM    8  C   UNL     1     -10.159   4.587  67.272  1.00  0.00    -0.138 A  
HETATM    9  C   UNL     1      -9.314   3.287  69.116  1.00  0.00    -0.233 A  
HETATM   10  C   UNL     1      -8.618   2.015  69.331  1.00  0.00    -0.056 C  
HETATM   11  C   UNL     1     -10.334   4.799  65.794  1.00  0.00    -0.268 C  
HETATM   12  H   UNL     1      -8.955   3.206  71.642  1.00  0.00     0.000 HD 
HETATM   13  O   UNL     1      -8.386   1.482  68.084  1.00  0.00    -0.057 OA 
HETATM   14  C   UNL     1      -8.878   2.332  67.036  1.00  0.00    -0.132 C  
HETATM   15  O   UNL     1      -8.316   1.474  70.377  1.00  0.00    -0.041 OA 
BRANCH   4  16
HETATM   16  C   UNL     1     -11.007   6.418  70.555  1.00  0.00    -0.364 C  
BRANCH  16  17
HETATM   17  C   UNL     1     -10.101   7.012  71.584  1.00  0.00    -0.194 C  
HETATM   18  C   UNL     1     -10.148   8.265  72.075  1.00  0.00    -0.331 C  
HETATM   19  C   UNL     1     -11.180   9.300  71.714  1.00  0.00    -0.413 C  
BRANCH  18  20
HETATM   20  C   UNL     1      -9.086   8.708  73.051  1.00  0.00     0.042 C  
BRANCH  20  21
HETATM   21  C   UNL     1      -7.786   7.953  72.806  1.00  0.00    -0.157 C  
BRANCH  21  22
HETATM   22  C   UNL     1      -7.032   8.557  71.655  1.00  0.00    -0.088 C  
HETATM   23  O   UNL     1      -5.919   8.227  71.277  1.00  0.00    -0.034 OA 
BRANCH  22  24
HETATM   24  O   UNL     1      -7.725   9.636  71.202  1.00  0.00    -0.302 OA 
BRANCH  24  25
HETATM   25  C   UNL     1      -7.064  10.318  70.124  1.00  0.00    -0.148 C  
BRANCH  25  26
HETATM   26  C   UNL     1      -7.819   9.931  68.839  1.00  0.00    -0.091 C  
BRANCH  26  27
HETATM   27  N   UNL     1      -8.204  11.031  67.951  1.00  0.00    -0.116 NA 
HETATM   28  C   UNL     1      -7.690  10.886  66.574  1.00  0.00    -0.149 C  
HETATM   29  C   UNL     1      -8.382   9.775  65.767  1.00  0.00    -0.129 C  
HETATM   30  O   UNL     1      -9.800   9.974  65.719  1.00  0.00    -0.240 OA 
HETATM   31  C   UNL     1     -10.355  10.042  67.038  1.00  0.00    -0.243 C  
HETATM   32  C   UNL     1      -9.682  11.144  67.878  1.00  0.00    -0.174 C  
ENDBRANCH  26  27
ENDBRANCH  25  26
ENDBRANCH  24  25
ENDBRANCH  22  24
ENDBRANCH  21  22
ENDBRANCH  20  21
ENDBRANCH  18  20
ENDBRANCH  16  17
ENDBRANCH   4  16
ENDBRANCH   2   3
TORSDOF 10
ENDMDL
MODEL      272
REMARK 921   NORMALIZED FREE ENERGY PREDICTED BY IDOCK:   -0.19 KCAL/MOL
REMARK 922        TOTAL FREE ENERGY PREDICTED BY IDOCK:   -1.84 KCAL/MOL
REMARK 923 INTER-LIGAND FREE ENERGY PREDICTED BY IDOCK:   -3.63 KCAL/MOL
REMARK 924 INTRA-LIGAND FREE ENERGY PREDICTED BY IDOCK:    1.79 KCAL/MOL
REMARK 927      BINDING AFFINITY PREDICTED BY RF-SCORE:    0.00 PKD
ROOT
HETATM    1  C   UNL     1      -7.050   9.040  72.345  1.00  0.00     0.307 C  
HETATM    2  O   UNL     1      -6.670   8.610  71.039  1.00  0.00    -0.050 OA 
ENDROOT
BRANCH   2   3
HETATM    3  C   UNL     1      -7.006   7.319  70.684  1.00  0.00    -0.057 A  
HETATM    4  C   UNL     1      -7.210   6.899  69.331  1.00  0.00    -0.089 A  
HETATM    5  C   UNL     1      -7.451   5.525  69.101  1.00  0.00    -0.078 A  
HETATM    6  C   UNL     1      -7.194   5.051  71.464  1.00  0.00    -0.069 A  
HETATM    7  O   UNL     1      -7.771   5.008  67.883  1.00  0.00    -0.083 OA 
HETATM    8  C   UNL     1      -6.995   6.395  71.758  1.00  0.00    -0.076 A  
HETATM    9  C   UNL     1      -7.412   4.635  70.166  1.00  0.00    -0.054 A  
HETATM   10  C   UNL     1      -7.558   3.177  70.158  1.00  0.00    -0.044 C  
HETATM   11  C   UNL     1      -6.788   6.853  73.175  1.00  0.00    -0.074 C  
HETATM   12  H   UNL     1      -7.933   4.085  67.728  1.00  0.00     0.000 HD 
HETATM   13  O   UNL     1      -7.444   2.768  71.467  1.00  0.00    -0.039 OA 
HETATM   14  C   UNL     1      -7.241   3.873  72.360  1.00  0.00    -0.056 C  
HETATM   15  O   UNL     1      -7.711   2.427  69.214  1.00  0.00    -0.043 OA 
BRANCH   4  16
HETATM   16  C   UNL     1      -7.249   7.955  68.243  1.00  0.00    -0.090 C  
BRANCH  16  17
HETATM   17  C   UNL     1      -7.100   9.398  68.601  1.00  0.00    -0.070 C  
HETATM   18  C   UNL     1      -6.653  10.386  67.802  1.00  0.00    -0.065 C  
HETATM   19  C   UNL     1      -6.271  10.225  66.354  1.00  0.00    -0.076 C  
BRANCH  18  20
HETATM   20  C   UNL     1      -6.490  11.773  68.374  1.00  0.00    -0.053 C  
BRANCH  20  21
HETATM   21  C   UNL     1      -7.260  12.788  67.539  1.00  0.00    -0.154 C  
BRANCH  21  22
HETATM   22  C   UNL     1      -6.542  14.108  67.516  1.00  0.00    -0.076 C  
HETATM   23  O   UNL     1      -5.352  14.271  67.297  1.00  0.00    -0.289 OA 
BRANCH  22  24
HETATM   24  O   UNL     1      -7.403  15.076  67.929  1.00  0.00    -0.116 OA 
BRANCH  24  25
HETATM   25  C   UNL     1      -6.999  16.396  67.531  1.00  0.00    -0.148 C  
BRANCH  25  26
HETATM   26  C   UNL     1      -7.961  17.372  68.231  1.00  0.00    -0.253 C  
BRANCH  26  27
HETATM   27  N   UNL     1      -9.375  16.989  68.258  1.00  0.00    -0.247 NA 
HETATM   28  C   UNL     1     -10.199  17.835  69.146  1.00  0.00    -0.211 C  
HETATM   29  C   UNL     1     -10.426  19.259  68.614  1.00  0.00    -0.087 C  
HETATM   30  O   UNL     1     -11.016  19.238  67.309  1.00  0.00    -0.483 OA 
HETATM   31  C   UNL     1     -10.208  18.492  66.390  1.00  0.00    -0.420 C  
HETATM   32  C   UNL     1      -9.957  17.058  66.894  1.00  0.00    -0.289 C  
ENDBRANCH  26  27
ENDBRANCH  25  26
ENDBRANCH  24  25
ENDBRANCH  22  24
ENDBRANCH  21  22
ENDBRANCH  20  21
ENDBRANCH  18  20
ENDBRANCH  16  17
ENDBRANCH   4  16
ENDBRANCH   2   3
TORSDOF 10
ENDMDL
MODEL      273
REMARK 921   NORMALIZED FREE ENERGY PREDICTED BY IDOCK:   -0.16 KCAL/MOL
REMARK 922        TOTAL FREE ENERGY PREDICTED BY IDOCK:   -1.79 KCAL/MOL
REMARK 923 INTER-LIGAND FREE ENERGY PREDICTED BY IDOCK:   -4.97 KCAL/MOL
REMARK 924 INTRA-LIGAND FREE ENERGY PREDICTED BY IDOCK:    3.17 KCAL/MOL
REMARK 927      BINDING AFFINITY PREDICTED BY RF-SCORE:    0.00 PKD
ROOT
HETATM    1  C   UNL     1     -11.338   9.519  70.047  1.00  0.00    -0.166 C  
HETATM    2  O   UNL     1     -10.502   8.502  69.499  1.00  0.00    -0.217 OA 
ENDROOT
BRANCH   2   3
HETATM    3  C   UNL     1     -10.061   7.522  70.364  1.00  0.00    -0.196 A  
HETATM    4  C   UNL     1      -8.693   7.112  70.465  1.00  0.00    -0.149 A  
HETATM    5  C   UNL     1      -8.364   6.167  71.464  1.00  0.00    -0.127 A  
HETATM    6  C   UNL     1     -10.657   6.148  72.248  1.00  0.00    -0.251 A  
HETATM    7  O   UNL     1      -7.129   5.609  71.598  1.00  0.00    -0.075 OA 
HETATM    8  C   UNL     1     -11.051   7.042  71.258  1.00  0.00    -0.282 A  
HETATM    9  C   UNL     1      -9.345   5.730  72.343  1.00  0.00    -0.152 A  
HETATM   10  C   UNL     1      -9.224   4.822  73.487  1.00  0.00    -0.119 C  
HETATM   11  C   UNL     1     -12.485   7.474  71.134  1.00  0.00    -0.306 C  
HETATM   12  H   UNL     1      -6.908   4.974  72.269  1.00  0.00     0.000 HD 
HETATM   13  O   UNL     1     -10.483   4.708  74.029  1.00  0.00    -0.215 OA 
HETATM   14  C   UNL     1     -11.452   5.482  73.305  1.00  0.00    -0.061 C  
HETATM   15  O   UNL     1      -8.232   4.281  73.935  1.00  0.00    -0.094 OA 
BRANCH   4  16
HETATM   16  C   UNL     1      -7.703   7.639  69.444  1.00  0.00    -0.107 C  
BRANCH  16  17
HETATM   17  C   UNL     1      -8.190   8.431  68.275  1.00  0.00    -0.124 C  
HETATM   18  C   UNL     1      -8.853   7.961  67.201  1.00  0.00    -0.137 C  
HETATM   19  C   UNL     1      -9.288   6.533  67.006  1.00  0.00    -0.155 C  
BRANCH  18  20
HETATM   20  C   UNL     1      -9.187   8.908  66.075  1.00  0.00    -0.287 C  
BRANCH  20  21
HETATM   21  C   UNL     1      -9.037  10.354  66.531  1.00  0.00    -0.175 C  
BRANCH  21  22
HETATM   22  C   UNL     1     -10.384  10.977  66.768  1.00  0.00    -0.238 C  
HETATM   23  O   UNL     1     -11.351  10.895  66.027  1.00  0.00     0.026 OA 
BRANCH  22  24
HETATM   24  O   UNL     1     -10.304  11.775  67.866  1.00  0.00    -0.185 OA 
BRANCH  24  25
HETATM   25  C   UNL     1     -10.008  13.144  67.547  1.00  0.00    -0.223 C  
BRANCH  25  26
HETATM   26  C   UNL     1     -10.669  13.424  66.186  1.00  0.00    -0.284 C  
BRANCH  26  27
HETATM   27  N   UNL     1     -11.863  14.274  66.202  1.00  0.00    -0.391 NA 
HETATM   28  C   UNL     1     -12.652  14.160  67.445  1.00  0.00     0.341 C  
HETATM   29  C   UNL     1     -11.979  14.802  68.669  1.00  0.00    -0.257 C  
HETATM   30  O   UNL     1     -11.676  16.181  68.432  1.00  0.00    -0.320 OA 
HETATM   31  C   UNL     1     -10.844  16.335  67.276  1.00  0.00    -0.216 C  
HETATM   32  C   UNL     1     -11.487  15.700  66.029  1.00  0.00     0.174 C  
ENDBRANCH  26  27
ENDBRANCH  25  26
ENDBRANCH  24  25
ENDBRANCH  22  24
ENDBRANCH  21  22
ENDBRANCH  20  21
ENDBRANCH  18  20
ENDBRANCH  16  17
ENDBRANCH   4  16
ENDBRANCH   2   3
TORSDOF 10
ENDMDL
MODEL      274
REMARK 921   NORMALIZED FREE ENERGY PREDICTED BY IDOCK:   -0.11 KCAL/MOL
REMARK 922        TOTAL FREE ENERGY PREDICTED BY IDOCK:   -1.72 KCAL/MOL
REMARK 923 INTER-LIGAND FREE ENERGY PREDICTED BY IDOCK:   -2.72 KCAL/MOL
REMARK 924 INTRA-LIGAND FREE ENERGY PREDICTED BY IDOCK:    1.00 KCAL/MOL
REMARK 927      BINDING AFFINITY PREDICTED BY RF-SCORE:    0.00 PKD
ROOT
HETATM    1  C   UNL     1     -10.152   7.607  67.927  1.00  0.00    -0.185 C  
HETATM    2  O   UNL     1      -8.994   8.437  67.987  1.00  0.00    -0.137 OA 
ENDROOT
BRANCH   2   3
HETATM    3  C   UNL     1      -8.400   8.772  66.787  1.00  0.00    -0.108 A  
HETATM    4  C   UNL     1      -7.656   9.977  66.582  1.00  0.00    -0.104 A  
HETATM    5  C   UNL     1      -7.016  10.147  65.332  1.00  0.00    -0.139 A  
HETATM    6  C   UNL     1      -7.776   7.962  64.609  1.00  0.00    -0.120 A  
HETATM    7  O   UNL     1      -6.371  11.288  64.963  1.00  0.00    -0.158 OA 
HETATM    8  C   UNL     1      -8.463   7.756  65.800  1.00  0.00    -0.155 A  
HETATM    9  C   UNL     1      -7.071   9.128  64.390  1.00  0.00    -0.091 A  
HETATM   10  C   UNL     1      -6.433   9.051  63.073  1.00  0.00    -0.090 C  
HETATM   11  C   UNL     1      -9.256   6.500  66.028  1.00  0.00    -0.077 C  
HETATM   12  H   UNL     1      -5.942  11.402  64.124  1.00  0.00     0.000 HD 
HETATM   13  O   UNL     1      -6.800   7.840  62.533  1.00  0.00    -0.078 OA 
HETATM   14  C   UNL     1      -7.662   7.099  63.410  1.00  0.00    -0.119 C  
HETATM   15  O   UNL     1      -5.690   9.848  62.534  1.00  0.00    -0.089 OA 
BRANCH   4  16
HETATM   16  C   UNL     1      -7.673  11.032  67.670  1.00  0.00    -0.112 C  
BRANCH  16  17
HETATM   17  C   UNL     1      -7.467  10.635  69.096  1.00  0.00    -0.123 C  
HETATM   18  C   UNL     1      -6.391  10.903  69.860  1.00  0.00    -0.132 C  
HETATM   19  C   UNL     1      -5.201  11.719  69.430  1.00  0.00    -0.056 C  
BRANCH  18  20
HETATM   20  C   UNL     1      -6.329  10.340  71.259  1.00  0.00     0.321 C  
BRANCH  20  21
HETATM   21  C   UNL     1      -6.449   8.822  71.229  1.00  0.00    -0.071 C  
BRANCH  21  22
HETATM   22  C   UNL     1      -6.725   8.285  72.606  1.00  0.00    -0.092 C  
HETATM   23  O   UNL     1      -7.030   8.947  73.585  1.00  0.00    -0.353 OA 
BRANCH  22  24
HETATM   24  O   UNL     1      -6.429   6.957  72.619  1.00  0.00    -0.053 OA 
BRANCH  24  25
HETATM   25  C   UNL     1      -6.651   6.318  71.352  1.00  0.00    -0.054 C  
BRANCH  25  26
HETATM   26  C   UNL     1      -6.704   4.806  71.634  1.00  0.00    -0.039 C  
BRANCH  26  27
HETATM   27  N   UNL     1      -7.769   4.054  70.964  1.00  0.00    -0.054 NA 
HETATM   28  C   UNL     1      -8.365   4.769  69.818  1.00  0.00    -0.075 C  
HETATM   29  C   UNL     1      -7.439   4.863  68.595  1.00  0.00    -0.069 C  
HETATM   30  O   UNL     1      -7.011   3.566  68.165  1.00  0.00    -0.049 OA 
HETATM   31  C   UNL     1      -6.354   2.863  69.227  1.00  0.00    -0.029 C  
HETATM   32  C   UNL     1      -7.254   2.752  70.472  1.00  0.00    -0.033 C  
ENDBRANCH  26  27
ENDBRANCH  25  26
ENDBRANCH  24  25
ENDBRANCH  22  24
ENDBRANCH  21  22
ENDBRANCH  20  21
ENDBRANCH  18  20
ENDBRANCH  16  17
ENDBRANCH   4  16
ENDBRANCH   2   3
TORSDOF 10
ENDMDL
MODEL      275
REMARK 921   NORMALIZED FREE ENERGY PREDICTED BY IDOCK:    3.00 KCAL/MOL
REMARK 922        TOTAL FREE ENERGY PREDICTED BY IDOCK:    3.22 KCAL/MOL
REMARK 923 INTER-LIGAND FREE ENERGY PREDICTED BY IDOCK:   -1.55 KCAL/MOL
REMARK 924 INTRA-LIGAND FREE ENERGY PREDICTED BY IDOCK:    4.77 KCAL/MOL
REMARK 927      BINDING AFFINITY PREDICTED BY RF-SCORE:    0.00 PKD
ROOT
HETATM    1  C   UNL     1      -9.109   4.766  71.037  1.00  0.00    -0.132 C  
HETATM    2  O   UNL     1      -9.411   6.014  71.657  1.00  0.00    -0.149 OA 
ENDROOT
BRANCH   2   3
HETATM    3  C   UNL     1      -8.422   6.977  71.639  1.00  0.00    -0.115 A  
HETATM    4  C   UNL     1      -7.873   7.524  70.436  1.00  0.00    -0.097 A  
HETATM    5  C   UNL     1      -6.937   8.576  70.562  1.00  0.00    -0.040 A  
HETATM    6  C   UNL     1      -7.193   8.559  72.972  1.00  0.00    -0.048 A  
HETATM    7  O   UNL     1      -6.255   9.111  69.512  1.00  0.00    -0.039 OA 
HETATM    8  C   UNL     1      -8.086   7.494  72.915  1.00  0.00    -0.134 A  
HETATM    9  C   UNL     1      -6.641   9.082  71.821  1.00  0.00    -0.017 A  
HETATM   10  C   UNL     1      -5.770  10.203  72.186  1.00  0.00     0.374 C  
HETATM   11  C   UNL     1      -8.664   6.903  74.170  1.00  0.00    -0.194 C  
HETATM   12  H   UNL     1      -5.626   9.818  69.597  1.00  0.00     0.000 HD 
HETATM   13  O   UNL     1      -5.812  10.298  73.557  1.00  0.00     0.075 OA 
HETATM   14  C   UNL     1      -6.657   9.294  74.140  1.00  0.00     0.378 C  
HETATM   15  O   UNL     1      -5.143  10.954  71.463  1.00  0.00    -0.140 OA 
BRANCH   4  16
HETATM   16  C   UNL     1      -8.251   6.887  69.113  1.00  0.00    -0.121 C  
BRANCH  16  17
HETATM   17  C   UNL     1      -7.318   6.978  67.949  1.00  0.00    -0.097 C  
HETATM   18  C   UNL     1      -7.396   7.839  66.917  1.00  0.00    -0.090 C  
HETATM   19  C   UNL     1      -8.424   8.930  66.773  1.00  0.00    -0.117 C  
BRANCH  18  20
HETATM   20  C   UNL     1      -6.404   7.718  65.786  1.00  0.00    -0.042 C  
BRANCH  20  21
HETATM   21  C   UNL     1      -6.291   9.036  65.032  1.00  0.00    -0.065 C  
BRANCH  21  22
HETATM   22  C   UNL     1      -6.789  10.174  65.877  1.00  0.00    -0.115 C  
HETATM   23  O   UNL     1      -6.286  10.566  66.919  1.00  0.00    -0.059 OA 
BRANCH  22  24
HETATM   24  O   UNL     1      -7.979  10.598  65.375  1.00  0.00    -0.148 OA 
BRANCH  24  25
HETATM   25  C   UNL     1      -8.113  12.028  65.373  1.00  0.00     1.413 C  
BRANCH  25  26
HETATM   26  C   UNL     1      -8.811  12.399  66.693  1.00  0.00    -0.156 C  
BRANCH  26  27
HETATM   27  N   UNL     1      -9.821  13.459  66.624  1.00  0.00    -0.271 NA 
HETATM   28  C   UNL     1     -10.787  13.282  65.520  1.00  0.00    -0.284 C  
HETATM   29  C   UNL     1     -11.777  12.127  65.741  1.00  0.00    -0.327 C  
HETATM   30  O   UNL     1     -12.495  12.286  66.970  1.00  0.00    -0.198 OA 
HETATM   31  C   UNL     1     -11.597  12.383  68.082  1.00  0.00    -0.341 C  
HETATM   32  C   UNL     1     -10.586  13.530  67.893  1.00  0.00    -0.248 C  
ENDBRANCH  26  27
ENDBRANCH  25  26
ENDBRANCH  24  25
ENDBRANCH  22  24
ENDBRANCH  21  22
ENDBRANCH  20  21
ENDBRANCH  18  20
ENDBRANCH  16  17
ENDBRANCH   4  16
ENDBRANCH   2   3
TORSDOF 10
ENDMDL
MODEL      276
REMARK 921   NORMALIZED FREE ENERGY PREDICTED BY IDOCK:    3.40 KCAL/MOL
REMARK 922        TOTAL FREE ENERGY PREDICTED BY IDOCK:    3.85 KCAL/MOL
REMARK 923 INTER-LIGAND FREE ENERGY PREDICTED BY IDOCK:    0.19 KCAL/MOL
REMARK 924 INTRA-LIGAND FREE ENERGY PREDICTED BY IDOCK:    3.65 KCAL/MOL
REMARK 927      BINDING AFFINITY PREDICTED BY RF-SCORE:    0.00 PKD
ROOT
HETATM    1  C   UNL     1     -10.288  11.344  70.459  1.00  0.00     2.307 C  
HETATM    2  O   UNL     1      -9.494  10.232  70.050  1.00  0.00    -0.122 OA 
ENDROOT
BRANCH   2   3
HETATM    3  C   UNL     1      -9.709   9.036  70.704  1.00  0.00    -0.234 A  
HETATM    4  C   UNL     1      -8.806   8.489  71.670  1.00  0.00    -0.272 A  
HETATM    5  C   UNL     1      -9.198   7.306  72.337  1.00  0.00    -0.134 A  
HETATM    6  C   UNL     1     -11.323   7.313  71.172  1.00  0.00    -0.294 A  
HETATM    7  O   UNL     1      -8.392   6.618  73.193  1.00  0.00    -0.116 OA 
HETATM    8  C   UNL     1     -10.976   8.451  70.452  1.00  0.00    -0.249 A  
HETATM    9  C   UNL     1     -10.453   6.764  72.091  1.00  0.00    -0.231 A  
HETATM   10  C   UNL     1     -11.095   5.601  72.710  1.00  0.00    -0.289 C  
HETATM   11  C   UNL     1     -11.910   9.033  69.428  1.00  0.00     0.897 C  
HETATM   12  H   UNL     1      -8.655   5.824  73.641  1.00  0.00     0.000 HD 
HETATM   13  O   UNL     1     -12.331   5.479  72.118  1.00  0.00     0.181 OA 
HETATM   14  C   UNL     1     -12.554   6.491  71.123  1.00  0.00     0.020 C  
HETATM   15  O   UNL     1     -10.684   4.879  73.596  1.00  0.00    -0.238 OA 
BRANCH   4  16
HETATM   16  C   UNL     1      -7.453   9.150  71.851  1.00  0.00     0.255 C  
BRANCH  16  17
HETATM   17  C   UNL     1      -6.707   9.658  70.661  1.00  0.00    -0.116 C  
HETATM   18  C   UNL     1      -6.096   8.919  69.715  1.00  0.00    -0.035 C  
HETATM   19  C   UNL     1      -6.105   7.414  69.649  1.00  0.00    -0.030 C  
BRANCH  18  20
HETATM   20  C   UNL     1      -5.315   9.619  68.630  1.00  0.00    -0.036 C  
BRANCH  20  21
HETATM   21  C   UNL     1      -5.641  11.107  68.614  1.00  0.00    -0.043 C  
BRANCH  21  22
HETATM   22  C   UNL     1      -6.769  11.392  67.663  1.00  0.00    -0.075 C  
HETATM   23  O   UNL     1      -7.949  11.145  67.857  1.00  0.00    -0.108 OA 
BRANCH  22  24
HETATM   24  O   UNL     1      -6.244  11.829  66.487  1.00  0.00    -0.094 OA 
BRANCH  24  25
HETATM   25  C   UNL     1      -5.913  10.760  65.586  1.00  0.00    -0.108 C  
BRANCH  25  26
HETATM   26  C   UNL     1      -6.343   9.457  66.284  1.00  0.00    -0.069 C  
BRANCH  26  27
HETATM   27  N   UNL     1      -6.987   8.446  65.442  1.00  0.00    -0.073 NA 
HETATM   28  C   UNL     1      -8.126   8.968  64.659  1.00  0.00    -0.144 C  
HETATM   29  C   UNL     1      -7.714   9.900  63.509  1.00  0.00    -0.143 C  
HETATM   30  O   UNL     1      -6.794   9.254  62.621  1.00  0.00    -0.094 OA 
HETATM   31  C   UNL     1      -5.632   8.800  63.326  1.00  0.00    -0.072 C  
HETATM   32  C   UNL     1      -6.008   7.864  64.490  1.00  0.00    -0.048 C  
ENDBRANCH  26  27
ENDBRANCH  25  26
ENDBRANCH  24  25
ENDBRANCH  22  24
ENDBRANCH  21  22
ENDBRANCH  20  21
ENDBRANCH  18  20
ENDBRANCH  16  17
ENDBRANCH   4  16
ENDBRANCH   2   3
TORSDOF 10
ENDMDL
MODEL      277
REMARK 921   NORMALIZED FREE ENERGY PREDICTED BY IDOCK:    3.41 KCAL/MOL
REMARK 922        TOTAL FREE ENERGY PREDICTED BY IDOCK:    3.86 KCAL/MOL
REMARK 923 INTER-LIGAND FREE ENERGY PREDICTED BY IDOCK:   -3.70 KCAL/MOL
REMARK 924 INTRA-LIGAND FREE ENERGY PREDICTED BY IDOCK:    7.56 KCAL/MOL
REMARK 927      BINDING AFFINITY PREDICTED BY RF-SCORE:    0.00 PKD
ROOT
HETATM    1  C   UNL     1      -5.776   9.598  66.778  1.00  0.00    -0.051 C  
HETATM    2  O   UNL     1      -6.590  10.609  67.369  1.00  0.00    -0.068 OA 
ENDROOT
BRANCH   2   3
HETATM    3  C   UNL     1      -7.787  10.203  67.924  1.00  0.00    -0.101 A  
HETATM    4  C   UNL     1      -7.885   9.220  68.959  1.00  0.00    -0.082 A  
HETATM    5  C   UNL     1      -9.165   8.971  69.507  1.00  0.00    -0.152 A  
HETATM    6  C   UNL     1     -10.138  10.685  68.096  1.00  0.00    -0.179 A  
HETATM    7  O   UNL     1      -9.421   7.988  70.414  1.00  0.00    -0.165 OA 
HETATM    8  C   UNL     1      -8.915  10.943  67.488  1.00  0.00    -0.136 A  
HETATM    9  C   UNL     1     -10.251   9.725  69.081  1.00  0.00    -0.211 A  
HETATM   10  C   UNL     1     -11.639   9.695  69.551  1.00  0.00     0.141 C  
HETATM   11  C   UNL     1      -8.796  11.966  66.394  1.00  0.00    -0.152 C  
HETATM   12  H   UNL     1     -10.280   7.821  70.782  1.00  0.00     0.000 HD 
HETATM   13  O   UNL     1     -12.321  10.631  68.809  1.00  0.00    -0.349 OA 
HETATM   14  C   UNL     1     -11.471  11.283  67.853  1.00  0.00    -0.288 C  
HETATM   15  O   UNL     1     -12.133   9.028  70.439  1.00  0.00    -0.040 OA 
BRANCH   4  16
HETATM   16  C   UNL     1      -6.641   8.442  69.340  1.00  0.00    -0.041 C  
BRANCH  16  17
HETATM   17  C   UNL     1      -6.709   6.958  69.498  1.00  0.00    -0.050 C  
HETATM   18  C   UNL     1      -7.219   6.075  68.617  1.00  0.00    -0.084 C  
HETATM   19  C   UNL     1      -7.768   6.422  67.259  1.00  0.00    -0.100 C  
BRANCH  18  20
HETATM   20  C   UNL     1      -7.277   4.616  68.996  1.00  0.00    -0.053 C  
BRANCH  20  21
HETATM   21  C   UNL     1      -6.606   4.386  70.343  1.00  0.00    -0.032 C  
BRANCH  21  22
HETATM   22  C   UNL     1      -7.394   5.035  71.446  1.00  0.00    -0.077 C  
HETATM   23  O   UNL     1      -6.945   5.432  72.510  1.00  0.00    -0.077 OA 
BRANCH  22  24
HETATM   24  O   UNL     1      -8.715   4.968  71.130  1.00  0.00    -0.123 OA 
BRANCH  24  25
HETATM   25  C   UNL     1      -9.544   4.608  72.248  1.00  0.00    -0.152 C  
BRANCH  25  26
HETATM   26  C   UNL     1     -10.919   5.248  71.991  1.00  0.00    -0.127 C  
BRANCH  26  27
HETATM   27  N   UNL     1     -11.225   6.467  72.746  1.00  0.00    -0.249 NA 
HETATM   28  C   UNL     1     -10.760   6.424  74.147  1.00  0.00     0.047 C  
HETATM   29  C   UNL     1      -9.233   6.517  74.298  1.00  0.00    -0.190 C  
HETATM   30  O   UNL     1      -8.719   7.698  73.671  1.00  0.00    -0.181 OA 
HETATM   31  C   UNL     1      -9.080   7.742  72.285  1.00  0.00    -0.149 C  
HETATM   32  C   UNL     1     -10.606   7.649  72.095  1.00  0.00    -0.232 C  
ENDBRANCH  26  27
ENDBRANCH  25  26
ENDBRANCH  24  25
ENDBRANCH  22  24
ENDBRANCH  21  22
ENDBRANCH  20  21
ENDBRANCH  18  20
ENDBRANCH  16  17
ENDBRANCH   4  16
ENDBRANCH   2   3
TORSDOF 10
ENDMDL
MODEL      278
REMARK 921   NORMALIZED FREE ENERGY PREDICTED BY IDOCK:    3.74 KCAL/MOL
REMARK 922        TOTAL FREE ENERGY PREDICTED BY IDOCK:    4.39 KCAL/MOL
REMARK 923 INTER-LIGAND FREE ENERGY PREDICTED BY IDOCK:    3.34 KCAL/MOL
REMARK 924 INTRA-LIGAND FREE ENERGY PREDICTED BY IDOCK:    1.05 KCAL/MOL
REMARK 927      BINDING AFFINITY PREDICTED BY RF-SCORE:    0.00 PKD
ROOT
HETATM    1  C   UNL     1      -7.872  10.289  73.521  1.00  0.00     6.956 C  
HETATM    2  O   UNL     1      -7.063   9.358  72.805  1.00  0.00     0.065 OA 
ENDROOT
BRANCH   2   3
HETATM    3  C   UNL     1      -7.718   8.459  71.987  1.00  0.00    -0.123 A  
HETATM    4  C   UNL     1      -7.538   8.405  70.568  1.00  0.00    -0.074 A  
HETATM    5  C   UNL     1      -8.194   7.369  69.864  1.00  0.00    -0.132 A  
HETATM    6  C   UNL     1      -9.069   6.469  71.937  1.00  0.00    -0.148 A  
HETATM    7  O   UNL     1      -8.201   7.266  68.506  1.00  0.00    -0.123 OA 
HETATM    8  C   UNL     1      -8.485   7.488  72.679  1.00  0.00    -0.150 A  
HETATM    9  C   UNL     1      -8.920   6.416  70.566  1.00  0.00    -0.151 A  
HETATM   10  C   UNL     1      -9.615   5.228  70.063  1.00  0.00    -0.174 C  
HETATM   11  C   UNL     1      -8.672   7.565  74.169  1.00  0.00    -0.282 C  
HETATM   12  H   UNL     1      -8.642   6.570  68.033  1.00  0.00     0.000 HD 
HETATM   13  O   UNL     1     -10.181   4.616  71.158  1.00  0.00    -0.192 OA 
HETATM   14  C   UNL     1      -9.916   5.335  72.372  1.00  0.00    -0.176 C  
HETATM   15  O   UNL     1      -9.678   4.800  68.927  1.00  0.00    -0.156 OA 
BRANCH   4  16
HETATM   16  C   UNL     1      -6.738   9.504  69.898  1.00  0.00    -0.063 C  
BRANCH  16  17
HETATM   17  C   UNL     1      -7.317  10.876  69.771  1.00  0.00    -0.016 C  
HETATM   18  C   UNL     1      -6.638  12.037  69.719  1.00  0.00     0.001 C  
HETATM   19  C   UNL     1      -5.138  12.167  69.716  1.00  0.00    -0.074 C  
BRANCH  18  20
HETATM   20  C   UNL     1      -7.409  13.334  69.677  1.00  0.00     0.564 C  
BRANCH  20  21
HETATM   21  C   UNL     1      -8.511  13.267  68.628  1.00  0.00     0.017 C  
BRANCH  21  22
HETATM   22  C   UNL     1      -8.793  14.633  68.068  1.00  0.00    -0.169 C  
HETATM   23  O   UNL     1      -8.056  15.604  68.143  1.00  0.00    -0.133 OA 
BRANCH  22  24
HETATM   24  O   UNL     1     -10.070  14.654  67.600  1.00  0.00    -0.227 OA 
BRANCH  24  25
HETATM   25  C   UNL     1     -10.234  15.497  66.449  1.00  0.00    -0.289 C  
BRANCH  25  26
HETATM   26  C   UNL     1     -11.677  15.283  65.958  1.00  0.00     0.104 C  
BRANCH  26  27
HETATM   27  N   UNL     1     -12.243  13.945  66.157  1.00  0.00    -0.449 NA 
HETATM   28  C   UNL     1     -13.196  13.545  65.102  1.00  0.00     0.171 C  
HETATM   29  C   UNL     1     -12.532  13.240  63.749  1.00  0.00    -0.262 C  
HETATM   30  O   UNL     1     -11.525  12.230  63.880  1.00  0.00    -0.363 OA 
HETATM   31  C   UNL     1     -10.533  12.612  64.839  1.00  0.00    -0.309 C  
HETATM   32  C   UNL     1     -11.164  12.928  66.209  1.00  0.00    -0.301 C  
ENDBRANCH  26  27
ENDBRANCH  25  26
ENDBRANCH  24  25
ENDBRANCH  22  24
ENDBRANCH  21  22
ENDBRANCH  20  21
ENDBRANCH  18  20
ENDBRANCH  16  17
ENDBRANCH   4  16
ENDBRANCH   2   3
TORSDOF 10
ENDMDL
MODEL      279
REMARK 921   NORMALIZED FREE ENERGY PREDICTED BY IDOCK:    5.09 KCAL/MOL
REMARK 922        TOTAL FREE ENERGY PREDICTED BY IDOCK:    6.52 KCAL/MOL
REMARK 923 INTER-LIGAND FREE ENERGY PREDICTED BY IDOCK:    4.79 KCAL/MOL
REMARK 924 INTRA-LIGAND FREE ENERGY PREDICTED BY IDOCK:    1.72 KCAL/MOL
REMARK 927      BINDING AFFINITY PREDICTED BY RF-SCORE:    0.00 PKD
ROOT
HETATM    1  C   UNL     1      -6.531  16.382  66.824  1.00  0.00    -0.016 C  
HETATM    2  O   UNL     1      -7.346  17.398  67.405  1.00  0.00    -0.162 OA 
ENDROOT
BRANCH   2   3
HETATM    3  C   UNL     1      -8.314  16.989  68.299  1.00  0.00    -0.228 A  
HETATM    4  C   UNL     1      -8.445  15.640  68.760  1.00  0.00    -0.192 A  
HETATM    5  C   UNL     1      -9.417  15.378  69.753  1.00  0.00    -0.149 A  
HETATM    6  C   UNL     1      -9.998  17.730  69.850  1.00  0.00     0.730 A  
HETATM    7  O   UNL     1      -9.725  14.129  70.199  1.00  0.00     0.470 OA 
HETATM    8  C   UNL     1      -9.090  18.042  68.845  1.00  0.00    -0.139 A  
HETATM    9  C   UNL     1     -10.148  16.430  70.290  1.00  0.00     0.553 A  
HETATM   10  C   UNL     1     -11.145  16.410  71.364  1.00  0.00     0.266 C  
HETATM   11  C   UNL     1      -8.946  19.452  68.344  1.00  0.00    -0.403 C  
HETATM   12  H   UNL     1     -10.377  13.954  70.866  1.00  0.00     0.000 HD 
HETATM   13  O   UNL     1     -11.577  17.707  71.518  1.00  0.00     1.708 OA 
HETATM   14  C   UNL     1     -10.935  18.601  70.596  1.00  0.00     3.246 C  
HETATM   15  O   UNL     1     -11.522  15.475  72.043  1.00  0.00    -0.423 OA 
BRANCH   4  16
HETATM   16  C   UNL     1      -7.608  14.564  68.096  1.00  0.00    -0.125 C  
BRANCH  16  17
HETATM   17  C   UNL     1      -8.176  13.196  67.897  1.00  0.00    -0.162 C  
HETATM   18  C   UNL     1      -7.534  12.119  67.408  1.00  0.00    -0.156 C  
HETATM   19  C   UNL     1      -6.079  12.077  67.020  1.00  0.00    -0.132 C  
BRANCH  18  20
HETATM   20  C   UNL     1      -8.305  10.839  67.199  1.00  0.00    -0.126 C  
BRANCH  20  21
HETATM   21  C   UNL     1      -7.688  10.021  66.072  1.00  0.00    -0.110 C  
BRANCH  21  22
HETATM   22  C   UNL     1      -8.743   9.577  65.099  1.00  0.00    -0.172 C  
HETATM   23  O   UNL     1      -9.297   8.488  65.091  1.00  0.00     0.054 OA 
BRANCH  22  24
HETATM   24  O   UNL     1      -8.870  10.527  64.135  1.00  0.00    -0.184 OA 
BRANCH  24  25
HETATM   25  C   UNL     1     -10.207  10.630  63.619  1.00  0.00    -0.167 C  
BRANCH  25  26
HETATM   26  C   UNL     1     -10.264  11.947  62.824  1.00  0.00     0.352 C  
BRANCH  26  27
HETATM   27  N   UNL     1     -11.378  12.848  63.130  1.00  0.00    -0.112 NA 
HETATM   28  C   UNL     1     -12.670  12.152  63.303  1.00  0.00    -0.285 C  
HETATM   29  C   UNL     1     -12.763  11.330  64.599  1.00  0.00     2.005 C  
HETATM   30  O   UNL     1     -12.513  12.144  65.750  1.00  0.00    -0.482 OA 
HETATM   31  C   UNL     1     -11.232  12.779  65.663  1.00  0.00    -0.301 C  
HETATM   32  C   UNL     1     -11.101  13.611  64.373  1.00  0.00    -0.364 C  
ENDBRANCH  26  27
ENDBRANCH  25  26
ENDBRANCH  24  25
ENDBRANCH  22  24
ENDBRANCH  21  22
ENDBRANCH  20  21
ENDBRANCH  18  20
ENDBRANCH  16  17
ENDBRANCH   4  16
ENDBRANCH   2   3
TORSDOF 10
ENDMDL
MODEL      280
REMARK 921   NORMALIZED FREE ENERGY PREDICTED BY IDOCK:    8.21 KCAL/MOL
REMARK 922        TOTAL FREE ENERGY PREDICTED BY IDOCK:   11.47 KCAL/MOL
REMARK 923 INTER-LIGAND FREE ENERGY PREDICTED BY IDOCK:   10.79 KCAL/MOL
REMARK 924 INTRA-LIGAND FREE ENERGY PREDICTED BY IDOCK:    0.68 KCAL/MOL
REMARK 927      BINDING AFFINITY PREDICTED BY RF-SCORE:    0.00 PKD
ROOT
HETATM    1  C   UNL     1      -7.989  10.417  73.626  1.00  0.00     8.264 C  
HETATM    2  O   UNL     1      -6.997   9.660  72.935  1.00  0.00     0.484 OA 
ENDROOT
BRANCH   2   3
HETATM    3  C   UNL     1      -7.409   8.959  71.819  1.00  0.00     0.019 A  
HETATM    4  C   UNL     1      -7.027   9.304  70.484  1.00  0.00    -0.093 A  
HETATM    5  C   UNL     1      -7.438   8.441  69.441  1.00  0.00    -0.089 A  
HETATM    6  C   UNL     1      -8.468   6.943  71.044  1.00  0.00    -0.131 A  
HETATM    7  O   UNL     1      -7.242   8.705  68.120  1.00  0.00    -0.083 OA 
HETATM    8  C   UNL     1      -8.131   7.774  72.107  1.00  0.00    -0.136 A  
HETATM    9  C   UNL     1      -8.124   7.273  69.750  1.00  0.00    -0.128 A  
HETATM   10  C   UNL     1      -8.581   6.206  68.855  1.00  0.00    -0.121 C  
HETATM   11  C   UNL     1      -8.532   7.431  73.514  1.00  0.00    -0.193 C  
HETATM   12  H   UNL     1      -7.519   8.125  67.420  1.00  0.00     0.000 HD 
HETATM   13  O   UNL     1      -9.210   5.275  69.650  1.00  0.00    -0.112 OA 
HETATM   14  C   UNL     1      -9.212   5.662  71.033  1.00  0.00    -0.152 C  
HETATM   15  O   UNL     1      -8.430   6.095  67.654  1.00  0.00    -0.109 OA 
BRANCH   4  16
HETATM   16  C   UNL     1      -6.292  10.610  70.255  1.00  0.00    -0.141 C  
BRANCH  16  17
HETATM   17  C   UNL     1      -7.022  11.907  70.382  1.00  0.00     1.367 C  
HETATM   18  C   UNL     1      -6.602  13.009  71.034  1.00  0.00     1.705 C  
HETATM   19  C   UNL     1      -5.267  13.159  71.715  1.00  0.00    -0.117 C  
BRANCH  18  20
HETATM   20  C   UNL     1      -7.524  14.200  71.125  1.00  0.00     2.842 C  
BRANCH  20  21
HETATM   21  C   UNL     1      -7.853  14.728  69.735  1.00  0.00     0.109 C  
BRANCH  21  22
HETATM   22  C   UNL     1      -6.839  15.750  69.302  1.00  0.00    -0.184 C  
HETATM   23  O   UNL     1      -5.754  15.948  69.826  1.00  0.00    -0.125 OA 
BRANCH  22  24
HETATM   24  O   UNL     1      -7.391  16.522  68.329  1.00  0.00    -0.158 OA 
BRANCH  24  25
HETATM   25  C   UNL     1      -7.059  16.079  67.003  1.00  0.00    -0.198 C  
BRANCH  25  26
HETATM   26  C   UNL     1      -8.068  16.752  66.056  1.00  0.00    -0.109 C  
BRANCH  26  27
HETATM   27  N   UNL     1      -9.399  17.025  66.606  1.00  0.00    -0.245 NA 
HETATM   28  C   UNL     1     -10.446  17.168  65.575  1.00  0.00    -0.144 C  
HETATM   29  C   UNL     1     -10.823  15.848  64.885  1.00  0.00    -0.400 C  
HETATM   30  O   UNL     1     -11.238  14.863  65.838  1.00  0.00    -0.335 OA 
HETATM   31  C   UNL     1     -10.218  14.632  66.817  1.00  0.00    -0.268 C  
HETATM   32  C   UNL     1      -9.812  15.937  67.528  1.00  0.00    -0.230 C  
ENDBRANCH  26  27
ENDBRANCH  25  26
ENDBRANCH  24  25
ENDBRANCH  22  24
ENDBRANCH  21  22
ENDBRANCH  20  21
ENDBRANCH  18  20
ENDBRANCH  16  17
ENDBRANCH   4  16
ENDBRANCH   2   3
TORSDOF 10
ENDMDL
MODEL      281
REMARK 921   NORMALIZED FREE ENERGY PREDICTED BY IDOCK:    9.78 KCAL/MOL
REMARK 922        TOTAL FREE ENERGY PREDICTED BY IDOCK:   13.96 KCAL/MOL
REMARK 923 INTER-LIGAND FREE ENERGY PREDICTED BY IDOCK:    4.80 KCAL/MOL
REMARK 924 INTRA-LIGAND FREE ENERGY PREDICTED BY IDOCK:    9.16 KCAL/MOL
REMARK 927      BINDING AFFINITY PREDICTED BY RF-SCORE:    0.00 PKD
ROOT
HETATM    1  C   UNL     1      -7.266  12.569  67.172  1.00  0.00    -0.057 C  
HETATM    2  O   UNL     1      -7.665  13.865  66.730  1.00  0.00     0.233 OA 
ENDROOT
BRANCH   2   3
HETATM    3  C   UNL     1      -8.928  13.978  66.184  1.00  0.00     0.214 A  
HETATM    4  C   UNL     1      -9.329  15.060  65.338  1.00  0.00     0.249 A  
HETATM    5  C   UNL     1     -10.621  14.999  64.765  1.00  0.00    -0.291 A  
HETATM    6  C   UNL     1     -11.007  12.834  65.783  1.00  0.00    -0.306 A  
HETATM    7  O   UNL     1     -11.172  16.008  64.035  1.00  0.00    -1.078 OA 
HETATM    8  C   UNL     1      -9.765  12.857  66.410  1.00  0.00    -0.263 A  
HETATM    9  C   UNL     1     -11.414  13.880  64.981  1.00  0.00    -0.343 A  
HETATM   10  C   UNL     1     -12.739  13.568  64.439  1.00  0.00    -0.062 C  
HETATM   11  C   UNL     1      -9.333  11.733  67.309  1.00  0.00    -0.171 C  
HETATM   12  H   UNL     1     -12.039  15.968  63.651  1.00  0.00     0.000 HD 
HETATM   13  O   UNL     1     -13.093  12.344  64.958  1.00  0.00    -0.678 OA 
HETATM   14  C   UNL     1     -12.083  11.818  65.833  1.00  0.00     0.510 C  
HETATM   15  O   UNL     1     -13.417  14.204  63.656  1.00  0.00     1.289 OA 
BRANCH   4  16
HETATM   16  C   UNL     1      -8.393  16.242  65.181  1.00  0.00     3.283 C  
BRANCH  16  17
HETATM   17  C   UNL     1      -8.851  17.611  65.565  1.00  0.00     0.944 C  
HETATM   18  C   UNL     1     -10.106  18.092  65.492  1.00  0.00     0.370 C  
HETATM   19  C   UNL     1     -11.314  17.304  65.058  1.00  0.00     0.721 C  
BRANCH  18  20
HETATM   20  C   UNL     1     -10.358  19.537  65.846  1.00  0.00    -0.562 C  
BRANCH  20  21
HETATM   21  C   UNL     1     -11.283  19.638  67.051  1.00  0.00    -0.043 C  
BRANCH  21  22
HETATM   22  C   UNL     1     -10.497  19.567  68.330  1.00  0.00    -0.265 C  
HETATM   23  O   UNL     1     -10.916  19.173  69.407  1.00  0.00     1.216 OA 
BRANCH  22  24
HETATM   24  O   UNL     1      -9.289  20.159  68.129  1.00  0.00    -0.287 OA 
BRANCH  24  25
HETATM   25  C   UNL     1      -8.501  20.252  69.327  1.00  0.00     0.698 C  
BRANCH  25  26
HETATM   26  C   UNL     1      -7.747  18.917  69.454  1.00  0.00     0.089 C  
BRANCH  26  27
HETATM   27  N   UNL     1      -8.021  17.911  68.423  1.00  0.00    -0.290 NA 
HETATM   28  C   UNL     1      -6.870  17.030  68.139  1.00  0.00    -0.159 C  
HETATM   29  C   UNL     1      -6.561  16.029  69.265  1.00  0.00    -0.176 C  
HETATM   30  O   UNL     1      -7.704  15.222  69.571  1.00  0.00    -0.212 OA 
HETATM   31  C   UNL     1      -8.827  16.036  69.931  1.00  0.00     0.481 C  
HETATM   32  C   UNL     1      -9.164  17.054  68.826  1.00  0.00    -0.252 C  
ENDBRANCH  26  27
ENDBRANCH  25  26
ENDBRANCH  24  25
ENDBRANCH  22  24
ENDBRANCH  21  22
ENDBRANCH  20  21
ENDBRANCH  18  20
ENDBRANCH  16  17
ENDBRANCH   4  16
ENDBRANCH   2   3
TORSDOF 10
ENDMDL
