MODEL        1
REMARK 921   NORMALIZED FREE ENERGY PREDICTED BY IDOCK:   -5.15 KCAL/MOL
REMARK 922        TOTAL FREE ENERGY PREDICTED BY IDOCK:   -7.34 KCAL/MOL
REMARK 923 INTER-LIGAND FREE ENERGY PREDICTED BY IDOCK:   -6.65 KCAL/MOL
REMARK 924 INTRA-LIGAND FREE ENERGY PREDICTED BY IDOCK:   -0.69 KCAL/MOL
REMARK 927      BINDING AFFINITY PREDICTED BY RF-SCORE:    0.00 PKD
ROOT
HETATM    1  C   UNL     1     -10.950  15.832  64.729  1.00  0.00    -0.393 C  
HETATM    2  O   UNL     1     -11.660  16.471  63.950  1.00  0.00    -1.175 OA 
HETATM    3  CA  UNL     1     -11.525  15.091  65.925  1.00  0.00    -0.224 C  
ENDROOT
BRANCH   3   4
HETATM    4  N   UNL     1     -10.519  14.967  66.992  1.00  0.00    -0.273 N  
HETATM    5  C   UNL     1      -9.229  15.584  68.947  1.00  0.00    -0.218 C  
HETATM    6  O   UNL     1     -11.076  16.870  68.122  1.00  0.00    -0.347 OA 
HETATM    7  H   UNL     1      -9.911  14.147  66.988  1.00  0.00     0.000 HD 
HETATM    8  C   UNL     1     -10.350  15.893  67.991  1.00  0.00    -0.262 C  
ENDBRANCH   3   4
BRANCH   3   9
HETATM    9  C   UNL     1     -12.169  13.745  65.517  1.00  0.00    -0.442 C  
HETATM   10  H   UNL     1     -13.981  13.150  65.113  1.00  0.00     0.000 HD 
HETATM   11  O   UNL     1     -13.586  13.977  65.363  1.00  0.00    -0.593 OA 
BRANCH   9  12
HETATM   12  C   UNL     1     -11.587  13.142  64.207  1.00  0.00    -0.392 C  
HETATM   13  H   UNL     1     -12.273  12.419  62.486  1.00  0.00     0.000 HD 
HETATM   14  O   UNL     1     -12.628  12.787  63.287  1.00  0.00    -0.676 OA 
BRANCH  12  15
HETATM   15  C   UNL     1     -10.684  11.921  64.474  1.00  0.00    -0.312 C  
HETATM   16  H   UNL     1      -9.330  11.425  65.804  1.00  0.00     0.000 HD 
HETATM   17  O   UNL     1      -9.886  12.177  65.639  1.00  0.00    -0.244 OA 
BRANCH  15  18
HETATM   18  C   UNL     1      -9.769  11.591  63.277  1.00  0.00    -0.385 C  
HETATM   19  O   UNL     1     -10.395  10.704  62.349  1.00  0.00    -0.716 OA 
HETATM   20  H   UNL     1      -9.831  10.501  61.611  1.00  0.00     0.000 HD 
ENDBRANCH  15  18
ENDBRANCH  12  15
ENDBRANCH   9  12
ENDBRANCH   3   9
TORSDOF 5
ENDMDL
MODEL        2
REMARK 921   NORMALIZED FREE ENERGY PREDICTED BY IDOCK:   -5.04 KCAL/MOL
REMARK 922        TOTAL FREE ENERGY PREDICTED BY IDOCK:   -7.21 KCAL/MOL
REMARK 923 INTER-LIGAND FREE ENERGY PREDICTED BY IDOCK:   -6.75 KCAL/MOL
REMARK 924 INTRA-LIGAND FREE ENERGY PREDICTED BY IDOCK:   -0.46 KCAL/MOL
REMARK 927      BINDING AFFINITY PREDICTED BY RF-SCORE:    0.00 PKD
ROOT
HETATM    1  C   UNL     1      -9.457  15.309  69.271  1.00  0.00    -0.242 C  
HETATM    2  O   UNL     1      -8.931  16.379  68.958  1.00  0.00    -0.249 OA 
HETATM    3  CA  UNL     1     -10.818  14.892  68.740  1.00  0.00    -0.252 C  
ENDROOT
BRANCH   3   4
HETATM    4  N   UNL     1     -11.484  13.975  69.681  1.00  0.00    -0.317 N  
HETATM    5  C   UNL     1     -12.948  13.272  71.477  1.00  0.00    -0.426 C  
HETATM    6  O   UNL     1     -12.875  15.514  70.632  1.00  0.00    -0.458 OA 
HETATM    7  H   UNL     1     -11.218  12.990  69.662  1.00  0.00     0.000 HD 
HETATM    8  C   UNL     1     -12.440  14.371  70.583  1.00  0.00    -0.350 C  
ENDBRANCH   3   4
BRANCH   3   9
HETATM    9  C   UNL     1     -10.734  14.347  67.295  1.00  0.00    -0.285 C  
HETATM   10  H   UNL     1      -9.748  12.912  66.417  1.00  0.00     0.000 HD 
HETATM   11  O   UNL     1      -9.800  13.246  67.305  1.00  0.00    -0.225 OA 
BRANCH   9  12
HETATM   12  C   UNL     1     -12.100  13.874  66.722  1.00  0.00    -0.439 C  
HETATM   13  H   UNL     1     -13.026  12.154  66.349  1.00  0.00     0.000 HD 
HETATM   14  O   UNL     1     -12.191  12.443  66.699  1.00  0.00    -0.562 OA 
BRANCH  12  15
HETATM   15  C   UNL     1     -12.374  14.440  65.313  1.00  0.00    -0.371 C  
HETATM   16  H   UNL     1     -12.837  13.701  63.557  1.00  0.00     0.000 HD 
HETATM   17  O   UNL     1     -12.668  13.352  64.424  1.00  0.00    -0.643 OA 
BRANCH  15  18
HETATM   18  C   UNL     1     -11.186  15.257  64.765  1.00  0.00    -0.396 C  
HETATM   19  O   UNL     1     -11.603  16.248  63.825  1.00  0.00    -1.539 OA 
HETATM   20  H   UNL     1     -10.872  16.752  63.487  1.00  0.00     0.000 HD 
ENDBRANCH  15  18
ENDBRANCH  12  15
ENDBRANCH   9  12
ENDBRANCH   3   9
TORSDOF 5
ENDMDL
MODEL        3
REMARK 921   NORMALIZED FREE ENERGY PREDICTED BY IDOCK:   -5.03 KCAL/MOL
REMARK 922        TOTAL FREE ENERGY PREDICTED BY IDOCK:   -7.19 KCAL/MOL
REMARK 923 INTER-LIGAND FREE ENERGY PREDICTED BY IDOCK:   -6.12 KCAL/MOL
REMARK 924 INTRA-LIGAND FREE ENERGY PREDICTED BY IDOCK:   -1.07 KCAL/MOL
REMARK 927      BINDING AFFINITY PREDICTED BY RF-SCORE:    0.00 PKD
ROOT
HETATM    1  C   UNL     1      -8.811  15.096  67.515  1.00  0.00    -0.182 C  
HETATM    2  O   UNL     1      -8.200  14.172  66.974  1.00  0.00    -0.170 OA 
HETATM    3  CA  UNL     1     -10.162  15.576  67.011  1.00  0.00    -0.271 C  
ENDROOT
BRANCH   3   4
HETATM    4  N   UNL     1     -10.373  16.991  67.360  1.00  0.00    -0.312 N  
HETATM    5  C   UNL     1     -10.654  19.373  67.020  1.00  0.00    -0.586 C  
HETATM    6  O   UNL     1     -10.501  17.789  65.226  1.00  0.00    -0.605 OA 
HETATM    7  H   UNL     1     -10.435  17.239  68.348  1.00  0.00     0.000 HD 
HETATM    8  C   UNL     1     -10.490  17.996  66.432  1.00  0.00    -0.339 C  
ENDBRANCH   3   4
BRANCH   3   9
HETATM    9  C   UNL     1     -11.313  14.646  67.460  1.00  0.00    -0.348 C  
HETATM   10  H   UNL     1     -12.863  14.836  68.627  1.00  0.00     0.000 HD 
HETATM   11  O   UNL     1     -12.157  15.408  68.350  1.00  0.00    -0.223 OA 
BRANCH   9  12
HETATM   12  C   UNL     1     -12.160  14.083  66.284  1.00  0.00    -0.456 C  
HETATM   13  H   UNL     1     -12.863  12.322  65.685  1.00  0.00     0.000 HD 
HETATM   14  O   UNL     1     -12.345  12.666  66.404  1.00  0.00    -0.521 OA 
BRANCH  12  15
HETATM   15  C   UNL     1     -11.548  14.417  64.908  1.00  0.00    -0.395 C  
HETATM   16  H   UNL     1     -12.189  15.198  63.227  1.00  0.00     0.000 HD 
HETATM   17  O   UNL     1     -12.565  14.992  64.074  1.00  0.00    -0.817 OA 
BRANCH  15  18
HETATM   18  C   UNL     1     -10.943  13.179  64.215  1.00  0.00    -0.403 C  
HETATM   19  O   UNL     1      -9.758  12.721  64.869  1.00  0.00    -0.494 OA 
HETATM   20  H   UNL     1      -9.385  11.959  64.442  1.00  0.00     0.000 HD 
ENDBRANCH  15  18
ENDBRANCH  12  15
ENDBRANCH   9  12
ENDBRANCH   3   9
TORSDOF 5
ENDMDL
MODEL        4
REMARK 921   NORMALIZED FREE ENERGY PREDICTED BY IDOCK:   -5.00 KCAL/MOL
REMARK 922        TOTAL FREE ENERGY PREDICTED BY IDOCK:   -7.15 KCAL/MOL
REMARK 923 INTER-LIGAND FREE ENERGY PREDICTED BY IDOCK:   -6.42 KCAL/MOL
REMARK 924 INTRA-LIGAND FREE ENERGY PREDICTED BY IDOCK:   -0.74 KCAL/MOL
REMARK 927      BINDING AFFINITY PREDICTED BY RF-SCORE:    0.00 PKD
ROOT
HETATM    1  C   UNL     1     -12.384  12.601  63.723  1.00  0.00    -0.478 C  
HETATM    2  O   UNL     1     -12.507  13.624  63.047  1.00  0.00    -0.719 OA 
HETATM    3  CA  UNL     1     -11.391  12.504  64.870  1.00  0.00    -0.310 C  
ENDROOT
BRANCH   3   4
HETATM    4  N   UNL     1     -10.981  11.106  65.083  1.00  0.00    -0.150 N  
HETATM    5  C   UNL     1      -9.519   9.248  65.611  1.00  0.00    -0.324 C  
HETATM    6  O   UNL     1      -8.863  11.545  65.812  1.00  0.00    -0.163 OA 
HETATM    7  H   UNL     1     -11.666  10.371  64.907  1.00  0.00     0.000 HD 
HETATM    8  C   UNL     1      -9.728  10.735  65.506  1.00  0.00    -0.239 C  
ENDBRANCH   3   4
BRANCH   3   9
HETATM    9  C   UNL     1     -11.911  13.202  66.147  1.00  0.00    -0.422 C  
HETATM   10  H   UNL     1     -12.354  12.618  67.954  1.00  0.00     0.000 HD 
HETATM   11  O   UNL     1     -12.034  12.189  67.170  1.00  0.00    -0.580 OA 
BRANCH   9  12
HETATM   12  C   UNL     1     -10.994  14.351  66.652  1.00  0.00    -0.318 C  
HETATM   13  H   UNL     1     -11.168  16.007  67.740  1.00  0.00     0.000 HD 
HETATM   14  O   UNL     1     -11.728  15.304  67.432  1.00  0.00    -0.268 OA 
BRANCH  12  15
HETATM   15  C   UNL     1     -10.264  15.070  65.498  1.00  0.00    -0.378 C  
HETATM   16  H   UNL     1      -8.473  15.809  65.199  1.00  0.00     0.000 HD 
HETATM   17  O   UNL     1      -8.922  15.367  65.910  1.00  0.00    -0.278 OA 
BRANCH  15  18
HETATM   18  C   UNL     1     -10.978  16.366  65.065  1.00  0.00    -0.252 C  
HETATM   19  O   UNL     1     -11.613  16.232  63.793  1.00  0.00    -1.539 OA 
HETATM   20  H   UNL     1     -12.053  17.031  63.526  1.00  0.00     0.000 HD 
ENDBRANCH  15  18
ENDBRANCH  12  15
ENDBRANCH   9  12
ENDBRANCH   3   9
TORSDOF 5
ENDMDL
MODEL        5
REMARK 921   NORMALIZED FREE ENERGY PREDICTED BY IDOCK:   -4.99 KCAL/MOL
REMARK 922        TOTAL FREE ENERGY PREDICTED BY IDOCK:   -7.14 KCAL/MOL
REMARK 923 INTER-LIGAND FREE ENERGY PREDICTED BY IDOCK:   -6.67 KCAL/MOL
REMARK 924 INTRA-LIGAND FREE ENERGY PREDICTED BY IDOCK:   -0.47 KCAL/MOL
REMARK 927      BINDING AFFINITY PREDICTED BY RF-SCORE:    0.00 PKD
ROOT
HETATM    1  C   UNL     1     -11.894  15.587  68.991  1.00  0.00    -0.354 C  
HETATM    2  O   UNL     1     -11.771  14.830  69.955  1.00  0.00    -0.263 OA 
HETATM    3  CA  UNL     1     -10.785  15.784  67.970  1.00  0.00    -0.296 C  
ENDROOT
BRANCH   3   4
HETATM    4  N   UNL     1     -10.888  17.112  67.342  1.00  0.00    -0.233 N  
HETATM    5  C   UNL     1     -10.613  19.504  67.084  1.00  0.00    -0.605 C  
HETATM    6  O   UNL     1      -9.659  18.251  68.891  1.00  0.00    -0.314 OA 
HETATM    7  H   UNL     1     -11.394  17.188  66.458  1.00  0.00     0.000 HD 
HETATM    8  C   UNL     1     -10.343  18.252  67.876  1.00  0.00    -0.399 C  
ENDBRANCH   3   4
BRANCH   3   9
HETATM    9  C   UNL     1     -10.718  14.618  66.957  1.00  0.00    -0.290 C  
HETATM   10  H   UNL     1      -9.921  12.839  66.953  1.00  0.00     0.000 HD 
HETATM   11  O   UNL     1      -9.963  13.555  67.576  1.00  0.00    -0.225 OA 
BRANCH   9  12
HETATM   12  C   UNL     1     -12.111  14.088  66.516  1.00  0.00    -0.459 C  
HETATM   13  H   UNL     1     -13.103  12.365  66.525  1.00  0.00     0.000 HD 
HETATM   14  O   UNL     1     -12.251  12.689  66.794  1.00  0.00    -0.506 OA 
BRANCH  12  15
HETATM   15  C   UNL     1     -12.397  14.358  65.024  1.00  0.00    -0.396 C  
HETATM   16  H   UNL     1     -12.750  13.268  63.432  1.00  0.00     0.000 HD 
HETATM   17  O   UNL     1     -12.574  13.103  64.350  1.00  0.00    -0.606 OA 
BRANCH  15  18
HETATM   18  C   UNL     1     -11.271  15.163  64.344  1.00  0.00    -0.169 C  
HETATM   19  O   UNL     1     -11.757  16.358  63.733  1.00  0.00    -1.553 OA 
HETATM   20  H   UNL     1     -11.064  16.854  63.314  1.00  0.00     0.000 HD 
ENDBRANCH  15  18
ENDBRANCH  12  15
ENDBRANCH   9  12
ENDBRANCH   3   9
TORSDOF 5
ENDMDL
MODEL        6
REMARK 921   NORMALIZED FREE ENERGY PREDICTED BY IDOCK:   -4.94 KCAL/MOL
REMARK 922        TOTAL FREE ENERGY PREDICTED BY IDOCK:   -7.08 KCAL/MOL
REMARK 923 INTER-LIGAND FREE ENERGY PREDICTED BY IDOCK:   -6.21 KCAL/MOL
REMARK 924 INTRA-LIGAND FREE ENERGY PREDICTED BY IDOCK:   -0.86 KCAL/MOL
REMARK 927      BINDING AFFINITY PREDICTED BY RF-SCORE:    0.00 PKD
ROOT
HETATM    1  C   UNL     1     -11.584  13.934  64.386  1.00  0.00    -0.382 C  
HETATM    2  O   UNL     1     -12.600  13.856  63.693  1.00  0.00    -0.790 OA 
HETATM    3  CA  UNL     1     -11.587  14.599  65.753  1.00  0.00    -0.328 C  
ENDROOT
BRANCH   3   4
HETATM    4  N   UNL     1     -10.249  15.123  66.078  1.00  0.00    -0.287 N  
HETATM    5  C   UNL     1      -8.416  16.703  66.171  1.00  0.00    -0.308 C  
HETATM    6  O   UNL     1     -10.584  17.242  65.300  1.00  0.00    -0.667 OA 
HETATM    7  H   UNL     1      -9.589  14.500  66.543  1.00  0.00     0.000 HD 
HETATM    8  C   UNL     1      -9.841  16.401  65.789  1.00  0.00    -0.271 C  
ENDBRANCH   3   4
BRANCH   3   9
HETATM    9  C   UNL     1     -12.176  13.676  66.845  1.00  0.00    -0.352 C  
HETATM   10  H   UNL     1     -12.639  11.785  66.950  1.00  0.00     0.000 HD 
HETATM   11  O   UNL     1     -12.276  12.352  66.278  1.00  0.00    -0.620 OA 
BRANCH   9  12
HETATM   12  C   UNL     1     -11.331  13.629  68.149  1.00  0.00    -0.288 C  
HETATM   13  H   UNL     1      -9.661  12.761  68.793  1.00  0.00     0.000 HD 
HETATM   14  O   UNL     1     -10.178  12.790  67.996  1.00  0.00    -0.215 OA 
BRANCH  12  15
HETATM   15  C   UNL     1     -12.157  13.167  69.368  1.00  0.00    -0.231 C  
HETATM   16  H   UNL     1     -12.363  13.732  71.234  1.00  0.00     0.000 HD 
HETATM   17  O   UNL     1     -11.854  14.016  70.484  1.00  0.00    -0.306 OA 
BRANCH  15  18
HETATM   18  C   UNL     1     -11.885  11.695  69.741  1.00  0.00    -0.357 C  
HETATM   19  O   UNL     1     -12.218  10.800  68.680  1.00  0.00    -0.813 OA 
HETATM   20  H   UNL     1     -12.050   9.894  68.910  1.00  0.00     0.000 HD 
ENDBRANCH  15  18
ENDBRANCH  12  15
ENDBRANCH   9  12
ENDBRANCH   3   9
TORSDOF 5
ENDMDL
MODEL        7
REMARK 921   NORMALIZED FREE ENERGY PREDICTED BY IDOCK:   -4.91 KCAL/MOL
REMARK 922        TOTAL FREE ENERGY PREDICTED BY IDOCK:   -7.03 KCAL/MOL
REMARK 923 INTER-LIGAND FREE ENERGY PREDICTED BY IDOCK:   -6.33 KCAL/MOL
REMARK 924 INTRA-LIGAND FREE ENERGY PREDICTED BY IDOCK:   -0.70 KCAL/MOL
REMARK 927      BINDING AFFINITY PREDICTED BY RF-SCORE:    0.00 PKD
ROOT
HETATM    1  C   UNL     1     -11.877  13.313  68.082  1.00  0.00    -0.353 C  
HETATM    2  O   UNL     1     -12.262  14.047  68.995  1.00  0.00    -0.346 OA 
HETATM    3  CA  UNL     1     -11.395  13.863  66.750  1.00  0.00    -0.333 C  
ENDROOT
BRANCH   3   4
HETATM    4  N   UNL     1     -11.600  12.876  65.676  1.00  0.00    -0.343 N  
HETATM    5  C   UNL     1     -12.409  11.969  63.582  1.00  0.00    -0.648 C  
HETATM    6  O   UNL     1     -12.725  14.251  64.244  1.00  0.00    -0.660 OA 
HETATM    7  H   UNL     1     -11.210  11.942  65.802  1.00  0.00     0.000 HD 
HETATM    8  C   UNL     1     -12.285  13.142  64.517  1.00  0.00    -0.406 C  
ENDBRANCH   3   4
BRANCH   3   9
HETATM    9  C   UNL     1      -9.948  14.402  66.834  1.00  0.00    -0.261 C  
HETATM   10  H   UNL     1      -8.174  13.627  66.604  1.00  0.00     0.000 HD 
HETATM   11  O   UNL     1      -9.063  13.296  66.552  1.00  0.00    -0.213 OA 
BRANCH   9  12
HETATM   12  C   UNL     1      -9.657  15.573  65.855  1.00  0.00    -0.348 C  
HETATM   13  H   UNL     1      -8.203  16.889  65.521  1.00  0.00     0.000 HD 
HETATM   14  O   UNL     1      -8.382  16.173  66.120  1.00  0.00    -0.318 OA 
BRANCH  12  15
HETATM   15  C   UNL     1     -10.760  16.652  65.885  1.00  0.00    -0.175 C  
HETATM   16  H   UNL     1     -11.738  17.713  64.557  1.00  0.00     0.000 HD 
HETATM   17  O   UNL     1     -11.059  17.049  64.539  1.00  0.00    -1.098 OA 
BRANCH  15  18
HETATM   18  C   UNL     1     -10.355  17.886  66.717  1.00  0.00    -0.355 C  
HETATM   19  O   UNL     1      -9.708  18.882  65.924  1.00  0.00    -0.474 OA 
HETATM   20  H   UNL     1      -9.459  19.642  66.436  1.00  0.00     0.000 HD 
ENDBRANCH  15  18
ENDBRANCH  12  15
ENDBRANCH   9  12
ENDBRANCH   3   9
TORSDOF 5
ENDMDL
MODEL        8
REMARK 921   NORMALIZED FREE ENERGY PREDICTED BY IDOCK:   -4.90 KCAL/MOL
REMARK 922        TOTAL FREE ENERGY PREDICTED BY IDOCK:   -7.02 KCAL/MOL
REMARK 923 INTER-LIGAND FREE ENERGY PREDICTED BY IDOCK:   -6.52 KCAL/MOL
REMARK 924 INTRA-LIGAND FREE ENERGY PREDICTED BY IDOCK:   -0.50 KCAL/MOL
REMARK 927      BINDING AFFINITY PREDICTED BY RF-SCORE:    0.00 PKD
ROOT
HETATM    1  C   UNL     1      -8.969  15.612  67.323  1.00  0.00    -0.199 C  
HETATM    2  O   UNL     1      -8.266  14.618  67.134  1.00  0.00    -0.202 OA 
HETATM    3  CA  UNL     1      -9.620  16.371  66.178  1.00  0.00    -0.325 C  
ENDROOT
BRANCH   3   4
HETATM    4  N   UNL     1      -9.840  17.780  66.548  1.00  0.00    -0.315 N  
HETATM    5  C   UNL     1      -9.342  20.132  66.835  1.00  0.00    -0.522 C  
HETATM    6  O   UNL     1      -7.862  18.590  65.748  1.00  0.00    -0.504 OA 
HETATM    7  H   UNL     1     -10.726  18.028  66.988  1.00  0.00     0.000 HD 
HETATM    8  C   UNL     1      -8.921  18.776  66.334  1.00  0.00    -0.292 C  
ENDBRANCH   3   4
BRANCH   3   9
HETATM    9  C   UNL     1     -10.890  15.658  65.658  1.00  0.00    -0.327 C  
HETATM   10  H   UNL     1     -12.004  15.814  64.066  1.00  0.00     0.000 HD 
HETATM   11  O   UNL     1     -11.223  16.251  64.385  1.00  0.00    -0.716 OA 
BRANCH   9  12
HETATM   12  C   UNL     1     -10.724  14.121  65.496  1.00  0.00    -0.324 C  
HETATM   13  H   UNL     1      -9.835  12.857  64.245  1.00  0.00     0.000 HD 
HETATM   14  O   UNL     1      -9.936  13.797  64.344  1.00  0.00    -0.250 OA 
BRANCH  12  15
HETATM   15  C   UNL     1     -12.081  13.389  65.426  1.00  0.00    -0.421 C  
HETATM   16  H   UNL     1     -12.923  11.878  66.351  1.00  0.00     0.000 HD 
HETATM   17  O   UNL     1     -12.088  12.329  66.394  1.00  0.00    -0.623 OA 
BRANCH  15  18
HETATM   18  C   UNL     1     -12.371  12.817  64.023  1.00  0.00    -0.411 C  
HETATM   19  O   UNL     1     -12.390  13.834  63.021  1.00  0.00    -1.089 OA 
HETATM   20  H   UNL     1     -12.568  13.483  62.157  1.00  0.00     0.000 HD 
ENDBRANCH  15  18
ENDBRANCH  12  15
ENDBRANCH   9  12
ENDBRANCH   3   9
TORSDOF 5
ENDMDL
MODEL        9
REMARK 921   NORMALIZED FREE ENERGY PREDICTED BY IDOCK:   -4.89 KCAL/MOL
REMARK 922        TOTAL FREE ENERGY PREDICTED BY IDOCK:   -7.02 KCAL/MOL
REMARK 923 INTER-LIGAND FREE ENERGY PREDICTED BY IDOCK:   -6.32 KCAL/MOL
REMARK 924 INTRA-LIGAND FREE ENERGY PREDICTED BY IDOCK:   -0.69 KCAL/MOL
REMARK 927      BINDING AFFINITY PREDICTED BY RF-SCORE:    0.00 PKD
ROOT
HETATM    1  C   UNL     1     -12.276  12.226  63.508  1.00  0.00    -0.568 C  
HETATM    2  O   UNL     1     -12.747  13.304  63.140  1.00  0.00    -0.604 OA 
HETATM    3  CA  UNL     1     -11.059  12.142  64.414  1.00  0.00    -0.333 C  
ENDROOT
BRANCH   3   4
HETATM    4  N   UNL     1     -10.337  10.877  64.199  1.00  0.00    -0.366 N  
HETATM    5  C   UNL     1      -8.876   9.279  63.114  1.00  0.00    -0.163 C  
HETATM    6  O   UNL     1      -9.150  11.540  62.367  1.00  0.00    -0.289 OA 
HETATM    7  H   UNL     1     -10.498  10.114  64.858  1.00  0.00     0.000 HD 
HETATM    8  C   UNL     1      -9.462  10.665  63.163  1.00  0.00    -0.332 C  
ENDBRANCH   3   4
BRANCH   3   9
HETATM    9  C   UNL     1     -11.419  12.410  65.894  1.00  0.00    -0.374 C  
HETATM   10  H   UNL     1     -10.647  11.909  67.613  1.00  0.00     0.000 HD 
HETATM   11  O   UNL     1     -10.425  11.745  66.704  1.00  0.00    -0.213 OA 
BRANCH   9  12
HETATM   12  C   UNL     1     -11.476  13.919  66.263  1.00  0.00    -0.339 C  
HETATM   13  H   UNL     1     -12.848  15.352  66.404  1.00  0.00     0.000 HD 
HETATM   14  O   UNL     1     -12.813  14.429  66.178  1.00  0.00    -0.251 OA 
BRANCH  12  15
HETATM   15  C   UNL     1     -10.533  14.773  65.390  1.00  0.00    -0.380 C  
HETATM   16  H   UNL     1      -8.700  15.456  65.536  1.00  0.00     0.000 HD 
HETATM   17  O   UNL     1      -9.281  14.931  66.074  1.00  0.00    -0.277 OA 
BRANCH  15  18
HETATM   18  C   UNL     1     -11.126  16.157  65.060  1.00  0.00    -0.294 C  
HETATM   19  O   UNL     1     -11.581  16.241  63.708  1.00  0.00    -1.539 OA 
HETATM   20  H   UNL     1     -11.946  17.093  63.505  1.00  0.00     0.000 HD 
ENDBRANCH  15  18
ENDBRANCH  12  15
ENDBRANCH   9  12
ENDBRANCH   3   9
TORSDOF 5
ENDMDL
MODEL       10
REMARK 921   NORMALIZED FREE ENERGY PREDICTED BY IDOCK:   -4.88 KCAL/MOL
REMARK 922        TOTAL FREE ENERGY PREDICTED BY IDOCK:   -7.00 KCAL/MOL
REMARK 923 INTER-LIGAND FREE ENERGY PREDICTED BY IDOCK:   -6.63 KCAL/MOL
REMARK 924 INTRA-LIGAND FREE ENERGY PREDICTED BY IDOCK:   -0.37 KCAL/MOL
REMARK 927      BINDING AFFINITY PREDICTED BY RF-SCORE:    0.00 PKD
ROOT
HETATM    1  C   UNL     1     -11.530  12.738  68.805  1.00  0.00    -0.304 C  
HETATM    2  O   UNL     1     -10.393  12.321  68.574  1.00  0.00    -0.226 OA 
HETATM    3  CA  UNL     1     -11.820  14.212  69.032  1.00  0.00    -0.348 C  
ENDROOT
BRANCH   3   4
HETATM    4  N   UNL     1     -13.016  14.383  69.874  1.00  0.00    -0.423 N  
HETATM    5  C   UNL     1     -14.410  15.266  71.647  1.00  0.00    -0.666 C  
HETATM    6  O   UNL     1     -12.226  16.113  71.136  1.00  0.00    -0.381 OA 
HETATM    7  H   UNL     1     -13.821  13.783  69.692  1.00  0.00     0.000 HD 
HETATM    8  C   UNL     1     -13.109  15.302  70.889  1.00  0.00    -0.464 C  
ENDBRANCH   3   4
BRANCH   3   9
HETATM    9  C   UNL     1     -11.875  15.003  67.705  1.00  0.00    -0.182 C  
HETATM   10  H   UNL     1     -11.087  16.665  67.056  1.00  0.00     0.000 HD 
HETATM   11  O   UNL     1     -11.052  16.179  67.871  1.00  0.00    -0.340 OA 
BRANCH   9  12
HETATM   12  C   UNL     1     -11.391  14.192  66.470  1.00  0.00    -0.341 C  
HETATM   13  H   UNL     1      -9.895  14.252  65.161  1.00  0.00     0.000 HD 
HETATM   14  O   UNL     1     -10.192  14.748  65.915  1.00  0.00    -0.279 OA 
BRANCH  12  15
HETATM   15  C   UNL     1     -12.474  14.085  65.376  1.00  0.00    -0.498 C  
HETATM   16  H   UNL     1     -13.590  12.658  64.626  1.00  0.00     0.000 HD 
HETATM   17  O   UNL     1     -12.923  12.724  65.299  1.00  0.00    -0.690 OA 
BRANCH  15  18
HETATM   18  C   UNL     1     -11.965  14.547  63.996  1.00  0.00    -0.209 C  
HETATM   19  O   UNL     1     -11.876  15.969  63.903  1.00  0.00    -1.275 OA 
HETATM   20  H   UNL     1     -11.562  16.253  63.053  1.00  0.00     0.000 HD 
ENDBRANCH  15  18
ENDBRANCH  12  15
ENDBRANCH   9  12
ENDBRANCH   3   9
TORSDOF 5
ENDMDL
MODEL       11
REMARK 921   NORMALIZED FREE ENERGY PREDICTED BY IDOCK:   -4.87 KCAL/MOL
REMARK 922        TOTAL FREE ENERGY PREDICTED BY IDOCK:   -6.98 KCAL/MOL
REMARK 923 INTER-LIGAND FREE ENERGY PREDICTED BY IDOCK:   -6.63 KCAL/MOL
REMARK 924 INTRA-LIGAND FREE ENERGY PREDICTED BY IDOCK:   -0.35 KCAL/MOL
REMARK 927      BINDING AFFINITY PREDICTED BY RF-SCORE:    0.00 PKD
ROOT
HETATM    1  C   UNL     1     -12.100  14.558  70.424  1.00  0.00    -0.322 C  
HETATM    2  O   UNL     1     -13.111  15.170  70.772  1.00  0.00    -0.402 OA 
HETATM    3  CA  UNL     1     -12.093  13.625  69.223  1.00  0.00    -0.314 C  
ENDROOT
BRANCH   3   4
HETATM    4  N   UNL     1     -11.062  12.586  69.380  1.00  0.00    -0.452 N  
HETATM    5  C   UNL     1     -10.111  10.361  69.483  1.00  0.00    -0.246 C  
HETATM    6  O   UNL     1     -12.390  10.798  68.882  1.00  0.00    -0.433 OA 
HETATM    7  H   UNL     1     -10.113  12.880  69.613  1.00  0.00     0.000 HD 
HETATM    8  C   UNL     1     -11.305  11.243  69.231  1.00  0.00    -0.287 C  
ENDBRANCH   3   4
BRANCH   3   9
HETATM    9  C   UNL     1     -11.998  14.400  67.889  1.00  0.00    -0.313 C  
HETATM   10  H   UNL     1     -10.883  15.849  67.212  1.00  0.00     0.000 HD 
HETATM   11  O   UNL     1     -10.940  15.373  68.032  1.00  0.00    -0.285 OA 
BRANCH   9  12
HETATM   12  C   UNL     1     -11.718  13.495  66.656  1.00  0.00    -0.387 C  
HETATM   13  H   UNL     1     -10.206  13.107  65.425  1.00  0.00     0.000 HD 
HETATM   14  O   UNL     1     -10.377  13.660  66.178  1.00  0.00    -0.284 OA 
BRANCH  12  15
HETATM   15  C   UNL     1     -12.718  13.742  65.507  1.00  0.00    -0.488 C  
HETATM   16  H   UNL     1     -13.719  12.631  64.239  1.00  0.00     0.000 HD 
HETATM   17  O   UNL     1     -13.103  12.479  64.946  1.00  0.00    -0.833 OA 
BRANCH  15  18
HETATM   18  C   UNL     1     -12.136  14.649  64.404  1.00  0.00    -0.462 C  
HETATM   19  O   UNL     1     -12.510  14.215  63.096  1.00  0.00    -1.126 OA 
HETATM   20  H   UNL     1     -12.152  14.773  62.416  1.00  0.00     0.000 HD 
ENDBRANCH  15  18
ENDBRANCH  12  15
ENDBRANCH   9  12
ENDBRANCH   3   9
TORSDOF 5
ENDMDL
MODEL       12
REMARK 921   NORMALIZED FREE ENERGY PREDICTED BY IDOCK:   -4.85 KCAL/MOL
REMARK 922        TOTAL FREE ENERGY PREDICTED BY IDOCK:   -6.95 KCAL/MOL
REMARK 923 INTER-LIGAND FREE ENERGY PREDICTED BY IDOCK:   -6.56 KCAL/MOL
REMARK 924 INTRA-LIGAND FREE ENERGY PREDICTED BY IDOCK:   -0.39 KCAL/MOL
REMARK 927      BINDING AFFINITY PREDICTED BY RF-SCORE:    0.00 PKD
ROOT
HETATM    1  C   UNL     1     -10.489  16.042  68.252  1.00  0.00    -0.269 C  
HETATM    2  O   UNL     1     -10.505  17.193  67.811  1.00  0.00    -0.336 OA 
HETATM    3  CA  UNL     1     -11.440  14.969  67.747  1.00  0.00    -0.334 C  
ENDROOT
BRANCH   3   4
HETATM    4  N   UNL     1     -11.674  13.952  68.786  1.00  0.00    -0.334 N  
HETATM    5  C   UNL     1     -12.423  13.024  70.894  1.00  0.00    -0.396 C  
HETATM    6  O   UNL     1     -12.869  15.277  70.209  1.00  0.00    -0.341 OA 
HETATM    7  H   UNL     1     -11.318  13.010  68.626  1.00  0.00     0.000 HD 
HETATM    8  C   UNL     1     -12.343  14.201  69.959  1.00  0.00    -0.344 C  
ENDBRANCH   3   4
BRANCH   3   9
HETATM    9  C   UNL     1     -10.983  14.381  66.392  1.00  0.00    -0.319 C  
HETATM   10  H   UNL     1      -9.606  13.119  65.831  1.00  0.00     0.000 HD 
HETATM   11  O   UNL     1      -9.887  13.479  66.664  1.00  0.00    -0.263 OA 
BRANCH   9  12
HETATM   12  C   UNL     1     -12.106  13.629  65.624  1.00  0.00    -0.425 C  
HETATM   13  H   UNL     1     -13.091  11.907  65.766  1.00  0.00     0.000 HD 
HETATM   14  O   UNL     1     -12.405  12.367  66.235  1.00  0.00    -0.577 OA 
BRANCH  12  15
HETATM   15  C   UNL     1     -11.760  13.420  64.135  1.00  0.00    -0.419 C  
HETATM   16  H   UNL     1     -12.556  13.920  62.414  1.00  0.00     0.000 HD 
HETATM   17  O   UNL     1     -12.769  14.048  63.330  1.00  0.00    -0.796 OA 
BRANCH  15  18
HETATM   18  C   UNL     1     -11.644  11.929  63.759  1.00  0.00    -0.462 C  
HETATM   19  O   UNL     1     -12.695  11.510  62.888  1.00  0.00    -0.947 OA 
HETATM   20  H   UNL     1     -12.624  10.592  62.656  1.00  0.00     0.000 HD 
ENDBRANCH  15  18
ENDBRANCH  12  15
ENDBRANCH   9  12
ENDBRANCH   3   9
TORSDOF 5
ENDMDL
MODEL       13
REMARK 921   NORMALIZED FREE ENERGY PREDICTED BY IDOCK:   -4.82 KCAL/MOL
REMARK 922        TOTAL FREE ENERGY PREDICTED BY IDOCK:   -6.93 KCAL/MOL
REMARK 923 INTER-LIGAND FREE ENERGY PREDICTED BY IDOCK:   -5.80 KCAL/MOL
REMARK 924 INTRA-LIGAND FREE ENERGY PREDICTED BY IDOCK:   -1.12 KCAL/MOL
REMARK 927      BINDING AFFINITY PREDICTED BY RF-SCORE:    0.00 PKD
ROOT
HETATM    1  C   UNL     1     -10.789  15.613  67.685  1.00  0.00    -0.307 C  
HETATM    2  O   UNL     1     -11.637  16.136  68.411  1.00  0.00    -0.355 OA 
HETATM    3  CA  UNL     1     -11.023  14.278  66.999  1.00  0.00    -0.303 C  
ENDROOT
BRANCH   3   4
HETATM    4  N   UNL     1      -9.745  13.592  66.748  1.00  0.00    -0.263 N  
HETATM    5  C   UNL     1      -7.896  12.075  67.130  1.00  0.00    -0.168 C  
HETATM    6  O   UNL     1      -9.851  12.151  68.515  1.00  0.00    -0.209 OA 
HETATM    7  H   UNL     1      -9.203  13.869  65.929  1.00  0.00     0.000 HD 
HETATM    8  C   UNL     1      -9.241  12.601  67.554  1.00  0.00    -0.190 C  
ENDBRANCH   3   4
BRANCH   3   9
HETATM    9  C   UNL     1     -11.910  14.422  65.740  1.00  0.00    -0.364 C  
HETATM   10  H   UNL     1     -11.630  15.070  63.923  1.00  0.00     0.000 HD 
HETATM   11  O   UNL     1     -11.084  14.981  64.696  1.00  0.00    -0.372 OA 
BRANCH   9  12
HETATM   12  C   UNL     1     -12.536  13.083  65.257  1.00  0.00    -0.499 C  
HETATM   13  H   UNL     1     -12.620  11.191  65.865  1.00  0.00     0.000 HD 
HETATM   14  O   UNL     1     -12.238  12.010  66.160  1.00  0.00    -0.552 OA 
BRANCH  12  15
HETATM   15  C   UNL     1     -12.087  12.707  63.829  1.00  0.00    -0.522 C  
HETATM   16  H   UNL     1     -12.881  11.779  62.295  1.00  0.00     0.000 HD 
HETATM   17  O   UNL     1     -13.157  12.010  63.174  1.00  0.00    -0.624 OA 
BRANCH  15  18
HETATM   18  C   UNL     1     -10.814  11.836  63.822  1.00  0.00    -0.424 C  
HETATM   19  O   UNL     1      -9.623  12.622  63.868  1.00  0.00    -0.653 OA 
HETATM   20  H   UNL     1      -8.839  12.086  63.863  1.00  0.00     0.000 HD 
ENDBRANCH  15  18
ENDBRANCH  12  15
ENDBRANCH   9  12
ENDBRANCH   3   9
TORSDOF 5
ENDMDL
MODEL       14
REMARK 921   NORMALIZED FREE ENERGY PREDICTED BY IDOCK:   -4.79 KCAL/MOL
REMARK 922        TOTAL FREE ENERGY PREDICTED BY IDOCK:   -6.88 KCAL/MOL
REMARK 923 INTER-LIGAND FREE ENERGY PREDICTED BY IDOCK:   -6.35 KCAL/MOL
REMARK 924 INTRA-LIGAND FREE ENERGY PREDICTED BY IDOCK:   -0.53 KCAL/MOL
REMARK 927      BINDING AFFINITY PREDICTED BY RF-SCORE:    0.00 PKD
ROOT
HETATM    1  C   UNL     1     -12.866  13.701  65.521  1.00  0.00    -0.392 C  
HETATM    2  O   UNL     1     -12.858  12.866  64.615  1.00  0.00    -0.705 OA 
HETATM    3  CA  UNL     1     -11.682  13.895  66.453  1.00  0.00    -0.383 C  
ENDROOT
BRANCH   3   4
HETATM    4  N   UNL     1     -12.126  14.426  67.754  1.00  0.00    -0.596 N  
HETATM    5  C   UNL     1     -12.459  14.511  70.151  1.00  0.00    -0.375 C  
HETATM    6  O   UNL     1     -11.180  12.806  69.053  1.00  0.00    -0.254 OA 
HETATM    7  H   UNL     1     -12.655  15.298  67.762  1.00  0.00     0.000 HD 
HETATM    8  C   UNL     1     -11.868  13.813  68.955  1.00  0.00    -0.360 C  
ENDBRANCH   3   4
BRANCH   3   9
HETATM    9  C   UNL     1     -10.556  14.725  65.794  1.00  0.00    -0.327 C  
HETATM   10  H   UNL     1      -9.623  14.669  64.083  1.00  0.00     0.000 HD 
HETATM   11  O   UNL     1     -10.315  14.159  64.488  1.00  0.00    -0.390 OA 
BRANCH   9  12
HETATM   12  C   UNL     1     -10.888  16.238  65.660  1.00  0.00    -0.208 C  
HETATM   13  H   UNL     1     -11.370  17.519  64.217  1.00  0.00     0.000 HD 
HETATM   14  O   UNL     1     -11.167  16.594  64.299  1.00  0.00    -1.098 OA 
BRANCH  12  15
HETATM   15  C   UNL     1      -9.765  17.138  66.217  1.00  0.00    -0.278 C  
HETATM   16  H   UNL     1      -7.812  17.226  66.056  1.00  0.00     0.000 HD 
HETATM   17  O   UNL     1      -8.504  16.672  65.714  1.00  0.00    -0.433 OA 
BRANCH  15  18
HETATM   18  C   UNL     1      -9.737  17.159  67.759  1.00  0.00    -0.271 C  
HETATM   19  O   UNL     1     -11.046  17.256  68.320  1.00  0.00    -0.281 OA 
HETATM   20  H   UNL     1     -11.029  17.269  69.269  1.00  0.00     0.000 HD 
ENDBRANCH  15  18
ENDBRANCH  12  15
ENDBRANCH   9  12
ENDBRANCH   3   9
TORSDOF 5
ENDMDL
MODEL       15
REMARK 921   NORMALIZED FREE ENERGY PREDICTED BY IDOCK:   -4.78 KCAL/MOL
REMARK 922        TOTAL FREE ENERGY PREDICTED BY IDOCK:   -6.87 KCAL/MOL
REMARK 923 INTER-LIGAND FREE ENERGY PREDICTED BY IDOCK:   -5.85 KCAL/MOL
REMARK 924 INTRA-LIGAND FREE ENERGY PREDICTED BY IDOCK:   -1.02 KCAL/MOL
REMARK 927      BINDING AFFINITY PREDICTED BY RF-SCORE:    0.00 PKD
ROOT
HETATM    1  C   UNL     1     -11.510  14.681  69.661  1.00  0.00    -0.289 C  
HETATM    2  O   UNL     1     -12.372  15.545  69.832  1.00  0.00    -0.357 OA 
HETATM    3  CA  UNL     1     -11.631  13.621  68.579  1.00  0.00    -0.335 C  
ENDROOT
BRANCH   3   4
HETATM    4  N   UNL     1     -10.889  12.407  68.956  1.00  0.00    -0.374 N  
HETATM    5  C   UNL     1     -10.494  10.227  69.935  1.00  0.00    -0.304 C  
HETATM    6  O   UNL     1     -12.648  11.276  69.870  1.00  0.00    -0.189 OA 
HETATM    7  H   UNL     1      -9.897  12.356  68.720  1.00  0.00     0.000 HD 
HETATM    8  C   UNL     1     -11.454  11.340  69.609  1.00  0.00    -0.309 C  
ENDBRANCH   3   4
BRANCH   3   9
HETATM    9  C   UNL     1     -11.255  14.172  67.184  1.00  0.00    -0.317 C  
HETATM   10  H   UNL     1      -9.613  14.272  66.138  1.00  0.00     0.000 HD 
HETATM   11  O   UNL     1      -9.843  13.933  66.995  1.00  0.00    -0.245 OA 
BRANCH   9  12
HETATM   12  C   UNL     1     -12.059  13.530  66.018  1.00  0.00    -0.445 C  
HETATM   13  H   UNL     1     -12.651  11.715  65.460  1.00  0.00     0.000 HD 
HETATM   14  O   UNL     1     -12.160  12.108  66.172  1.00  0.00    -0.621 OA 
BRANCH  12  15
HETATM   15  C   UNL     1     -11.460  13.866  64.637  1.00  0.00    -0.377 C  
HETATM   16  H   UNL     1     -12.128  14.600  62.945  1.00  0.00     0.000 HD 
HETATM   17  O   UNL     1     -12.497  14.393  63.796  1.00  0.00    -0.814 OA 
BRANCH  15  18
HETATM   18  C   UNL     1     -10.811  12.641  63.961  1.00  0.00    -0.415 C  
HETATM   19  O   UNL     1      -9.617  12.228  64.627  1.00  0.00    -0.461 OA 
HETATM   20  H   UNL     1      -9.217  11.474  64.211  1.00  0.00     0.000 HD 
ENDBRANCH  15  18
ENDBRANCH  12  15
ENDBRANCH   9  12
ENDBRANCH   3   9
TORSDOF 5
ENDMDL
MODEL       16
REMARK 921   NORMALIZED FREE ENERGY PREDICTED BY IDOCK:   -4.75 KCAL/MOL
REMARK 922        TOTAL FREE ENERGY PREDICTED BY IDOCK:   -6.84 KCAL/MOL
REMARK 923 INTER-LIGAND FREE ENERGY PREDICTED BY IDOCK:   -6.38 KCAL/MOL
REMARK 924 INTRA-LIGAND FREE ENERGY PREDICTED BY IDOCK:   -0.46 KCAL/MOL
REMARK 927      BINDING AFFINITY PREDICTED BY RF-SCORE:    0.00 PKD
ROOT
HETATM    1  C   UNL     1      -9.608  13.937  67.579  1.00  0.00    -0.229 C  
HETATM    2  O   UNL     1      -8.785  13.019  67.571  1.00  0.00    -0.175 OA 
HETATM    3  CA  UNL     1     -10.169  14.531  66.297  1.00  0.00    -0.297 C  
ENDROOT
BRANCH   3   4
HETATM    4  N   UNL     1     -10.584  15.927  66.510  1.00  0.00    -0.309 N  
HETATM    5  C   UNL     1     -10.388  18.339  66.617  1.00  0.00    -0.400 C  
HETATM    6  O   UNL     1      -8.641  16.905  65.817  1.00  0.00    -0.505 OA 
HETATM    7  H   UNL     1     -11.532  16.102  66.844  1.00  0.00     0.000 HD 
HETATM    8  C   UNL     1      -9.767  17.008  66.286  1.00  0.00    -0.283 C  
ENDBRANCH   3   4
BRANCH   3   9
HETATM    9  C   UNL     1     -11.272  13.640  65.680  1.00  0.00    -0.297 C  
HETATM   10  H   UNL     1     -13.153  13.307  66.071  1.00  0.00     0.000 HD 
HETATM   11  O   UNL     1     -12.475  13.854  66.450  1.00  0.00    -0.441 OA 
BRANCH   9  12
HETATM   12  C   UNL     1     -11.549  13.933  64.178  1.00  0.00    -0.298 C  
HETATM   13  H   UNL     1     -12.821  15.013  63.097  1.00  0.00     0.000 HD 
HETATM   14  O   UNL     1     -12.652  14.834  64.015  1.00  0.00    -0.822 OA 
BRANCH  12  15
HETATM   15  C   UNL     1     -11.797  12.646  63.365  1.00  0.00    -0.514 C  
HETATM   16  H   UNL     1     -13.225  11.308  63.236  1.00  0.00     0.000 HD 
HETATM   17  O   UNL     1     -13.072  12.100  63.737  1.00  0.00    -0.774 OA 
BRANCH  15  18
HETATM   18  C   UNL     1     -10.694  11.590  63.580  1.00  0.00    -0.424 C  
HETATM   19  O   UNL     1      -9.450  11.985  63.001  1.00  0.00    -0.610 OA 
HETATM   20  H   UNL     1      -8.770  11.335  63.133  1.00  0.00     0.000 HD 
ENDBRANCH  15  18
ENDBRANCH  12  15
ENDBRANCH   9  12
ENDBRANCH   3   9
TORSDOF 5
ENDMDL
MODEL       17
REMARK 921   NORMALIZED FREE ENERGY PREDICTED BY IDOCK:   -4.74 KCAL/MOL
REMARK 922        TOTAL FREE ENERGY PREDICTED BY IDOCK:   -6.82 KCAL/MOL
REMARK 923 INTER-LIGAND FREE ENERGY PREDICTED BY IDOCK:   -6.13 KCAL/MOL
REMARK 924 INTRA-LIGAND FREE ENERGY PREDICTED BY IDOCK:   -0.69 KCAL/MOL
REMARK 927      BINDING AFFINITY PREDICTED BY RF-SCORE:    0.00 PKD
ROOT
HETATM    1  C   UNL     1     -12.863  13.847  64.984  1.00  0.00    -0.268 C  
HETATM    2  O   UNL     1     -12.774  13.112  63.999  1.00  0.00    -0.653 OA 
HETATM    3  CA  UNL     1     -11.639  14.398  65.696  1.00  0.00    -0.347 C  
ENDROOT
BRANCH   3   4
HETATM    4  N   UNL     1     -11.943  14.677  67.109  1.00  0.00    -0.467 N  
HETATM    5  C   UNL     1     -12.135  14.272  69.490  1.00  0.00    -0.376 C  
HETATM    6  O   UNL     1     -11.142  12.717  67.959  1.00  0.00    -0.227 OA 
HETATM    7  H   UNL     1     -12.357  15.580  67.343  1.00  0.00     0.000 HD 
HETATM    8  C   UNL     1     -11.701  13.792  68.130  1.00  0.00    -0.357 C  
ENDBRANCH   3   4
BRANCH   3   9
HETATM    9  C   UNL     1     -11.023  15.600  64.942  1.00  0.00    -0.431 C  
HETATM   10  H   UNL     1     -11.652  16.841  63.576  1.00  0.00     0.000 HD 
HETATM   11  O   UNL     1     -12.031  16.103  64.039  1.00  0.00    -0.897 OA 
BRANCH   9  12
HETATM   12  C   UNL     1     -10.535  16.743  65.877  1.00  0.00    -0.301 C  
HETATM   13  H   UNL     1     -10.518  18.731  65.889  1.00  0.00     0.000 HD 
HETATM   14  O   UNL     1     -10.816  18.032  65.318  1.00  0.00    -0.627 OA 
BRANCH  12  15
HETATM   15  C   UNL     1      -9.031  16.631  66.205  1.00  0.00    -0.305 C  
HETATM   16  H   UNL     1      -7.920  15.534  67.392  1.00  0.00     0.000 HD 
HETATM   17  O   UNL     1      -8.846  15.603  67.190  1.00  0.00    -0.187 OA 
BRANCH  15  18
HETATM   18  C   UNL     1      -8.439  17.959  66.718  1.00  0.00    -0.249 C  
HETATM   19  O   UNL     1      -8.023  18.811  65.650  1.00  0.00    -0.441 OA 
HETATM   20  H   UNL     1      -7.658  19.629  65.965  1.00  0.00     0.000 HD 
ENDBRANCH  15  18
ENDBRANCH  12  15
ENDBRANCH   9  12
ENDBRANCH   3   9
TORSDOF 5
ENDMDL
MODEL       18
REMARK 921   NORMALIZED FREE ENERGY PREDICTED BY IDOCK:   -4.69 KCAL/MOL
REMARK 922        TOTAL FREE ENERGY PREDICTED BY IDOCK:   -6.75 KCAL/MOL
REMARK 923 INTER-LIGAND FREE ENERGY PREDICTED BY IDOCK:   -6.28 KCAL/MOL
REMARK 924 INTRA-LIGAND FREE ENERGY PREDICTED BY IDOCK:   -0.48 KCAL/MOL
REMARK 927      BINDING AFFINITY PREDICTED BY RF-SCORE:    0.00 PKD
ROOT
HETATM    1  C   UNL     1      -8.463  15.656  67.520  1.00  0.00    -0.167 C  
HETATM    2  O   UNL     1      -7.811  14.832  66.877  1.00  0.00    -0.128 OA 
HETATM    3  CA  UNL     1      -9.932  15.924  67.238  1.00  0.00    -0.240 C  
ENDROOT
BRANCH   3   4
HETATM    4  N   UNL     1     -10.297  17.293  67.638  1.00  0.00    -0.337 N  
HETATM    5  C   UNL     1     -10.759  19.658  67.395  1.00  0.00    -0.563 C  
HETATM    6  O   UNL     1     -10.315  18.201  65.544  1.00  0.00    -0.589 OA 
HETATM    7  H   UNL     1     -10.465  17.476  68.628  1.00  0.00     0.000 HD 
HETATM    8  C   UNL     1     -10.424  18.337  66.756  1.00  0.00    -0.365 C  
ENDBRANCH   3   4
BRANCH   3   9
HETATM    9  C   UNL     1     -10.846  14.833  67.844  1.00  0.00    -0.269 C  
HETATM   10  H   UNL     1     -12.476  14.839  68.915  1.00  0.00     0.000 HD 
HETATM   11  O   UNL     1     -11.914  15.509  68.542  1.00  0.00    -0.319 OA 
BRANCH   9  12
HETATM   12  C   UNL     1     -11.441  13.856  66.790  1.00  0.00    -0.352 C  
HETATM   13  H   UNL     1     -10.783  12.452  65.546  1.00  0.00     0.000 HD 
HETATM   14  O   UNL     1     -10.419  13.049  66.190  1.00  0.00    -0.270 OA 
BRANCH  12  15
HETATM   15  C   UNL     1     -12.241  14.590  65.694  1.00  0.00    -0.273 C  
HETATM   16  H   UNL     1     -13.816  14.202  64.593  1.00  0.00     0.000 HD 
HETATM   17  O   UNL     1     -13.323  13.750  65.267  1.00  0.00    -0.710 OA 
BRANCH  15  18
HETATM   18  C   UNL     1     -11.367  14.973  64.483  1.00  0.00    -0.287 C  
HETATM   19  O   UNL     1     -11.852  16.140  63.816  1.00  0.00    -1.408 OA 
HETATM   20  H   UNL     1     -11.314  16.376  63.070  1.00  0.00     0.000 HD 
ENDBRANCH  15  18
ENDBRANCH  12  15
ENDBRANCH   9  12
ENDBRANCH   3   9
TORSDOF 5
ENDMDL
MODEL       19
REMARK 921   NORMALIZED FREE ENERGY PREDICTED BY IDOCK:   -4.67 KCAL/MOL
REMARK 922        TOTAL FREE ENERGY PREDICTED BY IDOCK:   -6.73 KCAL/MOL
REMARK 923 INTER-LIGAND FREE ENERGY PREDICTED BY IDOCK:   -5.96 KCAL/MOL
REMARK 924 INTRA-LIGAND FREE ENERGY PREDICTED BY IDOCK:   -0.77 KCAL/MOL
REMARK 927      BINDING AFFINITY PREDICTED BY RF-SCORE:    0.00 PKD
ROOT
HETATM    1  C   UNL     1     -12.821  13.488  65.856  1.00  0.00    -0.190 C  
HETATM    2  O   UNL     1     -13.099  13.077  64.728  1.00  0.00    -0.742 OA 
HETATM    3  CA  UNL     1     -11.457  13.260  66.487  1.00  0.00    -0.337 C  
ENDROOT
BRANCH   3   4
HETATM    4  N   UNL     1     -11.560  13.250  67.956  1.00  0.00    -0.314 N  
HETATM    5  C   UNL     1     -11.982  12.373  70.173  1.00  0.00    -0.376 C  
HETATM    6  O   UNL     1     -12.060  11.036  68.185  1.00  0.00    -0.610 OA 
HETATM    7  H   UNL     1     -11.374  14.120  68.457  1.00  0.00     0.000 HD 
HETATM    8  C   UNL     1     -11.891  12.138  68.689  1.00  0.00    -0.306 C  
ENDBRANCH   3   4
BRANCH   3   9
HETATM    9  C   UNL     1     -10.396  14.246  65.943  1.00  0.00    -0.314 C  
HETATM   10  H   UNL     1      -9.384  14.405  64.284  1.00  0.00     0.000 HD 
HETATM   11  O   UNL     1     -10.036  13.800  64.618  1.00  0.00    -0.363 OA 
BRANCH   9  12
HETATM   12  C   UNL     1     -10.880  15.722  65.890  1.00  0.00    -0.268 C  
HETATM   13  H   UNL     1     -10.861  17.233  64.597  1.00  0.00     0.000 HD 
HETATM   14  O   UNL     1     -10.566  16.331  64.630  1.00  0.00    -0.621 OA 
BRANCH  12  15
HETATM   15  C   UNL     1     -10.303  16.571  67.041  1.00  0.00    -0.301 C  
HETATM   16  H   UNL     1     -10.765  16.913  68.916  1.00  0.00     0.000 HD 
HETATM   17  O   UNL     1     -11.120  16.391  68.207  1.00  0.00    -0.347 OA 
BRANCH  15  18
HETATM   18  C   UNL     1     -10.223  18.070  66.686  1.00  0.00    -0.373 C  
HETATM   19  O   UNL     1      -9.011  18.398  66.004  1.00  0.00    -0.497 OA 
HETATM   20  H   UNL     1      -8.962  19.321  65.785  1.00  0.00     0.000 HD 
ENDBRANCH  15  18
ENDBRANCH  12  15
ENDBRANCH   9  12
ENDBRANCH   3   9
TORSDOF 5
ENDMDL
MODEL       20
REMARK 921   NORMALIZED FREE ENERGY PREDICTED BY IDOCK:   -4.67 KCAL/MOL
REMARK 922        TOTAL FREE ENERGY PREDICTED BY IDOCK:   -6.72 KCAL/MOL
REMARK 923 INTER-LIGAND FREE ENERGY PREDICTED BY IDOCK:   -6.04 KCAL/MOL
REMARK 924 INTRA-LIGAND FREE ENERGY PREDICTED BY IDOCK:   -0.68 KCAL/MOL
REMARK 927      BINDING AFFINITY PREDICTED BY RF-SCORE:    0.00 PKD
ROOT
HETATM    1  C   UNL     1      -8.638  11.898  68.095  1.00  0.00    -0.165 C  
HETATM    2  O   UNL     1      -7.692  11.878  67.305  1.00  0.00    -0.147 OA 
HETATM    3  CA  UNL     1      -9.982  12.506  67.732  1.00  0.00    -0.210 C  
ENDROOT
BRANCH   3   4
HETATM    4  N   UNL     1     -10.683  12.976  68.939  1.00  0.00    -0.374 N  
HETATM    5  C   UNL     1     -11.963  14.463  70.359  1.00  0.00    -0.395 C  
HETATM    6  O   UNL     1     -11.508  14.908  68.048  1.00  0.00    -0.313 OA 
HETATM    7  H   UNL     1     -10.660  12.384  69.769  1.00  0.00     0.000 HD 
HETATM    8  C   UNL     1     -11.363  14.166  69.010  1.00  0.00    -0.275 C  
ENDBRANCH   3   4
BRANCH   3   9
HETATM    9  C   UNL     1     -10.828  11.557  66.851  1.00  0.00    -0.284 C  
HETATM   10  H   UNL     1     -12.608  10.772  66.986  1.00  0.00     0.000 HD 
HETATM   11  O   UNL     1     -12.089  11.355  67.527  1.00  0.00    -0.592 OA 
BRANCH   9  12
HETATM   12  C   UNL     1     -11.081  12.094  65.414  1.00  0.00    -0.317 C  
HETATM   13  H   UNL     1     -10.224  13.359  64.141  1.00  0.00     0.000 HD 
HETATM   14  O   UNL     1     -10.070  13.031  65.019  1.00  0.00    -0.277 OA 
BRANCH  12  15
HETATM   15  C   UNL     1     -12.477  12.735  65.264  1.00  0.00    -0.465 C  
HETATM   16  H   UNL     1     -14.081  12.397  64.188  1.00  0.00     0.000 HD 
HETATM   17  O   UNL     1     -13.222  12.003  64.280  1.00  0.00    -0.710 OA 
BRANCH  15  18
HETATM   18  C   UNL     1     -12.402  14.223  64.863  1.00  0.00    -0.425 C  
HETATM   19  O   UNL     1     -12.344  14.397  63.447  1.00  0.00    -1.094 OA 
HETATM   20  H   UNL     1     -12.298  15.312  63.199  1.00  0.00     0.000 HD 
ENDBRANCH  15  18
ENDBRANCH  12  15
ENDBRANCH   9  12
ENDBRANCH   3   9
TORSDOF 5
ENDMDL
MODEL       21
REMARK 921   NORMALIZED FREE ENERGY PREDICTED BY IDOCK:   -4.65 KCAL/MOL
REMARK 922        TOTAL FREE ENERGY PREDICTED BY IDOCK:   -6.70 KCAL/MOL
REMARK 923 INTER-LIGAND FREE ENERGY PREDICTED BY IDOCK:   -6.40 KCAL/MOL
REMARK 924 INTRA-LIGAND FREE ENERGY PREDICTED BY IDOCK:   -0.30 KCAL/MOL
REMARK 927      BINDING AFFINITY PREDICTED BY RF-SCORE:    0.00 PKD
ROOT
HETATM    1  C   UNL     1     -11.467  13.643  67.709  1.00  0.00    -0.318 C  
HETATM    2  O   UNL     1     -12.158  14.056  68.642  1.00  0.00    -0.351 OA 
HETATM    3  CA  UNL     1     -11.318  14.415  66.408  1.00  0.00    -0.350 C  
ENDROOT
BRANCH   3   4
HETATM    4  N   UNL     1     -11.021  13.501  65.293  1.00  0.00    -0.287 N  
HETATM    5  C   UNL     1     -11.422  11.821  63.595  1.00  0.00    -0.524 C  
HETATM    6  O   UNL     1     -13.152  12.752  64.969  1.00  0.00    -0.811 OA 
HETATM    7  H   UNL     1     -10.059  13.453  64.954  1.00  0.00     0.000 HD 
HETATM    8  C   UNL     1     -11.962  12.711  64.683  1.00  0.00    -0.402 C  
ENDBRANCH   3   4
BRANCH   3   9
HETATM    9  C   UNL     1     -10.315  15.584  66.541  1.00  0.00    -0.288 C  
HETATM   10  H   UNL     1      -8.498  15.919  65.916  1.00  0.00     0.000 HD 
HETATM   11  O   UNL     1      -9.115  15.201  65.834  1.00  0.00    -0.259 OA 
BRANCH   9  12
HETATM   12  C   UNL     1     -10.847  16.934  65.982  1.00  0.00    -0.005 C  
HETATM   13  H   UNL     1     -11.368  17.699  64.222  1.00  0.00     0.000 HD 
HETATM   14  O   UNL     1     -11.042  16.873  64.563  1.00  0.00    -1.054 OA 
BRANCH  12  15
HETATM   15  C   UNL     1      -9.924  18.119  66.334  1.00  0.00    -0.376 C  
HETATM   16  H   UNL     1      -8.856  18.670  67.884  1.00  0.00     0.000 HD 
HETATM   17  O   UNL     1      -9.425  17.940  67.668  1.00  0.00    -0.255 OA 
BRANCH  15  18
HETATM   18  C   UNL     1     -10.642  19.480  66.223  1.00  0.00    -0.481 C  
HETATM   19  O   UNL     1      -9.763  20.520  65.792  1.00  0.00    -0.640 OA 
HETATM   20  H   UNL     1     -10.206  21.357  65.723  1.00  0.00     0.000 HD 
ENDBRANCH  15  18
ENDBRANCH  12  15
ENDBRANCH   9  12
ENDBRANCH   3   9
TORSDOF 5
ENDMDL
MODEL       22
REMARK 921   NORMALIZED FREE ENERGY PREDICTED BY IDOCK:   -4.64 KCAL/MOL
REMARK 922        TOTAL FREE ENERGY PREDICTED BY IDOCK:   -6.69 KCAL/MOL
REMARK 923 INTER-LIGAND FREE ENERGY PREDICTED BY IDOCK:   -6.08 KCAL/MOL
REMARK 924 INTRA-LIGAND FREE ENERGY PREDICTED BY IDOCK:   -0.62 KCAL/MOL
REMARK 927      BINDING AFFINITY PREDICTED BY RF-SCORE:    0.00 PKD
ROOT
HETATM    1  C   UNL     1     -11.687  11.492  68.260  1.00  0.00    -0.301 C  
HETATM    2  O   UNL     1     -10.808  10.670  67.995  1.00  0.00    -0.219 OA 
HETATM    3  CA  UNL     1     -11.573  12.955  67.865  1.00  0.00    -0.345 C  
ENDROOT
BRANCH   3   4
HETATM    4  N   UNL     1     -12.351  13.803  68.784  1.00  0.00    -0.394 N  
HETATM    5  C   UNL     1     -12.780  15.510  70.447  1.00  0.00    -0.382 C  
HETATM    6  O   UNL     1     -10.624  15.127  69.472  1.00  0.00    -0.248 OA 
HETATM    7  H   UNL     1     -13.355  13.637  68.858  1.00  0.00     0.000 HD 
HETATM    8  C   UNL     1     -11.803  14.804  69.546  1.00  0.00    -0.326 C  
ENDBRANCH   3   4
BRANCH   3   9
HETATM    9  C   UNL     1     -11.910  13.181  66.373  1.00  0.00    -0.400 C  
HETATM   10  H   UNL     1     -12.559  14.687  65.319  1.00  0.00     0.000 HD 
HETATM   11  O   UNL     1     -12.351  14.549  66.236  1.00  0.00    -0.339 OA 
BRANCH   9  12
HETATM   12  C   UNL     1     -10.716  12.913  65.413  1.00  0.00    -0.285 C  
HETATM   13  H   UNL     1      -9.462  13.972  64.290  1.00  0.00     0.000 HD 
HETATM   14  O   UNL     1     -10.191  14.135  64.877  1.00  0.00    -0.412 OA 
BRANCH  12  15
HETATM   15  C   UNL     1     -11.092  11.955  64.263  1.00  0.00    -0.356 C  
HETATM   16  H   UNL     1     -10.235  11.312  62.620  1.00  0.00     0.000 HD 
HETATM   17  O   UNL     1     -10.004  11.902  63.328  1.00  0.00    -0.426 OA 
BRANCH  15  18
HETATM   18  C   UNL     1     -12.384  12.382  63.538  1.00  0.00    -0.546 C  
HETATM   19  O   UNL     1     -12.334  13.740  63.100  1.00  0.00    -1.099 OA 
HETATM   20  H   UNL     1     -13.130  14.002  62.654  1.00  0.00     0.000 HD 
ENDBRANCH  15  18
ENDBRANCH  12  15
ENDBRANCH   9  12
ENDBRANCH   3   9
TORSDOF 5
ENDMDL
MODEL       23
REMARK 921   NORMALIZED FREE ENERGY PREDICTED BY IDOCK:   -4.64 KCAL/MOL
REMARK 922        TOTAL FREE ENERGY PREDICTED BY IDOCK:   -6.69 KCAL/MOL
REMARK 923 INTER-LIGAND FREE ENERGY PREDICTED BY IDOCK:   -5.91 KCAL/MOL
REMARK 924 INTRA-LIGAND FREE ENERGY PREDICTED BY IDOCK:   -0.78 KCAL/MOL
REMARK 927      BINDING AFFINITY PREDICTED BY RF-SCORE:    0.00 PKD
ROOT
HETATM    1  C   UNL     1     -11.568  13.818  67.372  1.00  0.00    -0.362 C  
HETATM    2  O   UNL     1     -12.451  14.062  66.548  1.00  0.00    -0.442 OA 
HETATM    3  CA  UNL     1     -11.524  14.492  68.733  1.00  0.00    -0.294 C  
ENDROOT
BRANCH   3   4
HETATM    4  N   UNL     1     -10.142  14.546  69.240  1.00  0.00    -0.403 N  
HETATM    5  C   UNL     1      -7.869  15.346  69.490  1.00  0.00    -0.204 C  
HETATM    6  O   UNL     1      -9.526  16.464  68.167  1.00  0.00    -0.208 OA 
HETATM    7  H   UNL     1      -9.840  13.822  69.893  1.00  0.00     0.000 HD 
HETATM    8  C   UNL     1      -9.237  15.516  68.885  1.00  0.00    -0.218 C  
ENDBRANCH   3   4
BRANCH   3   9
HETATM    9  C   UNL     1     -12.527  13.860  69.726  1.00  0.00    -0.188 C  
HETATM   10  H   UNL     1     -12.492  12.330  70.934  1.00  0.00     0.000 HD 
HETATM   11  O   UNL     1     -11.876  12.718  70.325  1.00  0.00    -0.307 OA 
BRANCH   9  12
HETATM   12  C   UNL     1     -13.009  14.835  70.837  1.00  0.00    -0.364 C  
HETATM   13  H   UNL     1     -12.489  16.610  71.568  1.00  0.00     0.000 HD 
HETATM   14  O   UNL     1     -12.194  16.013  70.889  1.00  0.00    -0.392 OA 
BRANCH  12  15
HETATM   15  C   UNL     1     -13.052  14.166  72.227  1.00  0.00    -0.423 C  
HETATM   16  H   UNL     1     -14.426  13.347  73.361  1.00  0.00     0.000 HD 
HETATM   17  O   UNL     1     -14.399  13.759  72.505  1.00  0.00    -0.696 OA 
BRANCH  15  18
HETATM   18  C   UNL     1     -12.545  15.098  73.346  1.00  0.00    -0.531 C  
HETATM   19  O   UNL     1     -13.494  16.115  73.671  1.00  0.00    -0.875 OA 
HETATM   20  H   UNL     1     -13.182  16.689  74.360  1.00  0.00     0.000 HD 
ENDBRANCH  15  18
ENDBRANCH  12  15
ENDBRANCH   9  12
ENDBRANCH   3   9
TORSDOF 5
ENDMDL
MODEL       24
REMARK 921   NORMALIZED FREE ENERGY PREDICTED BY IDOCK:   -4.64 KCAL/MOL
REMARK 922        TOTAL FREE ENERGY PREDICTED BY IDOCK:   -6.69 KCAL/MOL
REMARK 923 INTER-LIGAND FREE ENERGY PREDICTED BY IDOCK:   -6.16 KCAL/MOL
REMARK 924 INTRA-LIGAND FREE ENERGY PREDICTED BY IDOCK:   -0.53 KCAL/MOL
REMARK 927      BINDING AFFINITY PREDICTED BY RF-SCORE:    0.00 PKD
ROOT
HETATM    1  C   UNL     1      -9.597  10.749  63.090  1.00  0.00    -0.355 C  
HETATM    2  O   UNL     1      -8.695  11.154  62.354  1.00  0.00    -0.305 OA 
HETATM    3  CA  UNL     1     -10.081  11.545  64.291  1.00  0.00    -0.291 C  
ENDROOT
BRANCH   3   4
HETATM    4  N   UNL     1     -10.644  10.649  65.315  1.00  0.00    -0.185 N  
HETATM    5  C   UNL     1     -10.675   9.127  67.199  1.00  0.00    -0.213 C  
HETATM    6  O   UNL     1      -8.697  10.243  66.433  1.00  0.00    -0.132 OA 
HETATM    7  H   UNL     1     -11.649  10.473  65.299  1.00  0.00     0.000 HD 
HETATM    8  C   UNL     1      -9.894  10.037  66.288  1.00  0.00    -0.236 C  
ENDBRANCH   3   4
BRANCH   3   9
HETATM    9  C   UNL     1     -11.029  12.695  63.880  1.00  0.00    -0.424 C  
HETATM   10  H   UNL     1     -12.840  12.800  63.165  1.00  0.00     0.000 HD 
HETATM   11  O   UNL     1     -12.257  12.093  63.418  1.00  0.00    -0.528 OA 
BRANCH   9  12
HETATM   12  C   UNL     1     -11.333  13.698  65.028  1.00  0.00    -0.329 C  
HETATM   13  H   UNL     1     -12.834  14.869  65.604  1.00  0.00     0.000 HD 
HETATM   14  O   UNL     1     -12.647  14.256  64.902  1.00  0.00    -0.583 OA 
BRANCH  12  15
HETATM   15  C   UNL     1     -10.289  14.831  65.110  1.00  0.00    -0.410 C  
HETATM   16  H   UNL     1      -8.835  15.330  66.328  1.00  0.00     0.000 HD 
HETATM   17  O   UNL     1      -9.478  14.633  66.278  1.00  0.00    -0.286 OA 
BRANCH  15  18
HETATM   18  C   UNL     1     -10.938  16.229  65.155  1.00  0.00    -0.274 C  
HETATM   19  O   UNL     1     -11.528  16.590  63.906  1.00  0.00    -1.608 OA 
HETATM   20  H   UNL     1     -11.928  17.451  63.933  1.00  0.00     0.000 HD 
ENDBRANCH  15  18
ENDBRANCH  12  15
ENDBRANCH   9  12
ENDBRANCH   3   9
TORSDOF 5
ENDMDL
MODEL       25
REMARK 921   NORMALIZED FREE ENERGY PREDICTED BY IDOCK:   -4.63 KCAL/MOL
REMARK 922        TOTAL FREE ENERGY PREDICTED BY IDOCK:   -6.68 KCAL/MOL
REMARK 923 INTER-LIGAND FREE ENERGY PREDICTED BY IDOCK:   -6.22 KCAL/MOL
REMARK 924 INTRA-LIGAND FREE ENERGY PREDICTED BY IDOCK:   -0.45 KCAL/MOL
REMARK 927      BINDING AFFINITY PREDICTED BY RF-SCORE:    0.00 PKD
ROOT
HETATM    1  C   UNL     1     -10.525  11.251  64.093  1.00  0.00    -0.369 C  
HETATM    2  O   UNL     1     -10.259  12.105  63.246  1.00  0.00    -0.429 OA 
HETATM    3  CA  UNL     1     -10.424  11.531  65.584  1.00  0.00    -0.266 C  
ENDROOT
BRANCH   3   4
HETATM    4  N   UNL     1     -10.164  10.288  66.329  1.00  0.00    -0.233 N  
HETATM    5  C   UNL     1      -8.932   8.678  67.654  1.00  0.00    -0.141 C  
HETATM    6  O   UNL     1      -8.091  10.853  67.100  1.00  0.00    -0.120 OA 
HETATM    7  H   UNL     1     -10.894   9.576  66.346  1.00  0.00     0.000 HD 
HETATM    8  C   UNL     1      -8.995  10.033  67.002  1.00  0.00    -0.138 C  
ENDBRANCH   3   4
BRANCH   3   9
HETATM    9  C   UNL     1     -11.641  12.328  66.107  1.00  0.00    -0.390 C  
HETATM   10  H   UNL     1     -12.888  12.123  67.592  1.00  0.00     0.000 HD 
HETATM   11  O   UNL     1     -12.140  11.633  67.271  1.00  0.00    -0.595 OA 
BRANCH   9  12
HETATM   12  C   UNL     1     -11.315  13.803  66.474  1.00  0.00    -0.325 C  
HETATM   13  H   UNL     1     -11.506  15.009  68.044  1.00  0.00     0.000 HD 
HETATM   14  O   UNL     1     -11.705  14.107  67.819  1.00  0.00    -0.332 OA 
BRANCH  12  15
HETATM   15  C   UNL     1     -11.965  14.808  65.500  1.00  0.00    -0.189 C  
HETATM   16  H   UNL     1     -13.012  14.699  63.845  1.00  0.00     0.000 HD 
HETATM   17  O   UNL     1     -12.611  14.081  64.445  1.00  0.00    -0.651 OA 
BRANCH  15  18
HETATM   18  C   UNL     1     -10.943  15.797  64.903  1.00  0.00    -0.427 C  
HETATM   19  O   UNL     1     -11.482  16.532  63.804  1.00  0.00    -1.615 OA 
HETATM   20  H   UNL     1     -10.853  17.141  63.437  1.00  0.00     0.000 HD 
ENDBRANCH  15  18
ENDBRANCH  12  15
ENDBRANCH   9  12
ENDBRANCH   3   9
TORSDOF 5
ENDMDL
MODEL       26
REMARK 921   NORMALIZED FREE ENERGY PREDICTED BY IDOCK:   -4.63 KCAL/MOL
REMARK 922        TOTAL FREE ENERGY PREDICTED BY IDOCK:   -6.67 KCAL/MOL
REMARK 923 INTER-LIGAND FREE ENERGY PREDICTED BY IDOCK:   -5.88 KCAL/MOL
REMARK 924 INTRA-LIGAND FREE ENERGY PREDICTED BY IDOCK:   -0.79 KCAL/MOL
REMARK 927      BINDING AFFINITY PREDICTED BY RF-SCORE:    0.00 PKD
ROOT
HETATM    1  C   UNL     1      -8.611  15.736  68.854  1.00  0.00    -0.220 C  
HETATM    2  O   UNL     1      -7.799  16.655  68.974  1.00  0.00    -0.236 OA 
HETATM    3  CA  UNL     1     -10.095  15.926  69.122  1.00  0.00    -0.240 C  
ENDROOT
BRANCH   3   4
HETATM    4  N   UNL     1     -10.716  14.655  69.528  1.00  0.00    -0.353 N  
HETATM    5  C   UNL     1     -12.274  13.167  70.635  1.00  0.00    -0.402 C  
HETATM    6  O   UNL     1     -12.474  15.556  70.671  1.00  0.00    -0.392 OA 
HETATM    7  H   UNL     1     -10.284  13.786  69.214  1.00  0.00     0.000 HD 
HETATM    8  C   UNL     1     -11.844  14.572  70.306  1.00  0.00    -0.308 C  
ENDBRANCH   3   4
BRANCH   3   9
HETATM    9  C   UNL     1     -10.812  16.621  67.942  1.00  0.00    -0.321 C  
HETATM   10  H   UNL     1     -10.921  18.452  67.279  1.00  0.00     0.000 HD 
HETATM   11  O   UNL     1     -10.479  18.025  68.004  1.00  0.00    -0.372 OA 
BRANCH   9  12
HETATM   12  C   UNL     1     -10.427  16.049  66.548  1.00  0.00    -0.302 C  
HETATM   13  H   UNL     1      -9.939  16.748  64.752  1.00  0.00     0.000 HD 
HETATM   14  O   UNL     1     -10.175  17.098  65.604  1.00  0.00    -0.564 OA 
BRANCH  12  15
HETATM   15  C   UNL     1     -11.498  15.088  65.992  1.00  0.00    -0.221 C  
HETATM   16  H   UNL     1     -12.034  13.229  66.312  1.00  0.00     0.000 HD 
HETATM   17  O   UNL     1     -11.375  13.821  66.655  1.00  0.00    -0.311 OA 
BRANCH  15  18
HETATM   18  C   UNL     1     -11.380  14.894  64.466  1.00  0.00    -0.300 C  
HETATM   19  O   UNL     1     -11.964  15.975  63.739  1.00  0.00    -1.339 OA 
HETATM   20  H   UNL     1     -11.892  15.856  62.800  1.00  0.00     0.000 HD 
ENDBRANCH  15  18
ENDBRANCH  12  15
ENDBRANCH   9  12
ENDBRANCH   3   9
TORSDOF 5
ENDMDL
MODEL       27
REMARK 921   NORMALIZED FREE ENERGY PREDICTED BY IDOCK:   -4.63 KCAL/MOL
REMARK 922        TOTAL FREE ENERGY PREDICTED BY IDOCK:   -6.67 KCAL/MOL
REMARK 923 INTER-LIGAND FREE ENERGY PREDICTED BY IDOCK:   -5.96 KCAL/MOL
REMARK 924 INTRA-LIGAND FREE ENERGY PREDICTED BY IDOCK:   -0.71 KCAL/MOL
REMARK 927      BINDING AFFINITY PREDICTED BY RF-SCORE:    0.00 PKD
ROOT
HETATM    1  C   UNL     1     -12.183  14.168  64.633  1.00  0.00    -0.445 C  
HETATM    2  O   UNL     1     -12.601  15.047  63.877  1.00  0.00    -0.813 OA 
HETATM    3  CA  UNL     1     -10.703  13.996  64.933  1.00  0.00    -0.418 C  
ENDROOT
BRANCH   3   4
HETATM    4  N   UNL     1     -10.406  12.600  65.296  1.00  0.00    -0.286 N  
HETATM    5  C   UNL     1      -9.885  10.257  64.975  1.00  0.00    -0.397 C  
HETATM    6  O   UNL     1      -9.994  11.844  63.182  1.00  0.00    -0.422 OA 
HETATM    7  H   UNL     1     -10.421  12.346  66.284  1.00  0.00     0.000 HD 
HETATM    8  C   UNL     1     -10.109  11.622  64.380  1.00  0.00    -0.279 C  
ENDBRANCH   3   4
BRANCH   3   9
HETATM    9  C   UNL     1     -10.197  15.029  65.967  1.00  0.00    -0.301 C  
HETATM   10  H   UNL     1      -9.645  16.898  65.891  1.00  0.00     0.000 HD 
HETATM   11  O   UNL     1      -9.956  16.263  65.256  1.00  0.00    -0.505 OA 
BRANCH   9  12
HETATM   12  C   UNL     1     -11.187  15.281  67.139  1.00  0.00    -0.291 C  
HETATM   13  H   UNL     1     -11.627  16.747  68.408  1.00  0.00     0.000 HD 
HETATM   14  O   UNL     1     -11.022  16.593  67.691  1.00  0.00    -0.296 OA 
BRANCH  12  15
HETATM   15  C   UNL     1     -11.057  14.222  68.254  1.00  0.00    -0.258 C  
HETATM   16  H   UNL     1     -11.865  12.480  68.653  1.00  0.00     0.000 HD 
HETATM   17  O   UNL     1     -11.945  13.132  67.966  1.00  0.00    -0.351 OA 
BRANCH  15  18
HETATM   18  C   UNL     1     -11.368  14.796  69.651  1.00  0.00    -0.283 C  
HETATM   19  O   UNL     1     -12.672  15.376  69.717  1.00  0.00    -0.615 OA 
HETATM   20  H   UNL     1     -12.864  15.729  70.577  1.00  0.00     0.000 HD 
ENDBRANCH  15  18
ENDBRANCH  12  15
ENDBRANCH   9  12
ENDBRANCH   3   9
TORSDOF 5
ENDMDL
MODEL       28
REMARK 921   NORMALIZED FREE ENERGY PREDICTED BY IDOCK:   -4.62 KCAL/MOL
REMARK 922        TOTAL FREE ENERGY PREDICTED BY IDOCK:   -6.67 KCAL/MOL
REMARK 923 INTER-LIGAND FREE ENERGY PREDICTED BY IDOCK:   -5.94 KCAL/MOL
REMARK 924 INTRA-LIGAND FREE ENERGY PREDICTED BY IDOCK:   -0.72 KCAL/MOL
REMARK 927      BINDING AFFINITY PREDICTED BY RF-SCORE:    0.00 PKD
ROOT
HETATM    1  C   UNL     1     -10.472  14.455  66.504  1.00  0.00    -0.289 C  
HETATM    2  O   UNL     1     -10.772  15.620  66.773  1.00  0.00    -0.308 OA 
HETATM    3  CA  UNL     1     -11.454  13.308  66.669  1.00  0.00    -0.347 C  
ENDROOT
BRANCH   3   4
HETATM    4  N   UNL     1     -10.739  12.042  66.905  1.00  0.00    -0.235 N  
HETATM    5  C   UNL     1     -10.271   9.873  67.874  1.00  0.00    -0.234 C  
HETATM    6  O   UNL     1     -12.264  11.123  68.333  1.00  0.00    -0.610 OA 
HETATM    7  H   UNL     1      -9.861  11.887  66.410  1.00  0.00     0.000 HD 
HETATM    8  C   UNL     1     -11.188  11.060  67.753  1.00  0.00    -0.308 C  
ENDBRANCH   3   4
BRANCH   3   9
HETATM    9  C   UNL     1     -12.469  13.242  65.504  1.00  0.00    -0.474 C  
HETATM   10  H   UNL     1     -14.140  14.151  65.077  1.00  0.00     0.000 HD 
HETATM   11  O   UNL     1     -13.517  14.193  65.793  1.00  0.00    -0.440 OA 
BRANCH   9  12
HETATM   12  C   UNL     1     -11.847  13.550  64.112  1.00  0.00    -0.437 C  
HETATM   13  H   UNL     1     -12.121  14.848  62.630  1.00  0.00     0.000 HD 
HETATM   14  O   UNL     1     -12.500  14.659  63.481  1.00  0.00    -0.681 OA 
BRANCH  12  15
HETATM   15  C   UNL     1     -11.870  12.325  63.175  1.00  0.00    -0.235 C  
HETATM   16  H   UNL     1     -13.139  10.891  62.752  1.00  0.00     0.000 HD 
HETATM   17  O   UNL     1     -13.124  11.645  63.329  1.00  0.00    -0.501 OA 
BRANCH  15  18
HETATM   18  C   UNL     1     -10.709  11.349  63.451  1.00  0.00    -0.332 C  
HETATM   19  O   UNL     1      -9.525  12.026  63.876  1.00  0.00    -0.513 OA 
HETATM   20  H   UNL     1      -8.810  11.426  64.047  1.00  0.00     0.000 HD 
ENDBRANCH  15  18
ENDBRANCH  12  15
ENDBRANCH   9  12
ENDBRANCH   3   9
TORSDOF 5
ENDMDL
MODEL       29
REMARK 921   NORMALIZED FREE ENERGY PREDICTED BY IDOCK:   -4.62 KCAL/MOL
REMARK 922        TOTAL FREE ENERGY PREDICTED BY IDOCK:   -6.67 KCAL/MOL
REMARK 923 INTER-LIGAND FREE ENERGY PREDICTED BY IDOCK:   -6.02 KCAL/MOL
REMARK 924 INTRA-LIGAND FREE ENERGY PREDICTED BY IDOCK:   -0.64 KCAL/MOL
REMARK 927      BINDING AFFINITY PREDICTED BY RF-SCORE:    0.00 PKD
ROOT
HETATM    1  C   UNL     1     -11.716  15.620  68.467  1.00  0.00    -0.327 C  
HETATM    2  O   UNL     1     -12.023  14.499  68.878  1.00  0.00    -0.315 OA 
HETATM    3  CA  UNL     1     -10.600  15.834  67.458  1.00  0.00    -0.309 C  
ENDROOT
BRANCH   3   4
HETATM    4  N   UNL     1     -10.017  17.178  67.606  1.00  0.00    -0.274 N  
HETATM    5  C   UNL     1      -8.513  18.901  68.404  1.00  0.00    -0.385 C  
HETATM    6  O   UNL     1      -8.250  16.574  68.918  1.00  0.00    -0.231 OA 
HETATM    7  H   UNL     1     -10.468  17.954  67.121  1.00  0.00     0.000 HD 
HETATM    8  C   UNL     1      -8.902  17.447  68.360  1.00  0.00    -0.271 C  
ENDBRANCH   3   4
BRANCH   3   9
HETATM    9  C   UNL     1     -11.052  15.507  66.016  1.00  0.00    -0.185 C  
HETATM   10  H   UNL     1     -10.616  16.195  64.245  1.00  0.00     0.000 HD 
HETATM   11  O   UNL     1     -10.337  16.396  65.131  1.00  0.00    -0.610 OA 
BRANCH   9  12
HETATM   12  C   UNL     1     -10.798  14.031  65.599  1.00  0.00    -0.295 C  
HETATM   13  H   UNL     1      -9.800  13.049  64.186  1.00  0.00     0.000 HD 
HETATM   14  O   UNL     1      -9.955  13.951  64.442  1.00  0.00    -0.215 OA 
BRANCH  12  15
HETATM   15  C   UNL     1     -12.109  13.258  65.346  1.00  0.00    -0.422 C  
HETATM   16  H   UNL     1     -12.939  11.618  66.030  1.00  0.00     0.000 HD 
HETATM   17  O   UNL     1     -12.132  12.094  66.185  1.00  0.00    -0.621 OA 
BRANCH  15  18
HETATM   18  C   UNL     1     -12.274  12.842  63.870  1.00  0.00    -0.463 C  
HETATM   19  O   UNL     1     -12.365  13.970  63.000  1.00  0.00    -1.101 OA 
HETATM   20  H   UNL     1     -12.466  13.714  62.091  1.00  0.00     0.000 HD 
ENDBRANCH  15  18
ENDBRANCH  12  15
ENDBRANCH   9  12
ENDBRANCH   3   9
TORSDOF 5
ENDMDL
MODEL       30
REMARK 921   NORMALIZED FREE ENERGY PREDICTED BY IDOCK:   -4.62 KCAL/MOL
REMARK 922        TOTAL FREE ENERGY PREDICTED BY IDOCK:   -6.66 KCAL/MOL
REMARK 923 INTER-LIGAND FREE ENERGY PREDICTED BY IDOCK:   -6.32 KCAL/MOL
REMARK 924 INTRA-LIGAND FREE ENERGY PREDICTED BY IDOCK:   -0.34 KCAL/MOL
REMARK 927      BINDING AFFINITY PREDICTED BY RF-SCORE:    0.00 PKD
ROOT
HETATM    1  C   UNL     1     -11.580  13.420  68.585  1.00  0.00    -0.327 C  
HETATM    2  O   UNL     1     -11.247  12.422  69.226  1.00  0.00    -0.242 OA 
HETATM    3  CA  UNL     1     -10.867  13.836  67.309  1.00  0.00    -0.285 C  
ENDROOT
BRANCH   3   4
HETATM    4  N   UNL     1     -10.985  15.289  67.098  1.00  0.00    -0.330 N  
HETATM    5  C   UNL     1     -10.479  17.644  67.344  1.00  0.00    -0.356 C  
HETATM    6  O   UNL     1      -9.166  15.899  68.332  1.00  0.00    -0.189 OA 
HETATM    7  H   UNL     1     -11.739  15.628  66.499  1.00  0.00     0.000 HD 
HETATM    8  C   UNL     1     -10.140  16.212  67.661  1.00  0.00    -0.248 C  
ENDBRANCH   3   4
BRANCH   3   9
HETATM    9  C   UNL     1     -11.315  12.992  66.093  1.00  0.00    -0.314 C  
HETATM   10  H   UNL     1     -12.506  11.469  65.836  1.00  0.00     0.000 HD 
HETATM   11  O   UNL     1     -12.231  11.988  66.583  1.00  0.00    -0.550 OA 
BRANCH   9  12
HETATM   12  C   UNL     1     -11.996  13.823  64.969  1.00  0.00    -0.383 C  
HETATM   13  H   UNL     1     -13.769  14.650  64.615  1.00  0.00     0.000 HD 
HETATM   14  O   UNL     1     -13.353  14.142  65.302  1.00  0.00    -0.715 OA 
BRANCH  12  15
HETATM   15  C   UNL     1     -11.945  13.111  63.601  1.00  0.00    -0.514 C  
HETATM   16  H   UNL     1     -13.065  11.824  62.633  1.00  0.00     0.000 HD 
HETATM   17  O   UNL     1     -13.095  12.261  63.476  1.00  0.00    -0.766 OA 
BRANCH  15  18
HETATM   18  C   UNL     1     -10.659  12.281  63.415  1.00  0.00    -0.385 C  
HETATM   19  O   UNL     1     -10.939  10.902  63.169  1.00  0.00    -0.714 OA 
HETATM   20  H   UNL     1     -10.146  10.391  63.055  1.00  0.00     0.000 HD 
ENDBRANCH  15  18
ENDBRANCH  12  15
ENDBRANCH   9  12
ENDBRANCH   3   9
TORSDOF 5
ENDMDL
MODEL       31
REMARK 921   NORMALIZED FREE ENERGY PREDICTED BY IDOCK:   -4.62 KCAL/MOL
REMARK 922        TOTAL FREE ENERGY PREDICTED BY IDOCK:   -6.66 KCAL/MOL
REMARK 923 INTER-LIGAND FREE ENERGY PREDICTED BY IDOCK:   -6.15 KCAL/MOL
REMARK 924 INTRA-LIGAND FREE ENERGY PREDICTED BY IDOCK:   -0.51 KCAL/MOL
REMARK 927      BINDING AFFINITY PREDICTED BY RF-SCORE:    0.00 PKD
ROOT
HETATM    1  C   UNL     1      -9.161  11.897  66.948  1.00  0.00    -0.196 C  
HETATM    2  O   UNL     1      -8.977  11.485  68.095  1.00  0.00    -0.159 OA 
HETATM    3  CA  UNL     1     -10.330  11.429  66.098  1.00  0.00    -0.248 C  
ENDROOT
BRANCH   3   4
HETATM    4  N   UNL     1     -10.004  11.531  64.665  1.00  0.00    -0.251 N  
HETATM    5  C   UNL     1      -9.091  10.886  62.517  1.00  0.00    -0.361 C  
HETATM    6  O   UNL     1      -9.068   9.461  64.445  1.00  0.00    -0.217 OA 
HETATM    7  H   UNL     1     -10.270  12.382  64.171  1.00  0.00     0.000 HD 
HETATM    8  C   UNL     1      -9.362  10.545  63.958  1.00  0.00    -0.267 C  
ENDBRANCH   3   4
BRANCH   3   9
HETATM    9  C   UNL     1     -11.649  12.136  66.488  1.00  0.00    -0.359 C  
HETATM   10  H   UNL     1     -12.902  11.994  67.975  1.00  0.00     0.000 HD 
HETATM   11  O   UNL     1     -12.091  11.560  67.736  1.00  0.00    -0.626 OA 
BRANCH   9  12
HETATM   12  C   UNL     1     -11.514  13.678  66.637  1.00  0.00    -0.343 C  
HETATM   13  H   UNL     1     -12.057  15.087  67.932  1.00  0.00     0.000 HD 
HETATM   14  O   UNL     1     -12.139  14.144  67.840  1.00  0.00    -0.358 OA 
BRANCH  12  15
HETATM   15  C   UNL     1     -12.085  14.438  65.421  1.00  0.00    -0.364 C  
HETATM   16  H   UNL     1     -13.125  13.975  63.825  1.00  0.00     0.000 HD 
HETATM   17  O   UNL     1     -12.774  13.507  64.573  1.00  0.00    -0.635 OA 
BRANCH  15  18
HETATM   18  C   UNL     1     -10.991  15.169  64.617  1.00  0.00    -0.303 C  
HETATM   19  O   UNL     1     -11.473  16.376  64.025  1.00  0.00    -1.465 OA 
HETATM   20  H   UNL     1     -10.800  16.826  63.530  1.00  0.00     0.000 HD 
ENDBRANCH  15  18
ENDBRANCH  12  15
ENDBRANCH   9  12
ENDBRANCH   3   9
TORSDOF 5
ENDMDL
MODEL       32
REMARK 921   NORMALIZED FREE ENERGY PREDICTED BY IDOCK:   -4.62 KCAL/MOL
REMARK 922        TOTAL FREE ENERGY PREDICTED BY IDOCK:   -6.66 KCAL/MOL
REMARK 923 INTER-LIGAND FREE ENERGY PREDICTED BY IDOCK:   -5.97 KCAL/MOL
REMARK 924 INTRA-LIGAND FREE ENERGY PREDICTED BY IDOCK:   -0.69 KCAL/MOL
REMARK 927      BINDING AFFINITY PREDICTED BY RF-SCORE:    0.00 PKD
ROOT
HETATM    1  C   UNL     1     -10.911  15.724  64.839  1.00  0.00    -0.427 C  
HETATM    2  O   UNL     1     -11.612  16.324  64.022  1.00  0.00    -0.953 OA 
HETATM    3  CA  UNL     1     -11.474  15.181  66.143  1.00  0.00    -0.157 C  
ENDROOT
BRANCH   3   4
HETATM    4  N   UNL     1     -10.421  15.100  67.169  1.00  0.00    -0.275 N  
HETATM    5  C   UNL     1      -9.134  15.726  69.123  1.00  0.00    -0.262 C  
HETATM    6  O   UNL     1     -11.139  16.851  68.444  1.00  0.00    -0.341 OA 
HETATM    7  H   UNL     1      -9.729  14.354  67.090  1.00  0.00     0.000 HD 
HETATM    8  C   UNL     1     -10.317  15.971  68.225  1.00  0.00    -0.261 C  
ENDBRANCH   3   4
BRANCH   3   9
HETATM    9  C   UNL     1     -12.243  13.856  65.934  1.00  0.00    -0.467 C  
HETATM   10  H   UNL     1     -13.879  13.343  65.006  1.00  0.00     0.000 HD 
HETATM   11  O   UNL     1     -13.407  14.157  65.134  1.00  0.00    -0.684 OA 
BRANCH   9  12
HETATM   12  C   UNL     1     -11.402  12.744  65.244  1.00  0.00    -0.303 C  
HETATM   13  H   UNL     1     -11.561  11.538  63.671  1.00  0.00     0.000 HD 
HETATM   14  O   UNL     1     -12.075  12.218  64.093  1.00  0.00    -0.396 OA 
BRANCH  12  15
HETATM   15  C   UNL     1     -11.041  11.597  66.210  1.00  0.00    -0.290 C  
HETATM   16  H   UNL     1     -11.488  11.108  68.056  1.00  0.00     0.000 HD 
HETATM   17  O   UNL     1     -11.710  11.814  67.461  1.00  0.00    -0.512 OA 
BRANCH  15  18
HETATM   18  C   UNL     1      -9.521  11.480  66.444  1.00  0.00    -0.213 C  
HETATM   19  O   UNL     1      -8.857  12.738  66.312  1.00  0.00    -0.429 OA 
HETATM   20  H   UNL     1      -7.921  12.666  66.456  1.00  0.00     0.000 HD 
ENDBRANCH  15  18
ENDBRANCH  12  15
ENDBRANCH   9  12
ENDBRANCH   3   9
TORSDOF 5
ENDMDL
MODEL       33
REMARK 921   NORMALIZED FREE ENERGY PREDICTED BY IDOCK:   -4.61 KCAL/MOL
REMARK 922        TOTAL FREE ENERGY PREDICTED BY IDOCK:   -6.65 KCAL/MOL
REMARK 923 INTER-LIGAND FREE ENERGY PREDICTED BY IDOCK:   -6.12 KCAL/MOL
REMARK 924 INTRA-LIGAND FREE ENERGY PREDICTED BY IDOCK:   -0.53 KCAL/MOL
REMARK 927      BINDING AFFINITY PREDICTED BY RF-SCORE:    0.00 PKD
ROOT
HETATM    1  C   UNL     1     -11.611  13.676  64.619  1.00  0.00    -0.371 C  
HETATM    2  O   UNL     1     -12.628  13.529  63.939  1.00  0.00    -0.681 OA 
HETATM    3  CA  UNL     1     -11.600  14.517  65.885  1.00  0.00    -0.349 C  
ENDROOT
BRANCH   3   4
HETATM    4  N   UNL     1     -10.252  15.050  66.143  1.00  0.00    -0.281 N  
HETATM    5  C   UNL     1      -8.390  16.596  66.047  1.00  0.00    -0.180 C  
HETATM    6  O   UNL     1     -10.552  17.071  65.127  1.00  0.00    -0.688 OA 
HETATM    7  H   UNL     1      -9.600  14.473  66.675  1.00  0.00     0.000 HD 
HETATM    8  C   UNL     1      -9.822  16.279  65.708  1.00  0.00    -0.299 C  
ENDBRANCH   3   4
BRANCH   3   9
HETATM    9  C   UNL     1     -12.211  13.761  67.088  1.00  0.00    -0.313 C  
HETATM   10  H   UNL     1     -12.451  11.884  67.559  1.00  0.00     0.000 HD 
HETATM   11  O   UNL     1     -12.075  12.348  66.820  1.00  0.00    -0.578 OA 
BRANCH   9  12
HETATM   12  C   UNL     1     -11.545  14.106  68.450  1.00  0.00    -0.318 C  
HETATM   13  H   UNL     1     -11.206  13.212  70.193  1.00  0.00     0.000 HD 
HETATM   14  O   UNL     1     -11.613  13.001  69.361  1.00  0.00    -0.281 OA 
BRANCH  12  15
HETATM   15  C   UNL     1     -12.159  15.362  69.102  1.00  0.00    -0.242 C  
HETATM   16  H   UNL     1     -11.612  17.225  69.376  1.00  0.00     0.000 HD 
HETATM   17  O   UNL     1     -11.234  16.452  68.975  1.00  0.00    -0.325 OA 
BRANCH  15  18
HETATM   18  C   UNL     1     -12.508  15.143  70.589  1.00  0.00    -0.388 C  
HETATM   19  O   UNL     1     -13.787  15.681  70.927  1.00  0.00    -0.822 OA 
HETATM   20  H   UNL     1     -14.002  15.547  71.842  1.00  0.00     0.000 HD 
ENDBRANCH  15  18
ENDBRANCH  12  15
ENDBRANCH   9  12
ENDBRANCH   3   9
TORSDOF 5
ENDMDL
MODEL       34
REMARK 921   NORMALIZED FREE ENERGY PREDICTED BY IDOCK:   -4.61 KCAL/MOL
REMARK 922        TOTAL FREE ENERGY PREDICTED BY IDOCK:   -6.65 KCAL/MOL
REMARK 923 INTER-LIGAND FREE ENERGY PREDICTED BY IDOCK:   -6.11 KCAL/MOL
REMARK 924 INTRA-LIGAND FREE ENERGY PREDICTED BY IDOCK:   -0.54 KCAL/MOL
REMARK 927      BINDING AFFINITY PREDICTED BY RF-SCORE:    0.00 PKD
ROOT
HETATM    1  C   UNL     1     -10.667  11.558  66.512  1.00  0.00    -0.273 C  
HETATM    2  O   UNL     1     -11.766  11.254  66.980  1.00  0.00    -0.503 OA 
HETATM    3  CA  UNL     1     -10.359  11.439  65.029  1.00  0.00    -0.287 C  
ENDROOT
BRANCH   3   4
HETATM    4  N   UNL     1      -8.916  11.237  64.812  1.00  0.00    -0.387 N  
HETATM    5  C   UNL     1      -6.814  10.047  64.644  1.00  0.00    -0.130 C  
HETATM    6  O   UNL     1      -8.923   8.962  64.990  1.00  0.00    -0.189 OA 
HETATM    7  H   UNL     1      -8.338  12.058  64.627  1.00  0.00     0.000 HD 
HETATM    8  C   UNL     1      -8.305  10.009  64.847  1.00  0.00    -0.157 C  
ENDBRANCH   3   4
BRANCH   3   9
HETATM    9  C   UNL     1     -10.951  12.615  64.218  1.00  0.00    -0.366 C  
HETATM   10  H   UNL     1     -12.467  12.833  63.011  1.00  0.00     0.000 HD 
HETATM   11  O   UNL     1     -12.104  12.110  63.509  1.00  0.00    -0.502 OA 
BRANCH   9  12
HETATM   12  C   UNL     1     -11.363  13.835  65.091  1.00  0.00    -0.311 C  
HETATM   13  H   UNL     1     -12.923  15.053  65.279  1.00  0.00     0.000 HD 
HETATM   14  O   UNL     1     -12.671  14.308  64.746  1.00  0.00    -0.646 OA 
BRANCH  12  15
HETATM   15  C   UNL     1     -10.346  14.992  64.999  1.00  0.00    -0.357 C  
HETATM   16  H   UNL     1      -8.741  15.546  65.980  1.00  0.00     0.000 HD 
HETATM   17  O   UNL     1      -9.367  14.834  66.036  1.00  0.00    -0.284 OA 
BRANCH  15  18
HETATM   18  C   UNL     1     -11.016  16.376  65.117  1.00  0.00    -0.232 C  
HETATM   19  O   UNL     1     -11.526  16.837  63.865  1.00  0.00    -1.484 OA 
HETATM   20  H   UNL     1     -11.939  17.689  63.938  1.00  0.00     0.000 HD 
ENDBRANCH  15  18
ENDBRANCH  12  15
ENDBRANCH   9  12
ENDBRANCH   3   9
TORSDOF 5
ENDMDL
MODEL       35
REMARK 921   NORMALIZED FREE ENERGY PREDICTED BY IDOCK:   -4.59 KCAL/MOL
REMARK 922        TOTAL FREE ENERGY PREDICTED BY IDOCK:   -6.62 KCAL/MOL
REMARK 923 INTER-LIGAND FREE ENERGY PREDICTED BY IDOCK:   -6.53 KCAL/MOL
REMARK 924 INTRA-LIGAND FREE ENERGY PREDICTED BY IDOCK:   -0.09 KCAL/MOL
REMARK 927      BINDING AFFINITY PREDICTED BY RF-SCORE:    0.00 PKD
ROOT
HETATM    1  C   UNL     1     -11.290  12.198  68.570  1.00  0.00    -0.275 C  
HETATM    2  O   UNL     1     -11.886  12.137  69.647  1.00  0.00    -0.305 OA 
HETATM    3  CA  UNL     1     -11.842  12.970  67.382  1.00  0.00    -0.357 C  
ENDROOT
BRANCH   3   4
HETATM    4  N   UNL     1     -11.342  12.403  66.118  1.00  0.00    -0.333 N  
HETATM    5  C   UNL     1     -11.382  11.690  63.804  1.00  0.00    -0.482 C  
HETATM    6  O   UNL     1     -13.195  12.848  64.862  1.00  0.00    -0.782 OA 
HETATM    7  H   UNL     1     -10.395  12.025  66.101  1.00  0.00     0.000 HD 
HETATM    8  C   UNL     1     -12.079  12.355  64.961  1.00  0.00    -0.407 C  
ENDBRANCH   3   4
BRANCH   3   9
HETATM    9  C   UNL     1     -11.604  14.491  67.520  1.00  0.00    -0.381 C  
HETATM   10  H   UNL     1     -11.857  15.804  68.940  1.00  0.00     0.000 HD 
HETATM   11  O   UNL     1     -12.002  14.868  68.856  1.00  0.00    -0.305 OA 
BRANCH   9  12
HETATM   12  C   UNL     1     -10.132  14.922  67.267  1.00  0.00    -0.235 C  
HETATM   13  H   UNL     1      -8.631  15.718  68.301  1.00  0.00     0.000 HD 
HETATM   14  O   UNL     1      -9.531  15.455  68.455  1.00  0.00    -0.193 OA 
BRANCH  12  15
HETATM   15  C   UNL     1     -10.007  15.940  66.115  1.00  0.00    -0.314 C  
HETATM   16  H   UNL     1     -10.206  17.881  65.913  1.00  0.00     0.000 HD 
HETATM   17  O   UNL     1     -10.283  17.254  66.622  1.00  0.00    -0.302 OA 
BRANCH  15  18
HETATM   18  C   UNL     1     -10.957  15.622  64.942  1.00  0.00    -0.431 C  
HETATM   19  O   UNL     1     -11.311  16.792  64.203  1.00  0.00    -1.425 OA 
HETATM   20  H   UNL     1     -11.896  16.597  63.481  1.00  0.00     0.000 HD 
ENDBRANCH  15  18
ENDBRANCH  12  15
ENDBRANCH   9  12
ENDBRANCH   3   9
TORSDOF 5
ENDMDL
MODEL       36
REMARK 921   NORMALIZED FREE ENERGY PREDICTED BY IDOCK:   -4.59 KCAL/MOL
REMARK 922        TOTAL FREE ENERGY PREDICTED BY IDOCK:   -6.62 KCAL/MOL
REMARK 923 INTER-LIGAND FREE ENERGY PREDICTED BY IDOCK:   -6.05 KCAL/MOL
REMARK 924 INTRA-LIGAND FREE ENERGY PREDICTED BY IDOCK:   -0.56 KCAL/MOL
REMARK 927      BINDING AFFINITY PREDICTED BY RF-SCORE:    0.00 PKD
ROOT
HETATM    1  C   UNL     1      -9.773  14.795  67.064  1.00  0.00    -0.237 C  
HETATM    2  O   UNL     1      -9.783  15.282  68.196  1.00  0.00    -0.209 OA 
HETATM    3  CA  UNL     1     -10.711  15.273  65.968  1.00  0.00    -0.320 C  
ENDROOT
BRANCH   3   4
HETATM    4  N   UNL     1     -10.962  14.198  64.993  1.00  0.00    -0.362 N  
HETATM    5  C   UNL     1     -12.210  12.528  63.760  1.00  0.00    -0.615 C  
HETATM    6  O   UNL     1     -13.217  14.052  65.313  1.00  0.00    -0.782 OA 
HETATM    7  H   UNL     1     -10.172  13.844  64.454  1.00  0.00     0.000 HD 
HETATM    8  C   UNL     1     -12.199  13.646  64.769  1.00  0.00    -0.403 C  
ENDBRANCH   3   4
BRANCH   3   9
HETATM    9  C   UNL     1     -10.228  16.595  65.327  1.00  0.00     0.014 C  
HETATM   10  H   UNL     1     -10.895  17.771  63.923  1.00  0.00     0.000 HD 
HETATM   11  O   UNL     1     -11.193  16.959  64.317  1.00  0.00    -1.204 OA 
BRANCH   9  12
HETATM   12  C   UNL     1     -10.061  17.760  66.343  1.00  0.00    -0.357 C  
HETATM   13  H   UNL     1     -10.799  19.585  66.626  1.00  0.00     0.000 HD 
HETATM   14  O   UNL     1     -10.900  18.873  66.005  1.00  0.00    -0.341 OA 
BRANCH  12  15
HETATM   15  C   UNL     1      -8.596  18.227  66.465  1.00  0.00    -0.266 C  
HETATM   16  H   UNL     1      -6.843  17.550  65.902  1.00  0.00     0.000 HD 
HETATM   17  O   UNL     1      -7.746  17.263  65.827  1.00  0.00    -0.470 OA 
BRANCH  15  18
HETATM   18  C   UNL     1      -8.159  18.420  67.931  1.00  0.00    -0.259 C  
HETATM   19  O   UNL     1      -9.162  17.991  68.853  1.00  0.00    -0.244 OA 
HETATM   20  H   UNL     1      -8.893  18.110  69.756  1.00  0.00     0.000 HD 
ENDBRANCH  15  18
ENDBRANCH  12  15
ENDBRANCH   9  12
ENDBRANCH   3   9
TORSDOF 5
ENDMDL
MODEL       37
REMARK 921   NORMALIZED FREE ENERGY PREDICTED BY IDOCK:   -4.58 KCAL/MOL
REMARK 922        TOTAL FREE ENERGY PREDICTED BY IDOCK:   -6.62 KCAL/MOL
REMARK 923 INTER-LIGAND FREE ENERGY PREDICTED BY IDOCK:   -6.05 KCAL/MOL
REMARK 924 INTRA-LIGAND FREE ENERGY PREDICTED BY IDOCK:   -0.57 KCAL/MOL
REMARK 927      BINDING AFFINITY PREDICTED BY RF-SCORE:    0.00 PKD
ROOT
HETATM    1  C   UNL     1     -10.893  16.612  64.965  1.00  0.00    -0.176 C  
HETATM    2  O   UNL     1     -11.563  16.577  63.931  1.00  0.00    -1.175 OA 
HETATM    3  CA  UNL     1     -10.962  15.513  66.012  1.00  0.00    -0.251 C  
ENDROOT
BRANCH   3   4
HETATM    4  N   UNL     1     -10.620  16.042  67.343  1.00  0.00    -0.313 N  
HETATM    5  C   UNL     1     -10.770  16.370  69.738  1.00  0.00    -0.324 C  
HETATM    6  O   UNL     1     -12.119  14.798  68.532  1.00  0.00    -0.272 OA 
HETATM    7  H   UNL     1      -9.866  16.727  67.409  1.00  0.00     0.000 HD 
HETATM    8  C   UNL     1     -11.256  15.665  68.500  1.00  0.00    -0.342 C  
ENDBRANCH   3   4
BRANCH   3   9
HETATM    9  C   UNL     1     -10.137  14.271  65.604  1.00  0.00    -0.341 C  
HETATM   10  H   UNL     1      -8.631  13.302  66.375  1.00  0.00     0.000 HD 
HETATM   11  O   UNL     1      -9.138  14.065  66.627  1.00  0.00    -0.250 OA 
BRANCH   9  12
HETATM   12  C   UNL     1     -10.987  12.981  65.430  1.00  0.00    -0.275 C  
HETATM   13  H   UNL     1     -10.724  11.117  64.791  1.00  0.00     0.000 HD 
HETATM   14  O   UNL     1     -10.204  11.905  64.897  1.00  0.00    -0.255 OA 
BRANCH  12  15
HETATM   15  C   UNL     1     -12.231  13.213  64.546  1.00  0.00    -0.406 C  
HETATM   16  H   UNL     1     -14.100  12.620  64.550  1.00  0.00     0.000 HD 
HETATM   17  O   UNL     1     -13.334  12.477  65.094  1.00  0.00    -0.448 OA 
BRANCH  15  18
HETATM   18  C   UNL     1     -11.998  12.793  63.080  1.00  0.00    -0.267 C  
HETATM   19  O   UNL     1     -12.397  11.444  62.836  1.00  0.00    -0.954 OA 
HETATM   20  H   UNL     1     -12.254  11.186  61.934  1.00  0.00     0.000 HD 
ENDBRANCH  15  18
ENDBRANCH  12  15
ENDBRANCH   9  12
ENDBRANCH   3   9
TORSDOF 5
ENDMDL
MODEL       38
REMARK 921   NORMALIZED FREE ENERGY PREDICTED BY IDOCK:   -4.58 KCAL/MOL
REMARK 922        TOTAL FREE ENERGY PREDICTED BY IDOCK:   -6.61 KCAL/MOL
REMARK 923 INTER-LIGAND FREE ENERGY PREDICTED BY IDOCK:   -6.03 KCAL/MOL
REMARK 924 INTRA-LIGAND FREE ENERGY PREDICTED BY IDOCK:   -0.58 KCAL/MOL
REMARK 927      BINDING AFFINITY PREDICTED BY RF-SCORE:    0.00 PKD
ROOT
HETATM    1  C   UNL     1     -12.058  12.863  64.008  1.00  0.00    -0.455 C  
HETATM    2  O   UNL     1     -12.669  13.736  63.388  1.00  0.00    -0.795 OA 
HETATM    3  CA  UNL     1     -10.602  13.028  64.412  1.00  0.00    -0.409 C  
ENDROOT
BRANCH   3   4
HETATM    4  N   UNL     1      -9.947  11.715  64.540  1.00  0.00    -0.250 N  
HETATM    5  C   UNL     1      -8.856   9.670  63.839  1.00  0.00    -0.255 C  
HETATM    6  O   UNL     1      -9.423  11.448  62.335  1.00  0.00    -0.194 OA 
HETATM    7  H   UNL     1      -9.867  11.307  65.472  1.00  0.00     0.000 HD 
HETATM    8  C   UNL     1      -9.439  11.010  63.478  1.00  0.00    -0.292 C  
ENDBRANCH   3   4
BRANCH   3   9
HETATM    9  C   UNL     1     -10.445  13.927  65.661  1.00  0.00    -0.312 C  
HETATM   10  H   UNL     1      -9.493  13.778  67.355  1.00  0.00     0.000 HD 
HETATM   11  O   UNL     1      -9.589  13.226  66.588  1.00  0.00    -0.250 OA 
BRANCH   9  12
HETATM   12  C   UNL     1      -9.851  15.330  65.353  1.00  0.00    -0.283 C  
HETATM   13  H   UNL     1      -8.345  16.464  65.984  1.00  0.00     0.000 HD 
HETATM   14  O   UNL     1      -8.708  15.606  66.172  1.00  0.00    -0.317 OA 
BRANCH  12  15
HETATM   15  C   UNL     1     -10.894  16.456  65.511  1.00  0.00    -0.215 C  
HETATM   16  H   UNL     1     -11.889  17.643  64.308  1.00  0.00     0.000 HD 
HETATM   17  O   UNL     1     -11.247  16.950  64.210  1.00  0.00    -1.204 OA 
BRANCH  15  18
HETATM   18  C   UNL     1     -10.381  17.616  66.389  1.00  0.00    -0.345 C  
HETATM   19  O   UNL     1      -9.419  18.422  65.708  1.00  0.00    -0.452 OA 
HETATM   20  H   UNL     1      -9.103  19.136  66.249  1.00  0.00     0.000 HD 
ENDBRANCH  15  18
ENDBRANCH  12  15
ENDBRANCH   9  12
ENDBRANCH   3   9
TORSDOF 5
ENDMDL
MODEL       39
REMARK 921   NORMALIZED FREE ENERGY PREDICTED BY IDOCK:   -4.57 KCAL/MOL
REMARK 922        TOTAL FREE ENERGY PREDICTED BY IDOCK:   -6.60 KCAL/MOL
REMARK 923 INTER-LIGAND FREE ENERGY PREDICTED BY IDOCK:   -5.92 KCAL/MOL
REMARK 924 INTRA-LIGAND FREE ENERGY PREDICTED BY IDOCK:   -0.67 KCAL/MOL
REMARK 927      BINDING AFFINITY PREDICTED BY RF-SCORE:    0.00 PKD
ROOT
HETATM    1  C   UNL     1      -9.048  13.638  67.903  1.00  0.00    -0.198 C  
HETATM    2  O   UNL     1      -8.158  14.476  67.747  1.00  0.00    -0.134 OA 
HETATM    3  CA  UNL     1     -10.398  13.994  68.504  1.00  0.00    -0.247 C  
ENDROOT
BRANCH   3   4
HETATM    4  N   UNL     1     -11.003  12.819  69.153  1.00  0.00    -0.409 N  
HETATM    5  C   UNL     1     -12.486  11.565  70.601  1.00  0.00    -0.405 C  
HETATM    6  O   UNL     1     -12.644  13.936  70.279  1.00  0.00    -0.328 OA 
HETATM    7  H   UNL     1     -10.613  11.899  68.944  1.00  0.00     0.000 HD 
HETATM    8  C   UNL     1     -12.062  12.890  70.023  1.00  0.00    -0.286 C  
ENDBRANCH   3   4
BRANCH   3   9
HETATM    9  C   UNL     1     -11.325  14.685  67.478  1.00  0.00    -0.348 C  
HETATM   10  H   UNL     1     -11.717  16.535  67.000  1.00  0.00     0.000 HD 
HETATM   11  O   UNL     1     -11.146  16.110  67.631  1.00  0.00    -0.301 OA 
BRANCH   9  12
HETATM   12  C   UNL     1     -11.047  14.274  66.004  1.00  0.00    -0.319 C  
HETATM   13  H   UNL     1     -10.842  15.166  64.239  1.00  0.00     0.000 HD 
HETATM   14  O   UNL     1     -11.012  15.417  65.140  1.00  0.00    -0.374 OA 
BRANCH  12  15
HETATM   15  C   UNL     1     -12.072  13.249  65.477  1.00  0.00    -0.435 C  
HETATM   16  H   UNL     1     -12.658  11.447  65.981  1.00  0.00     0.000 HD 
HETATM   17  O   UNL     1     -12.027  12.078  66.305  1.00  0.00    -0.596 OA 
BRANCH  15  18
HETATM   18  C   UNL     1     -11.816  12.861  64.007  1.00  0.00    -0.443 C  
HETATM   19  O   UNL     1     -12.318  13.839  63.096  1.00  0.00    -1.099 OA 
HETATM   20  H   UNL     1     -12.160  13.600  62.190  1.00  0.00     0.000 HD 
ENDBRANCH  15  18
ENDBRANCH  12  15
ENDBRANCH   9  12
ENDBRANCH   3   9
TORSDOF 5
ENDMDL
MODEL       40
REMARK 921   NORMALIZED FREE ENERGY PREDICTED BY IDOCK:   -4.56 KCAL/MOL
REMARK 922        TOTAL FREE ENERGY PREDICTED BY IDOCK:   -6.59 KCAL/MOL
REMARK 923 INTER-LIGAND FREE ENERGY PREDICTED BY IDOCK:   -6.20 KCAL/MOL
REMARK 924 INTRA-LIGAND FREE ENERGY PREDICTED BY IDOCK:   -0.38 KCAL/MOL
REMARK 927      BINDING AFFINITY PREDICTED BY RF-SCORE:    0.00 PKD
ROOT
HETATM    1  C   UNL     1     -11.135  14.478  69.093  1.00  0.00    -0.263 C  
HETATM    2  O   UNL     1     -11.805  15.493  68.892  1.00  0.00    -0.361 OA 
HETATM    3  CA  UNL     1     -11.549  13.116  68.561  1.00  0.00    -0.326 C  
ENDROOT
BRANCH   3   4
HETATM    4  N   UNL     1     -11.007  12.041  69.409  1.00  0.00    -0.438 N  
HETATM    5  C   UNL     1     -11.018  10.138  70.907  1.00  0.00    -0.241 C  
HETATM    6  O   UNL     1     -13.002  11.062  69.929  1.00  0.00    -0.058 OA 
HETATM    7  H   UNL     1      -9.995  11.980  69.520  1.00  0.00     0.000 HD 
HETATM    8  C   UNL     1     -11.786  11.116  70.058  1.00  0.00    -0.361 C  
ENDBRANCH   3   4
BRANCH   3   9
HETATM    9  C   UNL     1     -11.215  12.954  67.060  1.00  0.00    -0.288 C  
HETATM   10  H   UNL     1     -11.579  11.600  65.705  1.00  0.00     0.000 HD 
HETATM   11  O   UNL     1     -11.785  11.700  66.628  1.00  0.00    -0.523 OA 
BRANCH   9  12
HETATM   12  C   UNL     1     -11.750  14.111  66.170  1.00  0.00    -0.393 C  
HETATM   13  H   UNL     1     -13.250  14.423  64.902  1.00  0.00     0.000 HD 
HETATM   14  O   UNL     1     -12.923  13.716  65.446  1.00  0.00    -0.683 OA 
BRANCH  12  15
HETATM   15  C   UNL     1     -10.683  14.639  65.189  1.00  0.00    -0.414 C  
HETATM   16  H   UNL     1      -8.771  15.067  65.276  1.00  0.00     0.000 HD 
HETATM   17  O   UNL     1      -9.428  14.742  65.879  1.00  0.00    -0.298 OA 
BRANCH  15  18
HETATM   18  C   UNL     1     -11.061  16.007  64.586  1.00  0.00    -0.332 C  
HETATM   19  O   UNL     1     -12.105  15.899  63.618  1.00  0.00    -1.223 OA 
HETATM   20  H   UNL     1     -12.339  16.741  63.247  1.00  0.00     0.000 HD 
ENDBRANCH  15  18
ENDBRANCH  12  15
ENDBRANCH   9  12
ENDBRANCH   3   9
TORSDOF 5
ENDMDL
MODEL       41
REMARK 921   NORMALIZED FREE ENERGY PREDICTED BY IDOCK:   -4.56 KCAL/MOL
REMARK 922        TOTAL FREE ENERGY PREDICTED BY IDOCK:   -6.58 KCAL/MOL
REMARK 923 INTER-LIGAND FREE ENERGY PREDICTED BY IDOCK:   -5.93 KCAL/MOL
REMARK 924 INTRA-LIGAND FREE ENERGY PREDICTED BY IDOCK:   -0.66 KCAL/MOL
REMARK 927      BINDING AFFINITY PREDICTED BY RF-SCORE:    0.00 PKD
ROOT
HETATM    1  C   UNL     1     -11.684  11.725  68.373  1.00  0.00    -0.325 C  
HETATM    2  O   UNL     1     -12.187  11.822  69.494  1.00  0.00    -0.258 OA 
HETATM    3  CA  UNL     1     -11.745  12.856  67.359  1.00  0.00    -0.372 C  
ENDROOT
BRANCH   3   4
HETATM    4  N   UNL     1     -11.675  12.326  65.987  1.00  0.00    -0.408 N  
HETATM    5  C   UNL     1     -12.214  12.096  63.637  1.00  0.00    -0.663 C  
HETATM    6  O   UNL     1     -13.141  13.800  65.045  1.00  0.00    -0.751 OA 
HETATM    7  H   UNL     1     -11.043  11.547  65.803  1.00  0.00     0.000 HD 
HETATM    8  C   UNL     1     -12.413  12.822  64.940  1.00  0.00    -0.497 C  
ENDBRANCH   3   4
BRANCH   3   9
HETATM    9  C   UNL     1     -10.700  13.956  67.656  1.00  0.00    -0.249 C  
HETATM   10  H   UNL     1      -8.984  14.471  66.887  1.00  0.00     0.000 HD 
HETATM   11  O   UNL     1      -9.626  13.795  66.704  1.00  0.00    -0.271 OA 
BRANCH   9  12
HETATM   12  C   UNL     1     -11.269  15.401  67.569  1.00  0.00    -0.302 C  
HETATM   13  H   UNL     1     -10.942  17.053  66.511  1.00  0.00     0.000 HD 
HETATM   14  O   UNL     1     -10.594  16.170  66.564  1.00  0.00    -0.308 OA 
BRANCH  12  15
HETATM   15  C   UNL     1     -11.207  16.138  68.923  1.00  0.00    -0.351 C  
HETATM   16  H   UNL     1      -9.823  17.035  69.984  1.00  0.00     0.000 HD 
HETATM   17  O   UNL     1      -9.861  16.580  69.151  1.00  0.00    -0.257 OA 
BRANCH  15  18
HETATM   18  C   UNL     1     -11.674  15.255  70.097  1.00  0.00    -0.312 C  
HETATM   19  O   UNL     1     -13.048  14.885  69.981  1.00  0.00    -0.604 OA 
HETATM   20  H   UNL     1     -13.336  14.341  70.704  1.00  0.00     0.000 HD 
ENDBRANCH  15  18
ENDBRANCH  12  15
ENDBRANCH   9  12
ENDBRANCH   3   9
TORSDOF 5
ENDMDL
MODEL       42
REMARK 921   NORMALIZED FREE ENERGY PREDICTED BY IDOCK:   -4.55 KCAL/MOL
REMARK 922        TOTAL FREE ENERGY PREDICTED BY IDOCK:   -6.57 KCAL/MOL
REMARK 923 INTER-LIGAND FREE ENERGY PREDICTED BY IDOCK:   -5.86 KCAL/MOL
REMARK 924 INTRA-LIGAND FREE ENERGY PREDICTED BY IDOCK:   -0.71 KCAL/MOL
REMARK 927      BINDING AFFINITY PREDICTED BY RF-SCORE:    0.00 PKD
ROOT
HETATM    1  C   UNL     1     -11.068  16.037  65.155  1.00  0.00    -0.283 C  
HETATM    2  O   UNL     1     -10.305  17.004  65.094  1.00  0.00    -0.632 OA 
HETATM    3  CA  UNL     1     -10.567  14.605  65.066  1.00  0.00    -0.439 C  
ENDROOT
BRANCH   3   4
HETATM    4  N   UNL     1     -11.617  13.720  64.536  1.00  0.00    -0.377 N  
HETATM    5  C   UNL     1     -12.591  11.856  63.334  1.00  0.00    -0.555 C  
HETATM    6  O   UNL     1     -10.229  12.163  63.610  1.00  0.00    -0.400 OA 
HETATM    7  H   UNL     1     -12.591  13.967  64.716  1.00  0.00     0.000 HD 
HETATM    8  C   UNL     1     -11.362  12.581  63.814  1.00  0.00    -0.466 C  
ENDBRANCH   3   4
BRANCH   3   9
HETATM    9  C   UNL     1      -9.959  14.120  66.403  1.00  0.00    -0.293 C  
HETATM   10  H   UNL     1      -8.382  14.586  67.450  1.00  0.00     0.000 HD 
HETATM   11  O   UNL     1      -8.755  14.885  66.629  1.00  0.00    -0.261 OA 
BRANCH   9  12
HETATM   12  C   UNL     1     -10.916  14.272  67.619  1.00  0.00    -0.277 C  
HETATM   13  H   UNL     1     -10.938  15.217  69.369  1.00  0.00     0.000 HD 
HETATM   14  O   UNL     1     -10.353  15.124  68.625  1.00  0.00    -0.221 OA 
BRANCH  12  15
HETATM   15  C   UNL     1     -11.300  12.912  68.238  1.00  0.00    -0.291 C  
HETATM   16  H   UNL     1     -12.377  11.365  67.697  1.00  0.00     0.000 HD 
HETATM   17  O   UNL     1     -12.141  12.203  67.316  1.00  0.00    -0.565 OA 
BRANCH  15  18
HETATM   18  C   UNL     1     -12.020  13.063  69.593  1.00  0.00    -0.302 C  
HETATM   19  O   UNL     1     -12.761  14.281  69.677  1.00  0.00    -0.502 OA 
HETATM   20  H   UNL     1     -13.204  14.374  70.512  1.00  0.00     0.000 HD 
ENDBRANCH  15  18
ENDBRANCH  12  15
ENDBRANCH   9  12
ENDBRANCH   3   9
TORSDOF 5
ENDMDL
MODEL       43
REMARK 921   NORMALIZED FREE ENERGY PREDICTED BY IDOCK:   -4.53 KCAL/MOL
REMARK 922        TOTAL FREE ENERGY PREDICTED BY IDOCK:   -6.54 KCAL/MOL
REMARK 923 INTER-LIGAND FREE ENERGY PREDICTED BY IDOCK:   -6.45 KCAL/MOL
REMARK 924 INTRA-LIGAND FREE ENERGY PREDICTED BY IDOCK:   -0.09 KCAL/MOL
REMARK 927      BINDING AFFINITY PREDICTED BY RF-SCORE:    0.00 PKD
ROOT
HETATM    1  C   UNL     1     -10.425  14.892  65.993  1.00  0.00    -0.316 C  
HETATM    2  O   UNL     1     -10.049  15.791  65.238  1.00  0.00    -0.388 OA 
HETATM    3  CA  UNL     1     -11.867  14.778  66.460  1.00  0.00    -0.228 C  
ENDROOT
BRANCH   3   4
HETATM    4  N   UNL     1     -11.938  14.094  67.762  1.00  0.00    -0.476 N  
HETATM    5  C   UNL     1     -11.833  13.821  70.167  1.00  0.00    -0.360 C  
HETATM    6  O   UNL     1     -11.602  15.938  69.065  1.00  0.00    -0.370 OA 
HETATM    7  H   UNL     1     -12.129  13.092  67.769  1.00  0.00     0.000 HD 
HETATM    8  C   UNL     1     -11.762  14.728  68.967  1.00  0.00    -0.312 C  
ENDBRANCH   3   4
BRANCH   3   9
HETATM    9  C   UNL     1     -12.778  14.154  65.378  1.00  0.00    -0.431 C  
HETATM   10  H   UNL     1     -13.213  14.583  63.527  1.00  0.00     0.000 HD 
HETATM   11  O   UNL     1     -12.653  14.967  64.191  1.00  0.00    -0.785 OA 
BRANCH   9  12
HETATM   12  C   UNL     1     -12.433  12.675  65.044  1.00  0.00    -0.487 C  
HETATM   13  H   UNL     1     -11.084  11.318  65.584  1.00  0.00     0.000 HD 
HETATM   14  O   UNL     1     -11.295  12.222  65.788  1.00  0.00    -0.326 OA 
BRANCH  12  15
HETATM   15  C   UNL     1     -12.195  12.455  63.535  1.00  0.00    -0.563 C  
HETATM   16  H   UNL     1     -13.091  11.481  62.089  1.00  0.00     0.000 HD 
HETATM   17  O   UNL     1     -13.238  11.616  63.017  1.00  0.00    -0.411 OA 
BRANCH  15  18
HETATM   18  C   UNL     1     -10.820  11.821  63.242  1.00  0.00    -0.326 C  
HETATM   19  O   UNL     1      -9.741  12.682  63.608  1.00  0.00    -0.672 OA 
HETATM   20  H   UNL     1      -8.894  12.291  63.428  1.00  0.00     0.000 HD 
ENDBRANCH  15  18
ENDBRANCH  12  15
ENDBRANCH   9  12
ENDBRANCH   3   9
TORSDOF 5
ENDMDL
MODEL       44
REMARK 921   NORMALIZED FREE ENERGY PREDICTED BY IDOCK:   -4.52 KCAL/MOL
REMARK 922        TOTAL FREE ENERGY PREDICTED BY IDOCK:   -6.54 KCAL/MOL
REMARK 923 INTER-LIGAND FREE ENERGY PREDICTED BY IDOCK:   -5.76 KCAL/MOL
REMARK 924 INTRA-LIGAND FREE ENERGY PREDICTED BY IDOCK:   -0.77 KCAL/MOL
REMARK 927      BINDING AFFINITY PREDICTED BY RF-SCORE:    0.00 PKD
ROOT
HETATM    1  C   UNL     1     -11.647  11.345  67.864  1.00  0.00    -0.266 C  
HETATM    2  O   UNL     1     -12.398  11.096  68.809  1.00  0.00    -0.539 OA 
HETATM    3  CA  UNL     1     -11.684  12.675  67.131  1.00  0.00    -0.371 C  
ENDROOT
BRANCH   3   4
HETATM    4  N   UNL     1     -11.211  12.517  65.745  1.00  0.00    -0.307 N  
HETATM    5  C   UNL     1     -11.345  12.240  63.343  1.00  0.00    -0.508 C  
HETATM    6  O   UNL     1     -13.260  12.586  64.742  1.00  0.00    -0.839 OA 
HETATM    7  H   UNL     1     -10.206  12.455  65.584  1.00  0.00     0.000 HD 
HETATM    8  C   UNL     1     -12.047  12.449  64.658  1.00  0.00    -0.415 C  
ENDBRANCH   3   4
BRANCH   3   9
HETATM    9  C   UNL     1     -10.952  13.790  67.915  1.00  0.00    -0.253 C  
HETATM   10  H   UNL     1      -9.310  13.889  68.961  1.00  0.00     0.000 HD 
HETATM   11  O   UNL     1      -9.759  13.204  68.479  1.00  0.00    -0.211 OA 
BRANCH   9  12
HETATM   12  C   UNL     1     -10.575  15.023  67.047  1.00  0.00    -0.293 C  
HETATM   13  H   UNL     1      -9.125  15.557  65.795  1.00  0.00     0.000 HD 
HETATM   14  O   UNL     1      -9.356  14.803  66.326  1.00  0.00    -0.286 OA 
BRANCH  12  15
HETATM   15  C   UNL     1     -10.464  16.316  67.882  1.00  0.00    -0.295 C  
HETATM   16  H   UNL     1     -11.498  17.170  69.312  1.00  0.00     0.000 HD 
HETATM   17  O   UNL     1     -11.566  16.374  68.798  1.00  0.00    -0.308 OA 
BRANCH  15  18
HETATM   18  C   UNL     1     -10.445  17.584  67.004  1.00  0.00    -0.293 C  
HETATM   19  O   UNL     1     -10.257  17.281  65.622  1.00  0.00    -0.579 OA 
HETATM   20  H   UNL     1     -10.246  18.062  65.082  1.00  0.00     0.000 HD 
ENDBRANCH  15  18
ENDBRANCH  12  15
ENDBRANCH   9  12
ENDBRANCH   3   9
TORSDOF 5
ENDMDL
MODEL       45
REMARK 921   NORMALIZED FREE ENERGY PREDICTED BY IDOCK:   -4.52 KCAL/MOL
REMARK 922        TOTAL FREE ENERGY PREDICTED BY IDOCK:   -6.53 KCAL/MOL
REMARK 923 INTER-LIGAND FREE ENERGY PREDICTED BY IDOCK:   -5.52 KCAL/MOL
REMARK 924 INTRA-LIGAND FREE ENERGY PREDICTED BY IDOCK:   -1.02 KCAL/MOL
REMARK 927      BINDING AFFINITY PREDICTED BY RF-SCORE:    0.00 PKD
ROOT
HETATM    1  C   UNL     1     -11.725  12.137  69.277  1.00  0.00    -0.328 C  
HETATM    2  O   UNL     1     -12.459  11.169  69.072  1.00  0.00    -0.439 OA 
HETATM    3  CA  UNL     1     -11.048  12.893  68.145  1.00  0.00    -0.253 C  
ENDROOT
BRANCH   3   4
HETATM    4  N   UNL     1      -9.806  13.530  68.615  1.00  0.00    -0.379 N  
HETATM    5  C   UNL     1      -7.427  13.913  68.852  1.00  0.00    -0.080 C  
HETATM    6  O   UNL     1      -8.363  12.296  67.350  1.00  0.00    -0.159 OA 
HETATM    7  H   UNL     1      -9.883  14.296  69.286  1.00  0.00     0.000 HD 
HETATM    8  C   UNL     1      -8.553  13.152  68.203  1.00  0.00    -0.181 C  
ENDBRANCH   3   4
BRANCH   3   9
HETATM    9  C   UNL     1     -12.018  13.868  67.438  1.00  0.00    -0.401 C  
HETATM   10  H   UNL     1     -11.976  15.761  66.974  1.00  0.00     0.000 HD 
HETATM   11  O   UNL     1     -11.379  15.162  67.408  1.00  0.00    -0.328 OA 
BRANCH   9  12
HETATM   12  C   UNL     1     -12.400  13.435  65.994  1.00  0.00    -0.413 C  
HETATM   13  H   UNL     1     -12.437  11.764  64.917  1.00  0.00     0.000 HD 
HETATM   14  O   UNL     1     -12.203  12.029  65.799  1.00  0.00    -0.520 OA 
BRANCH  12  15
HETATM   15  C   UNL     1     -11.626  14.227  64.920  1.00  0.00    -0.384 C  
HETATM   16  H   UNL     1     -12.091  15.366  63.392  1.00  0.00     0.000 HD 
HETATM   17  O   UNL     1     -12.568  14.878  64.053  1.00  0.00    -0.832 OA 
BRANCH  15  18
HETATM   18  C   UNL     1     -10.685  13.330  64.090  1.00  0.00    -0.326 C  
HETATM   19  O   UNL     1      -9.573  12.863  64.854  1.00  0.00    -0.496 OA 
HETATM   20  H   UNL     1      -8.994  12.311  64.343  1.00  0.00     0.000 HD 
ENDBRANCH  15  18
ENDBRANCH  12  15
ENDBRANCH   9  12
ENDBRANCH   3   9
TORSDOF 5
ENDMDL
MODEL       46
REMARK 921   NORMALIZED FREE ENERGY PREDICTED BY IDOCK:   -4.48 KCAL/MOL
REMARK 922        TOTAL FREE ENERGY PREDICTED BY IDOCK:   -6.48 KCAL/MOL
REMARK 923 INTER-LIGAND FREE ENERGY PREDICTED BY IDOCK:   -5.98 KCAL/MOL
REMARK 924 INTRA-LIGAND FREE ENERGY PREDICTED BY IDOCK:   -0.50 KCAL/MOL
REMARK 927      BINDING AFFINITY PREDICTED BY RF-SCORE:    0.00 PKD
ROOT
HETATM    1  C   UNL     1      -9.602  15.219  68.496  1.00  0.00    -0.211 C  
HETATM    2  O   UNL     1      -9.798  14.019  68.293  1.00  0.00    -0.221 OA 
HETATM    3  CA  UNL     1      -9.251  16.182  67.373  1.00  0.00    -0.208 C  
ENDROOT
BRANCH   3   4
HETATM    4  N   UNL     1      -8.476  17.322  67.891  1.00  0.00    -0.214 N  
HETATM    5  C   UNL     1      -6.674  18.934  68.037  1.00  0.00    -0.244 C  
HETATM    6  O   UNL     1      -6.877  17.335  66.262  1.00  0.00    -0.244 OA 
HETATM    7  H   UNL     1      -8.815  17.793  68.730  1.00  0.00     0.000 HD 
HETATM    8  C   UNL     1      -7.323  17.787  67.309  1.00  0.00    -0.187 C  
ENDBRANCH   3   4
BRANCH   3   9
HETATM    9  C   UNL     1     -10.496  16.596  66.554  1.00  0.00    -0.262 C  
HETATM   10  H   UNL     1     -11.228  18.287  65.920  1.00  0.00     0.000 HD 
HETATM   11  O   UNL     1     -10.463  18.033  66.423  1.00  0.00    -0.375 OA 
BRANCH   9  12
HETATM   12  C   UNL     1     -10.568  15.939  65.147  1.00  0.00    -0.397 C  
HETATM   13  H   UNL     1     -11.395  16.325  63.381  1.00  0.00     0.000 HD 
HETATM   14  O   UNL     1     -11.351  16.726  64.241  1.00  0.00    -1.170 OA 
BRANCH  12  15
HETATM   15  C   UNL     1     -11.116  14.498  65.199  1.00  0.00    -0.370 C  
HETATM   16  H   UNL     1     -10.526  12.736  64.574  1.00  0.00     0.000 HD 
HETATM   17  O   UNL     1     -10.188  13.623  64.541  1.00  0.00    -0.402 OA 
BRANCH  15  18
HETATM   18  C   UNL     1     -12.507  14.373  64.544  1.00  0.00    -0.339 C  
HETATM   19  O   UNL     1     -12.421  14.091  63.147  1.00  0.00    -1.137 OA 
HETATM   20  H   UNL     1     -13.277  14.013  62.743  1.00  0.00     0.000 HD 
ENDBRANCH  15  18
ENDBRANCH  12  15
ENDBRANCH   9  12
ENDBRANCH   3   9
TORSDOF 5
ENDMDL
MODEL       47
REMARK 921   NORMALIZED FREE ENERGY PREDICTED BY IDOCK:   -4.45 KCAL/MOL
REMARK 922        TOTAL FREE ENERGY PREDICTED BY IDOCK:   -6.45 KCAL/MOL
REMARK 923 INTER-LIGAND FREE ENERGY PREDICTED BY IDOCK:   -5.79 KCAL/MOL
REMARK 924 INTRA-LIGAND FREE ENERGY PREDICTED BY IDOCK:   -0.66 KCAL/MOL
REMARK 927      BINDING AFFINITY PREDICTED BY RF-SCORE:    0.00 PKD
ROOT
HETATM    1  C   UNL     1      -9.052  12.357  66.920  1.00  0.00    -0.211 C  
HETATM    2  O   UNL     1      -9.052  12.561  68.135  1.00  0.00    -0.196 OA 
HETATM    3  CA  UNL     1      -9.968  11.332  66.272  1.00  0.00    -0.221 C  
ENDROOT
BRANCH   3   4
HETATM    4  N   UNL     1      -9.379  10.827  65.020  1.00  0.00    -0.211 N  
HETATM    5  C   UNL     1      -8.372   9.245  63.488  1.00  0.00    -0.185 C  
HETATM    6  O   UNL     1      -9.170   8.649  65.668  1.00  0.00    -0.200 OA 
HETATM    7  H   UNL     1      -9.253  11.484  64.249  1.00  0.00     0.000 HD 
HETATM    8  C   UNL     1      -8.991   9.524  64.831  1.00  0.00    -0.219 C  
ENDBRANCH   3   4
BRANCH   3   9
HETATM    9  C   UNL     1     -11.411  11.865  66.111  1.00  0.00    -0.324 C  
HETATM   10  H   UNL     1     -12.937  12.095  67.302  1.00  0.00     0.000 HD 
HETATM   11  O   UNL     1     -12.050  11.768  67.402  1.00  0.00    -0.595 OA 
BRANCH   9  12
HETATM   12  C   UNL     1     -11.484  13.330  65.595  1.00  0.00    -0.318 C  
HETATM   13  H   UNL     1     -12.531  14.977  65.978  1.00  0.00     0.000 HD 
HETATM   14  O   UNL     1     -12.486  14.081  66.293  1.00  0.00    -0.465 OA 
BRANCH  12  15
HETATM   15  C   UNL     1     -11.737  13.406  64.075  1.00  0.00    -0.416 C  
HETATM   16  H   UNL     1     -12.715  14.595  62.860  1.00  0.00     0.000 HD 
HETATM   17  O   UNL     1     -12.560  14.548  63.796  1.00  0.00    -0.825 OA 
BRANCH  15  18
HETATM   18  C   UNL     1     -12.409  12.131  63.525  1.00  0.00    -0.574 C  
HETATM   19  O   UNL     1     -11.477  11.273  62.865  1.00  0.00    -0.829 OA 
HETATM   20  H   UNL     1     -11.890  10.488  62.527  1.00  0.00     0.000 HD 
ENDBRANCH  15  18
ENDBRANCH  12  15
ENDBRANCH   9  12
ENDBRANCH   3   9
TORSDOF 5
ENDMDL
MODEL       48
REMARK 921   NORMALIZED FREE ENERGY PREDICTED BY IDOCK:   -4.44 KCAL/MOL
REMARK 922        TOTAL FREE ENERGY PREDICTED BY IDOCK:   -6.43 KCAL/MOL
REMARK 923 INTER-LIGAND FREE ENERGY PREDICTED BY IDOCK:   -5.66 KCAL/MOL
REMARK 924 INTRA-LIGAND FREE ENERGY PREDICTED BY IDOCK:   -0.77 KCAL/MOL
REMARK 927      BINDING AFFINITY PREDICTED BY RF-SCORE:    0.00 PKD
ROOT
HETATM    1  C   UNL     1     -11.335  11.445  67.310  1.00  0.00    -0.275 C  
HETATM    2  O   UNL     1     -12.241  11.110  68.076  1.00  0.00    -0.584 OA 
HETATM    3  CA  UNL     1     -11.591  12.298  66.079  1.00  0.00    -0.393 C  
ENDROOT
BRANCH   3   4
HETATM    4  N   UNL     1     -10.573  12.039  65.047  1.00  0.00    -0.278 N  
HETATM    5  C   UNL     1      -9.670  11.420  62.886  1.00  0.00    -0.344 C  
HETATM    6  O   UNL     1     -12.017  11.617  63.331  1.00  0.00    -0.424 OA 
HETATM    7  H   UNL     1      -9.590  12.130  65.306  1.00  0.00     0.000 HD 
HETATM    8  C   UNL     1     -10.871  11.681  63.756  1.00  0.00    -0.424 C  
ENDBRANCH   3   4
BRANCH   3   9
HETATM    9  C   UNL     1     -11.749  13.795  66.434  1.00  0.00    -0.379 C  
HETATM   10  H   UNL     1     -11.636  14.843  68.075  1.00  0.00     0.000 HD 
HETATM   11  O   UNL     1     -11.538  13.923  67.857  1.00  0.00    -0.302 OA 
BRANCH   9  12
HETATM   12  C   UNL     1     -10.769  14.729  65.669  1.00  0.00    -0.336 C  
HETATM   13  H   UNL     1      -8.857  15.264  65.776  1.00  0.00     0.000 HD 
HETATM   14  O   UNL     1      -9.456  14.693  66.243  1.00  0.00    -0.286 OA 
BRANCH  12  15
HETATM   15  C   UNL     1     -11.274  16.185  65.606  1.00  0.00     0.107 C  
HETATM   16  H   UNL     1     -11.602  17.510  64.198  1.00  0.00     0.000 HD 
HETATM   17  O   UNL     1     -11.291  16.613  64.236  1.00  0.00    -1.116 OA 
BRANCH  15  18
HETATM   18  C   UNL     1     -10.407  17.147  66.444  1.00  0.00    -0.307 C  
HETATM   19  O   UNL     1     -10.465  16.848  67.839  1.00  0.00    -0.317 OA 
HETATM   20  H   UNL     1      -9.931  17.440  68.355  1.00  0.00     0.000 HD 
ENDBRANCH  15  18
ENDBRANCH  12  15
ENDBRANCH   9  12
ENDBRANCH   3   9
TORSDOF 5
ENDMDL
MODEL       49
REMARK 921   NORMALIZED FREE ENERGY PREDICTED BY IDOCK:   -4.44 KCAL/MOL
REMARK 922        TOTAL FREE ENERGY PREDICTED BY IDOCK:   -6.43 KCAL/MOL
REMARK 923 INTER-LIGAND FREE ENERGY PREDICTED BY IDOCK:   -5.77 KCAL/MOL
REMARK 924 INTRA-LIGAND FREE ENERGY PREDICTED BY IDOCK:   -0.66 KCAL/MOL
REMARK 927      BINDING AFFINITY PREDICTED BY RF-SCORE:    0.00 PKD
ROOT
HETATM    1  C   UNL     1      -7.370  15.400  67.226  1.00  0.00    -0.204 C  
HETATM    2  O   UNL     1      -6.925  15.514  68.370  1.00  0.00    -0.109 OA 
HETATM    3  CA  UNL     1      -8.791  15.803  66.867  1.00  0.00    -0.245 C  
ENDROOT
BRANCH   3   4
HETATM    4  N   UNL     1      -9.274  15.027  65.712  1.00  0.00    -0.468 N  
HETATM    5  C   UNL     1     -10.625  13.442  64.476  1.00  0.00    -0.441 C  
HETATM    6  O   UNL     1     -11.026  14.015  66.769  1.00  0.00    -0.292 OA 
HETATM    7  H   UNL     1      -8.790  15.140  64.821  1.00  0.00     0.000 HD 
HETATM    8  C   UNL     1     -10.339  14.162  65.767  1.00  0.00    -0.325 C  
ENDBRANCH   3   4
BRANCH   3   9
HETATM    9  C   UNL     1      -8.933  17.333  66.694  1.00  0.00    -0.256 C  
HETATM   10  H   UNL     1      -8.157  18.662  65.498  1.00  0.00     0.000 HD 
HETATM   11  O   UNL     1      -8.069  17.722  65.604  1.00  0.00    -0.518 OA 
BRANCH   9  12
HETATM   12  C   UNL     1     -10.388  17.799  66.406  1.00  0.00    -0.351 C  
HETATM   13  H   UNL     1     -11.632  17.877  64.856  1.00  0.00     0.000 HD 
HETATM   14  O   UNL     1     -10.742  17.592  65.032  1.00  0.00    -0.673 OA 
BRANCH  12  15
HETATM   15  C   UNL     1     -10.618  19.276  66.789  1.00  0.00    -0.448 C  
HETATM   16  H   UNL     1     -10.542  21.005  65.868  1.00  0.00     0.000 HD 
HETATM   17  O   UNL     1     -10.401  20.096  65.632  1.00  0.00    -0.421 OA 
BRANCH  15  18
HETATM   18  C   UNL     1      -9.697  19.737  67.937  1.00  0.00    -0.389 C  
HETATM   19  O   UNL     1     -10.382  19.789  69.189  1.00  0.00    -0.628 OA 
HETATM   20  H   UNL     1      -9.815  20.073  69.896  1.00  0.00     0.000 HD 
ENDBRANCH  15  18
ENDBRANCH  12  15
ENDBRANCH   9  12
ENDBRANCH   3   9
TORSDOF 5
ENDMDL
MODEL       50
REMARK 921   NORMALIZED FREE ENERGY PREDICTED BY IDOCK:   -4.44 KCAL/MOL
REMARK 922        TOTAL FREE ENERGY PREDICTED BY IDOCK:   -6.42 KCAL/MOL
REMARK 923 INTER-LIGAND FREE ENERGY PREDICTED BY IDOCK:   -5.78 KCAL/MOL
REMARK 924 INTRA-LIGAND FREE ENERGY PREDICTED BY IDOCK:   -0.64 KCAL/MOL
REMARK 927      BINDING AFFINITY PREDICTED BY RF-SCORE:    0.00 PKD
ROOT
HETATM    1  C   UNL     1     -12.345  14.045  66.787  1.00  0.00    -0.332 C  
HETATM    2  O   UNL     1     -12.045  13.127  66.021  1.00  0.00    -0.410 OA 
HETATM    3  CA  UNL     1     -11.413  14.512  67.894  1.00  0.00    -0.325 C  
ENDROOT
BRANCH   3   4
HETATM    4  N   UNL     1     -12.181  15.108  69.000  1.00  0.00    -0.585 N  
HETATM    5  C   UNL     1     -13.272  15.252  71.158  1.00  0.00    -0.567 C  
HETATM    6  O   UNL     1     -11.965  13.367  70.460  1.00  0.00    -0.326 OA 
HETATM    7  H   UNL     1     -12.550  16.051  68.876  1.00  0.00     0.000 HD 
HETATM    8  C   UNL     1     -12.427  14.468  70.189  1.00  0.00    -0.321 C  
ENDBRANCH   3   4
BRANCH   3   9
HETATM    9  C   UNL     1     -10.285  15.422  67.356  1.00  0.00    -0.249 C  
HETATM   10  H   UNL     1      -8.572  15.121  66.476  1.00  0.00     0.000 HD 
HETATM   11  O   UNL     1      -9.265  14.561  66.806  1.00  0.00    -0.243 OA 
BRANCH   9  12
HETATM   12  C   UNL     1     -10.758  16.436  66.277  1.00  0.00    -0.161 C  
HETATM   13  H   UNL     1     -10.533  16.720  64.322  1.00  0.00     0.000 HD 
HETATM   14  O   UNL     1     -10.244  16.100  64.982  1.00  0.00    -0.535 OA 
BRANCH  12  15
HETATM   15  C   UNL     1     -10.379  17.889  66.630  1.00  0.00    -0.361 C  
HETATM   16  H   UNL     1     -10.551  19.645  65.773  1.00  0.00     0.000 HD 
HETATM   17  O   UNL     1     -10.784  18.750  65.556  1.00  0.00    -0.569 OA 
BRANCH  15  18
HETATM   18  C   UNL     1      -8.868  18.057  66.893  1.00  0.00    -0.258 C  
HETATM   19  O   UNL     1      -8.084  17.766  65.736  1.00  0.00    -0.541 OA 
HETATM   20  H   UNL     1      -7.154  17.869  65.898  1.00  0.00     0.000 HD 
ENDBRANCH  15  18
ENDBRANCH  12  15
ENDBRANCH   9  12
ENDBRANCH   3   9
TORSDOF 5
ENDMDL
MODEL       51
REMARK 921   NORMALIZED FREE ENERGY PREDICTED BY IDOCK:   -4.39 KCAL/MOL
REMARK 922        TOTAL FREE ENERGY PREDICTED BY IDOCK:   -6.37 KCAL/MOL
REMARK 923 INTER-LIGAND FREE ENERGY PREDICTED BY IDOCK:   -5.73 KCAL/MOL
REMARK 924 INTRA-LIGAND FREE ENERGY PREDICTED BY IDOCK:   -0.64 KCAL/MOL
REMARK 927      BINDING AFFINITY PREDICTED BY RF-SCORE:    0.00 PKD
ROOT
HETATM    1  C   UNL     1     -12.069  13.609  65.545  1.00  0.00    -0.411 C  
HETATM    2  O   UNL     1     -13.174  14.146  65.437  1.00  0.00    -0.741 OA 
HETATM    3  CA  UNL     1     -10.875  14.044  64.712  1.00  0.00    -0.419 C  
ENDROOT
BRANCH   3   4
HETATM    4  N   UNL     1      -9.928  12.929  64.541  1.00  0.00    -0.591 N  
HETATM    5  C   UNL     1      -9.113  10.761  63.833  1.00  0.00    -0.207 C  
HETATM    6  O   UNL     1     -11.264  11.628  63.225  1.00  0.00    -0.347 OA 
HETATM    7  H   UNL     1      -9.007  13.010  64.971  1.00  0.00     0.000 HD 
HETATM    8  C   UNL     1     -10.215  11.786  63.836  1.00  0.00    -0.373 C  
ENDBRANCH   3   4
BRANCH   3   9
HETATM    9  C   UNL     1     -10.224  15.335  65.261  1.00  0.00    -0.364 C  
HETATM   10  H   UNL     1     -10.504  17.244  64.986  1.00  0.00     0.000 HD 
HETATM   11  O   UNL     1     -10.904  16.452  64.648  1.00  0.00    -0.717 OA 
BRANCH   9  12
HETATM   12  C   UNL     1     -10.291  15.461  66.809  1.00  0.00    -0.279 C  
HETATM   13  H   UNL     1     -10.804  16.832  68.155  1.00  0.00     0.000 HD 
HETATM   14  O   UNL     1     -10.763  16.754  67.209  1.00  0.00    -0.298 OA 
BRANCH  12  15
HETATM   15  C   UNL     1      -8.933  15.168  67.481  1.00  0.00    -0.180 C  
HETATM   16  H   UNL     1      -7.044  15.455  67.038  1.00  0.00     0.000 HD 
HETATM   17  O   UNL     1      -7.880  15.635  66.625  1.00  0.00    -0.221 OA 
BRANCH  15  18
HETATM   18  C   UNL     1      -8.736  13.669  67.782  1.00  0.00    -0.184 C  
HETATM   19  O   UNL     1      -7.920  13.025  66.803  1.00  0.00    -0.400 OA 
HETATM   20  H   UNL     1      -7.798  12.102  66.988  1.00  0.00     0.000 HD 
ENDBRANCH  15  18
ENDBRANCH  12  15
ENDBRANCH   9  12
ENDBRANCH   3   9
TORSDOF 5
ENDMDL
MODEL       52
REMARK 921   NORMALIZED FREE ENERGY PREDICTED BY IDOCK:   -4.38 KCAL/MOL
REMARK 922        TOTAL FREE ENERGY PREDICTED BY IDOCK:   -6.36 KCAL/MOL
REMARK 923 INTER-LIGAND FREE ENERGY PREDICTED BY IDOCK:   -5.64 KCAL/MOL
REMARK 924 INTRA-LIGAND FREE ENERGY PREDICTED BY IDOCK:   -0.72 KCAL/MOL
REMARK 927      BINDING AFFINITY PREDICTED BY RF-SCORE:    0.00 PKD
ROOT
HETATM    1  C   UNL     1     -10.414   9.951  69.663  1.00  0.00    -0.249 C  
HETATM    2  O   UNL     1     -10.359   8.812  69.194  1.00  0.00    -0.210 OA 
HETATM    3  CA  UNL     1     -11.726  10.583  70.098  1.00  0.00    -0.326 C  
ENDROOT
BRANCH   3   4
HETATM    4  N   UNL     1     -11.649  12.051  70.008  1.00  0.00    -0.510 N  
HETATM    5  C   UNL     1     -11.599  14.240  68.972  1.00  0.00    -0.342 C  
HETATM    6  O   UNL     1     -11.991  12.211  67.757  1.00  0.00    -0.506 OA 
HETATM    7  H   UNL     1     -11.511  12.579  70.870  1.00  0.00     0.000 HD 
HETATM    8  C   UNL     1     -11.753  12.749  68.830  1.00  0.00    -0.326 C  
ENDBRANCH   3   4
BRANCH   3   9
HETATM    9  C   UNL     1     -12.187  10.067  71.481  1.00  0.00    -0.405 C  
HETATM   10  H   UNL     1     -13.390  10.725  72.867  1.00  0.00     0.000 HD 
HETATM   11  O   UNL     1     -13.108  11.042  72.017  1.00  0.00    -0.496 OA 
BRANCH   9  12
HETATM   12  C   UNL     1     -12.867   8.670  71.434  1.00  0.00    -0.264 C  
HETATM   13  H   UNL     1     -14.617   7.865  71.929  1.00  0.00     0.000 HD 
HETATM   14  O   UNL     1     -14.201   8.719  71.957  1.00  0.00    -0.428 OA 
BRANCH  12  15
HETATM   15  C   UNL     1     -12.051   7.594  72.182  1.00  0.00    -0.286 C  
HETATM   16  H   UNL     1     -10.363   7.538  73.178  1.00  0.00     0.000 HD 
HETATM   17  O   UNL     1     -10.865   8.200  72.718  1.00  0.00    -0.353 OA 
BRANCH  15  18
HETATM   18  C   UNL     1     -11.668   6.408  71.274  1.00  0.00    -0.300 C  
HETATM   19  O   UNL     1     -12.040   6.630  69.913  1.00  0.00    -0.641 OA 
HETATM   20  H   UNL     1     -11.804   5.899  69.353  1.00  0.00     0.000 HD 
ENDBRANCH  15  18
ENDBRANCH  12  15
ENDBRANCH   9  12
ENDBRANCH   3   9
TORSDOF 5
ENDMDL
MODEL       53
REMARK 921   NORMALIZED FREE ENERGY PREDICTED BY IDOCK:   -4.38 KCAL/MOL
REMARK 922        TOTAL FREE ENERGY PREDICTED BY IDOCK:   -6.36 KCAL/MOL
REMARK 923 INTER-LIGAND FREE ENERGY PREDICTED BY IDOCK:   -5.88 KCAL/MOL
REMARK 924 INTRA-LIGAND FREE ENERGY PREDICTED BY IDOCK:   -0.47 KCAL/MOL
REMARK 927      BINDING AFFINITY PREDICTED BY RF-SCORE:    0.00 PKD
ROOT
HETATM    1  C   UNL     1      -8.555  13.725  67.357  1.00  0.00    -0.203 C  
HETATM    2  O   UNL     1      -7.967  12.716  66.965  1.00  0.00    -0.147 OA 
HETATM    3  CA  UNL     1      -9.867  14.186  66.745  1.00  0.00    -0.272 C  
ENDROOT
BRANCH   3   4
HETATM    4  N   UNL     1     -10.029  15.641  66.899  1.00  0.00    -0.243 N  
HETATM    5  C   UNL     1     -10.386  17.945  66.242  1.00  0.00    -0.364 C  
HETATM    6  O   UNL     1     -10.524  16.099  64.719  1.00  0.00    -0.592 OA 
HETATM    7  H   UNL     1      -9.926  16.041  67.832  1.00  0.00     0.000 HD 
HETATM    8  C   UNL     1     -10.311  16.491  65.858  1.00  0.00    -0.350 C  
ENDBRANCH   3   4
BRANCH   3   9
HETATM    9  C   UNL     1     -11.070  13.367  67.269  1.00  0.00    -0.282 C  
HETATM   10  H   UNL     1     -12.776  13.804  68.105  1.00  0.00     0.000 HD 
HETATM   11  O   UNL     1     -12.037  14.308  67.783  1.00  0.00    -0.363 OA 
BRANCH   9  12
HETATM   12  C   UNL     1     -11.733  12.466  66.189  1.00  0.00    -0.400 C  
HETATM   13  H   UNL     1     -11.314  10.788  65.208  1.00  0.00     0.000 HD 
HETATM   14  O   UNL     1     -10.908  11.339  65.868  1.00  0.00    -0.264 OA 
BRANCH  12  15
HETATM   15  C   UNL     1     -12.077  13.247  64.903  1.00  0.00    -0.397 C  
HETATM   16  H   UNL     1     -13.467  14.513  64.346  1.00  0.00     0.000 HD 
HETATM   17  O   UNL     1     -13.256  14.032  65.137  1.00  0.00    -0.768 OA 
BRANCH  15  18
HETATM   18  C   UNL     1     -12.298  12.320  63.691  1.00  0.00    -0.562 C  
HETATM   19  O   UNL     1     -11.092  12.089  62.962  1.00  0.00    -0.677 OA 
HETATM   20  H   UNL     1     -11.228  11.518  62.216  1.00  0.00     0.000 HD 
ENDBRANCH  15  18
ENDBRANCH  12  15
ENDBRANCH   9  12
ENDBRANCH   3   9
TORSDOF 5
ENDMDL
MODEL       54
REMARK 921   NORMALIZED FREE ENERGY PREDICTED BY IDOCK:   -4.38 KCAL/MOL
REMARK 922        TOTAL FREE ENERGY PREDICTED BY IDOCK:   -6.35 KCAL/MOL
REMARK 923 INTER-LIGAND FREE ENERGY PREDICTED BY IDOCK:   -5.62 KCAL/MOL
REMARK 924 INTRA-LIGAND FREE ENERGY PREDICTED BY IDOCK:   -0.73 KCAL/MOL
REMARK 927      BINDING AFFINITY PREDICTED BY RF-SCORE:    0.00 PKD
ROOT
HETATM    1  C   UNL     1     -12.483  13.884  65.438  1.00  0.00    -0.501 C  
HETATM    2  O   UNL     1     -13.251  13.093  64.886  1.00  0.00    -0.705 OA 
HETATM    3  CA  UNL     1     -11.574  13.464  66.581  1.00  0.00    -0.362 C  
ENDROOT
BRANCH   3   4
HETATM    4  N   UNL     1     -11.265  14.614  67.447  1.00  0.00    -0.329 N  
HETATM    5  C   UNL     1     -11.288  16.005  69.430  1.00  0.00    -0.355 C  
HETATM    6  O   UNL     1     -12.291  13.830  69.329  1.00  0.00    -0.312 OA 
HETATM    7  H   UNL     1     -10.708  15.374  67.056  1.00  0.00     0.000 HD 
HETATM    8  C   UNL     1     -11.683  14.720  68.750  1.00  0.00    -0.323 C  
ENDBRANCH   3   4
BRANCH   3   9
HETATM    9  C   UNL     1     -10.322  12.708  66.078  1.00  0.00    -0.270 C  
HETATM   10  H   UNL     1      -8.495  12.485  66.722  1.00  0.00     0.000 HD 
HETATM   11  O   UNL     1      -9.265  12.949  67.032  1.00  0.00    -0.212 OA 
BRANCH   9  12
HETATM   12  C   UNL     1     -10.539  11.178  65.907  1.00  0.00    -0.234 C  
HETATM   13  H   UNL     1     -10.097   9.507  66.891  1.00  0.00     0.000 HD 
HETATM   14  O   UNL     1      -9.964  10.443  66.995  1.00  0.00    -0.190 OA 
BRANCH  12  15
HETATM   15  C   UNL     1      -9.983  10.653  64.567  1.00  0.00    -0.345 C  
HETATM   16  H   UNL     1      -8.210  10.259  63.828  1.00  0.00     0.000 HD 
HETATM   17  O   UNL     1      -8.552  10.583  64.652  1.00  0.00    -0.177 OA 
BRANCH  15  18
HETATM   18  C   UNL     1     -10.394  11.536  63.372  1.00  0.00    -0.418 C  
HETATM   19  O   UNL     1     -11.770  11.372  63.028  1.00  0.00    -0.887 OA 
HETATM   20  H   UNL     1     -12.023  11.916  62.291  1.00  0.00     0.000 HD 
ENDBRANCH  15  18
ENDBRANCH  12  15
ENDBRANCH   9  12
ENDBRANCH   3   9
TORSDOF 5
ENDMDL
MODEL       55
REMARK 921   NORMALIZED FREE ENERGY PREDICTED BY IDOCK:   -4.35 KCAL/MOL
REMARK 922        TOTAL FREE ENERGY PREDICTED BY IDOCK:   -6.31 KCAL/MOL
REMARK 923 INTER-LIGAND FREE ENERGY PREDICTED BY IDOCK:   -6.03 KCAL/MOL
REMARK 924 INTRA-LIGAND FREE ENERGY PREDICTED BY IDOCK:   -0.28 KCAL/MOL
REMARK 927      BINDING AFFINITY PREDICTED BY RF-SCORE:    0.00 PKD
ROOT
HETATM    1  C   UNL     1     -11.379  15.740  64.824  1.00  0.00    -0.314 C  
HETATM    2  O   UNL     1     -11.377  16.688  64.037  1.00  0.00    -1.120 OA 
HETATM    3  CA  UNL     1     -10.095  15.084  65.304  1.00  0.00    -0.343 C  
ENDROOT
BRANCH   3   4
HETATM    4  N   UNL     1     -10.336  13.680  65.675  1.00  0.00    -0.292 N  
HETATM    5  C   UNL     1     -10.723  11.308  65.369  1.00  0.00    -0.291 C  
HETATM    6  O   UNL     1     -10.237  12.813  63.567  1.00  0.00    -0.367 OA 
HETATM    7  H   UNL     1     -10.444  13.455  66.665  1.00  0.00     0.000 HD 
HETATM    8  C   UNL     1     -10.425  12.655  64.766  1.00  0.00    -0.320 C  
ENDBRANCH   3   4
BRANCH   3   9
HETATM    9  C   UNL     1      -9.402  15.910  66.413  1.00  0.00    -0.297 C  
HETATM   10  H   UNL     1      -7.628  15.918  67.222  1.00  0.00     0.000 HD 
HETATM   11  O   UNL     1      -8.053  15.410  66.540  1.00  0.00    -0.189 OA 
BRANCH   9  12
HETATM   12  C   UNL     1      -9.372  17.439  66.130  1.00  0.00    -0.149 C  
HETATM   13  H   UNL     1      -8.040  18.812  65.587  1.00  0.00     0.000 HD 
HETATM   14  O   UNL     1      -8.058  17.878  65.760  1.00  0.00    -0.537 OA 
BRANCH  12  15
HETATM   15  C   UNL     1      -9.884  18.268  67.326  1.00  0.00    -0.321 C  
HETATM   16  H   UNL     1     -11.207  18.023  68.754  1.00  0.00     0.000 HD 
HETATM   17  O   UNL     1     -10.892  17.514  68.017  1.00  0.00    -0.378 OA 
BRANCH  15  18
HETATM   18  C   UNL     1     -10.456  19.634  66.896  1.00  0.00    -0.488 C  
HETATM   19  O   UNL     1      -9.525  20.387  66.118  1.00  0.00    -0.627 OA 
HETATM   20  H   UNL     1      -9.877  21.228  65.853  1.00  0.00     0.000 HD 
ENDBRANCH  15  18
ENDBRANCH  12  15
ENDBRANCH   9  12
ENDBRANCH   3   9
TORSDOF 5
ENDMDL
MODEL       56
REMARK 921   NORMALIZED FREE ENERGY PREDICTED BY IDOCK:   -4.34 KCAL/MOL
REMARK 922        TOTAL FREE ENERGY PREDICTED BY IDOCK:   -6.30 KCAL/MOL
REMARK 923 INTER-LIGAND FREE ENERGY PREDICTED BY IDOCK:   -6.45 KCAL/MOL
REMARK 924 INTRA-LIGAND FREE ENERGY PREDICTED BY IDOCK:    0.14 KCAL/MOL
REMARK 927      BINDING AFFINITY PREDICTED BY RF-SCORE:    0.00 PKD
ROOT
HETATM    1  C   UNL     1     -11.457  15.606  64.119  1.00  0.00    -0.073 C  
HETATM    2  O   UNL     1     -11.435  16.839  64.137  1.00  0.00    -1.171 OA 
HETATM    3  CA  UNL     1     -10.754  14.769  65.174  1.00  0.00    -0.415 C  
ENDROOT
BRANCH   3   4
HETATM    4  N   UNL     1     -10.383  13.452  64.629  1.00  0.00    -0.520 N  
HETATM    5  C   UNL     1     -10.633  11.369  63.419  1.00  0.00    -0.435 C  
HETATM    6  O   UNL     1     -12.287  13.104  63.419  1.00  0.00    -0.705 OA 
HETATM    7  H   UNL     1      -9.466  13.073  64.868  1.00  0.00     0.000 HD 
HETATM    8  C   UNL     1     -11.201  12.704  63.819  1.00  0.00    -0.463 C  
ENDBRANCH   3   4
BRANCH   3   9
HETATM    9  C   UNL     1     -11.565  14.693  66.489  1.00  0.00    -0.344 C  
HETATM   10  H   UNL     1     -12.329  13.251  67.556  1.00  0.00     0.000 HD 
HETATM   11  O   UNL     1     -11.830  13.297  66.748  1.00  0.00    -0.362 OA 
BRANCH   9  12
HETATM   12  C   UNL     1     -10.841  15.328  67.709  1.00  0.00    -0.295 C  
HETATM   13  H   UNL     1     -11.331  16.333  69.354  1.00  0.00     0.000 HD 
HETATM   14  O   UNL     1     -11.773  15.944  68.608  1.00  0.00    -0.387 OA 
BRANCH  12  15
HETATM   15  C   UNL     1      -9.765  16.350  67.288  1.00  0.00    -0.239 C  
HETATM   16  H   UNL     1      -8.005  16.906  67.949  1.00  0.00     0.000 HD 
HETATM   17  O   UNL     1      -8.667  16.277  68.209  1.00  0.00    -0.181 OA 
BRANCH  15  18
HETATM   18  C   UNL     1     -10.310  17.792  67.236  1.00  0.00    -0.363 C  
HETATM   19  O   UNL     1     -10.050  18.422  65.981  1.00  0.00    -0.491 OA 
HETATM   20  H   UNL     1     -10.386  19.310  65.949  1.00  0.00     0.000 HD 
ENDBRANCH  15  18
ENDBRANCH  12  15
ENDBRANCH   9  12
ENDBRANCH   3   9
TORSDOF 5
ENDMDL
MODEL       57
REMARK 921   NORMALIZED FREE ENERGY PREDICTED BY IDOCK:   -4.34 KCAL/MOL
REMARK 922        TOTAL FREE ENERGY PREDICTED BY IDOCK:   -6.30 KCAL/MOL
REMARK 923 INTER-LIGAND FREE ENERGY PREDICTED BY IDOCK:   -5.74 KCAL/MOL
REMARK 924 INTRA-LIGAND FREE ENERGY PREDICTED BY IDOCK:   -0.56 KCAL/MOL
REMARK 927      BINDING AFFINITY PREDICTED BY RF-SCORE:    0.00 PKD
ROOT
HETATM    1  C   UNL     1     -11.767  11.529  69.766  1.00  0.00    -0.353 C  
HETATM    2  O   UNL     1     -10.843  10.724  69.896  1.00  0.00    -0.261 OA 
HETATM    3  CA  UNL     1     -11.537  12.956  69.297  1.00  0.00    -0.310 C  
ENDROOT
BRANCH   3   4
HETATM    4  N   UNL     1     -12.591  13.847  69.811  1.00  0.00    -0.335 N  
HETATM    5  C   UNL     1     -13.632  15.515  71.224  1.00  0.00    -0.520 C  
HETATM    6  O   UNL     1     -11.313  14.924  71.365  1.00  0.00    -0.304 OA 
HETATM    7  H   UNL     1     -13.514  13.797  69.380  1.00  0.00     0.000 HD 
HETATM    8  C   UNL     1     -12.401  14.740  70.835  1.00  0.00    -0.319 C  
ENDBRANCH   3   4
BRANCH   3   9
HETATM    9  C   UNL     1     -11.343  13.038  67.765  1.00  0.00    -0.292 C  
HETATM   10  H   UNL     1     -12.002  12.025  66.236  1.00  0.00     0.000 HD 
HETATM   11  O   UNL     1     -12.121  11.974  67.177  1.00  0.00    -0.587 OA 
BRANCH   9  12
HETATM   12  C   UNL     1     -11.767  14.403  67.152  1.00  0.00    -0.400 C  
HETATM   13  H   UNL     1     -12.707  15.060  65.528  1.00  0.00     0.000 HD 
HETATM   14  O   UNL     1     -12.448  14.227  65.903  1.00  0.00    -0.437 OA 
BRANCH  12  15
HETATM   15  C   UNL     1     -10.571  15.360  66.966  1.00  0.00    -0.309 C  
HETATM   16  H   UNL     1     -10.099  17.167  67.564  1.00  0.00     0.000 HD 
HETATM   17  O   UNL     1     -10.835  16.578  67.678  1.00  0.00    -0.326 OA 
BRANCH  15  18
HETATM   18  C   UNL     1     -10.290  15.672  65.482  1.00  0.00    -0.396 C  
HETATM   19  O   UNL     1     -10.917  16.883  65.059  1.00  0.00    -0.593 OA 
HETATM   20  H   UNL     1     -10.744  17.075  64.145  1.00  0.00     0.000 HD 
ENDBRANCH  15  18
ENDBRANCH  12  15
ENDBRANCH   9  12
ENDBRANCH   3   9
TORSDOF 5
ENDMDL
MODEL       58
REMARK 921   NORMALIZED FREE ENERGY PREDICTED BY IDOCK:   -4.34 KCAL/MOL
REMARK 922        TOTAL FREE ENERGY PREDICTED BY IDOCK:   -6.30 KCAL/MOL
REMARK 923 INTER-LIGAND FREE ENERGY PREDICTED BY IDOCK:   -5.07 KCAL/MOL
REMARK 924 INTRA-LIGAND FREE ENERGY PREDICTED BY IDOCK:   -1.22 KCAL/MOL
REMARK 927      BINDING AFFINITY PREDICTED BY RF-SCORE:    0.00 PKD
ROOT
HETATM    1  C   UNL     1     -13.010  11.049  71.112  1.00  0.00    -0.324 C  
HETATM    2  O   UNL     1     -13.039  11.949  71.953  1.00  0.00    -0.458 OA 
HETATM    3  CA  UNL     1     -12.024   9.895  71.196  1.00  0.00    -0.384 C  
ENDROOT
BRANCH   3   4
HETATM    4  N   UNL     1     -11.746   9.351  69.856  1.00  0.00    -0.445 N  
HETATM    5  C   UNL     1     -10.625   9.089  67.725  1.00  0.00    -0.278 C  
HETATM    6  O   UNL     1      -9.835  10.536  69.465  1.00  0.00    -0.213 OA 
HETATM    7  H   UNL     1     -12.377   8.641  69.485  1.00  0.00     0.000 HD 
HETATM    8  C   UNL     1     -10.686   9.746  69.078  1.00  0.00    -0.217 C  
ENDBRANCH   3   4
BRANCH   3   9
HETATM    9  C   UNL     1     -12.468   8.827  72.222  1.00  0.00    -0.386 C  
HETATM   10  H   UNL     1     -13.767   7.373  72.223  1.00  0.00     0.000 HD 
HETATM   11  O   UNL     1     -13.494   8.029  71.592  1.00  0.00    -0.339 OA 
BRANCH   9  12
HETATM   12  C   UNL     1     -11.313   7.908  72.711  1.00  0.00    -0.393 C  
HETATM   13  H   UNL     1      -9.333   7.818  72.551  1.00  0.00     0.000 HD 
HETATM   14  O   UNL     1     -10.039   8.379  72.252  1.00  0.00    -0.263 OA 
BRANCH  12  15
HETATM   15  C   UNL     1     -11.512   6.438  72.288  1.00  0.00    -0.298 C  
HETATM   16  H   UNL     1     -11.159   4.678  73.078  1.00  0.00     0.000 HD 
HETATM   17  O   UNL     1     -11.036   5.583  73.339  1.00  0.00    -0.282 OA 
BRANCH  15  18
HETATM   18  C   UNL     1     -10.787   6.100  70.970  1.00  0.00    -0.279 C  
HETATM   19  O   UNL     1     -11.606   6.347  69.826  1.00  0.00    -0.516 OA 
HETATM   20  H   UNL     1     -11.160   6.139  69.014  1.00  0.00     0.000 HD 
ENDBRANCH  15  18
ENDBRANCH  12  15
ENDBRANCH   9  12
ENDBRANCH   3   9
TORSDOF 5
ENDMDL
MODEL       59
REMARK 921   NORMALIZED FREE ENERGY PREDICTED BY IDOCK:   -4.31 KCAL/MOL
REMARK 922        TOTAL FREE ENERGY PREDICTED BY IDOCK:   -6.27 KCAL/MOL
REMARK 923 INTER-LIGAND FREE ENERGY PREDICTED BY IDOCK:   -5.67 KCAL/MOL
REMARK 924 INTRA-LIGAND FREE ENERGY PREDICTED BY IDOCK:   -0.60 KCAL/MOL
REMARK 927      BINDING AFFINITY PREDICTED BY RF-SCORE:    0.00 PKD
ROOT
HETATM    1  C   UNL     1     -11.575  15.683  64.008  1.00  0.00     0.089 C  
HETATM    2  O   UNL     1     -11.253  16.799  64.419  1.00  0.00    -1.112 OA 
HETATM    3  CA  UNL     1     -11.336  14.421  64.820  1.00  0.00    -0.388 C  
ENDROOT
BRANCH   3   4
HETATM    4  N   UNL     1     -11.198  13.252  63.936  1.00  0.00    -0.560 N  
HETATM    5  C   UNL     1     -10.292  11.175  63.081  1.00  0.00    -0.309 C  
HETATM    6  O   UNL     1      -9.555  12.199  65.119  1.00  0.00    -0.166 OA 
HETATM    7  H   UNL     1     -11.815  13.186  63.126  1.00  0.00     0.000 HD 
HETATM    8  C   UNL     1     -10.286  12.246  64.139  1.00  0.00    -0.369 C  
ENDBRANCH   3   4
BRANCH   3   9
HETATM    9  C   UNL     1     -12.395  14.239  65.932  1.00  0.00    -0.403 C  
HETATM   10  H   UNL     1     -14.149  13.393  66.040  1.00  0.00     0.000 HD 
HETATM   11  O   UNL     1     -13.498  13.504  65.357  1.00  0.00    -0.467 OA 
BRANCH   9  12
HETATM   12  C   UNL     1     -11.864  13.493  67.189  1.00  0.00    -0.387 C  
HETATM   13  H   UNL     1     -12.085  11.716  68.052  1.00  0.00     0.000 HD 
HETATM   14  O   UNL     1     -12.410  12.172  67.284  1.00  0.00    -0.354 OA 
BRANCH  12  15
HETATM   15  C   UNL     1     -12.141  14.270  68.493  1.00  0.00    -0.260 C  
HETATM   16  H   UNL     1     -12.053  16.142  69.071  1.00  0.00     0.000 HD 
HETATM   17  O   UNL     1     -11.882  15.664  68.268  1.00  0.00    -0.318 OA 
BRANCH  15  18
HETATM   18  C   UNL     1     -11.288  13.764  69.674  1.00  0.00    -0.178 C  
HETATM   19  O   UNL     1     -11.596  12.413  70.021  1.00  0.00    -0.485 OA 
HETATM   20  H   UNL     1     -11.070  12.101  70.748  1.00  0.00     0.000 HD 
ENDBRANCH  15  18
ENDBRANCH  12  15
ENDBRANCH   9  12
ENDBRANCH   3   9
TORSDOF 5
ENDMDL
MODEL       60
REMARK 921   NORMALIZED FREE ENERGY PREDICTED BY IDOCK:   -4.28 KCAL/MOL
REMARK 922        TOTAL FREE ENERGY PREDICTED BY IDOCK:   -6.22 KCAL/MOL
REMARK 923 INTER-LIGAND FREE ENERGY PREDICTED BY IDOCK:   -6.25 KCAL/MOL
REMARK 924 INTRA-LIGAND FREE ENERGY PREDICTED BY IDOCK:    0.03 KCAL/MOL
REMARK 927      BINDING AFFINITY PREDICTED BY RF-SCORE:    0.00 PKD
ROOT
HETATM    1  C   UNL     1     -11.451  15.585  64.593  1.00  0.00    -0.324 C  
HETATM    2  O   UNL     1     -11.581  16.592  63.895  1.00  0.00    -1.204 OA 
HETATM    3  CA  UNL     1     -10.093  15.117  65.091  1.00  0.00    -0.296 C  
ENDROOT
BRANCH   3   4
HETATM    4  N   UNL     1     -10.099  13.662  65.321  1.00  0.00    -0.490 N  
HETATM    5  C   UNL     1     -10.771  11.540  66.275  1.00  0.00    -0.321 C  
HETATM    6  O   UNL     1     -11.893  13.609  66.731  1.00  0.00    -0.367 OA 
HETATM    7  H   UNL     1      -9.406  13.095  64.832  1.00  0.00     0.000 HD 
HETATM    8  C   UNL     1     -10.982  13.026  66.158  1.00  0.00    -0.280 C  
ENDBRANCH   3   4
BRANCH   3   9
HETATM    9  C   UNL     1      -9.608  15.938  66.308  1.00  0.00    -0.316 C  
HETATM   10  H   UNL     1      -7.914  16.742  66.842  1.00  0.00     0.000 HD 
HETATM   11  O   UNL     1      -8.212  16.238  66.094  1.00  0.00    -0.315 OA 
BRANCH   9  12
HETATM   12  C   UNL     1     -10.402  17.256  66.533  1.00  0.00    -0.308 C  
HETATM   13  H   UNL     1     -10.214  19.184  66.084  1.00  0.00     0.000 HD 
HETATM   14  O   UNL     1      -9.729  18.378  65.947  1.00  0.00    -0.509 OA 
BRANCH  12  15
HETATM   15  C   UNL     1     -10.675  17.530  68.026  1.00  0.00    -0.341 C  
HETATM   16  H   UNL     1      -9.766  18.481  69.480  1.00  0.00     0.000 HD 
HETATM   17  O   UNL     1      -9.597  18.312  68.561  1.00  0.00    -0.314 OA 
BRANCH  15  18
HETATM   18  C   UNL     1     -10.834  16.232  68.844  1.00  0.00    -0.317 C  
HETATM   19  O   UNL     1     -12.116  15.631  68.658  1.00  0.00    -0.547 OA 
HETATM   20  H   UNL     1     -12.214  14.832  69.161  1.00  0.00     0.000 HD 
ENDBRANCH  15  18
ENDBRANCH  12  15
ENDBRANCH   9  12
ENDBRANCH   3   9
TORSDOF 5
ENDMDL
MODEL       61
REMARK 921   NORMALIZED FREE ENERGY PREDICTED BY IDOCK:   -4.27 KCAL/MOL
REMARK 922        TOTAL FREE ENERGY PREDICTED BY IDOCK:   -6.21 KCAL/MOL
REMARK 923 INTER-LIGAND FREE ENERGY PREDICTED BY IDOCK:   -5.32 KCAL/MOL
REMARK 924 INTRA-LIGAND FREE ENERGY PREDICTED BY IDOCK:   -0.90 KCAL/MOL
REMARK 927      BINDING AFFINITY PREDICTED BY RF-SCORE:    0.00 PKD
ROOT
HETATM    1  C   UNL     1      -8.571  13.040  68.231  1.00  0.00    -0.167 C  
HETATM    2  O   UNL     1      -7.845  14.032  68.326  1.00  0.00    -0.122 OA 
HETATM    3  CA  UNL     1     -10.037  13.145  67.842  1.00  0.00    -0.232 C  
ENDROOT
BRANCH   3   4
HETATM    4  N   UNL     1     -10.802  12.015  68.393  1.00  0.00    -0.222 N  
HETATM    5  C   UNL     1     -12.251  10.810  69.915  1.00  0.00    -0.384 C  
HETATM    6  O   UNL     1     -11.800  13.157  70.098  1.00  0.00    -0.313 OA 
HETATM    7  H   UNL     1     -10.736  11.113  67.920  1.00  0.00     0.000 HD 
HETATM    8  C   UNL     1     -11.600  12.105  69.507  1.00  0.00    -0.315 C  
ENDBRANCH   3   4
BRANCH   3   9
HETATM    9  C   UNL     1     -10.219  13.338  66.319  1.00  0.00    -0.296 C  
HETATM   10  H   UNL     1      -9.644  12.368  64.728  1.00  0.00     0.000 HD 
HETATM   11  O   UNL     1      -9.532  12.249  65.664  1.00  0.00    -0.186 OA 
BRANCH   9  12
HETATM   12  C   UNL     1     -11.706  13.372  65.864  1.00  0.00    -0.356 C  
HETATM   13  H   UNL     1     -13.277  12.154  65.869  1.00  0.00     0.000 HD 
HETATM   14  O   UNL     1     -12.369  12.133  66.147  1.00  0.00    -0.536 OA 
BRANCH  12  15
HETATM   15  C   UNL     1     -11.854  13.717  64.368  1.00  0.00    -0.424 C  
HETATM   16  H   UNL     1     -12.834  15.048  63.313  1.00  0.00     0.000 HD 
HETATM   17  O   UNL     1     -12.743  14.836  64.234  1.00  0.00    -0.691 OA 
BRANCH  15  18
HETATM   18  C   UNL     1     -12.382  12.528  63.539  1.00  0.00    -0.525 C  
HETATM   19  O   UNL     1     -11.568  11.364  63.686  1.00  0.00    -0.549 OA 
HETATM   20  H   UNL     1     -11.893  10.632  63.176  1.00  0.00     0.000 HD 
ENDBRANCH  15  18
ENDBRANCH  12  15
ENDBRANCH   9  12
ENDBRANCH   3   9
TORSDOF 5
ENDMDL
MODEL       62
REMARK 921   NORMALIZED FREE ENERGY PREDICTED BY IDOCK:   -4.27 KCAL/MOL
REMARK 922        TOTAL FREE ENERGY PREDICTED BY IDOCK:   -6.21 KCAL/MOL
REMARK 923 INTER-LIGAND FREE ENERGY PREDICTED BY IDOCK:   -6.41 KCAL/MOL
REMARK 924 INTRA-LIGAND FREE ENERGY PREDICTED BY IDOCK:    0.20 KCAL/MOL
REMARK 927      BINDING AFFINITY PREDICTED BY RF-SCORE:    0.00 PKD
ROOT
HETATM    1  C   UNL     1     -12.461  12.106  64.189  1.00  0.00    -0.396 C  
HETATM    2  O   UNL     1     -13.021  12.169  63.093  1.00  0.00    -0.659 OA 
HETATM    3  CA  UNL     1     -11.308  13.023  64.562  1.00  0.00    -0.339 C  
ENDROOT
BRANCH   3   4
HETATM    4  N   UNL     1     -10.439  12.383  65.564  1.00  0.00    -0.268 N  
HETATM    5  C   UNL     1      -9.837  11.213  67.597  1.00  0.00    -0.191 C  
HETATM    6  O   UNL     1     -12.103  11.611  66.923  1.00  0.00    -0.512 OA 
HETATM    7  H   UNL     1      -9.431  12.407  65.412  1.00  0.00     0.000 HD 
HETATM    8  C   UNL     1     -10.910  11.755  66.691  1.00  0.00    -0.276 C  
ENDBRANCH   3   4
BRANCH   3   9
HETATM    9  C   UNL     1     -11.796  14.432  64.971  1.00  0.00    -0.400 C  
HETATM   10  H   UNL     1     -13.479  15.174  65.618  1.00  0.00     0.000 HD 
HETATM   11  O   UNL     1     -13.179  14.308  65.367  1.00  0.00    -0.688 OA 
BRANCH   9  12
HETATM   12  C   UNL     1     -10.972  15.072  66.124  1.00  0.00    -0.334 C  
HETATM   13  H   UNL     1     -11.147  15.342  68.086  1.00  0.00     0.000 HD 
HETATM   14  O   UNL     1     -11.650  14.951  67.381  1.00  0.00    -0.355 OA 
BRANCH  12  15
HETATM   15  C   UNL     1     -10.632  16.552  65.851  1.00  0.00    -0.270 C  
HETATM   16  H   UNL     1     -10.874  17.809  64.365  1.00  0.00     0.000 HD 
HETATM   17  O   UNL     1     -11.083  16.897  64.533  1.00  0.00    -1.054 OA 
BRANCH  15  18
HETATM   18  C   UNL     1      -9.124  16.844  65.982  1.00  0.00    -0.164 C  
HETATM   19  O   UNL     1      -8.838  18.241  65.914  1.00  0.00    -0.501 OA 
HETATM   20  H   UNL     1      -7.909  18.421  65.994  1.00  0.00     0.000 HD 
ENDBRANCH  15  18
ENDBRANCH  12  15
ENDBRANCH   9  12
ENDBRANCH   3   9
TORSDOF 5
ENDMDL
MODEL       63
REMARK 921   NORMALIZED FREE ENERGY PREDICTED BY IDOCK:   -4.27 KCAL/MOL
REMARK 922        TOTAL FREE ENERGY PREDICTED BY IDOCK:   -6.21 KCAL/MOL
REMARK 923 INTER-LIGAND FREE ENERGY PREDICTED BY IDOCK:   -5.54 KCAL/MOL
REMARK 924 INTRA-LIGAND FREE ENERGY PREDICTED BY IDOCK:   -0.67 KCAL/MOL
REMARK 927      BINDING AFFINITY PREDICTED BY RF-SCORE:    0.00 PKD
ROOT
HETATM    1  C   UNL     1     -10.501   9.873  66.211  1.00  0.00    -0.101 C  
HETATM    2  O   UNL     1      -9.584   9.929  65.390  1.00  0.00    -0.244 OA 
HETATM    3  CA  UNL     1     -10.837  11.037  67.129  1.00  0.00    -0.282 C  
ENDROOT
BRANCH   3   4
HETATM    4  N   UNL     1     -11.469  10.555  68.368  1.00  0.00    -0.474 N  
HETATM    5  C   UNL     1     -11.619   9.677  70.621  1.00  0.00    -0.371 C  
HETATM    6  O   UNL     1      -9.550  10.288  69.575  1.00  0.00    -0.224 OA 
HETATM    7  H   UNL     1     -12.487  10.495  68.397  1.00  0.00     0.000 HD 
HETATM    8  C   UNL     1     -10.767  10.182  69.487  1.00  0.00    -0.249 C  
ENDBRANCH   3   4
BRANCH   3   9
HETATM    9  C   UNL     1     -11.650  12.133  66.401  1.00  0.00    -0.364 C  
HETATM   10  H   UNL     1     -12.795  13.605  66.968  1.00  0.00     0.000 HD 
HETATM   11  O   UNL     1     -12.296  12.932  67.415  1.00  0.00    -0.286 OA 
BRANCH   9  12
HETATM   12  C   UNL     1     -10.790  13.045  65.481  1.00  0.00    -0.278 C  
HETATM   13  H   UNL     1      -9.945  14.843  65.561  1.00  0.00     0.000 HD 
HETATM   14  O   UNL     1     -10.470  14.286  66.123  1.00  0.00    -0.279 OA 
BRANCH  12  15
HETATM   15  C   UNL     1     -11.470  13.317  64.123  1.00  0.00    -0.396 C  
HETATM   16  H   UNL     1     -12.956  14.425  63.482  1.00  0.00     0.000 HD 
HETATM   17  O   UNL     1     -12.537  14.257  64.318  1.00  0.00    -0.678 OA 
BRANCH  15  18
HETATM   18  C   UNL     1     -12.018  12.032  63.470  1.00  0.00    -0.507 C  
HETATM   19  O   UNL     1     -10.976  11.208  62.946  1.00  0.00    -0.809 OA 
HETATM   20  H   UNL     1     -11.314  10.416  62.543  1.00  0.00     0.000 HD 
ENDBRANCH  15  18
ENDBRANCH  12  15
ENDBRANCH   9  12
ENDBRANCH   3   9
TORSDOF 5
ENDMDL
MODEL       64
REMARK 921   NORMALIZED FREE ENERGY PREDICTED BY IDOCK:   -4.24 KCAL/MOL
REMARK 922        TOTAL FREE ENERGY PREDICTED BY IDOCK:   -6.17 KCAL/MOL
REMARK 923 INTER-LIGAND FREE ENERGY PREDICTED BY IDOCK:   -5.59 KCAL/MOL
REMARK 924 INTRA-LIGAND FREE ENERGY PREDICTED BY IDOCK:   -0.59 KCAL/MOL
REMARK 927      BINDING AFFINITY PREDICTED BY RF-SCORE:    0.00 PKD
ROOT
HETATM    1  C   UNL     1     -10.826  16.494  69.086  1.00  0.00    -0.334 C  
HETATM    2  O   UNL     1     -11.014  17.053  68.004  1.00  0.00    -0.360 OA 
HETATM    3  CA  UNL     1     -11.641  15.289  69.526  1.00  0.00    -0.322 C  
ENDROOT
BRANCH   3   4
HETATM    4  N   UNL     1     -11.696  15.208  70.996  1.00  0.00    -0.313 N  
HETATM    5  C   UNL     1     -12.646  15.333  73.220  1.00  0.00    -0.617 C  
HETATM    6  O   UNL     1     -13.928  15.629  71.216  1.00  0.00    -0.570 OA 
HETATM    7  H   UNL     1     -10.837  14.980  71.497  1.00  0.00     0.000 HD 
HETATM    8  C   UNL     1     -12.836  15.422  71.729  1.00  0.00    -0.407 C  
ENDBRANCH   3   4
BRANCH   3   9
HETATM    9  C   UNL     1     -11.159  13.985  68.848  1.00  0.00    -0.268 C  
HETATM   10  H   UNL     1     -11.415  12.081  69.183  1.00  0.00     0.000 HD 
HETATM   11  O   UNL     1     -11.712  12.882  69.600  1.00  0.00    -0.300 OA 
BRANCH   9  12
HETATM   12  C   UNL     1     -11.573  13.865  67.355  1.00  0.00    -0.368 C  
HETATM   13  H   UNL     1     -12.589  12.601  66.204  1.00  0.00     0.000 HD 
HETATM   14  O   UNL     1     -12.336  12.674  67.117  1.00  0.00    -0.370 OA 
BRANCH  12  15
HETATM   15  C   UNL     1     -10.359  13.908  66.404  1.00  0.00    -0.289 C  
HETATM   16  H   UNL     1      -8.456  14.355  66.559  1.00  0.00     0.000 HD 
HETATM   17  O   UNL     1      -9.204  14.328  67.144  1.00  0.00    -0.204 OA 
BRANCH  15  18
HETATM   18  C   UNL     1     -10.583  14.852  65.204  1.00  0.00    -0.428 C  
HETATM   19  O   UNL     1      -9.830  16.060  65.321  1.00  0.00    -0.435 OA 
HETATM   20  H   UNL     1      -9.968  16.641  64.583  1.00  0.00     0.000 HD 
ENDBRANCH  15  18
ENDBRANCH  12  15
ENDBRANCH   9  12
ENDBRANCH   3   9
TORSDOF 5
ENDMDL
MODEL       65
REMARK 921   NORMALIZED FREE ENERGY PREDICTED BY IDOCK:   -4.23 KCAL/MOL
REMARK 922        TOTAL FREE ENERGY PREDICTED BY IDOCK:   -6.16 KCAL/MOL
REMARK 923 INTER-LIGAND FREE ENERGY PREDICTED BY IDOCK:   -5.95 KCAL/MOL
REMARK 924 INTRA-LIGAND FREE ENERGY PREDICTED BY IDOCK:   -0.21 KCAL/MOL
REMARK 927      BINDING AFFINITY PREDICTED BY RF-SCORE:    0.00 PKD
ROOT
HETATM    1  C   UNL     1     -11.301  13.690  69.291  1.00  0.00    -0.269 C  
HETATM    2  O   UNL     1     -12.418  13.619  69.807  1.00  0.00    -0.265 OA 
HETATM    3  CA  UNL     1     -11.107  13.722  67.784  1.00  0.00    -0.268 C  
ENDROOT
BRANCH   3   4
HETATM    4  N   UNL     1      -9.787  13.182  67.419  1.00  0.00    -0.222 N  
HETATM    5  C   UNL     1      -8.161  11.591  66.587  1.00  0.00    -0.139 C  
HETATM    6  O   UNL     1     -10.529  11.235  66.487  1.00  0.00    -0.235 OA 
HETATM    7  H   UNL     1      -8.963  13.751  67.616  1.00  0.00     0.000 HD 
HETATM    8  C   UNL     1      -9.601  11.956  66.828  1.00  0.00    -0.204 C  
ENDBRANCH   3   4
BRANCH   3   9
HETATM    9  C   UNL     1     -11.393  15.121  67.192  1.00  0.00    -0.290 C  
HETATM   10  H   UNL     1     -11.563  16.920  67.925  1.00  0.00     0.000 HD 
HETATM   11  O   UNL     1     -11.388  16.060  68.289  1.00  0.00    -0.353 OA 
BRANCH   9  12
HETATM   12  C   UNL     1     -10.367  15.567  66.112  1.00  0.00    -0.315 C  
HETATM   13  H   UNL     1      -9.281  17.178  65.686  1.00  0.00     0.000 HD 
HETATM   14  O   UNL     1      -9.909  16.905  66.346  1.00  0.00    -0.275 OA 
BRANCH  12  15
HETATM   15  C   UNL     1     -10.931  15.449  64.681  1.00  0.00    -0.314 C  
HETATM   16  H   UNL     1     -11.758  16.663  63.381  1.00  0.00     0.000 HD 
HETATM   17  O   UNL     1     -11.411  16.735  64.262  1.00  0.00    -1.170 OA 
BRANCH  15  18
HETATM   18  C   UNL     1     -12.066  14.410  64.579  1.00  0.00    -0.481 C  
HETATM   19  O   UNL     1     -12.446  14.158  63.226  1.00  0.00    -1.146 OA 
HETATM   20  H   UNL     1     -13.145  13.518  63.163  1.00  0.00     0.000 HD 
ENDBRANCH  15  18
ENDBRANCH  12  15
ENDBRANCH   9  12
ENDBRANCH   3   9
TORSDOF 5
ENDMDL
MODEL       66
REMARK 921   NORMALIZED FREE ENERGY PREDICTED BY IDOCK:   -4.23 KCAL/MOL
REMARK 922        TOTAL FREE ENERGY PREDICTED BY IDOCK:   -6.16 KCAL/MOL
REMARK 923 INTER-LIGAND FREE ENERGY PREDICTED BY IDOCK:   -5.24 KCAL/MOL
REMARK 924 INTRA-LIGAND FREE ENERGY PREDICTED BY IDOCK:   -0.92 KCAL/MOL
REMARK 927      BINDING AFFINITY PREDICTED BY RF-SCORE:    0.00 PKD
ROOT
HETATM    1  C   UNL     1     -12.439  12.793  64.137  1.00  0.00    -0.369 C  
HETATM    2  O   UNL     1     -12.543  13.550  63.169  1.00  0.00    -0.762 OA 
HETATM    3  CA  UNL     1     -11.401  13.010  65.226  1.00  0.00    -0.295 C  
ENDROOT
BRANCH   3   4
HETATM    4  N   UNL     1     -11.050  11.733  65.869  1.00  0.00    -0.315 N  
HETATM    5  C   UNL     1      -9.951   9.595  66.170  1.00  0.00    -0.346 C  
HETATM    6  O   UNL     1      -9.435  11.107  64.382  1.00  0.00    -0.232 OA 
HETATM    7  H   UNL     1     -11.529  11.481  66.734  1.00  0.00     0.000 HD 
HETATM    8  C   UNL     1     -10.113  10.861  65.371  1.00  0.00    -0.277 C  
ENDBRANCH   3   4
BRANCH   3   9
HETATM    9  C   UNL     1     -11.829  14.112  66.223  1.00  0.00    -0.411 C  
HETATM   10  H   UNL     1     -12.494  14.130  68.055  1.00  0.00     0.000 HD 
HETATM   11  O   UNL     1     -12.231  13.453  67.443  1.00  0.00    -0.326 OA 
BRANCH   9  12
HETATM   12  C   UNL     1     -10.712  15.150  66.527  1.00  0.00    -0.310 C  
HETATM   13  H   UNL     1      -8.727  15.241  66.464  1.00  0.00     0.000 HD 
HETATM   14  O   UNL     1      -9.410  14.606  66.278  1.00  0.00    -0.286 OA 
BRANCH  12  15
HETATM   15  C   UNL     1     -10.789  15.688  67.971  1.00  0.00    -0.308 C  
HETATM   16  H   UNL     1     -10.821  17.454  68.824  1.00  0.00     0.000 HD 
HETATM   17  O   UNL     1     -10.774  17.122  67.935  1.00  0.00    -0.368 OA 
BRANCH  15  18
HETATM   18  C   UNL     1      -9.633  15.175  68.854  1.00  0.00    -0.223 C  
HETATM   19  O   UNL     1      -9.684  13.760  69.040  1.00  0.00    -0.413 OA 
HETATM   20  H   UNL     1      -8.972  13.444  69.583  1.00  0.00     0.000 HD 
ENDBRANCH  15  18
ENDBRANCH  12  15
ENDBRANCH   9  12
ENDBRANCH   3   9
TORSDOF 5
ENDMDL
MODEL       67
REMARK 921   NORMALIZED FREE ENERGY PREDICTED BY IDOCK:   -4.23 KCAL/MOL
REMARK 922        TOTAL FREE ENERGY PREDICTED BY IDOCK:   -6.16 KCAL/MOL
REMARK 923 INTER-LIGAND FREE ENERGY PREDICTED BY IDOCK:   -5.83 KCAL/MOL
REMARK 924 INTRA-LIGAND FREE ENERGY PREDICTED BY IDOCK:   -0.33 KCAL/MOL
REMARK 927      BINDING AFFINITY PREDICTED BY RF-SCORE:    0.00 PKD
ROOT
HETATM    1  C   UNL     1     -11.151  11.420  66.579  1.00  0.00    -0.251 C  
HETATM    2  O   UNL     1     -10.285  11.193  65.732  1.00  0.00    -0.240 OA 
HETATM    3  CA  UNL     1     -10.960  12.457  67.673  1.00  0.00    -0.236 C  
ENDROOT
BRANCH   3   4
HETATM    4  N   UNL     1     -11.767  12.117  68.857  1.00  0.00    -0.311 N  
HETATM    5  C   UNL     1     -12.430  10.925  70.859  1.00  0.00    -0.507 C  
HETATM    6  O   UNL     1     -10.392  10.489  69.674  1.00  0.00    -0.231 OA 
HETATM    7  H   UNL     1     -12.623  12.647  69.025  1.00  0.00     0.000 HD 
HETATM    8  C   UNL     1     -11.433  11.128  69.749  1.00  0.00    -0.312 C  
ENDBRANCH   3   4
BRANCH   3   9
HETATM    9  C   UNL     1     -11.191  13.896  67.155  1.00  0.00    -0.313 C  
HETATM   10  H   UNL     1     -12.053  15.495  67.863  1.00  0.00     0.000 HD 
HETATM   11  O   UNL     1     -11.910  14.611  68.182  1.00  0.00    -0.325 OA 
BRANCH   9  12
HETATM   12  C   UNL     1      -9.880  14.654  66.803  1.00  0.00    -0.255 C  
HETATM   13  H   UNL     1      -8.511  15.747  67.745  1.00  0.00     0.000 HD 
HETATM   14  O   UNL     1      -9.313  15.283  67.959  1.00  0.00    -0.194 OA 
BRANCH  12  15
HETATM   15  C   UNL     1     -10.088  15.699  65.687  1.00  0.00    -0.365 C  
HETATM   16  H   UNL     1     -10.397  17.633  65.599  1.00  0.00     0.000 HD 
HETATM   17  O   UNL     1     -10.270  16.990  66.286  1.00  0.00    -0.311 OA 
BRANCH  15  18
HETATM   18  C   UNL     1     -11.294  15.366  64.785  1.00  0.00    -0.376 C  
HETATM   19  O   UNL     1     -11.546  16.391  63.823  1.00  0.00    -1.605 OA 
HETATM   20  H   UNL     1     -12.288  16.186  63.267  1.00  0.00     0.000 HD 
ENDBRANCH  15  18
ENDBRANCH  12  15
ENDBRANCH   9  12
ENDBRANCH   3   9
TORSDOF 5
ENDMDL
MODEL       68
REMARK 921   NORMALIZED FREE ENERGY PREDICTED BY IDOCK:   -4.22 KCAL/MOL
REMARK 922        TOTAL FREE ENERGY PREDICTED BY IDOCK:   -6.14 KCAL/MOL
REMARK 923 INTER-LIGAND FREE ENERGY PREDICTED BY IDOCK:   -5.89 KCAL/MOL
REMARK 924 INTRA-LIGAND FREE ENERGY PREDICTED BY IDOCK:   -0.25 KCAL/MOL
REMARK 927      BINDING AFFINITY PREDICTED BY RF-SCORE:    0.00 PKD
ROOT
HETATM    1  C   UNL     1     -11.400  14.103  66.392  1.00  0.00    -0.338 C  
HETATM    2  O   UNL     1     -12.408  14.491  66.986  1.00  0.00    -0.299 OA 
HETATM    3  CA  UNL     1     -11.118  14.481  64.947  1.00  0.00    -0.394 C  
ENDROOT
BRANCH   3   4
HETATM    4  N   UNL     1     -10.284  13.457  64.296  1.00  0.00    -0.669 N  
HETATM    5  C   UNL     1      -9.752  11.430  63.082  1.00  0.00    -0.413 C  
HETATM    6  O   UNL     1     -11.992  12.199  63.454  1.00  0.00    -0.480 OA 
HETATM    7  H   UNL     1      -9.270  13.561  64.345  1.00  0.00     0.000 HD 
HETATM    8  C   UNL     1     -10.792  12.371  63.629  1.00  0.00    -0.462 C  
ENDBRANCH   3   4
BRANCH   3   9
HETATM    9  C   UNL     1     -10.553  15.915  64.823  1.00  0.00    -0.116 C  
HETATM   10  H   UNL     1     -11.161  17.569  63.988  1.00  0.00     0.000 HD 
HETATM   11  O   UNL     1     -11.509  16.688  64.064  1.00  0.00    -1.192 OA 
BRANCH   9  12
HETATM   12  C   UNL     1     -10.286  16.605  66.191  1.00  0.00    -0.348 C  
HETATM   13  H   UNL     1     -10.558  18.392  67.019  1.00  0.00     0.000 HD 
HETATM   14  O   UNL     1     -10.722  17.970  66.183  1.00  0.00    -0.302 OA 
BRANCH  12  15
HETATM   15  C   UNL     1      -8.801  16.531  66.605  1.00  0.00    -0.256 C  
HETATM   16  H   UNL     1      -7.422  15.139  66.683  1.00  0.00     0.000 HD 
HETATM   17  O   UNL     1      -8.336  15.184  66.429  1.00  0.00    -0.136 OA 
BRANCH  15  18
HETATM   18  C   UNL     1      -8.573  16.976  68.063  1.00  0.00    -0.217 C  
HETATM   19  O   UNL     1      -8.553  18.398  68.195  1.00  0.00    -0.270 OA 
HETATM   20  H   UNL     1      -8.412  18.673  69.094  1.00  0.00     0.000 HD 
ENDBRANCH  15  18
ENDBRANCH  12  15
ENDBRANCH   9  12
ENDBRANCH   3   9
TORSDOF 5
ENDMDL
MODEL       69
REMARK 921   NORMALIZED FREE ENERGY PREDICTED BY IDOCK:   -4.21 KCAL/MOL
REMARK 922        TOTAL FREE ENERGY PREDICTED BY IDOCK:   -6.14 KCAL/MOL
REMARK 923 INTER-LIGAND FREE ENERGY PREDICTED BY IDOCK:   -4.93 KCAL/MOL
REMARK 924 INTRA-LIGAND FREE ENERGY PREDICTED BY IDOCK:   -1.21 KCAL/MOL
REMARK 927      BINDING AFFINITY PREDICTED BY RF-SCORE:    0.00 PKD
ROOT
HETATM    1  C   UNL     1     -11.387  15.698  64.197  1.00  0.00    -0.022 C  
HETATM    2  O   UNL     1     -12.487  16.146  63.869  1.00  0.00    -0.824 OA 
HETATM    3  CA  UNL     1     -11.135  15.098  65.570  1.00  0.00    -0.345 C  
ENDROOT
BRANCH   3   4
HETATM    4  N   UNL     1      -9.715  15.228  65.941  1.00  0.00    -0.335 N  
HETATM    5  C   UNL     1      -7.654  16.317  66.597  1.00  0.00    -0.268 C  
HETATM    6  O   UNL     1      -9.756  17.458  66.425  1.00  0.00    -0.276 OA 
HETATM    7  H   UNL     1      -9.135  14.388  65.925  1.00  0.00     0.000 HD 
HETATM    8  C   UNL     1      -9.128  16.414  66.306  1.00  0.00    -0.327 C  
ENDBRANCH   3   4
BRANCH   3   9
HETATM    9  C   UNL     1     -11.677  13.654  65.681  1.00  0.00    -0.342 C  
HETATM   10  H   UNL     1     -11.009  11.889  65.191  1.00  0.00     0.000 HD 
HETATM   11  O   UNL     1     -10.675  12.776  65.123  1.00  0.00    -0.281 OA 
BRANCH   9  12
HETATM   12  C   UNL     1     -12.010  13.218  67.136  1.00  0.00    -0.348 C  
HETATM   13  H   UNL     1     -11.925  13.996  68.964  1.00  0.00     0.000 HD 
HETATM   14  O   UNL     1     -11.721  14.262  68.074  1.00  0.00    -0.315 OA 
BRANCH  12  15
HETATM   15  C   UNL     1     -11.272  11.927  67.545  1.00  0.00    -0.296 C  
HETATM   16  H   UNL     1     -11.755  10.235  68.410  1.00  0.00     0.000 HD 
HETATM   17  O   UNL     1     -12.209  11.030  68.159  1.00  0.00    -0.578 OA 
BRANCH  15  18
HETATM   18  C   UNL     1     -10.099  12.198  68.509  1.00  0.00    -0.187 C  
HETATM   19  O   UNL     1      -9.097  13.028  67.919  1.00  0.00    -0.190 OA 
HETATM   20  H   UNL     1      -8.375  13.195  68.512  1.00  0.00     0.000 HD 
ENDBRANCH  15  18
ENDBRANCH  12  15
ENDBRANCH   9  12
ENDBRANCH   3   9
TORSDOF 5
ENDMDL
MODEL       70
REMARK 921   NORMALIZED FREE ENERGY PREDICTED BY IDOCK:   -4.20 KCAL/MOL
REMARK 922        TOTAL FREE ENERGY PREDICTED BY IDOCK:   -6.12 KCAL/MOL
REMARK 923 INTER-LIGAND FREE ENERGY PREDICTED BY IDOCK:   -6.06 KCAL/MOL
REMARK 924 INTRA-LIGAND FREE ENERGY PREDICTED BY IDOCK:   -0.06 KCAL/MOL
REMARK 927      BINDING AFFINITY PREDICTED BY RF-SCORE:    0.00 PKD
ROOT
HETATM    1  C   UNL     1     -11.595  15.926  64.356  1.00  0.00    -0.234 C  
HETATM    2  O   UNL     1     -11.236  17.102  64.435  1.00  0.00    -1.143 OA 
HETATM    3  CA  UNL     1     -10.718  14.779  64.832  1.00  0.00    -0.417 C  
ENDROOT
BRANCH   3   4
HETATM    4  N   UNL     1     -11.034  13.544  64.095  1.00  0.00    -0.556 N  
HETATM    5  C   UNL     1     -12.310  11.608  63.396  1.00  0.00    -0.334 C  
HETATM    6  O   UNL     1     -13.162  13.288  64.879  1.00  0.00    -0.703 OA 
HETATM    7  H   UNL     1     -10.326  13.165  63.466  1.00  0.00     0.000 HD 
HETATM    8  C   UNL     1     -12.226  12.873  64.207  1.00  0.00    -0.410 C  
ENDBRANCH   3   4
BRANCH   3   9
HETATM    9  C   UNL     1     -10.762  14.616  66.369  1.00  0.00    -0.309 C  
HETATM   10  H   UNL     1     -10.161  13.254  67.629  1.00  0.00     0.000 HD 
HETATM   11  O   UNL     1     -10.133  13.355  66.685  1.00  0.00    -0.263 OA 
BRANCH   9  12
HETATM   12  C   UNL     1     -10.056  15.765  67.143  1.00  0.00    -0.251 C  
HETATM   13  H   UNL     1      -8.504  15.981  68.367  1.00  0.00     0.000 HD 
HETATM   14  O   UNL     1      -8.936  15.279  67.895  1.00  0.00    -0.168 OA 
BRANCH  12  15
HETATM   15  C   UNL     1     -11.022  16.526  68.074  1.00  0.00    -0.320 C  
HETATM   16  H   UNL     1     -11.358  18.402  68.537  1.00  0.00     0.000 HD 
HETATM   17  O   UNL     1     -10.763  17.933  67.964  1.00  0.00    -0.378 OA 
BRANCH  15  18
HETATM   18  C   UNL     1     -10.893  16.084  69.546  1.00  0.00    -0.317 C  
HETATM   19  O   UNL     1     -11.191  14.698  69.721  1.00  0.00    -0.260 OA 
HETATM   20  H   UNL     1     -11.111  14.426  70.627  1.00  0.00     0.000 HD 
ENDBRANCH  15  18
ENDBRANCH  12  15
ENDBRANCH   9  12
ENDBRANCH   3   9
TORSDOF 5
ENDMDL
MODEL       71
REMARK 921   NORMALIZED FREE ENERGY PREDICTED BY IDOCK:   -4.18 KCAL/MOL
REMARK 922        TOTAL FREE ENERGY PREDICTED BY IDOCK:   -6.10 KCAL/MOL
REMARK 923 INTER-LIGAND FREE ENERGY PREDICTED BY IDOCK:   -5.42 KCAL/MOL
REMARK 924 INTRA-LIGAND FREE ENERGY PREDICTED BY IDOCK:   -0.68 KCAL/MOL
REMARK 927      BINDING AFFINITY PREDICTED BY RF-SCORE:    0.00 PKD
ROOT
HETATM    1  C   UNL     1     -10.740  10.958  64.902  1.00  0.00    -0.170 C  
HETATM    2  O   UNL     1      -9.860  10.569  64.132  1.00  0.00    -0.306 OA 
HETATM    3  CA  UNL     1     -10.643  12.284  65.638  1.00  0.00    -0.260 C  
ENDROOT
BRANCH   3   4
HETATM    4  N   UNL     1     -11.411  12.238  66.894  1.00  0.00    -0.339 N  
HETATM    5  C   UNL     1     -11.830  11.963  69.264  1.00  0.00    -0.379 C  
HETATM    6  O   UNL     1      -9.639  11.905  68.293  1.00  0.00    -0.192 OA 
HETATM    7  H   UNL     1     -12.420  12.380  66.846  1.00  0.00     0.000 HD 
HETATM    8  C   UNL     1     -10.846  12.014  68.125  1.00  0.00    -0.221 C  
ENDBRANCH   3   4
BRANCH   3   9
HETATM    9  C   UNL     1     -11.008  13.480  64.729  1.00  0.00    -0.373 C  
HETATM   10  H   UNL     1     -12.642  14.472  64.345  1.00  0.00     0.000 HD 
HETATM   11  O   UNL     1     -12.418  13.737  64.904  1.00  0.00    -0.498 OA 
BRANCH   9  12
HETATM   12  C   UNL     1     -10.196  14.770  65.033  1.00  0.00    -0.344 C  
HETATM   13  H   UNL     1      -8.710  15.329  66.230  1.00  0.00     0.000 HD 
HETATM   14  O   UNL     1      -9.206  14.540  66.044  1.00  0.00    -0.208 OA 
BRANCH  12  15
HETATM   15  C   UNL     1     -11.100  15.951  65.443  1.00  0.00    -0.195 C  
HETATM   16  H   UNL     1     -11.961  17.458  64.529  1.00  0.00     0.000 HD 
HETATM   17  O   UNL     1     -11.404  16.731  64.277  1.00  0.00    -1.170 OA 
BRANCH  15  18
HETATM   18  C   UNL     1     -10.450  16.847  66.517  1.00  0.00    -0.253 C  
HETATM   19  O   UNL     1      -9.544  17.794  65.952  1.00  0.00    -0.517 OA 
HETATM   20  H   UNL     1      -9.144  18.346  66.613  1.00  0.00     0.000 HD 
ENDBRANCH  15  18
ENDBRANCH  12  15
ENDBRANCH   9  12
ENDBRANCH   3   9
TORSDOF 5
ENDMDL
MODEL       72
REMARK 921   NORMALIZED FREE ENERGY PREDICTED BY IDOCK:   -4.17 KCAL/MOL
REMARK 922        TOTAL FREE ENERGY PREDICTED BY IDOCK:   -6.08 KCAL/MOL
REMARK 923 INTER-LIGAND FREE ENERGY PREDICTED BY IDOCK:   -5.72 KCAL/MOL
REMARK 924 INTRA-LIGAND FREE ENERGY PREDICTED BY IDOCK:   -0.36 KCAL/MOL
REMARK 927      BINDING AFFINITY PREDICTED BY RF-SCORE:    0.00 PKD
ROOT
HETATM    1  C   UNL     1     -11.556  13.265  68.446  1.00  0.00    -0.337 C  
HETATM    2  O   UNL     1     -11.493  12.078  68.772  1.00  0.00    -0.249 OA 
HETATM    3  CA  UNL     1     -10.374  14.000  67.836  1.00  0.00    -0.239 C  
ENDROOT
BRANCH   3   4
HETATM    4  N   UNL     1     -10.459  15.443  68.119  1.00  0.00    -0.243 N  
HETATM    5  C   UNL     1      -9.885  17.576  69.111  1.00  0.00    -0.154 C  
HETATM    6  O   UNL     1      -8.596  15.580  69.430  1.00  0.00    -0.249 OA 
HETATM    7  H   UNL     1     -11.217  15.974  67.688  1.00  0.00     0.000 HD 
HETATM    8  C   UNL     1      -9.577  16.114  68.928  1.00  0.00    -0.245 C  
ENDBRANCH   3   4
BRANCH   3   9
HETATM    9  C   UNL     1     -10.197  13.669  66.336  1.00  0.00    -0.292 C  
HETATM   10  H   UNL     1      -9.088  12.428  65.320  1.00  0.00     0.000 HD 
HETATM   11  O   UNL     1      -9.197  12.631  66.242  1.00  0.00    -0.205 OA 
BRANCH   9  12
HETATM   12  C   UNL     1     -11.506  13.205  65.637  1.00  0.00    -0.323 C  
HETATM   13  H   UNL     1     -12.067  11.810  64.335  1.00  0.00     0.000 HD 
HETATM   14  O   UNL     1     -11.267  12.094  64.763  1.00  0.00    -0.307 OA 
BRANCH  12  15
HETATM   15  C   UNL     1     -12.192  14.347  64.858  1.00  0.00    -0.433 C  
HETATM   16  H   UNL     1     -13.003  14.562  63.086  1.00  0.00     0.000 HD 
HETATM   17  O   UNL     1     -12.580  13.860  63.565  1.00  0.00    -0.842 OA 
BRANCH  15  18
HETATM   18  C   UNL     1     -11.282  15.582  64.699  1.00  0.00    -0.371 C  
HETATM   19  O   UNL     1     -11.593  16.333  63.525  1.00  0.00    -1.238 OA 
HETATM   20  H   UNL     1     -11.033  17.094  63.428  1.00  0.00     0.000 HD 
ENDBRANCH  15  18
ENDBRANCH  12  15
ENDBRANCH   9  12
ENDBRANCH   3   9
TORSDOF 5
ENDMDL
MODEL       73
REMARK 921   NORMALIZED FREE ENERGY PREDICTED BY IDOCK:   -4.16 KCAL/MOL
REMARK 922        TOTAL FREE ENERGY PREDICTED BY IDOCK:   -6.06 KCAL/MOL
REMARK 923 INTER-LIGAND FREE ENERGY PREDICTED BY IDOCK:   -5.40 KCAL/MOL
REMARK 924 INTRA-LIGAND FREE ENERGY PREDICTED BY IDOCK:   -0.67 KCAL/MOL
REMARK 927      BINDING AFFINITY PREDICTED BY RF-SCORE:    0.00 PKD
ROOT
HETATM    1  C   UNL     1      -9.595  11.792  66.826  1.00  0.00    -0.200 C  
HETATM    2  O   UNL     1     -10.439  11.784  67.724  1.00  0.00    -0.188 OA 
HETATM    3  CA  UNL     1      -9.932  11.408  65.395  1.00  0.00    -0.245 C  
ENDROOT
BRANCH   3   4
HETATM    4  N   UNL     1      -8.740  10.891  64.702  1.00  0.00    -0.347 N  
HETATM    5  C   UNL     1      -7.048   9.295  64.027  1.00  0.00    -0.098 C  
HETATM    6  O   UNL     1      -8.942   8.722  65.380  1.00  0.00    -0.197 OA 
HETATM    7  H   UNL     1      -8.197  11.539  64.130  1.00  0.00     0.000 HD 
HETATM    8  C   UNL     1      -8.318   9.588  64.781  1.00  0.00    -0.150 C  
ENDBRANCH   3   4
BRANCH   3   9
HETATM    9  C   UNL     1     -10.643  12.555  64.640  1.00  0.00    -0.316 C  
HETATM   10  H   UNL     1     -10.737  13.131  62.779  1.00  0.00     0.000 HD 
HETATM   11  O   UNL     1     -10.301  12.426  63.243  1.00  0.00    -0.376 OA 
BRANCH   9  12
HETATM   12  C   UNL     1     -12.189  12.553  64.807  1.00  0.00    -0.465 C  
HETATM   13  H   UNL     1     -13.788  12.101  63.715  1.00  0.00     0.000 HD 
HETATM   14  O   UNL     1     -12.843  12.102  63.613  1.00  0.00    -0.746 OA 
BRANCH  12  15
HETATM   15  C   UNL     1     -12.737  13.936  65.215  1.00  0.00    -0.449 C  
HETATM   16  H   UNL     1     -13.005  15.668  64.336  1.00  0.00     0.000 HD 
HETATM   17  O   UNL     1     -12.667  14.817  64.084  1.00  0.00    -0.758 OA 
BRANCH  15  18
HETATM   18  C   UNL     1     -11.968  14.548  66.403  1.00  0.00    -0.334 C  
HETATM   19  O   UNL     1     -12.398  14.014  67.656  1.00  0.00    -0.526 OA 
HETATM   20  H   UNL     1     -11.924  14.390  68.388  1.00  0.00     0.000 HD 
ENDBRANCH  15  18
ENDBRANCH  12  15
ENDBRANCH   9  12
ENDBRANCH   3   9
TORSDOF 5
ENDMDL
MODEL       74
REMARK 921   NORMALIZED FREE ENERGY PREDICTED BY IDOCK:   -4.15 KCAL/MOL
REMARK 922        TOTAL FREE ENERGY PREDICTED BY IDOCK:   -6.06 KCAL/MOL
REMARK 923 INTER-LIGAND FREE ENERGY PREDICTED BY IDOCK:   -5.44 KCAL/MOL
REMARK 924 INTRA-LIGAND FREE ENERGY PREDICTED BY IDOCK:   -0.62 KCAL/MOL
REMARK 927      BINDING AFFINITY PREDICTED BY RF-SCORE:    0.00 PKD
ROOT
HETATM    1  C   UNL     1     -11.629  13.364  68.313  1.00  0.00    -0.344 C  
HETATM    2  O   UNL     1     -12.148  13.811  69.338  1.00  0.00    -0.326 OA 
HETATM    3  CA  UNL     1     -11.190  14.264  67.170  1.00  0.00    -0.322 C  
ENDROOT
BRANCH   3   4
HETATM    4  N   UNL     1     -11.211  13.529  65.894  1.00  0.00    -0.299 N  
HETATM    5  C   UNL     1     -12.120  12.601  63.850  1.00  0.00    -0.567 C  
HETATM    6  O   UNL     1     -13.361  14.034  65.318  1.00  0.00    -0.741 OA 
HETATM    7  H   UNL     1     -10.357  13.057  65.596  1.00  0.00     0.000 HD 
HETATM    8  C   UNL     1     -12.315  13.443  65.082  1.00  0.00    -0.456 C  
ENDBRANCH   3   4
BRANCH   3   9
HETATM    9  C   UNL     1      -9.840  14.959  67.465  1.00  0.00    -0.217 C  
HETATM   10  H   UNL     1      -8.218  15.312  66.443  1.00  0.00     0.000 HD 
HETATM   11  O   UNL     1      -9.048  14.886  66.260  1.00  0.00    -0.282 OA 
BRANCH   9  12
HETATM   12  C   UNL     1      -9.983  16.441  67.913  1.00  0.00    -0.243 C  
HETATM   13  H   UNL     1     -11.442  17.696  68.411  1.00  0.00     0.000 HD 
HETATM   14  O   UNL     1     -11.355  16.790  68.138  1.00  0.00    -0.255 OA 
BRANCH  12  15
HETATM   15  C   UNL     1      -9.350  17.422  66.905  1.00  0.00    -0.263 C  
HETATM   16  H   UNL     1      -7.995  18.839  66.969  1.00  0.00     0.000 HD 
HETATM   17  O   UNL     1      -8.385  18.235  67.590  1.00  0.00    -0.243 OA 
BRANCH  15  18
HETATM   18  C   UNL     1     -10.399  18.321  66.220  1.00  0.00    -0.405 C  
HETATM   19  O   UNL     1     -10.847  19.374  67.074  1.00  0.00    -0.476 OA 
HETATM   20  H   UNL     1     -11.492  19.928  66.652  1.00  0.00     0.000 HD 
ENDBRANCH  15  18
ENDBRANCH  12  15
ENDBRANCH   9  12
ENDBRANCH   3   9
TORSDOF 5
ENDMDL
MODEL       75
REMARK 921   NORMALIZED FREE ENERGY PREDICTED BY IDOCK:   -4.11 KCAL/MOL
REMARK 922        TOTAL FREE ENERGY PREDICTED BY IDOCK:   -6.01 KCAL/MOL
REMARK 923 INTER-LIGAND FREE ENERGY PREDICTED BY IDOCK:   -5.48 KCAL/MOL
REMARK 924 INTRA-LIGAND FREE ENERGY PREDICTED BY IDOCK:   -0.52 KCAL/MOL
REMARK 927      BINDING AFFINITY PREDICTED BY RF-SCORE:    0.00 PKD
ROOT
HETATM    1  C   UNL     1     -13.740   9.283  71.615  1.00  0.00    -0.354 C  
HETATM    2  O   UNL     1     -14.356   8.875  72.601  1.00  0.00    -0.613 OA 
HETATM    3  CA  UNL     1     -12.297   9.750  71.698  1.00  0.00    -0.408 C  
ENDROOT
BRANCH   3   4
HETATM    4  N   UNL     1     -12.006  10.730  70.638  1.00  0.00    -0.339 N  
HETATM    5  C   UNL     1     -12.018  12.855  69.477  1.00  0.00    -0.346 C  
HETATM    6  O   UNL     1     -12.930  12.542  71.672  1.00  0.00    -0.381 OA 
HETATM    7  H   UNL     1     -11.497  10.410  69.814  1.00  0.00     0.000 HD 
HETATM    8  C   UNL     1     -12.382  12.049  70.695  1.00  0.00    -0.304 C  
ENDBRANCH   3   4
BRANCH   3   9
HETATM    9  C   UNL     1     -11.305   8.564  71.739  1.00  0.00    -0.307 C  
HETATM   10  H   UNL     1     -10.759   7.270  73.091  1.00  0.00     0.000 HD 
HETATM   11  O   UNL     1     -11.369   7.998  73.066  1.00  0.00    -0.386 OA 
BRANCH   9  12
HETATM   12  C   UNL     1     -11.599   7.463  70.681  1.00  0.00    -0.268 C  
HETATM   13  H   UNL     1     -11.853   5.492  70.637  1.00  0.00     0.000 HD 
HETATM   14  O   UNL     1     -11.673   6.165  71.284  1.00  0.00    -0.278 OA 
BRANCH  12  15
HETATM   15  C   UNL     1     -10.561   7.454  69.540  1.00  0.00    -0.237 C  
HETATM   16  H   UNL     1      -9.956   8.717  68.167  1.00  0.00     0.000 HD 
HETATM   17  O   UNL     1     -10.595   8.722  68.870  1.00  0.00    -0.215 OA 
BRANCH  15  18
HETATM   18  C   UNL     1     -10.811   6.320  68.525  1.00  0.00    -0.323 C  
HETATM   19  O   UNL     1     -11.451   6.790  67.338  1.00  0.00    -0.723 OA 
HETATM   20  H   UNL     1     -11.605   6.091  66.713  1.00  0.00     0.000 HD 
ENDBRANCH  15  18
ENDBRANCH  12  15
ENDBRANCH   9  12
ENDBRANCH   3   9
TORSDOF 5
ENDMDL
MODEL       76
REMARK 921   NORMALIZED FREE ENERGY PREDICTED BY IDOCK:   -4.10 KCAL/MOL
REMARK 922        TOTAL FREE ENERGY PREDICTED BY IDOCK:   -5.99 KCAL/MOL
REMARK 923 INTER-LIGAND FREE ENERGY PREDICTED BY IDOCK:   -4.97 KCAL/MOL
REMARK 924 INTRA-LIGAND FREE ENERGY PREDICTED BY IDOCK:   -1.02 KCAL/MOL
REMARK 927      BINDING AFFINITY PREDICTED BY RF-SCORE:    0.00 PKD
ROOT
HETATM    1  C   UNL     1      -9.518  11.245  63.172  1.00  0.00    -0.353 C  
HETATM    2  O   UNL     1      -9.484  10.138  62.630  1.00  0.00    -0.295 OA 
HETATM    3  CA  UNL     1     -10.375  11.520  64.397  1.00  0.00    -0.312 C  
ENDROOT
BRANCH   3   4
HETATM    4  N   UNL     1     -10.742  12.944  64.464  1.00  0.00    -0.349 N  
HETATM    5  C   UNL     1     -12.151  14.910  64.339  1.00  0.00    -0.417 C  
HETATM    6  O   UNL     1     -12.978  12.674  64.093  1.00  0.00    -0.717 OA 
HETATM    7  H   UNL     1     -10.006  13.621  64.667  1.00  0.00     0.000 HD 
HETATM    8  C   UNL     1     -12.018  13.412  64.269  1.00  0.00    -0.430 C  
ENDBRANCH   3   4
BRANCH   3   9
HETATM    9  C   UNL     1      -9.723  10.983  65.692  1.00  0.00    -0.232 C  
HETATM   10  H   UNL     1      -8.625  11.756  67.106  1.00  0.00     0.000 HD 
HETATM   11  O   UNL     1      -9.026  12.086  66.310  1.00  0.00    -0.200 OA 
BRANCH   9  12
HETATM   12  C   UNL     1     -10.738  10.370  66.698  1.00  0.00    -0.128 C  
HETATM   13  H   UNL     1     -12.341  10.959  67.716  1.00  0.00     0.000 HD 
HETATM   14  O   UNL     1     -11.721  11.333  67.101  1.00  0.00    -0.533 OA 
BRANCH  12  15
HETATM   15  C   UNL     1     -10.045   9.776  67.942  1.00  0.00    -0.173 C  
HETATM   16  H   UNL     1     -10.098   8.072  68.911  1.00  0.00     0.000 HD 
HETATM   17  O   UNL     1     -10.524   8.438  68.146  1.00  0.00    -0.212 OA 
BRANCH  15  18
HETATM   18  C   UNL     1     -10.288  10.617  69.211  1.00  0.00    -0.218 C  
HETATM   19  O   UNL     1      -9.762  11.939  69.090  1.00  0.00    -0.407 OA 
HETATM   20  H   UNL     1      -9.911  12.458  69.872  1.00  0.00     0.000 HD 
ENDBRANCH  15  18
ENDBRANCH  12  15
ENDBRANCH   9  12
ENDBRANCH   3   9
TORSDOF 5
ENDMDL
MODEL       77
REMARK 921   NORMALIZED FREE ENERGY PREDICTED BY IDOCK:   -4.10 KCAL/MOL
REMARK 922        TOTAL FREE ENERGY PREDICTED BY IDOCK:   -5.99 KCAL/MOL
REMARK 923 INTER-LIGAND FREE ENERGY PREDICTED BY IDOCK:   -5.43 KCAL/MOL
REMARK 924 INTRA-LIGAND FREE ENERGY PREDICTED BY IDOCK:   -0.56 KCAL/MOL
REMARK 927      BINDING AFFINITY PREDICTED BY RF-SCORE:    0.00 PKD
ROOT
HETATM    1  C   UNL     1     -11.465  12.330  68.897  1.00  0.00    -0.304 C  
HETATM    2  O   UNL     1     -10.444  11.639  68.901  1.00  0.00    -0.212 OA 
HETATM    3  CA  UNL     1     -11.414  13.849  68.929  1.00  0.00    -0.301 C  
ENDROOT
BRANCH   3   4
HETATM    4  N   UNL     1     -12.637  14.397  69.538  1.00  0.00    -0.536 N  
HETATM    5  C   UNL     1     -14.080  15.300  71.261  1.00  0.00    -0.527 C  
HETATM    6  O   UNL     1     -11.750  14.844  71.593  1.00  0.00    -0.349 OA 
HETATM    7  H   UNL     1     -13.474  14.466  68.958  1.00  0.00     0.000 HD 
HETATM    8  C   UNL     1     -12.716  14.820  70.842  1.00  0.00    -0.342 C  
ENDBRANCH   3   4
BRANCH   3   9
HETATM    9  C   UNL     1     -11.087  14.447  67.541  1.00  0.00    -0.302 C  
HETATM   10  H   UNL     1     -12.128  14.900  65.956  1.00  0.00     0.000 HD 
HETATM   11  O   UNL     1     -12.329  14.533  66.809  1.00  0.00    -0.332 OA 
BRANCH   9  12
HETATM   12  C   UNL     1     -10.414  15.848  67.604  1.00  0.00    -0.289 C  
HETATM   13  H   UNL     1     -10.665  17.561  68.582  1.00  0.00     0.000 HD 
HETATM   14  O   UNL     1     -11.076  16.705  68.543  1.00  0.00    -0.349 OA 
BRANCH  12  15
HETATM   15  C   UNL     1     -10.353  16.532  66.223  1.00  0.00    -0.320 C  
HETATM   16  H   UNL     1      -9.114  16.543  64.703  1.00  0.00     0.000 HD 
HETATM   17  O   UNL     1      -9.152  16.122  65.553  1.00  0.00    -0.344 OA 
BRANCH  15  18
HETATM   18  C   UNL     1     -10.397  18.070  66.324  1.00  0.00    -0.382 C  
HETATM   19  O   UNL     1     -10.924  18.674  65.142  1.00  0.00    -0.543 OA 
HETATM   20  H   UNL     1     -10.951  19.621  65.204  1.00  0.00     0.000 HD 
ENDBRANCH  15  18
ENDBRANCH  12  15
ENDBRANCH   9  12
ENDBRANCH   3   9
TORSDOF 5
ENDMDL
MODEL       78
REMARK 921   NORMALIZED FREE ENERGY PREDICTED BY IDOCK:   -4.10 KCAL/MOL
REMARK 922        TOTAL FREE ENERGY PREDICTED BY IDOCK:   -5.99 KCAL/MOL
REMARK 923 INTER-LIGAND FREE ENERGY PREDICTED BY IDOCK:   -5.28 KCAL/MOL
REMARK 924 INTRA-LIGAND FREE ENERGY PREDICTED BY IDOCK:   -0.71 KCAL/MOL
REMARK 927      BINDING AFFINITY PREDICTED BY RF-SCORE:    0.00 PKD
ROOT
HETATM    1  C   UNL     1      -8.161  12.784  67.616  1.00  0.00    -0.175 C  
HETATM    2  O   UNL     1      -7.950  13.818  68.254  1.00  0.00    -0.130 OA 
HETATM    3  CA  UNL     1      -9.545  12.415  67.108  1.00  0.00    -0.206 C  
ENDROOT
BRANCH   3   4
HETATM    4  N   UNL     1      -9.675  10.955  66.969  1.00  0.00    -0.173 N  
HETATM    5  C   UNL     1     -10.656   8.753  67.203  1.00  0.00    -0.303 C  
HETATM    6  O   UNL     1     -11.753  10.770  67.893  1.00  0.00    -0.543 OA 
HETATM    7  H   UNL     1      -8.913  10.445  66.520  1.00  0.00     0.000 HD 
HETATM    8  C   UNL     1     -10.761  10.241  67.409  1.00  0.00    -0.281 C  
ENDBRANCH   3   4
BRANCH   3   9
HETATM    9  C   UNL     1      -9.920  13.198  65.828  1.00  0.00    -0.252 C  
HETATM   10  H   UNL     1     -10.819  12.757  64.156  1.00  0.00     0.000 HD 
HETATM   11  O   UNL     1     -10.589  12.275  64.942  1.00  0.00    -0.273 OA 
BRANCH   9  12
HETATM   12  C   UNL     1     -10.830  14.431  66.091  1.00  0.00    -0.309 C  
HETATM   13  H   UNL     1     -12.686  14.789  66.708  1.00  0.00     0.000 HD 
HETATM   14  O   UNL     1     -12.129  14.035  66.547  1.00  0.00    -0.424 OA 
BRANCH  12  15
HETATM   15  C   UNL     1     -10.964  15.337  64.849  1.00  0.00    -0.430 C  
HETATM   16  H   UNL     1     -10.766  17.250  64.465  1.00  0.00     0.000 HD 
HETATM   17  O   UNL     1     -10.684  16.692  65.229  1.00  0.00    -0.550 OA 
BRANCH  15  18
HETATM   18  C   UNL     1     -12.363  15.253  64.206  1.00  0.00    -0.121 C  
HETATM   19  O   UNL     1     -12.528  14.068  63.427  1.00  0.00    -1.108 OA 
HETATM   20  H   UNL     1     -13.389  14.016  63.031  1.00  0.00     0.000 HD 
ENDBRANCH  15  18
ENDBRANCH  12  15
ENDBRANCH   9  12
ENDBRANCH   3   9
TORSDOF 5
ENDMDL
MODEL       79
REMARK 921   NORMALIZED FREE ENERGY PREDICTED BY IDOCK:   -4.10 KCAL/MOL
REMARK 922        TOTAL FREE ENERGY PREDICTED BY IDOCK:   -5.98 KCAL/MOL
REMARK 923 INTER-LIGAND FREE ENERGY PREDICTED BY IDOCK:   -5.64 KCAL/MOL
REMARK 924 INTRA-LIGAND FREE ENERGY PREDICTED BY IDOCK:   -0.34 KCAL/MOL
REMARK 927      BINDING AFFINITY PREDICTED BY RF-SCORE:    0.00 PKD
ROOT
HETATM    1  C   UNL     1     -12.673  13.028  65.132  1.00  0.00    -0.397 C  
HETATM    2  O   UNL     1     -13.137  14.170  65.118  1.00  0.00    -0.757 OA 
HETATM    3  CA  UNL     1     -11.538  12.627  66.060  1.00  0.00    -0.393 C  
ENDROOT
BRANCH   3   4
HETATM    4  N   UNL     1     -10.770  11.509  65.487  1.00  0.00    -0.278 N  
HETATM    5  C   UNL     1      -9.414  10.302  63.884  1.00  0.00    -0.356 C  
HETATM    6  O   UNL     1     -10.005  12.612  63.642  1.00  0.00    -0.361 OA 
HETATM    7  H   UNL     1     -10.742  10.630  66.004  1.00  0.00     0.000 HD 
HETATM    8  C   UNL     1     -10.091  11.582  64.297  1.00  0.00    -0.291 C  
ENDBRANCH   3   4
BRANCH   3   9
HETATM    9  C   UNL     1     -12.033  12.369  67.502  1.00  0.00    -0.183 C  
HETATM   10  H   UNL     1     -12.130  10.809  68.668  1.00  0.00     0.000 HD 
HETATM   11  O   UNL     1     -11.825  10.967  67.782  1.00  0.00    -0.605 OA 
BRANCH   9  12
HETATM   12  C   UNL     1     -11.314  13.233  68.576  1.00  0.00    -0.284 C  
HETATM   13  H   UNL     1     -11.229  13.349  70.560  1.00  0.00     0.000 HD 
HETATM   14  O   UNL     1     -11.668  12.821  69.903  1.00  0.00    -0.302 OA 
BRANCH  12  15
HETATM   15  C   UNL     1     -11.594  14.740  68.402  1.00  0.00    -0.324 C  
HETATM   16  H   UNL     1     -10.623  16.286  67.688  1.00  0.00     0.000 HD 
HETATM   17  O   UNL     1     -10.450  15.359  67.796  1.00  0.00    -0.256 OA 
BRANCH  15  18
HETATM   18  C   UNL     1     -11.920  15.437  69.738  1.00  0.00    -0.358 C  
HETATM   19  O   UNL     1     -13.304  15.341  70.074  1.00  0.00    -0.499 OA 
HETATM   20  H   UNL     1     -13.505  15.770  70.897  1.00  0.00     0.000 HD 
ENDBRANCH  15  18
ENDBRANCH  12  15
ENDBRANCH   9  12
ENDBRANCH   3   9
TORSDOF 5
ENDMDL
MODEL       80
REMARK 921   NORMALIZED FREE ENERGY PREDICTED BY IDOCK:   -4.09 KCAL/MOL
REMARK 922        TOTAL FREE ENERGY PREDICTED BY IDOCK:   -5.97 KCAL/MOL
REMARK 923 INTER-LIGAND FREE ENERGY PREDICTED BY IDOCK:   -5.10 KCAL/MOL
REMARK 924 INTRA-LIGAND FREE ENERGY PREDICTED BY IDOCK:   -0.87 KCAL/MOL
REMARK 927      BINDING AFFINITY PREDICTED BY RF-SCORE:    0.00 PKD
ROOT
HETATM    1  C   UNL     1      -8.534  12.586  66.759  1.00  0.00    -0.070 C  
HETATM    2  O   UNL     1      -8.200  12.261  67.900  1.00  0.00    -0.140 OA 
HETATM    3  CA  UNL     1      -9.549  13.686  66.496  1.00  0.00    -0.286 C  
ENDROOT
BRANCH   3   4
HETATM    4  N   UNL     1     -10.229  13.467  65.208  1.00  0.00    -0.407 N  
HETATM    5  C   UNL     1     -11.966  12.760  63.675  1.00  0.00    -0.616 C  
HETATM    6  O   UNL     1     -12.189  12.666  66.060  1.00  0.00    -0.564 OA 
HETATM    7  H   UNL     1      -9.735  13.725  64.353  1.00  0.00     0.000 HD 
HETATM    8  C   UNL     1     -11.490  12.937  65.093  1.00  0.00    -0.313 C  
ENDBRANCH   3   4
BRANCH   3   9
HETATM    9  C   UNL     1      -8.928  15.095  66.641  1.00  0.00    -0.287 C  
HETATM   10  H   UNL     1      -8.919  16.716  65.557  1.00  0.00     0.000 HD 
HETATM   11  O   UNL     1      -9.302  15.850  65.468  1.00  0.00    -0.352 OA 
BRANCH   9  12
HETATM   12  C   UNL     1      -9.381  15.852  67.921  1.00  0.00    -0.207 C  
HETATM   13  H   UNL     1      -9.540  15.488  69.870  1.00  0.00     0.000 HD 
HETATM   14  O   UNL     1      -9.264  15.025  69.087  1.00  0.00    -0.203 OA 
BRANCH  12  15
HETATM   15  C   UNL     1     -10.821  16.393  67.805  1.00  0.00    -0.306 C  
HETATM   16  H   UNL     1     -11.684  18.151  67.910  1.00  0.00     0.000 HD 
HETATM   17  O   UNL     1     -10.798  17.817  67.982  1.00  0.00    -0.354 OA 
BRANCH  15  18
HETATM   18  C   UNL     1     -11.776  15.754  68.833  1.00  0.00    -0.394 C  
HETATM   19  O   UNL     1     -12.305  14.509  68.375  1.00  0.00    -0.601 OA 
HETATM   20  H   UNL     1     -12.893  14.114  69.008  1.00  0.00     0.000 HD 
ENDBRANCH  15  18
ENDBRANCH  12  15
ENDBRANCH   9  12
ENDBRANCH   3   9
TORSDOF 5
ENDMDL
MODEL       81
REMARK 921   NORMALIZED FREE ENERGY PREDICTED BY IDOCK:   -4.08 KCAL/MOL
REMARK 922        TOTAL FREE ENERGY PREDICTED BY IDOCK:   -5.96 KCAL/MOL
REMARK 923 INTER-LIGAND FREE ENERGY PREDICTED BY IDOCK:   -5.25 KCAL/MOL
REMARK 924 INTRA-LIGAND FREE ENERGY PREDICTED BY IDOCK:   -0.71 KCAL/MOL
REMARK 927      BINDING AFFINITY PREDICTED BY RF-SCORE:    0.00 PKD
ROOT
HETATM    1  C   UNL     1      -9.652   8.534  71.788  1.00  0.00    -0.267 C  
HETATM    2  O   UNL     1      -8.623   8.983  72.298  1.00  0.00    -0.362 OA 
HETATM    3  CA  UNL     1     -10.741   9.437  71.233  1.00  0.00    -0.350 C  
ENDROOT
BRANCH   3   4
HETATM    4  N   UNL     1     -12.049   8.762  71.279  1.00  0.00    -0.294 N  
HETATM    5  C   UNL     1     -14.396   8.442  71.782  1.00  0.00    -0.558 C  
HETATM    6  O   UNL     1     -13.221  10.489  72.203  1.00  0.00    -0.458 OA 
HETATM    7  H   UNL     1     -12.115   7.816  70.904  1.00  0.00     0.000 HD 
HETATM    8  C   UNL     1     -13.183   9.334  71.798  1.00  0.00    -0.403 C  
ENDBRANCH   3   4
BRANCH   3   9
HETATM    9  C   UNL     1     -10.376   9.994  69.838  1.00  0.00    -0.272 C  
HETATM   10  H   UNL     1     -10.352   9.270  68.028  1.00  0.00     0.000 HD 
HETATM   11  O   UNL     1     -10.577   8.928  68.885  1.00  0.00    -0.217 OA 
BRANCH   9  12
HETATM   12  C   UNL     1     -11.211  11.238  69.421  1.00  0.00    -0.280 C  
HETATM   13  H   UNL     1     -13.021  11.621  68.693  1.00  0.00     0.000 HD 
HETATM   14  O   UNL     1     -12.511  10.861  68.948  1.00  0.00    -0.431 OA 
BRANCH  12  15
HETATM   15  C   UNL     1     -10.495  12.096  68.357  1.00  0.00    -0.231 C  
HETATM   16  H   UNL     1     -10.335  14.009  67.955  1.00  0.00     0.000 HD 
HETATM   17  O   UNL     1     -10.777  13.480  68.610  1.00  0.00    -0.245 OA 
BRANCH  15  18
HETATM   18  C   UNL     1     -10.919  11.730  66.920  1.00  0.00    -0.285 C  
HETATM   19  O   UNL     1     -12.122  12.391  66.529  1.00  0.00    -0.599 OA 
HETATM   20  H   UNL     1     -12.383  12.166  65.644  1.00  0.00     0.000 HD 
ENDBRANCH  15  18
ENDBRANCH  12  15
ENDBRANCH   9  12
ENDBRANCH   3   9
TORSDOF 5
ENDMDL
MODEL       82
REMARK 921   NORMALIZED FREE ENERGY PREDICTED BY IDOCK:   -4.06 KCAL/MOL
REMARK 922        TOTAL FREE ENERGY PREDICTED BY IDOCK:   -5.94 KCAL/MOL
REMARK 923 INTER-LIGAND FREE ENERGY PREDICTED BY IDOCK:   -4.93 KCAL/MOL
REMARK 924 INTRA-LIGAND FREE ENERGY PREDICTED BY IDOCK:   -1.01 KCAL/MOL
REMARK 927      BINDING AFFINITY PREDICTED BY RF-SCORE:    0.00 PKD
ROOT
HETATM    1  C   UNL     1     -12.276  12.624  63.330  1.00  0.00    -0.517 C  
HETATM    2  O   UNL     1     -13.309  11.951  63.331  1.00  0.00    -0.569 OA 
HETATM    3  CA  UNL     1     -11.152  12.381  64.325  1.00  0.00    -0.349 C  
ENDROOT
BRANCH   3   4
HETATM    4  N   UNL     1     -10.383  13.616  64.550  1.00  0.00    -0.610 N  
HETATM    5  C   UNL     1      -9.774  15.732  65.559  1.00  0.00    -0.255 C  
HETATM    6  O   UNL     1     -11.541  14.335  66.380  1.00  0.00    -0.346 OA 
HETATM    7  H   UNL     1      -9.596  13.812  63.932  1.00  0.00     0.000 HD 
HETATM    8  C   UNL     1     -10.665  14.518  65.545  1.00  0.00    -0.341 C  
ENDBRANCH   3   4
BRANCH   3   9
HETATM    9  C   UNL     1     -10.280  11.167  63.928  1.00  0.00    -0.362 C  
HETATM   10  H   UNL     1      -8.779  10.886  62.715  1.00  0.00     0.000 HD 
HETATM   11  O   UNL     1      -9.315  11.632  62.959  1.00  0.00    -0.329 OA 
BRANCH   9  12
HETATM   12  C   UNL     1      -9.545  10.504  65.127  1.00  0.00    -0.260 C  
HETATM   13  H   UNL     1      -8.413  11.073  66.660  1.00  0.00     0.000 HD 
HETATM   14  O   UNL     1      -8.862  11.478  65.927  1.00  0.00    -0.187 OA 
BRANCH  12  15
HETATM   15  C   UNL     1      -8.556   9.409  64.676  1.00  0.00    -0.187 C  
HETATM   16  H   UNL     1      -8.226   7.529  65.124  1.00  0.00     0.000 HD 
HETATM   17  O   UNL     1      -8.835   8.203  65.402  1.00  0.00    -0.142 OA 
BRANCH  15  18
HETATM   18  C   UNL     1      -7.084   9.820  64.890  1.00  0.00    -0.125 C  
HETATM   19  O   UNL     1      -6.667  10.828  63.969  1.00  0.00    -0.348 OA 
HETATM   20  H   UNL     1      -5.761  11.081  64.101  1.00  0.00     0.000 HD 
ENDBRANCH  15  18
ENDBRANCH  12  15
ENDBRANCH   9  12
ENDBRANCH   3   9
TORSDOF 5
ENDMDL
MODEL       83
REMARK 921   NORMALIZED FREE ENERGY PREDICTED BY IDOCK:   -4.06 KCAL/MOL
REMARK 922        TOTAL FREE ENERGY PREDICTED BY IDOCK:   -5.93 KCAL/MOL
REMARK 923 INTER-LIGAND FREE ENERGY PREDICTED BY IDOCK:   -5.57 KCAL/MOL
REMARK 924 INTRA-LIGAND FREE ENERGY PREDICTED BY IDOCK:   -0.36 KCAL/MOL
REMARK 927      BINDING AFFINITY PREDICTED BY RF-SCORE:    0.00 PKD
ROOT
HETATM    1  C   UNL     1     -12.565  11.875  63.875  1.00  0.00    -0.340 C  
HETATM    2  O   UNL     1     -13.054  12.418  62.883  1.00  0.00    -0.281 OA 
HETATM    3  CA  UNL     1     -11.352  12.442  64.593  1.00  0.00    -0.315 C  
ENDROOT
BRANCH   3   4
HETATM    4  N   UNL     1     -10.606  11.373  65.277  1.00  0.00    -0.280 N  
HETATM    5  C   UNL     1      -9.229   9.395  65.522  1.00  0.00    -0.292 C  
HETATM    6  O   UNL     1      -9.712  10.417  63.407  1.00  0.00    -0.309 OA 
HETATM    7  H   UNL     1     -10.638  11.340  66.296  1.00  0.00     0.000 HD 
HETATM    8  C   UNL     1      -9.870  10.417  64.621  1.00  0.00    -0.338 C  
ENDBRANCH   3   4
BRANCH   3   9
HETATM    9  C   UNL     1     -11.726  13.627  65.514  1.00  0.00    -0.337 C  
HETATM   10  H   UNL     1     -13.361  14.623  65.883  1.00  0.00     0.000 HD 
HETATM   11  O   UNL     1     -13.131  13.895  65.318  1.00  0.00    -0.777 OA 
BRANCH   9  12
HETATM   12  C   UNL     1     -11.444  13.365  67.020  1.00  0.00    -0.337 C  
HETATM   13  H   UNL     1     -11.986  12.055  68.415  1.00  0.00     0.000 HD 
HETATM   14  O   UNL     1     -12.159  12.216  67.494  1.00  0.00    -0.534 OA 
BRANCH  12  15
HETATM   15  C   UNL     1     -11.774  14.588  67.901  1.00  0.00    -0.351 C  
HETATM   16  H   UNL     1     -10.866  16.249  68.413  1.00  0.00     0.000 HD 
HETATM   17  O   UNL     1     -10.663  15.496  67.871  1.00  0.00    -0.276 OA 
BRANCH  15  18
HETATM   18  C   UNL     1     -12.091  14.196  69.358  1.00  0.00    -0.328 C  
HETATM   19  O   UNL     1     -11.155  13.252  69.879  1.00  0.00    -0.475 OA 
HETATM   20  H   UNL     1     -11.350  13.011  70.776  1.00  0.00     0.000 HD 
ENDBRANCH  15  18
ENDBRANCH  12  15
ENDBRANCH   9  12
ENDBRANCH   3   9
TORSDOF 5
ENDMDL
MODEL       84
REMARK 921   NORMALIZED FREE ENERGY PREDICTED BY IDOCK:   -4.05 KCAL/MOL
REMARK 922        TOTAL FREE ENERGY PREDICTED BY IDOCK:   -5.92 KCAL/MOL
REMARK 923 INTER-LIGAND FREE ENERGY PREDICTED BY IDOCK:   -6.07 KCAL/MOL
REMARK 924 INTRA-LIGAND FREE ENERGY PREDICTED BY IDOCK:    0.15 KCAL/MOL
REMARK 927      BINDING AFFINITY PREDICTED BY RF-SCORE:    0.00 PKD
ROOT
HETATM    1  C   UNL     1      -9.731  13.375  67.503  1.00  0.00    -0.224 C  
HETATM    2  O   UNL     1      -8.763  13.612  66.778  1.00  0.00    -0.187 OA 
HETATM    3  CA  UNL     1     -10.228  14.370  68.539  1.00  0.00    -0.243 C  
ENDROOT
BRANCH   3   4
HETATM    4  N   UNL     1     -10.908  13.673  69.644  1.00  0.00    -0.446 N  
HETATM    5  C   UNL     1     -12.470  12.179  70.735  1.00  0.00    -0.362 C  
HETATM    6  O   UNL     1     -12.220  12.321  68.356  1.00  0.00    -0.282 OA 
HETATM    7  H   UNL     1     -10.640  13.910  70.599  1.00  0.00     0.000 HD 
HETATM    8  C   UNL     1     -11.882  12.724  69.461  1.00  0.00    -0.316 C  
ENDBRANCH   3   4
BRANCH   3   9
HETATM    9  C   UNL     1     -11.072  15.498  67.901  1.00  0.00    -0.321 C  
HETATM   10  H   UNL     1     -12.575  16.594  68.485  1.00  0.00     0.000 HD 
HETATM   11  O   UNL     1     -12.056  15.902  68.878  1.00  0.00    -0.315 OA 
BRANCH   9  12
HETATM   12  C   UNL     1     -10.237  16.730  67.453  1.00  0.00    -0.288 C  
HETATM   13  H   UNL     1     -10.286  18.705  67.679  1.00  0.00     0.000 HD 
HETATM   14  O   UNL     1     -10.797  17.952  67.953  1.00  0.00    -0.365 OA 
BRANCH  12  15
HETATM   15  C   UNL     1     -10.087  16.811  65.919  1.00  0.00    -0.304 C  
HETATM   16  H   UNL     1     -10.176  18.224  64.562  1.00  0.00     0.000 HD 
HETATM   17  O   UNL     1     -10.269  18.173  65.506  1.00  0.00    -0.534 OA 
BRANCH  15  18
HETATM   18  C   UNL     1     -11.089  15.901  65.180  1.00  0.00    -0.311 C  
HETATM   19  O   UNL     1     -11.429  16.411  63.890  1.00  0.00    -1.569 OA 
HETATM   20  H   UNL     1     -12.046  15.851  63.434  1.00  0.00     0.000 HD 
ENDBRANCH  15  18
ENDBRANCH  12  15
ENDBRANCH   9  12
ENDBRANCH   3   9
TORSDOF 5
ENDMDL
MODEL       85
REMARK 921   NORMALIZED FREE ENERGY PREDICTED BY IDOCK:   -4.04 KCAL/MOL
REMARK 922        TOTAL FREE ENERGY PREDICTED BY IDOCK:   -5.91 KCAL/MOL
REMARK 923 INTER-LIGAND FREE ENERGY PREDICTED BY IDOCK:   -5.17 KCAL/MOL
REMARK 924 INTRA-LIGAND FREE ENERGY PREDICTED BY IDOCK:   -0.74 KCAL/MOL
REMARK 927      BINDING AFFINITY PREDICTED BY RF-SCORE:    0.00 PKD
ROOT
HETATM    1  C   UNL     1     -11.273  16.723  65.392  1.00  0.00     0.201 C  
HETATM    2  O   UNL     1     -11.386  16.722  64.165  1.00  0.00    -1.194 OA 
HETATM    3  CA  UNL     1     -10.055  17.302  66.092  1.00  0.00    -0.302 C  
ENDROOT
BRANCH   3   4
HETATM    4  N   UNL     1      -9.848  16.652  67.397  1.00  0.00    -0.249 N  
HETATM    5  C   UNL     1      -9.120  14.969  68.979  1.00  0.00    -0.205 C  
HETATM    6  O   UNL     1      -8.609  14.891  66.638  1.00  0.00    -0.244 OA 
HETATM    7  H   UNL     1     -10.232  17.105  68.226  1.00  0.00     0.000 HD 
HETATM    8  C   UNL     1      -9.167  15.471  67.561  1.00  0.00    -0.198 C  
ENDBRANCH   3   4
BRANCH   3   9
HETATM    9  C   UNL     1     -10.108  18.845  66.167  1.00  0.00    -0.393 C  
HETATM   10  H   UNL     1     -10.890  20.139  67.398  1.00  0.00     0.000 HD 
HETATM   11  O   UNL     1     -10.856  19.191  67.352  1.00  0.00    -0.483 OA 
BRANCH   9  12
HETATM   12  C   UNL     1      -8.708  19.521  66.211  1.00  0.00    -0.359 C  
HETATM   13  H   UNL     1      -6.819  19.023  65.841  1.00  0.00     0.000 HD 
HETATM   14  O   UNL     1      -7.675  18.610  65.814  1.00  0.00    -0.491 OA 
BRANCH  12  15
HETATM   15  C   UNL     1      -8.384  20.108  67.600  1.00  0.00    -0.298 C  
HETATM   16  H   UNL     1      -7.412  21.667  68.285  1.00  0.00     0.000 HD 
HETATM   17  O   UNL     1      -7.611  21.305  67.430  1.00  0.00    -0.410 OA 
BRANCH  15  18
HETATM   18  C   UNL     1      -7.618  19.114  68.496  1.00  0.00    -0.334 C  
HETATM   19  O   UNL     1      -6.228  19.058  68.173  1.00  0.00    -0.212 OA 
HETATM   20  H   UNL     1      -5.756  18.446  68.725  1.00  0.00     0.000 HD 
ENDBRANCH  15  18
ENDBRANCH  12  15
ENDBRANCH   9  12
ENDBRANCH   3   9
TORSDOF 5
ENDMDL
MODEL       86
REMARK 921   NORMALIZED FREE ENERGY PREDICTED BY IDOCK:   -4.03 KCAL/MOL
REMARK 922        TOTAL FREE ENERGY PREDICTED BY IDOCK:   -5.90 KCAL/MOL
REMARK 923 INTER-LIGAND FREE ENERGY PREDICTED BY IDOCK:   -5.91 KCAL/MOL
REMARK 924 INTRA-LIGAND FREE ENERGY PREDICTED BY IDOCK:    0.00 KCAL/MOL
REMARK 927      BINDING AFFINITY PREDICTED BY RF-SCORE:    0.00 PKD
ROOT
HETATM    1  C   UNL     1     -11.589  15.514  64.223  1.00  0.00    -0.194 C  
HETATM    2  O   UNL     1     -11.658  16.742  64.306  1.00  0.00    -1.027 OA 
HETATM    3  CA  UNL     1     -10.656  14.695  65.100  1.00  0.00    -0.421 C  
ENDROOT
BRANCH   3   4
HETATM    4  N   UNL     1     -10.283  13.439  64.429  1.00  0.00    -0.635 N  
HETATM    5  C   UNL     1     -10.571  11.399  63.157  1.00  0.00    -0.278 C  
HETATM    6  O   UNL     1     -12.326  12.991  63.517  1.00  0.00    -0.654 OA 
HETATM    7  H   UNL     1      -9.314  13.127  64.498  1.00  0.00     0.000 HD 
HETATM    8  C   UNL     1     -11.164  12.664  63.717  1.00  0.00    -0.463 C  
ENDBRANCH   3   4
BRANCH   3   9
HETATM    9  C   UNL     1     -11.227  14.496  66.523  1.00  0.00    -0.344 C  
HETATM   10  H   UNL     1     -12.988  14.094  67.259  1.00  0.00     0.000 HD 
HETATM   11  O   UNL     1     -12.637  14.217  66.384  1.00  0.00    -0.427 OA 
BRANCH   9  12
HETATM   12  C   UNL     1     -10.539  13.351  67.320  1.00  0.00    -0.255 C  
HETATM   13  H   UNL     1     -11.006  12.085  68.781  1.00  0.00     0.000 HD 
HETATM   14  O   UNL     1     -11.426  12.785  68.294  1.00  0.00    -0.269 OA 
BRANCH  12  15
HETATM   15  C   UNL     1      -9.236  13.813  68.004  1.00  0.00    -0.195 C  
HETATM   16  H   UNL     1      -8.365  15.531  68.375  1.00  0.00     0.000 HD 
HETATM   17  O   UNL     1      -9.167  15.246  67.954  1.00  0.00    -0.182 OA 
BRANCH  15  18
HETATM   18  C   UNL     1      -7.979  13.206  67.349  1.00  0.00    -0.171 C  
HETATM   19  O   UNL     1      -8.304  12.327  66.271  1.00  0.00    -0.394 OA 
HETATM   20  H   UNL     1      -7.530  11.953  65.868  1.00  0.00     0.000 HD 
ENDBRANCH  15  18
ENDBRANCH  12  15
ENDBRANCH   9  12
ENDBRANCH   3   9
TORSDOF 5
ENDMDL
MODEL       87
REMARK 921   NORMALIZED FREE ENERGY PREDICTED BY IDOCK:   -4.03 KCAL/MOL
REMARK 922        TOTAL FREE ENERGY PREDICTED BY IDOCK:   -5.90 KCAL/MOL
REMARK 923 INTER-LIGAND FREE ENERGY PREDICTED BY IDOCK:   -5.31 KCAL/MOL
REMARK 924 INTRA-LIGAND FREE ENERGY PREDICTED BY IDOCK:   -0.58 KCAL/MOL
REMARK 927      BINDING AFFINITY PREDICTED BY RF-SCORE:    0.00 PKD
ROOT
HETATM    1  C   UNL     1     -12.134  13.713  65.290  1.00  0.00    -0.406 C  
HETATM    2  O   UNL     1     -13.040  12.906  65.071  1.00  0.00    -0.794 OA 
HETATM    3  CA  UNL     1     -11.548  13.913  66.678  1.00  0.00    -0.374 C  
ENDROOT
BRANCH   3   4
HETATM    4  N   UNL     1     -10.997  15.272  66.818  1.00  0.00    -0.318 N  
HETATM    5  C   UNL     1     -10.645  17.465  67.782  1.00  0.00    -0.371 C  
HETATM    6  O   UNL     1     -11.966  15.759  68.826  1.00  0.00    -0.374 OA 
HETATM    7  H   UNL     1     -10.369  15.613  66.091  1.00  0.00     0.000 HD 
HETATM    8  C   UNL     1     -11.283  16.104  67.871  1.00  0.00    -0.245 C  
ENDBRANCH   3   4
BRANCH   3   9
HETATM    9  C   UNL     1     -10.547  12.794  67.050  1.00  0.00    -0.240 C  
HETATM   10  H   UNL     1      -9.417  12.413  68.593  1.00  0.00     0.000 HD 
HETATM   11  O   UNL     1     -10.032  13.100  68.365  1.00  0.00    -0.235 OA 
BRANCH   9  12
HETATM   12  C   UNL     1     -11.168  11.369  67.046  1.00  0.00    -0.283 C  
HETATM   13  H   UNL     1     -12.653  10.405  67.952  1.00  0.00     0.000 HD 
HETATM   14  O   UNL     1     -12.273  11.276  67.955  1.00  0.00    -0.621 OA 
BRANCH  12  15
HETATM   15  C   UNL     1     -10.130  10.275  67.369  1.00  0.00    -0.202 C  
HETATM   16  H   UNL     1      -9.516   8.613  66.527  1.00  0.00     0.000 HD 
HETATM   17  O   UNL     1     -10.156   9.287  66.329  1.00  0.00    -0.278 OA 
BRANCH  15  18
HETATM   18  C   UNL     1     -10.385   9.604  68.734  1.00  0.00    -0.213 C  
HETATM   19  O   UNL     1     -10.268  10.526  69.818  1.00  0.00    -0.359 OA 
HETATM   20  H   UNL     1     -10.426  10.113  70.659  1.00  0.00     0.000 HD 
ENDBRANCH  15  18
ENDBRANCH  12  15
ENDBRANCH   9  12
ENDBRANCH   3   9
TORSDOF 5
ENDMDL
MODEL       88
REMARK 921   NORMALIZED FREE ENERGY PREDICTED BY IDOCK:   -4.01 KCAL/MOL
REMARK 922        TOTAL FREE ENERGY PREDICTED BY IDOCK:   -5.88 KCAL/MOL
REMARK 923 INTER-LIGAND FREE ENERGY PREDICTED BY IDOCK:   -5.21 KCAL/MOL
REMARK 924 INTRA-LIGAND FREE ENERGY PREDICTED BY IDOCK:   -0.67 KCAL/MOL
REMARK 927      BINDING AFFINITY PREDICTED BY RF-SCORE:    0.00 PKD
ROOT
HETATM    1  C   UNL     1      -8.028  15.998  68.618  1.00  0.00    -0.174 C  
HETATM    2  O   UNL     1      -6.940  15.419  68.616  1.00  0.00    -0.106 OA 
HETATM    3  CA  UNL     1      -8.536  16.768  67.410  1.00  0.00    -0.193 C  
ENDROOT
BRANCH   3   4
HETATM    4  N   UNL     1      -9.461  17.835  67.826  1.00  0.00    -0.258 N  
HETATM    5  C   UNL     1     -10.178  19.939  68.789  1.00  0.00    -0.451 C  
HETATM    6  O   UNL     1      -7.877  19.310  68.551  1.00  0.00    -0.321 OA 
HETATM    7  H   UNL     1     -10.460  17.690  67.680  1.00  0.00     0.000 HD 
HETATM    8  C   UNL     1      -9.055  19.014  68.401  1.00  0.00    -0.347 C  
ENDBRANCH   3   4
BRANCH   3   9
HETATM    9  C   UNL     1      -9.116  15.829  66.326  1.00  0.00    -0.338 C  
HETATM   10  H   UNL     1      -9.296  13.898  66.128  1.00  0.00     0.000 HD 
HETATM   11  O   UNL     1      -8.940  14.474  66.794  1.00  0.00    -0.246 OA 
BRANCH   9  12
HETATM   12  C   UNL     1     -10.617  16.087  66.011  1.00  0.00    -0.316 C  
HETATM   13  H   UNL     1     -12.388  15.609  66.780  1.00  0.00     0.000 HD 
HETATM   14  O   UNL     1     -11.470  15.451  66.972  1.00  0.00    -0.246 OA 
BRANCH  12  15
HETATM   15  C   UNL     1     -11.004  15.635  64.588  1.00  0.00    -0.325 C  
HETATM   16  H   UNL     1     -11.986  16.408  63.076  1.00  0.00     0.000 HD 
HETATM   17  O   UNL     1     -11.748  16.685  63.953  1.00  0.00    -1.153 OA 
BRANCH  15  18
HETATM   18  C   UNL     1     -11.830  14.333  64.586  1.00  0.00    -0.448 C  
HETATM   19  O   UNL     1     -11.075  13.215  65.051  1.00  0.00    -0.289 OA 
HETATM   20  H   UNL     1     -11.583  12.413  65.050  1.00  0.00     0.000 HD 
ENDBRANCH  15  18
ENDBRANCH  12  15
ENDBRANCH   9  12
ENDBRANCH   3   9
TORSDOF 5
ENDMDL
MODEL       89
REMARK 921   NORMALIZED FREE ENERGY PREDICTED BY IDOCK:   -4.00 KCAL/MOL
REMARK 922        TOTAL FREE ENERGY PREDICTED BY IDOCK:   -5.86 KCAL/MOL
REMARK 923 INTER-LIGAND FREE ENERGY PREDICTED BY IDOCK:   -5.40 KCAL/MOL
REMARK 924 INTRA-LIGAND FREE ENERGY PREDICTED BY IDOCK:   -0.46 KCAL/MOL
REMARK 927      BINDING AFFINITY PREDICTED BY RF-SCORE:    0.00 PKD
ROOT
HETATM    1  C   UNL     1     -10.113   9.955  65.594  1.00  0.00    -0.237 C  
HETATM    2  O   UNL     1      -9.740  10.264  64.461  1.00  0.00    -0.299 OA 
HETATM    3  CA  UNL     1     -10.143  10.958  66.736  1.00  0.00    -0.216 C  
ENDROOT
BRANCH   3   4
HETATM    4  N   UNL     1      -9.996  10.273  68.032  1.00  0.00    -0.150 N  
HETATM    5  C   UNL     1      -8.961   9.610  70.119  1.00  0.00    -0.273 C  
HETATM    6  O   UNL     1      -8.024  11.248  68.640  1.00  0.00    -0.133 OA 
HETATM    7  H   UNL     1     -10.735   9.632  68.324  1.00  0.00     0.000 HD 
HETATM    8  C   UNL     1      -8.922  10.448  68.868  1.00  0.00    -0.169 C  
ENDBRANCH   3   4
BRANCH   3   9
HETATM    9  C   UNL     1     -11.378  11.886  66.659  1.00  0.00    -0.337 C  
HETATM   10  H   UNL     1     -12.889  12.270  67.830  1.00  0.00     0.000 HD 
HETATM   11  O   UNL     1     -12.131  11.700  67.877  1.00  0.00    -0.613 OA 
BRANCH   9  12
HETATM   12  C   UNL     1     -11.022  13.389  66.484  1.00  0.00    -0.290 C  
HETATM   13  H   UNL     1     -11.702  15.148  67.116  1.00  0.00     0.000 HD 
HETATM   14  O   UNL     1     -11.919  14.229  67.222  1.00  0.00    -0.401 OA 
BRANCH  12  15
HETATM   15  C   UNL     1     -11.002  13.819  65.002  1.00  0.00    -0.357 C  
HETATM   16  H   UNL     1     -11.200  15.501  64.014  1.00  0.00     0.000 HD 
HETATM   17  O   UNL     1     -11.213  15.236  64.926  1.00  0.00    -0.398 OA 
BRANCH  15  18
HETATM   18  C   UNL     1     -12.066  13.086  64.161  1.00  0.00    -0.427 C  
HETATM   19  O   UNL     1     -12.504  13.866  63.048  1.00  0.00    -1.099 OA 
HETATM   20  H   UNL     1     -13.160  13.414  62.530  1.00  0.00     0.000 HD 
ENDBRANCH  15  18
ENDBRANCH  12  15
ENDBRANCH   9  12
ENDBRANCH   3   9
TORSDOF 5
ENDMDL
MODEL       90
REMARK 921   NORMALIZED FREE ENERGY PREDICTED BY IDOCK:   -3.99 KCAL/MOL
REMARK 922        TOTAL FREE ENERGY PREDICTED BY IDOCK:   -5.84 KCAL/MOL
REMARK 923 INTER-LIGAND FREE ENERGY PREDICTED BY IDOCK:   -5.17 KCAL/MOL
REMARK 924 INTRA-LIGAND FREE ENERGY PREDICTED BY IDOCK:   -0.67 KCAL/MOL
REMARK 927      BINDING AFFINITY PREDICTED BY RF-SCORE:    0.00 PKD
ROOT
HETATM    1  C   UNL     1     -11.986  12.572  63.484  1.00  0.00    -0.543 C  
HETATM    2  O   UNL     1     -13.112  12.088  63.352  1.00  0.00    -0.747 OA 
HETATM    3  CA  UNL     1     -11.169  12.385  64.752  1.00  0.00    -0.310 C  
ENDROOT
BRANCH   3   4
HETATM    4  N   UNL     1     -10.228  13.503  64.933  1.00  0.00    -0.537 N  
HETATM    5  C   UNL     1      -9.367  15.602  65.781  1.00  0.00    -0.303 C  
HETATM    6  O   UNL     1     -11.408  14.604  66.546  1.00  0.00    -0.341 OA 
HETATM    7  H   UNL     1      -9.367  13.499  64.385  1.00  0.00     0.000 HD 
HETATM    8  C   UNL     1     -10.443  14.549  65.795  1.00  0.00    -0.323 C  
ENDBRANCH   3   4
BRANCH   3   9
HETATM    9  C   UNL     1     -10.500  10.992  64.810  1.00  0.00    -0.316 C  
HETATM   10  H   UNL     1      -9.148  10.067  63.753  1.00  0.00     0.000 HD 
HETATM   11  O   UNL     1      -9.559  10.923  63.717  1.00  0.00    -0.239 OA 
BRANCH   9  12
HETATM   12  C   UNL     1      -9.772  10.701  66.153  1.00  0.00    -0.205 C  
HETATM   13  H   UNL     1      -8.412   9.427  66.846  1.00  0.00     0.000 HD 
HETATM   14  O   UNL     1      -8.858   9.604  66.026  1.00  0.00    -0.143 OA 
BRANCH  12  15
HETATM   15  C   UNL     1     -10.757  10.431  67.309  1.00  0.00    -0.273 C  
HETATM   16  H   UNL     1     -11.355  11.391  68.912  1.00  0.00     0.000 HD 
HETATM   17  O   UNL     1     -10.748  11.557  68.200  1.00  0.00    -0.188 OA 
BRANCH  15  18
HETATM   18  C   UNL     1     -10.414   9.145  68.088  1.00  0.00    -0.211 C  
HETATM   19  O   UNL     1     -10.851   7.969  67.406  1.00  0.00    -0.491 OA 
HETATM   20  H   UNL     1     -10.640   7.177  67.885  1.00  0.00     0.000 HD 
ENDBRANCH  15  18
ENDBRANCH  12  15
ENDBRANCH   9  12
ENDBRANCH   3   9
TORSDOF 5
ENDMDL
MODEL       91
REMARK 921   NORMALIZED FREE ENERGY PREDICTED BY IDOCK:   -3.96 KCAL/MOL
REMARK 922        TOTAL FREE ENERGY PREDICTED BY IDOCK:   -5.81 KCAL/MOL
REMARK 923 INTER-LIGAND FREE ENERGY PREDICTED BY IDOCK:   -5.47 KCAL/MOL
REMARK 924 INTRA-LIGAND FREE ENERGY PREDICTED BY IDOCK:   -0.35 KCAL/MOL
REMARK 927      BINDING AFFINITY PREDICTED BY RF-SCORE:    0.00 PKD
ROOT
HETATM    1  C   UNL     1     -11.324  10.951  68.839  1.00  0.00    -0.288 C  
HETATM    2  O   UNL     1     -12.511  10.775  69.120  1.00  0.00    -0.377 OA 
HETATM    3  CA  UNL     1     -10.881  11.450  67.473  1.00  0.00    -0.244 C  
ENDROOT
BRANCH   3   4
HETATM    4  N   UNL     1      -9.516  10.989  67.170  1.00  0.00    -0.164 N  
HETATM    5  C   UNL     1      -7.749   9.798  66.018  1.00  0.00    -0.104 C  
HETATM    6  O   UNL     1     -10.027   9.831  65.271  1.00  0.00    -0.318 OA 
HETATM    7  H   UNL     1      -8.759  11.287  67.786  1.00  0.00     0.000 HD 
HETATM    8  C   UNL     1      -9.203  10.181  66.106  1.00  0.00    -0.159 C  
ENDBRANCH   3   4
BRANCH   3   9
HETATM    9  C   UNL     1     -11.070  12.977  67.325  1.00  0.00    -0.273 C  
HETATM   10  H   UNL     1     -10.528  14.540  68.357  1.00  0.00     0.000 HD 
HETATM   11  O   UNL     1     -10.411  13.601  68.448  1.00  0.00    -0.235 OA 
BRANCH   9  12
HETATM   12  C   UNL     1     -10.506  13.553  65.996  1.00  0.00    -0.299 C  
HETATM   13  H   UNL     1      -9.007  14.724  65.416  1.00  0.00     0.000 HD 
HETATM   14  O   UNL     1      -9.352  14.372  66.228  1.00  0.00    -0.283 OA 
BRANCH  12  15
HETATM   15  C   UNL     1     -11.564  14.351  65.206  1.00  0.00    -0.353 C  
HETATM   16  H   UNL     1     -12.459  14.180  63.469  1.00  0.00     0.000 HD 
HETATM   17  O   UNL     1     -11.807  13.689  63.955  1.00  0.00    -0.420 OA 
BRANCH  15  18
HETATM   18  C   UNL     1     -11.133  15.810  64.950  1.00  0.00    -0.399 C  
HETATM   19  O   UNL     1     -11.739  16.353  63.777  1.00  0.00    -1.553 OA 
HETATM   20  H   UNL     1     -11.475  17.251  63.620  1.00  0.00     0.000 HD 
ENDBRANCH  15  18
ENDBRANCH  12  15
ENDBRANCH   9  12
ENDBRANCH   3   9
TORSDOF 5
ENDMDL
MODEL       92
REMARK 921   NORMALIZED FREE ENERGY PREDICTED BY IDOCK:   -3.96 KCAL/MOL
REMARK 922        TOTAL FREE ENERGY PREDICTED BY IDOCK:   -5.81 KCAL/MOL
REMARK 923 INTER-LIGAND FREE ENERGY PREDICTED BY IDOCK:   -5.30 KCAL/MOL
REMARK 924 INTRA-LIGAND FREE ENERGY PREDICTED BY IDOCK:   -0.51 KCAL/MOL
REMARK 927      BINDING AFFINITY PREDICTED BY RF-SCORE:    0.00 PKD
ROOT
HETATM    1  C   UNL     1     -10.272  17.051  65.595  1.00  0.00    -0.176 C  
HETATM    2  O   UNL     1     -11.202  17.127  64.790  1.00  0.00    -0.860 OA 
HETATM    3  CA  UNL     1     -10.458  17.337  67.076  1.00  0.00    -0.287 C  
ENDROOT
BRANCH   3   4
HETATM    4  N   UNL     1      -9.196  17.796  67.679  1.00  0.00    -0.248 N  
HETATM    5  C   UNL     1      -7.658  19.282  68.815  1.00  0.00    -0.393 C  
HETATM    6  O   UNL     1      -9.983  19.773  68.504  1.00  0.00    -0.409 OA 
HETATM    7  H   UNL     1      -8.383  17.182  67.618  1.00  0.00     0.000 HD 
HETATM    8  C   UNL     1      -9.051  19.002  68.317  1.00  0.00    -0.327 C  
ENDBRANCH   3   4
BRANCH   3   9
HETATM    9  C   UNL     1     -11.106  16.145  67.818  1.00  0.00    -0.254 C  
HETATM   10  H   UNL     1     -10.976  14.204  67.686  1.00  0.00     0.000 HD 
HETATM   11  O   UNL     1     -10.578  14.936  67.230  1.00  0.00    -0.264 OA 
BRANCH   9  12
HETATM   12  C   UNL     1     -10.843  16.143  69.351  1.00  0.00    -0.320 C  
HETATM   13  H   UNL     1      -9.486  15.422  70.613  1.00  0.00     0.000 HD 
HETATM   14  O   UNL     1      -9.647  15.423  69.677  1.00  0.00    -0.262 OA 
BRANCH  12  15
HETATM   15  C   UNL     1     -12.033  15.571  70.150  1.00  0.00    -0.366 C  
HETATM   16  H   UNL     1     -12.772  15.807  71.951  1.00  0.00     0.000 HD 
HETATM   17  O   UNL     1     -12.040  16.159  71.459  1.00  0.00    -0.450 OA 
BRANCH  15  18
HETATM   18  C   UNL     1     -11.980  14.034  70.267  1.00  0.00    -0.339 C  
HETATM   19  O   UNL     1     -12.868  13.539  71.270  1.00  0.00    -0.346 OA 
HETATM   20  H   UNL     1     -12.835  12.593  71.342  1.00  0.00     0.000 HD 
ENDBRANCH  15  18
ENDBRANCH  12  15
ENDBRANCH   9  12
ENDBRANCH   3   9
TORSDOF 5
ENDMDL
MODEL       93
REMARK 921   NORMALIZED FREE ENERGY PREDICTED BY IDOCK:   -3.94 KCAL/MOL
REMARK 922        TOTAL FREE ENERGY PREDICTED BY IDOCK:   -5.79 KCAL/MOL
REMARK 923 INTER-LIGAND FREE ENERGY PREDICTED BY IDOCK:   -5.07 KCAL/MOL
REMARK 924 INTRA-LIGAND FREE ENERGY PREDICTED BY IDOCK:   -0.72 KCAL/MOL
REMARK 927      BINDING AFFINITY PREDICTED BY RF-SCORE:    0.00 PKD
ROOT
HETATM    1  C   UNL     1     -10.923  15.393  69.739  1.00  0.00    -0.287 C  
HETATM    2  O   UNL     1     -11.739  16.074  70.365  1.00  0.00    -0.348 OA 
HETATM    3  CA  UNL     1     -10.254  15.897  68.471  1.00  0.00    -0.226 C  
ENDROOT
BRANCH   3   4
HETATM    4  N   UNL     1      -9.865  14.769  67.607  1.00  0.00    -0.217 N  
HETATM    5  C   UNL     1     -10.088  13.060  65.906  1.00  0.00    -0.291 C  
HETATM    6  O   UNL     1     -11.771  14.707  66.353  1.00  0.00    -0.369 OA 
HETATM    7  H   UNL     1      -8.939  14.360  67.739  1.00  0.00     0.000 HD 
HETATM    8  C   UNL     1     -10.676  14.239  66.635  1.00  0.00    -0.290 C  
ENDBRANCH   3   4
BRANCH   3   9
HETATM    9  C   UNL     1      -9.096  16.876  68.776  1.00  0.00    -0.254 C  
HETATM   10  H   UNL     1      -7.153  16.798  68.641  1.00  0.00     0.000 HD 
HETATM   11  O   UNL     1      -7.864  16.196  68.453  1.00  0.00    -0.148 OA 
BRANCH   9  12
HETATM   12  C   UNL     1      -9.183  18.214  67.989  1.00  0.00    -0.279 C  
HETATM   13  H   UNL     1      -9.526  20.134  68.379  1.00  0.00     0.000 HD 
HETATM   14  O   UNL     1      -9.473  19.316  68.860  1.00  0.00    -0.384 OA 
BRANCH  12  15
HETATM   15  C   UNL     1     -10.221  18.159  66.849  1.00  0.00    -0.372 C  
HETATM   16  H   UNL     1     -10.281  17.445  65.024  1.00  0.00     0.000 HD 
HETATM   17  O   UNL     1      -9.642  17.480  65.725  1.00  0.00    -0.523 OA 
BRANCH  15  18
HETATM   18  C   UNL     1     -10.703  19.560  66.422  1.00  0.00    -0.427 C  
HETATM   19  O   UNL     1      -9.621  20.407  66.035  1.00  0.00    -0.653 OA 
HETATM   20  H   UNL     1      -9.917  21.270  65.772  1.00  0.00     0.000 HD 
ENDBRANCH  15  18
ENDBRANCH  12  15
ENDBRANCH   9  12
ENDBRANCH   3   9
TORSDOF 5
ENDMDL
MODEL       94
REMARK 921   NORMALIZED FREE ENERGY PREDICTED BY IDOCK:   -3.93 KCAL/MOL
REMARK 922        TOTAL FREE ENERGY PREDICTED BY IDOCK:   -5.78 KCAL/MOL
REMARK 923 INTER-LIGAND FREE ENERGY PREDICTED BY IDOCK:   -5.28 KCAL/MOL
REMARK 924 INTRA-LIGAND FREE ENERGY PREDICTED BY IDOCK:   -0.50 KCAL/MOL
REMARK 927      BINDING AFFINITY PREDICTED BY RF-SCORE:    0.00 PKD
ROOT
HETATM    1  C   UNL     1     -11.275  11.537  67.416  1.00  0.00    -0.304 C  
HETATM    2  O   UNL     1     -12.204  11.348  68.202  1.00  0.00    -0.602 OA 
HETATM    3  CA  UNL     1     -11.470  12.254  66.090  1.00  0.00    -0.374 C  
ENDROOT
BRANCH   3   4
HETATM    4  N   UNL     1     -10.463  11.815  65.109  1.00  0.00    -0.271 N  
HETATM    5  C   UNL     1      -9.534  11.232  62.950  1.00  0.00    -0.385 C  
HETATM    6  O   UNL     1     -11.736  12.132  63.242  1.00  0.00    -0.419 OA 
HETATM    7  H   UNL     1      -9.544  11.539  65.454  1.00  0.00     0.000 HD 
HETATM    8  C   UNL     1     -10.692  11.755  63.757  1.00  0.00    -0.419 C  
ENDBRANCH   3   4
BRANCH   3   9
HETATM    9  C   UNL     1     -11.540  13.788  66.266  1.00  0.00    -0.350 C  
HETATM   10  H   UNL     1     -12.931  15.138  66.056  1.00  0.00     0.000 HD 
HETATM   11  O   UNL     1     -12.889  14.195  65.948  1.00  0.00    -0.471 OA 
BRANCH   9  12
HETATM   12  C   UNL     1     -11.166  14.274  67.695  1.00  0.00    -0.304 C  
HETATM   13  H   UNL     1     -12.055  15.187  69.222  1.00  0.00     0.000 HD 
HETATM   14  O   UNL     1     -12.283  14.891  68.348  1.00  0.00    -0.182 OA 
BRANCH  12  15
HETATM   15  C   UNL     1      -9.962  15.239  67.691  1.00  0.00    -0.222 C  
HETATM   16  H   UNL     1      -8.295  15.417  66.674  1.00  0.00     0.000 HD 
HETATM   17  O   UNL     1      -9.036  14.823  66.677  1.00  0.00    -0.256 OA 
BRANCH  15  18
HETATM   18  C   UNL     1      -9.250  15.299  69.057  1.00  0.00    -0.223 C  
HETATM   19  O   UNL     1     -10.136  15.013  70.140  1.00  0.00    -0.494 OA 
HETATM   20  H   UNL     1      -9.697  15.049  70.982  1.00  0.00     0.000 HD 
ENDBRANCH  15  18
ENDBRANCH  12  15
ENDBRANCH   9  12
ENDBRANCH   3   9
TORSDOF 5
ENDMDL
MODEL       95
REMARK 921   NORMALIZED FREE ENERGY PREDICTED BY IDOCK:   -3.93 KCAL/MOL
REMARK 922        TOTAL FREE ENERGY PREDICTED BY IDOCK:   -5.77 KCAL/MOL
REMARK 923 INTER-LIGAND FREE ENERGY PREDICTED BY IDOCK:   -5.28 KCAL/MOL
REMARK 924 INTRA-LIGAND FREE ENERGY PREDICTED BY IDOCK:   -0.49 KCAL/MOL
REMARK 927      BINDING AFFINITY PREDICTED BY RF-SCORE:    0.00 PKD
ROOT
HETATM    1  C   UNL     1     -11.846  11.812  70.625  1.00  0.00    -0.085 C  
HETATM    2  O   UNL     1     -13.011  11.591  70.960  1.00  0.00    -0.290 OA 
HETATM    3  CA  UNL     1     -11.356  11.586  69.204  1.00  0.00    -0.286 C  
ENDROOT
BRANCH   3   4
HETATM    4  N   UNL     1      -9.911  11.301  69.193  1.00  0.00    -0.410 N  
HETATM    5  C   UNL     1      -7.867  10.035  69.487  1.00  0.00    -0.155 C  
HETATM    6  O   UNL     1     -10.055   9.103  69.791  1.00  0.00    -0.184 OA 
HETATM    7  H   UNL     1      -9.275  12.052  68.922  1.00  0.00     0.000 HD 
HETATM    8  C   UNL     1      -9.372  10.083  69.525  1.00  0.00    -0.229 C  
ENDBRANCH   3   4
BRANCH   3   9
HETATM    9  C   UNL     1     -11.771  12.736  68.258  1.00  0.00    -0.344 C  
HETATM   10  H   UNL     1     -11.262  14.608  68.057  1.00  0.00     0.000 HD 
HETATM   11  O   UNL     1     -11.007  13.901  68.638  1.00  0.00    -0.244 OA 
BRANCH   9  12
HETATM   12  C   UNL     1     -11.543  12.424  66.752  1.00  0.00    -0.379 C  
HETATM   13  H   UNL     1     -10.018  12.344  65.478  1.00  0.00     0.000 HD 
HETATM   14  O   UNL     1     -10.158  12.535  66.399  1.00  0.00    -0.233 OA 
BRANCH  12  15
HETATM   15  C   UNL     1     -12.393  13.323  65.831  1.00  0.00    -0.418 C  
HETATM   16  H   UNL     1     -13.530  13.060  64.255  1.00  0.00     0.000 HD 
HETATM   17  O   UNL     1     -13.007  12.507  64.822  1.00  0.00    -0.827 OA 
BRANCH  15  18
HETATM   18  C   UNL     1     -11.562  14.439  65.166  1.00  0.00    -0.361 C  
HETATM   19  O   UNL     1     -11.916  14.632  63.796  1.00  0.00    -0.829 OA 
HETATM   20  H   UNL     1     -11.405  15.319  63.387  1.00  0.00     0.000 HD 
ENDBRANCH  15  18
ENDBRANCH  12  15
ENDBRANCH   9  12
ENDBRANCH   3   9
TORSDOF 5
ENDMDL
MODEL       96
REMARK 921   NORMALIZED FREE ENERGY PREDICTED BY IDOCK:   -3.91 KCAL/MOL
REMARK 922        TOTAL FREE ENERGY PREDICTED BY IDOCK:   -5.74 KCAL/MOL
REMARK 923 INTER-LIGAND FREE ENERGY PREDICTED BY IDOCK:   -5.69 KCAL/MOL
REMARK 924 INTRA-LIGAND FREE ENERGY PREDICTED BY IDOCK:   -0.05 KCAL/MOL
REMARK 927      BINDING AFFINITY PREDICTED BY RF-SCORE:    0.00 PKD
ROOT
HETATM    1  C   UNL     1     -10.256  13.871  65.017  1.00  0.00    -0.358 C  
HETATM    2  O   UNL     1     -10.358  13.153  64.021  1.00  0.00    -0.396 OA 
HETATM    3  CA  UNL     1     -11.307  14.908  65.378  1.00  0.00    -0.346 C  
ENDROOT
BRANCH   3   4
HETATM    4  N   UNL     1     -10.708  16.005  66.157  1.00  0.00    -0.283 N  
HETATM    5  C   UNL     1      -9.919  18.241  66.651  1.00  0.00    -0.370 C  
HETATM    6  O   UNL     1     -11.083  17.665  64.636  1.00  0.00    -0.906 OA 
HETATM    7  H   UNL     1     -10.344  15.792  67.086  1.00  0.00     0.000 HD 
HETATM    8  C   UNL     1     -10.611  17.297  65.704  1.00  0.00    -0.166 C  
ENDBRANCH   3   4
BRANCH   3   9
HETATM    9  C   UNL     1     -12.544  14.270  66.051  1.00  0.00    -0.309 C  
HETATM   10  H   UNL     1     -13.783  12.839  65.584  1.00  0.00     0.000 HD 
HETATM   11  O   UNL     1     -13.023  13.231  65.170  1.00  0.00    -0.705 OA 
BRANCH   9  12
HETATM   12  C   UNL     1     -12.255  13.675  67.459  1.00  0.00    -0.222 C  
HETATM   13  H   UNL     1     -11.554  14.305  69.210  1.00  0.00     0.000 HD 
HETATM   14  O   UNL     1     -11.730  14.669  68.349  1.00  0.00    -0.304 OA 
BRANCH  12  15
HETATM   15  C   UNL     1     -11.299  12.466  67.400  1.00  0.00    -0.321 C  
HETATM   16  H   UNL     1     -11.462  10.522  67.606  1.00  0.00     0.000 HD 
HETATM   17  O   UNL     1     -12.051  11.267  67.642  1.00  0.00    -0.600 OA 
BRANCH  15  18
HETATM   18  C   UNL     1     -10.147  12.575  68.420  1.00  0.00    -0.216 C  
HETATM   19  O   UNL     1      -9.235  13.623  68.091  1.00  0.00    -0.193 OA 
HETATM   20  H   UNL     1      -8.525  13.691  68.718  1.00  0.00     0.000 HD 
ENDBRANCH  15  18
ENDBRANCH  12  15
ENDBRANCH   9  12
ENDBRANCH   3   9
TORSDOF 5
ENDMDL
MODEL       97
REMARK 921   NORMALIZED FREE ENERGY PREDICTED BY IDOCK:   -3.91 KCAL/MOL
REMARK 922        TOTAL FREE ENERGY PREDICTED BY IDOCK:   -5.74 KCAL/MOL
REMARK 923 INTER-LIGAND FREE ENERGY PREDICTED BY IDOCK:   -5.31 KCAL/MOL
REMARK 924 INTRA-LIGAND FREE ENERGY PREDICTED BY IDOCK:   -0.43 KCAL/MOL
REMARK 927      BINDING AFFINITY PREDICTED BY RF-SCORE:    0.00 PKD
ROOT
HETATM    1  C   UNL     1     -10.674  16.774  64.831  1.00  0.00    -0.018 C  
HETATM    2  O   UNL     1     -11.637  16.629  64.076  1.00  0.00    -1.197 OA 
HETATM    3  CA  UNL     1     -10.635  16.155  66.219  1.00  0.00    -0.274 C  
ENDROOT
BRANCH   3   4
HETATM    4  N   UNL     1      -9.767  16.940  67.113  1.00  0.00    -0.247 N  
HETATM    5  C   UNL     1      -8.986  18.853  68.377  1.00  0.00    -0.377 C  
HETATM    6  O   UNL     1     -11.064  18.817  67.183  1.00  0.00    -0.284 OA 
HETATM    7  H   UNL     1      -8.918  16.500  67.467  1.00  0.00     0.000 HD 
HETATM    8  C   UNL     1     -10.036  18.231  67.496  1.00  0.00    -0.350 C  
ENDBRANCH   3   4
BRANCH   3   9
HETATM    9  C   UNL     1     -10.282  14.650  66.173  1.00  0.00    -0.301 C  
HETATM   10  H   UNL     1      -8.654  13.608  66.427  1.00  0.00     0.000 HD 
HETATM   11  O   UNL     1      -8.871  14.532  66.456  1.00  0.00    -0.221 OA 
BRANCH   9  12
HETATM   12  C   UNL     1     -11.095  13.784  67.176  1.00  0.00    -0.302 C  
HETATM   13  H   UNL     1     -10.781  12.829  68.891  1.00  0.00     0.000 HD 
HETATM   14  O   UNL     1     -10.284  13.359  68.278  1.00  0.00    -0.238 OA 
BRANCH  12  15
HETATM   15  C   UNL     1     -11.745  12.559  66.500  1.00  0.00    -0.391 C  
HETATM   16  H   UNL     1     -12.514  10.856  67.096  1.00  0.00     0.000 HD 
HETATM   17  O   UNL     1     -12.113  11.610  67.512  1.00  0.00    -0.611 OA 
BRANCH  15  18
HETATM   18  C   UNL     1     -10.812  11.889  65.471  1.00  0.00    -0.295 C  
HETATM   19  O   UNL     1      -9.591  11.442  66.061  1.00  0.00    -0.207 OA 
HETATM   20  H   UNL     1      -9.016  11.030  65.427  1.00  0.00     0.000 HD 
ENDBRANCH  15  18
ENDBRANCH  12  15
ENDBRANCH   9  12
ENDBRANCH   3   9
TORSDOF 5
ENDMDL
MODEL       98
REMARK 921   NORMALIZED FREE ENERGY PREDICTED BY IDOCK:   -3.89 KCAL/MOL
REMARK 922        TOTAL FREE ENERGY PREDICTED BY IDOCK:   -5.72 KCAL/MOL
REMARK 923 INTER-LIGAND FREE ENERGY PREDICTED BY IDOCK:   -5.42 KCAL/MOL
REMARK 924 INTRA-LIGAND FREE ENERGY PREDICTED BY IDOCK:   -0.30 KCAL/MOL
REMARK 927      BINDING AFFINITY PREDICTED BY RF-SCORE:    0.00 PKD
ROOT
HETATM    1  C   UNL     1      -9.908  15.537  66.746  1.00  0.00    -0.241 C  
HETATM    2  O   UNL     1     -10.569  16.390  67.340  1.00  0.00    -0.314 OA 
HETATM    3  CA  UNL     1      -9.959  14.065  67.124  1.00  0.00    -0.252 C  
ENDROOT
BRANCH   3   4
HETATM    4  N   UNL     1      -8.703  13.391  66.755  1.00  0.00    -0.417 N  
HETATM    5  C   UNL     1      -6.429  12.590  66.990  1.00  0.00     0.070 C  
HETATM    6  O   UNL     1      -7.639  13.672  68.755  1.00  0.00    -0.125 OA 
HETATM    7  H   UNL     1      -8.631  12.983  65.823  1.00  0.00     0.000 HD 
HETATM    8  C   UNL     1      -7.623  13.280  67.595  1.00  0.00    -0.170 C  
ENDBRANCH   3   4
BRANCH   3   9
HETATM    9  C   UNL     1     -11.225  13.369  66.571  1.00  0.00    -0.307 C  
HETATM   10  H   UNL     1     -12.912  12.766  67.339  1.00  0.00     0.000 HD 
HETATM   11  O   UNL     1     -12.135  13.194  67.679  1.00  0.00    -0.331 OA 
BRANCH   9  12
HETATM   12  C   UNL     1     -11.928  14.158  65.431  1.00  0.00    -0.381 C  
HETATM   13  H   UNL     1     -13.784  14.570  64.851  1.00  0.00     0.000 HD 
HETATM   14  O   UNL     1     -13.355  14.088  65.548  1.00  0.00    -0.673 OA 
BRANCH  12  15
HETATM   15  C   UNL     1     -11.492  13.678  64.031  1.00  0.00    -0.271 C  
HETATM   16  H   UNL     1     -12.382  13.308  62.322  1.00  0.00     0.000 HD 
HETATM   17  O   UNL     1     -12.649  13.603  63.184  1.00  0.00    -0.792 OA 
BRANCH  15  18
HETATM   18  C   UNL     1     -10.784  12.308  64.071  1.00  0.00    -0.396 C  
HETATM   19  O   UNL     1     -11.277  11.418  63.069  1.00  0.00    -0.821 OA 
HETATM   20  H   UNL     1     -10.841  10.574  63.093  1.00  0.00     0.000 HD 
ENDBRANCH  15  18
ENDBRANCH  12  15
ENDBRANCH   9  12
ENDBRANCH   3   9
TORSDOF 5
ENDMDL
MODEL       99
REMARK 921   NORMALIZED FREE ENERGY PREDICTED BY IDOCK:   -3.89 KCAL/MOL
REMARK 922        TOTAL FREE ENERGY PREDICTED BY IDOCK:   -5.71 KCAL/MOL
REMARK 923 INTER-LIGAND FREE ENERGY PREDICTED BY IDOCK:   -5.08 KCAL/MOL
REMARK 924 INTRA-LIGAND FREE ENERGY PREDICTED BY IDOCK:   -0.63 KCAL/MOL
REMARK 927      BINDING AFFINITY PREDICTED BY RF-SCORE:    0.00 PKD
ROOT
HETATM    1  C   UNL     1     -11.642  15.681  68.581  1.00  0.00    -0.382 C  
HETATM    2  O   UNL     1     -12.089  15.210  69.629  1.00  0.00    -0.314 OA 
HETATM    3  CA  UNL     1     -10.614  14.945  67.737  1.00  0.00    -0.262 C  
ENDROOT
BRANCH   3   4
HETATM    4  N   UNL     1      -9.803  15.898  66.960  1.00  0.00    -0.228 N  
HETATM    5  C   UNL     1      -7.813  16.994  66.122  1.00  0.00    -0.295 C  
HETATM    6  O   UNL     1      -7.760  15.059  67.537  1.00  0.00    -0.152 OA 
HETATM    7  H   UNL     1     -10.289  16.595  66.396  1.00  0.00     0.000 HD 
HETATM    8  C   UNL     1      -8.431  15.900  66.952  1.00  0.00    -0.240 C  
ENDBRANCH   3   4
BRANCH   3   9
HETATM    9  C   UNL     1     -11.259  13.832  66.879  1.00  0.00    -0.313 C  
HETATM   10  H   UNL     1     -12.922  13.653  65.876  1.00  0.00     0.000 HD 
HETATM   11  O   UNL     1     -12.525  14.338  66.402  1.00  0.00    -0.441 OA 
BRANCH   9  12
HETATM   12  C   UNL     1     -10.385  13.381  65.675  1.00  0.00    -0.290 C  
HETATM   13  H   UNL     1      -9.945  14.031  63.848  1.00  0.00     0.000 HD 
HETATM   14  O   UNL     1     -10.479  14.306  64.584  1.00  0.00    -0.425 OA 
BRANCH  12  15
HETATM   15  C   UNL     1     -10.740  11.960  65.191  1.00  0.00    -0.291 C  
HETATM   16  H   UNL     1      -9.972  10.166  65.384  1.00  0.00     0.000 HD 
HETATM   17  O   UNL     1      -9.753  11.041  65.681  1.00  0.00    -0.209 OA 
BRANCH  15  18
HETATM   18  C   UNL     1     -10.825  11.865  63.654  1.00  0.00    -0.444 C  
HETATM   19  O   UNL     1     -12.171  11.932  63.183  1.00  0.00    -0.792 OA 
HETATM   20  H   UNL     1     -12.224  11.873  62.237  1.00  0.00     0.000 HD 
ENDBRANCH  15  18
ENDBRANCH  12  15
ENDBRANCH   9  12
ENDBRANCH   3   9
TORSDOF 5
ENDMDL
MODEL      100
REMARK 921   NORMALIZED FREE ENERGY PREDICTED BY IDOCK:   -3.88 KCAL/MOL
REMARK 922        TOTAL FREE ENERGY PREDICTED BY IDOCK:   -5.70 KCAL/MOL
REMARK 923 INTER-LIGAND FREE ENERGY PREDICTED BY IDOCK:   -4.45 KCAL/MOL
REMARK 924 INTRA-LIGAND FREE ENERGY PREDICTED BY IDOCK:   -1.25 KCAL/MOL
REMARK 927      BINDING AFFINITY PREDICTED BY RF-SCORE:    0.00 PKD
ROOT
HETATM    1  C   UNL     1     -13.878   8.841  71.700  1.00  0.00    -0.397 C  
HETATM    2  O   UNL     1     -14.386   8.933  72.819  1.00  0.00    -0.600 OA 
HETATM    3  CA  UNL     1     -12.373   8.865  71.490  1.00  0.00    -0.324 C  
ENDROOT
BRANCH   3   4
HETATM    4  N   UNL     1     -12.045   9.369  70.146  1.00  0.00    -0.445 N  
HETATM    5  C   UNL     1     -11.757  10.974  68.355  1.00  0.00    -0.329 C  
HETATM    6  O   UNL     1     -12.336  11.586  70.600  1.00  0.00    -0.361 OA 
HETATM    7  H   UNL     1     -11.769   8.693  69.432  1.00  0.00     0.000 HD 
HETATM    8  C   UNL     1     -12.088  10.696  69.797  1.00  0.00    -0.272 C  
ENDBRANCH   3   4
BRANCH   3   9
HETATM    9  C   UNL     1     -11.721   7.503  71.821  1.00  0.00    -0.284 C  
HETATM   10  H   UNL     1     -11.681   5.749  70.968  1.00  0.00     0.000 HD 
HETATM   11  O   UNL     1     -12.082   6.586  70.764  1.00  0.00    -0.362 OA 
BRANCH   9  12
HETATM   12  C   UNL     1     -10.173   7.565  71.957  1.00  0.00    -0.196 C  
HETATM   13  H   UNL     1      -8.736   8.933  71.830  1.00  0.00     0.000 HD 
HETATM   14  O   UNL     1      -9.682   8.895  71.746  1.00  0.00    -0.288 OA 
BRANCH  12  15
HETATM   15  C   UNL     1      -9.459   6.584  71.003  1.00  0.00    -0.164 C  
HETATM   16  H   UNL     1      -8.029   5.252  71.155  1.00  0.00     0.000 HD 
HETATM   17  O   UNL     1      -8.468   5.855  71.742  1.00  0.00    -0.128 OA 
BRANCH  15  18
HETATM   18  C   UNL     1      -8.799   7.301  69.808  1.00  0.00    -0.142 C  
HETATM   19  O   UNL     1      -9.763   7.890  68.934  1.00  0.00    -0.154 OA 
HETATM   20  H   UNL     1      -9.356   8.331  68.198  1.00  0.00     0.000 HD 
ENDBRANCH  15  18
ENDBRANCH  12  15
ENDBRANCH   9  12
ENDBRANCH   3   9
TORSDOF 5
ENDMDL
MODEL      101
REMARK 921   NORMALIZED FREE ENERGY PREDICTED BY IDOCK:   -3.85 KCAL/MOL
REMARK 922        TOTAL FREE ENERGY PREDICTED BY IDOCK:   -5.67 KCAL/MOL
REMARK 923 INTER-LIGAND FREE ENERGY PREDICTED BY IDOCK:   -4.84 KCAL/MOL
REMARK 924 INTRA-LIGAND FREE ENERGY PREDICTED BY IDOCK:   -0.83 KCAL/MOL
REMARK 927      BINDING AFFINITY PREDICTED BY RF-SCORE:    0.00 PKD
ROOT
HETATM    1  C   UNL     1     -12.426  13.943  66.228  1.00  0.00    -0.409 C  
HETATM    2  O   UNL     1     -13.190  14.105  65.274  1.00  0.00    -0.760 OA 
HETATM    3  CA  UNL     1     -11.061  14.608  66.293  1.00  0.00    -0.336 C  
ENDROOT
BRANCH   3   4
HETATM    4  N   UNL     1     -10.137  13.815  67.121  1.00  0.00    -0.239 N  
HETATM    5  C   UNL     1      -8.626  12.016  67.711  1.00  0.00    -0.157 C  
HETATM    6  O   UNL     1      -9.564  12.292  65.522  1.00  0.00    -0.205 OA 
HETATM    7  H   UNL     1      -9.971  14.119  68.081  1.00  0.00     0.000 HD 
HETATM    8  C   UNL     1      -9.486  12.692  66.676  1.00  0.00    -0.244 C  
ENDBRANCH   3   4
BRANCH   3   9
HETATM    9  C   UNL     1     -11.160  16.092  66.715  1.00  0.00    -0.022 C  
HETATM   10  H   UNL     1     -10.823  17.082  68.361  1.00  0.00     0.000 HD 
HETATM   11  O   UNL     1     -10.762  16.170  68.101  1.00  0.00    -0.289 OA 
BRANCH   9  12
HETATM   12  C   UNL     1     -10.280  17.047  65.860  1.00  0.00    -0.296 C  
HETATM   13  H   UNL     1      -8.370  17.219  65.335  1.00  0.00     0.000 HD 
HETATM   14  O   UNL     1      -8.907  16.635  65.858  1.00  0.00    -0.486 OA 
BRANCH  12  15
HETATM   15  C   UNL     1     -10.386  18.515  66.323  1.00  0.00    -0.427 C  
HETATM   16  H   UNL     1     -10.804  20.237  65.484  1.00  0.00     0.000 HD 
HETATM   17  O   UNL     1     -10.738  19.334  65.199  1.00  0.00    -0.379 OA 
BRANCH  15  18
HETATM   18  C   UNL     1      -9.077  19.030  66.955  1.00  0.00    -0.294 C  
HETATM   19  O   UNL     1      -8.933  18.612  68.313  1.00  0.00    -0.300 OA 
HETATM   20  H   UNL     1      -8.126  18.929  68.702  1.00  0.00     0.000 HD 
ENDBRANCH  15  18
ENDBRANCH  12  15
ENDBRANCH   9  12
ENDBRANCH   3   9
TORSDOF 5
ENDMDL
MODEL      102
REMARK 921   NORMALIZED FREE ENERGY PREDICTED BY IDOCK:   -3.84 KCAL/MOL
REMARK 922        TOTAL FREE ENERGY PREDICTED BY IDOCK:   -5.65 KCAL/MOL
REMARK 923 INTER-LIGAND FREE ENERGY PREDICTED BY IDOCK:   -4.69 KCAL/MOL
REMARK 924 INTRA-LIGAND FREE ENERGY PREDICTED BY IDOCK:   -0.96 KCAL/MOL
REMARK 927      BINDING AFFINITY PREDICTED BY RF-SCORE:    0.00 PKD
ROOT
HETATM    1  C   UNL     1     -10.459  15.898  65.283  1.00  0.00    -0.377 C  
HETATM    2  O   UNL     1      -9.439  16.531  65.563  1.00  0.00    -0.473 OA 
HETATM    3  CA  UNL     1     -10.707  14.492  65.804  1.00  0.00    -0.315 C  
ENDROOT
BRANCH   3   4
HETATM    4  N   UNL     1     -11.587  13.747  64.887  1.00  0.00    -0.337 N  
HETATM    5  C   UNL     1     -12.266  12.017  63.334  1.00  0.00    -0.627 C  
HETATM    6  O   UNL     1     -10.157  12.017  64.474  1.00  0.00    -0.271 OA 
HETATM    7  H   UNL     1     -12.519  14.120  64.706  1.00  0.00     0.000 HD 
HETATM    8  C   UNL     1     -11.223  12.579  64.264  1.00  0.00    -0.355 C  
ENDBRANCH   3   4
BRANCH   3   9
HETATM    9  C   UNL     1     -11.196  14.496  67.271  1.00  0.00    -0.332 C  
HETATM   10  H   UNL     1     -12.919  14.250  68.150  1.00  0.00     0.000 HD 
HETATM   11  O   UNL     1     -12.619  14.247  67.249  1.00  0.00    -0.097 OA 
BRANCH   9  12
HETATM   12  C   UNL     1     -10.491  13.441  68.170  1.00  0.00    -0.245 C  
HETATM   13  H   UNL     1      -8.862  12.303  68.106  1.00  0.00     0.000 HD 
HETATM   14  O   UNL     1      -9.293  12.947  67.556  1.00  0.00    -0.178 OA 
BRANCH  12  15
HETATM   15  C   UNL     1     -11.419  12.263  68.532  1.00  0.00    -0.303 C  
HETATM   16  H   UNL     1     -12.282  11.591  70.159  1.00  0.00     0.000 HD 
HETATM   17  O   UNL     1     -11.711  12.316  69.936  1.00  0.00    -0.309 OA 
BRANCH  15  18
HETATM   18  C   UNL     1     -10.802  10.896  68.177  1.00  0.00    -0.234 C  
HETATM   19  O   UNL     1     -10.901  10.605  66.782  1.00  0.00    -0.238 OA 
HETATM   20  H   UNL     1     -10.521   9.763  66.563  1.00  0.00     0.000 HD 
ENDBRANCH  15  18
ENDBRANCH  12  15
ENDBRANCH   9  12
ENDBRANCH   3   9
TORSDOF 5
ENDMDL
MODEL      103
REMARK 921   NORMALIZED FREE ENERGY PREDICTED BY IDOCK:   -3.84 KCAL/MOL
REMARK 922        TOTAL FREE ENERGY PREDICTED BY IDOCK:   -5.65 KCAL/MOL
REMARK 923 INTER-LIGAND FREE ENERGY PREDICTED BY IDOCK:   -5.37 KCAL/MOL
REMARK 924 INTRA-LIGAND FREE ENERGY PREDICTED BY IDOCK:   -0.28 KCAL/MOL
REMARK 927      BINDING AFFINITY PREDICTED BY RF-SCORE:    0.00 PKD
ROOT
HETATM    1  C   UNL     1      -9.977  15.571  67.718  1.00  0.00    -0.222 C  
HETATM    2  O   UNL     1      -9.200  14.688  68.086  1.00  0.00    -0.181 OA 
HETATM    3  CA  UNL     1     -10.220  15.873  66.248  1.00  0.00    -0.311 C  
ENDROOT
BRANCH   3   4
HETATM    4  N   UNL     1     -10.631  17.275  66.068  1.00  0.00    -0.282 N  
HETATM    5  C   UNL     1     -10.395  19.674  65.834  1.00  0.00    -0.584 C  
HETATM    6  O   UNL     1      -8.534  18.168  65.948  1.00  0.00    -0.509 OA 
HETATM    7  H   UNL     1     -11.629  17.481  66.014  1.00  0.00     0.000 HD 
HETATM    8  C   UNL     1      -9.748  18.321  65.968  1.00  0.00    -0.105 C  
ENDBRANCH   3   4
BRANCH   3   9
HETATM    9  C   UNL     1     -11.184  14.853  65.600  1.00  0.00    -0.347 C  
HETATM   10  H   UNL     1     -12.172  14.765  63.921  1.00  0.00     0.000 HD 
HETATM   11  O   UNL     1     -11.579  15.391  64.319  1.00  0.00    -0.324 OA 
BRANCH   9  12
HETATM   12  C   UNL     1     -10.567  13.439  65.409  1.00  0.00    -0.303 C  
HETATM   13  H   UNL     1      -9.815  12.346  63.928  1.00  0.00     0.000 HD 
HETATM   14  O   UNL     1     -10.193  13.210  64.044  1.00  0.00    -0.369 OA 
BRANCH  12  15
HETATM   15  C   UNL     1     -11.511  12.317  65.889  1.00  0.00    -0.376 C  
HETATM   16  H   UNL     1     -13.445  11.998  65.887  1.00  0.00     0.000 HD 
HETATM   17  O   UNL     1     -12.864  12.688  65.592  1.00  0.00    -0.435 OA 
BRANCH  15  18
HETATM   18  C   UNL     1     -11.366  12.030  67.398  1.00  0.00    -0.327 C  
HETATM   19  O   UNL     1     -11.930  10.770  67.764  1.00  0.00    -0.692 OA 
HETATM   20  H   UNL     1     -11.841  10.594  68.692  1.00  0.00     0.000 HD 
ENDBRANCH  15  18
ENDBRANCH  12  15
ENDBRANCH   9  12
ENDBRANCH   3   9
TORSDOF 5
ENDMDL
MODEL      104
REMARK 921   NORMALIZED FREE ENERGY PREDICTED BY IDOCK:   -3.80 KCAL/MOL
REMARK 922        TOTAL FREE ENERGY PREDICTED BY IDOCK:   -5.60 KCAL/MOL
REMARK 923 INTER-LIGAND FREE ENERGY PREDICTED BY IDOCK:   -4.90 KCAL/MOL
REMARK 924 INTRA-LIGAND FREE ENERGY PREDICTED BY IDOCK:   -0.70 KCAL/MOL
REMARK 927      BINDING AFFINITY PREDICTED BY RF-SCORE:    0.00 PKD
ROOT
HETATM    1  C   UNL     1     -12.128  14.093  67.514  1.00  0.00    -0.328 C  
HETATM    2  O   UNL     1     -11.626  14.991  68.194  1.00  0.00    -0.326 OA 
HETATM    3  CA  UNL     1     -11.293  12.982  66.899  1.00  0.00    -0.311 C  
ENDROOT
BRANCH   3   4
HETATM    4  N   UNL     1     -11.945  12.451  65.690  1.00  0.00    -0.424 N  
HETATM    5  C   UNL     1     -12.340  12.073  63.331  1.00  0.00    -0.635 C  
HETATM    6  O   UNL     1     -10.448  13.277  64.178  1.00  0.00    -0.414 OA 
HETATM    7  H   UNL     1     -12.786  11.886  65.807  1.00  0.00     0.000 HD 
HETATM    8  C   UNL     1     -11.487  12.674  64.416  1.00  0.00    -0.349 C  
ENDBRANCH   3   4
BRANCH   3   9
HETATM    9  C   UNL     1     -10.920  11.896  67.934  1.00  0.00    -0.222 C  
HETATM   10  H   UNL     1     -11.839  10.364  68.716  1.00  0.00     0.000 HD 
HETATM   11  O   UNL     1     -12.068  11.032  68.080  1.00  0.00    -0.610 OA 
BRANCH   9  12
HETATM   12  C   UNL     1      -9.674  11.054  67.539  1.00  0.00    -0.172 C  
HETATM   13  H   UNL     1      -8.050  11.264  66.411  1.00  0.00     0.000 HD 
HETATM   14  O   UNL     1      -8.812  11.778  66.652  1.00  0.00    -0.182 OA 
BRANCH  12  15
HETATM   15  C   UNL     1     -10.057   9.699  66.907  1.00  0.00    -0.227 C  
HETATM   16  H   UNL     1      -9.721   7.808  67.302  1.00  0.00     0.000 HD 
HETATM   17  O   UNL     1      -9.485   8.642  67.691  1.00  0.00    -0.138 OA 
BRANCH  15  18
HETATM   18  C   UNL     1      -9.587   9.578  65.443  1.00  0.00    -0.272 C  
HETATM   19  O   UNL     1      -9.361   8.220  65.061  1.00  0.00    -0.290 OA 
HETATM   20  H   UNL     1      -9.071   8.145  64.159  1.00  0.00     0.000 HD 
ENDBRANCH  15  18
ENDBRANCH  12  15
ENDBRANCH   9  12
ENDBRANCH   3   9
TORSDOF 5
ENDMDL
MODEL      105
REMARK 921   NORMALIZED FREE ENERGY PREDICTED BY IDOCK:   -3.80 KCAL/MOL
REMARK 922        TOTAL FREE ENERGY PREDICTED BY IDOCK:   -5.60 KCAL/MOL
REMARK 923 INTER-LIGAND FREE ENERGY PREDICTED BY IDOCK:   -4.95 KCAL/MOL
REMARK 924 INTRA-LIGAND FREE ENERGY PREDICTED BY IDOCK:   -0.64 KCAL/MOL
REMARK 927      BINDING AFFINITY PREDICTED BY RF-SCORE:    0.00 PKD
ROOT
HETATM    1  C   UNL     1     -13.364  10.070  71.144  1.00  0.00    -0.305 C  
HETATM    2  O   UNL     1     -13.740   9.580  72.211  1.00  0.00    -0.440 OA 
HETATM    3  CA  UNL     1     -11.935  10.543  70.930  1.00  0.00    -0.377 C  
ENDROOT
BRANCH   3   4
HETATM    4  N   UNL     1     -11.888  11.604  69.910  1.00  0.00    -0.337 N  
HETATM    5  C   UNL     1     -12.126  13.819  68.958  1.00  0.00    -0.359 C  
HETATM    6  O   UNL     1     -12.477  13.333  71.279  1.00  0.00    -0.343 OA 
HETATM    7  H   UNL     1     -11.606  11.350  68.963  1.00  0.00     0.000 HD 
HETATM    8  C   UNL     1     -12.200  12.917  70.162  1.00  0.00    -0.266 C  
ENDBRANCH   3   4
BRANCH   3   9
HETATM    9  C   UNL     1     -10.971   9.367  70.650  1.00  0.00    -0.290 C  
HETATM   10  H   UNL     1      -9.247   9.180  69.760  1.00  0.00     0.000 HD 
HETATM   11  O   UNL     1      -9.839   9.903  69.932  1.00  0.00    -0.229 OA 
BRANCH   9  12
HETATM   12  C   UNL     1     -10.484   8.635  71.932  1.00  0.00    -0.340 C  
HETATM   13  H   UNL     1      -8.824   8.514  73.020  1.00  0.00     0.000 HD 
HETATM   14  O   UNL     1      -9.122   8.961  72.236  1.00  0.00    -0.381 OA 
BRANCH  12  15
HETATM   15  C   UNL     1     -10.648   7.104  71.833  1.00  0.00    -0.213 C  
HETATM   16  H   UNL     1      -9.636   5.622  71.042  1.00  0.00     0.000 HD 
HETATM   17  O   UNL     1      -9.536   6.565  71.103  1.00  0.00    -0.166 OA 
BRANCH  15  18
HETATM   18  C   UNL     1     -11.969   6.695  71.151  1.00  0.00    -0.357 C  
HETATM   19  O   UNL     1     -13.048   6.599  72.081  1.00  0.00    -0.550 OA 
HETATM   20  H   UNL     1     -13.862   6.347  71.662  1.00  0.00     0.000 HD 
ENDBRANCH  15  18
ENDBRANCH  12  15
ENDBRANCH   9  12
ENDBRANCH   3   9
TORSDOF 5
ENDMDL
MODEL      106
REMARK 921   NORMALIZED FREE ENERGY PREDICTED BY IDOCK:   -3.79 KCAL/MOL
REMARK 922        TOTAL FREE ENERGY PREDICTED BY IDOCK:   -5.59 KCAL/MOL
REMARK 923 INTER-LIGAND FREE ENERGY PREDICTED BY IDOCK:   -4.63 KCAL/MOL
REMARK 924 INTRA-LIGAND FREE ENERGY PREDICTED BY IDOCK:   -0.96 KCAL/MOL
REMARK 927      BINDING AFFINITY PREDICTED BY RF-SCORE:    0.00 PKD
ROOT
HETATM    1  C   UNL     1     -11.640  14.632  67.375  1.00  0.00    -0.389 C  
HETATM    2  O   UNL     1     -10.862  15.399  67.944  1.00  0.00    -0.281 OA 
HETATM    3  CA  UNL     1     -11.195  13.283  66.834  1.00  0.00    -0.305 C  
ENDROOT
BRANCH   3   4
HETATM    4  N   UNL     1     -12.050  12.867  65.709  1.00  0.00    -0.444 N  
HETATM    5  C   UNL     1     -12.641  12.258  63.441  1.00  0.00    -0.545 C  
HETATM    6  O   UNL     1     -10.390  12.668  64.155  1.00  0.00    -0.373 OA 
HETATM    7  H   UNL     1     -13.049  12.751  65.882  1.00  0.00     0.000 HD 
HETATM    8  C   UNL     1     -11.579  12.627  64.442  1.00  0.00    -0.357 C  
ENDBRANCH   3   4
BRANCH   3   9
HETATM    9  C   UNL     1     -11.075  12.221  67.951  1.00  0.00    -0.243 C  
HETATM   10  H   UNL     1     -12.087  10.633  68.458  1.00  0.00     0.000 HD 
HETATM   11  O   UNL     1     -12.160  11.285  67.771  1.00  0.00    -0.631 OA 
BRANCH   9  12
HETATM   12  C   UNL     1      -9.719  11.461  67.953  1.00  0.00    -0.180 C  
HETATM   13  H   UNL     1      -8.544  10.544  69.269  1.00  0.00     0.000 HD 
HETATM   14  O   UNL     1      -9.373  11.009  69.268  1.00  0.00    -0.087 OA 
BRANCH  12  15
HETATM   15  C   UNL     1      -8.570  12.311  67.372  1.00  0.00    -0.178 C  
HETATM   16  H   UNL     1      -7.014  11.990  66.221  1.00  0.00     0.000 HD 
HETATM   17  O   UNL     1      -7.721  11.467  66.579  1.00  0.00    -0.149 OA 
BRANCH  15  18
HETATM   18  C   UNL     1      -7.738  13.007  68.468  1.00  0.00    -0.111 C  
HETATM   19  O   UNL     1      -8.451  14.078  69.087  1.00  0.00    -0.362 OA 
HETATM   20  H   UNL     1      -7.939  14.506  69.763  1.00  0.00     0.000 HD 
ENDBRANCH  15  18
ENDBRANCH  12  15
ENDBRANCH   9  12
ENDBRANCH   3   9
TORSDOF 5
ENDMDL
MODEL      107
REMARK 921   NORMALIZED FREE ENERGY PREDICTED BY IDOCK:   -3.79 KCAL/MOL
REMARK 922        TOTAL FREE ENERGY PREDICTED BY IDOCK:   -5.59 KCAL/MOL
REMARK 923 INTER-LIGAND FREE ENERGY PREDICTED BY IDOCK:   -4.61 KCAL/MOL
REMARK 924 INTRA-LIGAND FREE ENERGY PREDICTED BY IDOCK:   -0.97 KCAL/MOL
REMARK 927      BINDING AFFINITY PREDICTED BY RF-SCORE:    0.00 PKD
ROOT
HETATM    1  C   UNL     1     -10.030  17.821  66.426  1.00  0.00    -0.344 C  
HETATM    2  O   UNL     1     -10.935  18.584  66.769  1.00  0.00    -0.211 OA 
HETATM    3  CA  UNL     1      -9.917  16.406  66.966  1.00  0.00    -0.261 C  
ENDROOT
BRANCH   3   4
HETATM    4  N   UNL     1      -8.517  15.950  66.937  1.00  0.00    -0.216 N  
HETATM    5  C   UNL     1      -6.221  15.692  67.664  1.00  0.00    -0.179 C  
HETATM    6  O   UNL     1      -7.902  16.803  68.963  1.00  0.00    -0.240 OA 
HETATM    7  H   UNL     1      -8.206  15.403  66.133  1.00  0.00     0.000 HD 
HETATM    8  C   UNL     1      -7.606  16.219  67.929  1.00  0.00    -0.137 C  
ENDBRANCH   3   4
BRANCH   3   9
HETATM    9  C   UNL     1     -10.901  15.438  66.270  1.00  0.00    -0.301 C  
HETATM   10  H   UNL     1     -11.388  15.063  64.419  1.00  0.00     0.000 HD 
HETATM   11  O   UNL     1     -10.783  15.657  64.847  1.00  0.00    -0.434 OA 
BRANCH   9  12
HETATM   12  C   UNL     1     -10.645  13.940  66.595  1.00  0.00    -0.274 C  
HETATM   13  H   UNL     1      -9.290  12.549  66.167  1.00  0.00     0.000 HD 
HETATM   14  O   UNL     1      -9.447  13.465  65.968  1.00  0.00    -0.207 OA 
BRANCH  12  15
HETATM   15  C   UNL     1     -11.835  13.041  66.199  1.00  0.00    -0.409 C  
HETATM   16  H   UNL     1     -12.848  11.585  67.035  1.00  0.00     0.000 HD 
HETATM   17  O   UNL     1     -12.115  12.138  67.279  1.00  0.00    -0.565 OA 
BRANCH  15  18
HETATM   18  C   UNL     1     -11.568  12.245  64.906  1.00  0.00    -0.342 C  
HETATM   19  O   UNL     1     -11.440  13.095  63.766  1.00  0.00    -0.492 OA 
HETATM   20  H   UNL     1     -11.276  12.605  62.970  1.00  0.00     0.000 HD 
ENDBRANCH  15  18
ENDBRANCH  12  15
ENDBRANCH   9  12
ENDBRANCH   3   9
TORSDOF 5
ENDMDL
MODEL      108
REMARK 921   NORMALIZED FREE ENERGY PREDICTED BY IDOCK:   -3.79 KCAL/MOL
REMARK 922        TOTAL FREE ENERGY PREDICTED BY IDOCK:   -5.58 KCAL/MOL
REMARK 923 INTER-LIGAND FREE ENERGY PREDICTED BY IDOCK:   -4.98 KCAL/MOL
REMARK 924 INTRA-LIGAND FREE ENERGY PREDICTED BY IDOCK:   -0.60 KCAL/MOL
REMARK 927      BINDING AFFINITY PREDICTED BY RF-SCORE:    0.00 PKD
ROOT
HETATM    1  C   UNL     1     -10.476  10.847  68.765  1.00  0.00    -0.200 C  
HETATM    2  O   UNL     1     -10.529   9.752  68.201  1.00  0.00    -0.192 OA 
HETATM    3  CA  UNL     1     -10.388  12.152  67.991  1.00  0.00    -0.205 C  
ENDROOT
BRANCH   3   4
HETATM    4  N   UNL     1      -9.723  13.189  68.797  1.00  0.00    -0.418 N  
HETATM    5  C   UNL     1      -8.238  15.035  69.302  1.00  0.00    -0.165 C  
HETATM    6  O   UNL     1      -8.565  14.167  67.091  1.00  0.00    -0.209 OA 
HETATM    7  H   UNL     1      -9.937  13.235  69.794  1.00  0.00     0.000 HD 
HETATM    8  C   UNL     1      -8.830  14.097  68.284  1.00  0.00    -0.187 C  
ENDBRANCH   3   4
BRANCH   3   9
HETATM    9  C   UNL     1     -11.762  12.586  67.429  1.00  0.00    -0.366 C  
HETATM   10  H   UNL     1     -13.138  13.853  67.979  1.00  0.00     0.000 HD 
HETATM   11  O   UNL     1     -12.294  13.587  68.324  1.00  0.00    -0.215 OA 
BRANCH   9  12
HETATM   12  C   UNL     1     -11.698  13.152  65.983  1.00  0.00    -0.379 C  
HETATM   13  H   UNL     1     -12.785  14.339  64.815  1.00  0.00     0.000 HD 
HETATM   14  O   UNL     1     -12.824  13.993  65.699  1.00  0.00    -0.545 OA 
BRANCH  12  15
HETATM   15  C   UNL     1     -11.593  12.039  64.920  1.00  0.00    -0.273 C  
HETATM   16  H   UNL     1     -10.157  11.217  63.868  1.00  0.00     0.000 HD 
HETATM   17  O   UNL     1     -10.221  11.903  64.522  1.00  0.00    -0.261 OA 
BRANCH  15  18
HETATM   18  C   UNL     1     -12.472  12.319  63.684  1.00  0.00    -0.541 C  
HETATM   19  O   UNL     1     -12.049  13.484  62.975  1.00  0.00    -0.830 OA 
HETATM   20  H   UNL     1     -12.589  13.657  62.214  1.00  0.00     0.000 HD 
ENDBRANCH  15  18
ENDBRANCH  12  15
ENDBRANCH   9  12
ENDBRANCH   3   9
TORSDOF 5
ENDMDL
MODEL      109
REMARK 921   NORMALIZED FREE ENERGY PREDICTED BY IDOCK:   -3.78 KCAL/MOL
REMARK 922        TOTAL FREE ENERGY PREDICTED BY IDOCK:   -5.58 KCAL/MOL
REMARK 923 INTER-LIGAND FREE ENERGY PREDICTED BY IDOCK:   -4.87 KCAL/MOL
REMARK 924 INTRA-LIGAND FREE ENERGY PREDICTED BY IDOCK:   -0.71 KCAL/MOL
REMARK 927      BINDING AFFINITY PREDICTED BY RF-SCORE:    0.00 PKD
ROOT
HETATM    1  C   UNL     1     -12.105  11.309  69.682  1.00  0.00    -0.322 C  
HETATM    2  O   UNL     1     -12.014  12.384  70.277  1.00  0.00    -0.349 OA 
HETATM    3  CA  UNL     1     -11.242  10.110  70.039  1.00  0.00    -0.299 C  
ENDROOT
BRANCH   3   4
HETATM    4  N   UNL     1     -11.066   9.231  68.871  1.00  0.00    -0.447 N  
HETATM    5  C   UNL     1     -10.122   8.410  66.797  1.00  0.00    -0.373 C  
HETATM    6  O   UNL     1      -9.216  10.262  68.020  1.00  0.00    -0.134 OA 
HETATM    7  H   UNL     1     -11.713   8.450  68.755  1.00  0.00     0.000 HD 
HETATM    8  C   UNL     1     -10.082   9.402  67.929  1.00  0.00    -0.194 C  
ENDBRANCH   3   4
BRANCH   3   9
HETATM    9  C   UNL     1     -11.760   9.377  71.298  1.00  0.00    -0.360 C  
HETATM   10  H   UNL     1     -13.520   8.950  72.018  1.00  0.00     0.000 HD 
HETATM   11  O   UNL     1     -13.202   9.400  71.244  1.00  0.00    -0.343 OA 
BRANCH   9  12
HETATM   12  C   UNL     1     -11.260   7.910  71.420  1.00  0.00    -0.247 C  
HETATM   13  H   UNL     1     -11.885   6.093  70.908  1.00  0.00     0.000 HD 
HETATM   14  O   UNL     1     -12.190   6.990  70.834  1.00  0.00    -0.364 OA 
BRANCH  12  15
HETATM   15  C   UNL     1     -10.973   7.507  72.881  1.00  0.00    -0.383 C  
HETATM   16  H   UNL     1      -9.609   7.930  74.224  1.00  0.00     0.000 HD 
HETATM   17  O   UNL     1      -9.785   8.178  73.324  1.00  0.00    -0.269 OA 
BRANCH  15  18
HETATM   18  C   UNL     1     -10.807   5.983  73.051  1.00  0.00    -0.260 C  
HETATM   19  O   UNL     1     -12.060   5.298  73.025  1.00  0.00    -0.528 OA 
HETATM   20  H   UNL     1     -11.957   4.359  73.129  1.00  0.00     0.000 HD 
ENDBRANCH  15  18
ENDBRANCH  12  15
ENDBRANCH   9  12
ENDBRANCH   3   9
TORSDOF 5
ENDMDL
MODEL      110
REMARK 921   NORMALIZED FREE ENERGY PREDICTED BY IDOCK:   -3.77 KCAL/MOL
REMARK 922        TOTAL FREE ENERGY PREDICTED BY IDOCK:   -5.57 KCAL/MOL
REMARK 923 INTER-LIGAND FREE ENERGY PREDICTED BY IDOCK:   -5.09 KCAL/MOL
REMARK 924 INTRA-LIGAND FREE ENERGY PREDICTED BY IDOCK:   -0.48 KCAL/MOL
REMARK 927      BINDING AFFINITY PREDICTED BY RF-SCORE:    0.00 PKD
ROOT
HETATM    1  C   UNL     1     -11.767  12.597  63.500  1.00  0.00    -0.531 C  
HETATM    2  O   UNL     1     -12.886  12.155  63.238  1.00  0.00    -0.735 OA 
HETATM    3  CA  UNL     1     -11.170  12.512  64.895  1.00  0.00    -0.305 C  
ENDROOT
BRANCH   3   4
HETATM    4  N   UNL     1     -10.199  13.598  65.111  1.00  0.00    -0.465 N  
HETATM    5  C   UNL     1      -9.289  15.653  66.014  1.00  0.00    -0.384 C  
HETATM    6  O   UNL     1     -11.369  14.701  66.730  1.00  0.00    -0.339 OA 
HETATM    7  H   UNL     1      -9.330  13.580  64.575  1.00  0.00     0.000 HD 
HETATM    8  C   UNL     1     -10.395  14.632  65.992  1.00  0.00    -0.305 C  
ENDBRANCH   3   4
BRANCH   3   9
HETATM    9  C   UNL     1     -10.607  11.104  65.200  1.00  0.00    -0.253 C  
HETATM   10  H   UNL     1      -8.841  10.281  65.135  1.00  0.00     0.000 HD 
HETATM   11  O   UNL     1      -9.186  11.147  64.948  1.00  0.00    -0.209 OA 
BRANCH   9  12
HETATM   12  C   UNL     1     -10.871  10.625  66.655  1.00  0.00    -0.131 C  
HETATM   13  H   UNL     1     -11.891  11.240  68.248  1.00  0.00     0.000 HD 
HETATM   14  O   UNL     1     -11.729  11.532  67.358  1.00  0.00    -0.567 OA 
BRANCH  12  15
HETATM   15  C   UNL     1      -9.565  10.417  67.450  1.00  0.00    -0.154 C  
HETATM   16  H   UNL     1      -8.362   8.915  67.829  1.00  0.00     0.000 HD 
HETATM   17  O   UNL     1      -9.167   9.043  67.340  1.00  0.00    -0.136 OA 
BRANCH  15  18
HETATM   18  C   UNL     1      -9.711  10.802  68.936  1.00  0.00    -0.198 C  
HETATM   19  O   UNL     1      -8.448  11.026  69.562  1.00  0.00    -0.377 OA 
HETATM   20  H   UNL     1      -8.538  11.263  70.478  1.00  0.00     0.000 HD 
ENDBRANCH  15  18
ENDBRANCH  12  15
ENDBRANCH   9  12
ENDBRANCH   3   9
TORSDOF 5
ENDMDL
MODEL      111
REMARK 921   NORMALIZED FREE ENERGY PREDICTED BY IDOCK:   -3.77 KCAL/MOL
REMARK 922        TOTAL FREE ENERGY PREDICTED BY IDOCK:   -5.56 KCAL/MOL
REMARK 923 INTER-LIGAND FREE ENERGY PREDICTED BY IDOCK:   -5.05 KCAL/MOL
REMARK 924 INTRA-LIGAND FREE ENERGY PREDICTED BY IDOCK:   -0.51 KCAL/MOL
REMARK 927      BINDING AFFINITY PREDICTED BY RF-SCORE:    0.00 PKD
ROOT
HETATM    1  C   UNL     1     -11.068  16.552  68.349  1.00  0.00    -0.333 C  
HETATM    2  O   UNL     1     -11.167  15.663  69.196  1.00  0.00    -0.271 OA 
HETATM    3  CA  UNL     1     -10.163  16.417  67.136  1.00  0.00    -0.282 C  
ENDROOT
BRANCH   3   4
HETATM    4  N   UNL     1      -9.731  17.742  66.660  1.00  0.00    -0.300 N  
HETATM    5  C   UNL     1      -8.437  19.788  66.574  1.00  0.00    -0.380 C  
HETATM    6  O   UNL     1      -7.936  17.967  68.051  1.00  0.00    -0.236 OA 
HETATM    7  H   UNL     1     -10.254  18.173  65.897  1.00  0.00     0.000 HD 
HETATM    8  C   UNL     1      -8.666  18.431  67.185  1.00  0.00    -0.260 C  
ENDBRANCH   3   4
BRANCH   3   9
HETATM    9  C   UNL     1     -10.798  15.536  66.035  1.00  0.00    -0.300 C  
HETATM   10  H   UNL     1     -11.389  15.835  64.201  1.00  0.00     0.000 HD 
HETATM   11  O   UNL     1     -10.999  16.376  64.877  1.00  0.00    -0.600 OA 
BRANCH   9  12
HETATM   12  C   UNL     1      -9.938  14.301  65.647  1.00  0.00    -0.320 C  
HETATM   13  H   UNL     1      -9.963  12.859  64.278  1.00  0.00     0.000 HD 
HETATM   14  O   UNL     1     -10.489  13.614  64.515  1.00  0.00    -0.430 OA 
BRANCH  12  15
HETATM   15  C   UNL     1      -9.760  13.317  66.822  1.00  0.00    -0.258 C  
HETATM   16  H   UNL     1      -8.947  11.550  67.077  1.00  0.00     0.000 HD 
HETATM   17  O   UNL     1      -9.057  12.156  66.354  1.00  0.00    -0.212 OA 
BRANCH  15  18
HETATM   18  C   UNL     1     -11.106  12.896  67.447  1.00  0.00    -0.273 C  
HETATM   19  O   UNL     1     -11.990  12.320  66.485  1.00  0.00    -0.596 OA 
HETATM   20  H   UNL     1     -12.819  12.061  66.870  1.00  0.00     0.000 HD 
ENDBRANCH  15  18
ENDBRANCH  12  15
ENDBRANCH   9  12
ENDBRANCH   3   9
TORSDOF 5
ENDMDL
MODEL      112
REMARK 921   NORMALIZED FREE ENERGY PREDICTED BY IDOCK:   -3.75 KCAL/MOL
REMARK 922        TOTAL FREE ENERGY PREDICTED BY IDOCK:   -5.54 KCAL/MOL
REMARK 923 INTER-LIGAND FREE ENERGY PREDICTED BY IDOCK:   -5.20 KCAL/MOL
REMARK 924 INTRA-LIGAND FREE ENERGY PREDICTED BY IDOCK:   -0.34 KCAL/MOL
REMARK 927      BINDING AFFINITY PREDICTED BY RF-SCORE:    0.00 PKD
ROOT
HETATM    1  C   UNL     1     -10.962  14.148  68.507  1.00  0.00    -0.254 C  
HETATM    2  O   UNL     1      -9.849  13.717  68.198  1.00  0.00    -0.223 OA 
HETATM    3  CA  UNL     1     -11.140  15.318  69.460  1.00  0.00    -0.281 C  
ENDROOT
BRANCH   3   4
HETATM    4  N   UNL     1     -12.442  15.237  70.143  1.00  0.00    -0.514 N  
HETATM    5  C   UNL     1     -14.032  15.329  71.968  1.00  0.00    -0.645 C  
HETATM    6  O   UNL     1     -11.727  15.946  72.191  1.00  0.00    -0.428 OA 
HETATM    7  H   UNL     1     -13.255  14.950  69.597  1.00  0.00     0.000 HD 
HETATM    8  C   UNL     1     -12.624  15.525  71.473  1.00  0.00    -0.418 C  
ENDBRANCH   3   4
BRANCH   3   9
HETATM    9  C   UNL     1     -10.885  16.675  68.765  1.00  0.00    -0.331 C  
HETATM   10  H   UNL     1      -9.957  18.320  69.251  1.00  0.00     0.000 HD 
HETATM   11  O   UNL     1     -10.113  17.486  69.678  1.00  0.00    -0.026 OA 
BRANCH   9  12
HETATM   12  C   UNL     1     -10.137  16.554  67.407  1.00  0.00    -0.279 C  
HETATM   13  H   UNL     1      -8.261  16.587  66.749  1.00  0.00     0.000 HD 
HETATM   14  O   UNL     1      -8.718  16.661  67.579  1.00  0.00    -0.188 OA 
BRANCH  12  15
HETATM   15  C   UNL     1     -10.620  17.596  66.377  1.00  0.00    -0.208 C  
HETATM   16  H   UNL     1     -10.839  17.663  64.429  1.00  0.00     0.000 HD 
HETATM   17  O   UNL     1     -10.542  17.022  65.063  1.00  0.00    -0.703 OA 
BRANCH  15  18
HETATM   18  C   UNL     1      -9.797  18.900  66.427  1.00  0.00    -0.375 C  
HETATM   19  O   UNL     1      -9.819  19.501  67.722  1.00  0.00    -0.327 OA 
HETATM   20  H   UNL     1      -9.312  20.304  67.753  1.00  0.00     0.000 HD 
ENDBRANCH  15  18
ENDBRANCH  12  15
ENDBRANCH   9  12
ENDBRANCH   3   9
TORSDOF 5
ENDMDL
MODEL      113
REMARK 921   NORMALIZED FREE ENERGY PREDICTED BY IDOCK:   -3.75 KCAL/MOL
REMARK 922        TOTAL FREE ENERGY PREDICTED BY IDOCK:   -5.54 KCAL/MOL
REMARK 923 INTER-LIGAND FREE ENERGY PREDICTED BY IDOCK:   -5.22 KCAL/MOL
REMARK 924 INTRA-LIGAND FREE ENERGY PREDICTED BY IDOCK:   -0.32 KCAL/MOL
REMARK 927      BINDING AFFINITY PREDICTED BY RF-SCORE:    0.00 PKD
ROOT
HETATM    1  C   UNL     1     -10.549  11.220  63.754  1.00  0.00    -0.392 C  
HETATM    2  O   UNL     1     -10.016  11.629  62.721  1.00  0.00    -0.263 OA 
HETATM    3  CA  UNL     1     -10.013  11.567  65.133  1.00  0.00    -0.262 C  
ENDROOT
BRANCH   3   4
HETATM    4  N   UNL     1     -10.371  10.523  66.107  1.00  0.00    -0.233 N  
HETATM    5  C   UNL     1     -10.312   8.374  67.222  1.00  0.00    -0.369 C  
HETATM    6  O   UNL     1      -8.788   9.003  65.482  1.00  0.00    -0.172 OA 
HETATM    7  H   UNL     1     -11.126  10.718  66.766  1.00  0.00     0.000 HD 
HETATM    8  C   UNL     1      -9.749   9.302  66.179  1.00  0.00    -0.279 C  
ENDBRANCH   3   4
BRANCH   3   9
HETATM    9  C   UNL     1     -10.420  12.993  65.571  1.00  0.00    -0.285 C  
HETATM   10  H   UNL     1     -10.355  14.760  64.747  1.00  0.00     0.000 HD 
HETATM   11  O   UNL     1     -10.105  13.883  64.478  1.00  0.00    -0.331 OA 
BRANCH   9  12
HETATM   12  C   UNL     1     -11.924  13.130  65.944  1.00  0.00    -0.427 C  
HETATM   13  H   UNL     1     -13.586  13.851  65.127  1.00  0.00     0.000 HD 
HETATM   14  O   UNL     1     -12.668  13.768  64.898  1.00  0.00    -0.637 OA 
BRANCH  12  15
HETATM   15  C   UNL     1     -12.132  13.886  67.273  1.00  0.00    -0.368 C  
HETATM   16  H   UNL     1     -11.404  15.504  68.108  1.00  0.00     0.000 HD 
HETATM   17  O   UNL     1     -11.276  15.038  67.291  1.00  0.00    -0.327 OA 
BRANCH  15  18
HETATM   18  C   UNL     1     -11.848  13.004  68.505  1.00  0.00    -0.325 C  
HETATM   19  O   UNL     1     -11.918  11.611  68.198  1.00  0.00    -0.550 OA 
HETATM   20  H   UNL     1     -11.743  11.067  68.957  1.00  0.00     0.000 HD 
ENDBRANCH  15  18
ENDBRANCH  12  15
ENDBRANCH   9  12
ENDBRANCH   3   9
TORSDOF 5
ENDMDL
MODEL      114
REMARK 921   NORMALIZED FREE ENERGY PREDICTED BY IDOCK:   -3.75 KCAL/MOL
REMARK 922        TOTAL FREE ENERGY PREDICTED BY IDOCK:   -5.53 KCAL/MOL
REMARK 923 INTER-LIGAND FREE ENERGY PREDICTED BY IDOCK:   -4.84 KCAL/MOL
REMARK 924 INTRA-LIGAND FREE ENERGY PREDICTED BY IDOCK:   -0.69 KCAL/MOL
REMARK 927      BINDING AFFINITY PREDICTED BY RF-SCORE:    0.00 PKD
ROOT
HETATM    1  C   UNL     1      -9.825  11.147  64.723  1.00  0.00    -0.277 C  
HETATM    2  O   UNL     1      -9.814   9.921  64.856  1.00  0.00    -0.315 OA 
HETATM    3  CA  UNL     1     -10.372  12.072  65.798  1.00  0.00    -0.254 C  
ENDROOT
BRANCH   3   4
HETATM    4  N   UNL     1     -10.857  13.329  65.204  1.00  0.00    -0.299 N  
HETATM    5  C   UNL     1     -12.398  14.865  64.140  1.00  0.00    -0.212 C  
HETATM    6  O   UNL     1     -13.016  12.667  64.873  1.00  0.00    -0.830 OA 
HETATM    7  H   UNL     1     -10.201  14.106  65.123  1.00  0.00     0.000 HD 
HETATM    8  C   UNL     1     -12.140  13.513  64.753  1.00  0.00    -0.404 C  
ENDBRANCH   3   4
BRANCH   3   9
HETATM    9  C   UNL     1      -9.365  12.277  66.953  1.00  0.00    -0.210 C  
HETATM   10  H   UNL     1      -8.293  13.772  67.599  1.00  0.00     0.000 HD 
HETATM   11  O   UNL     1      -8.913  13.647  66.889  1.00  0.00    -0.237 OA 
BRANCH   9  12
HETATM   12  C   UNL     1      -9.956  11.982  68.361  1.00  0.00    -0.208 C  
HETATM   13  H   UNL     1      -9.886  10.527  69.714  1.00  0.00     0.000 HD 
HETATM   14  O   UNL     1      -9.525  10.707  68.854  1.00  0.00    -0.178 OA 
BRANCH  12  15
HETATM   15  C   UNL     1     -11.497  12.058  68.378  1.00  0.00    -0.301 C  
HETATM   16  H   UNL     1     -12.845  13.478  68.276  1.00  0.00     0.000 HD 
HETATM   17  O   UNL     1     -11.897  13.431  68.266  1.00  0.00    -0.333 OA 
BRANCH  15  18
HETATM   18  C   UNL     1     -12.103  11.439  69.654  1.00  0.00    -0.305 C  
HETATM   19  O   UNL     1     -12.102  10.011  69.613  1.00  0.00    -0.480 OA 
HETATM   20  H   UNL     1     -12.475   9.630  70.399  1.00  0.00     0.000 HD 
ENDBRANCH  15  18
ENDBRANCH  12  15
ENDBRANCH   9  12
ENDBRANCH   3   9
TORSDOF 5
ENDMDL
MODEL      115
REMARK 921   NORMALIZED FREE ENERGY PREDICTED BY IDOCK:   -3.74 KCAL/MOL
REMARK 922        TOTAL FREE ENERGY PREDICTED BY IDOCK:   -5.53 KCAL/MOL
REMARK 923 INTER-LIGAND FREE ENERGY PREDICTED BY IDOCK:   -5.05 KCAL/MOL
REMARK 924 INTRA-LIGAND FREE ENERGY PREDICTED BY IDOCK:   -0.48 KCAL/MOL
REMARK 927      BINDING AFFINITY PREDICTED BY RF-SCORE:    0.00 PKD
ROOT
HETATM    1  C   UNL     1     -10.186   5.550  70.338  1.00  0.00    -0.251 C  
HETATM    2  O   UNL     1     -10.364   4.398  70.738  1.00  0.00    -0.113 OA 
HETATM    3  CA  UNL     1     -11.340   6.453  69.935  1.00  0.00    -0.434 C  
ENDROOT
BRANCH   3   4
HETATM    4  N   UNL     1     -10.896   7.453  68.949  1.00  0.00    -0.396 N  
HETATM    5  C   UNL     1     -10.249   8.351  66.795  1.00  0.00    -0.376 C  
HETATM    6  O   UNL     1     -11.068   6.120  67.104  1.00  0.00    -0.333 OA 
HETATM    7  H   UNL     1     -10.677   8.392  69.281  1.00  0.00     0.000 HD 
HETATM    8  C   UNL     1     -10.761   7.192  67.608  1.00  0.00    -0.244 C  
ENDBRANCH   3   4
BRANCH   3   9
HETATM    9  C   UNL     1     -12.053   7.065  71.164  1.00  0.00    -0.369 C  
HETATM   10  H   UNL     1     -11.866   6.886  73.096  1.00  0.00     0.000 HD 
HETATM   11  O   UNL     1     -11.428   6.511  72.342  1.00  0.00    -0.268 OA 
BRANCH   9  12
HETATM   12  C   UNL     1     -11.992   8.618  71.216  1.00  0.00    -0.293 C  
HETATM   13  H   UNL     1     -10.685  10.026  71.728  1.00  0.00     0.000 HD 
HETATM   14  O   UNL     1     -10.722   9.077  71.696  1.00  0.00    -0.321 OA 
BRANCH  12  15
HETATM   15  C   UNL     1     -13.125   9.221  72.072  1.00  0.00    -0.436 C  
HETATM   16  H   UNL     1     -15.053   8.926  72.278  1.00  0.00     0.000 HD 
HETATM   17  O   UNL     1     -14.355   8.555  71.751  1.00  0.00    -0.430 OA 
BRANCH  15  18
HETATM   18  C   UNL     1     -13.282  10.740  71.857  1.00  0.00    -0.419 C  
HETATM   19  O   UNL     1     -12.388  11.238  70.861  1.00  0.00    -0.367 OA 
HETATM   20  H   UNL     1     -12.485  12.174  70.728  1.00  0.00     0.000 HD 
ENDBRANCH  15  18
ENDBRANCH  12  15
ENDBRANCH   9  12
ENDBRANCH   3   9
TORSDOF 5
ENDMDL
MODEL      116
REMARK 921   NORMALIZED FREE ENERGY PREDICTED BY IDOCK:   -3.73 KCAL/MOL
REMARK 922        TOTAL FREE ENERGY PREDICTED BY IDOCK:   -5.51 KCAL/MOL
REMARK 923 INTER-LIGAND FREE ENERGY PREDICTED BY IDOCK:   -5.00 KCAL/MOL
REMARK 924 INTRA-LIGAND FREE ENERGY PREDICTED BY IDOCK:   -0.51 KCAL/MOL
REMARK 927      BINDING AFFINITY PREDICTED BY RF-SCORE:    0.00 PKD
ROOT
HETATM    1  C   UNL     1     -10.395   9.272  68.487  1.00  0.00    -0.209 C  
HETATM    2  O   UNL     1      -9.223   9.014  68.209  1.00  0.00    -0.136 OA 
HETATM    3  CA  UNL     1     -10.803  10.588  69.129  1.00  0.00    -0.237 C  
ENDROOT
BRANCH   3   4
HETATM    4  N   UNL     1     -12.040  10.422  69.911  1.00  0.00    -0.467 N  
HETATM    5  C   UNL     1     -13.458   9.770  71.763  1.00  0.00    -0.463 C  
HETATM    6  O   UNL     1     -11.070   9.563  71.790  1.00  0.00    -0.352 OA 
HETATM    7  H   UNL     1     -12.919  10.724  69.490  1.00  0.00     0.000 HD 
HETATM    8  C   UNL     1     -12.077   9.885  71.174  1.00  0.00    -0.374 C  
ENDBRANCH   3   4
BRANCH   3   9
HETATM    9  C   UNL     1     -10.867  11.740  68.100  1.00  0.00    -0.217 C  
HETATM   10  H   UNL     1     -12.106  12.260  66.687  1.00  0.00     0.000 HD 
HETATM   11  O   UNL     1     -12.067  11.552  67.320  1.00  0.00    -0.548 OA 
BRANCH   9  12
HETATM   12  C   UNL     1     -10.872  13.156  68.743  1.00  0.00    -0.246 C  
HETATM   13  H   UNL     1     -12.154  14.332  69.706  1.00  0.00     0.000 HD 
HETATM   14  O   UNL     1     -12.150  13.467  69.313  1.00  0.00    -0.322 OA 
BRANCH  12  15
HETATM   15  C   UNL     1     -10.462  14.256  67.742  1.00  0.00    -0.245 C  
HETATM   16  H   UNL     1     -11.387  15.424  66.466  1.00  0.00     0.000 HD 
HETATM   17  O   UNL     1     -11.639  14.746  67.082  1.00  0.00    -0.370 OA 
BRANCH  15  18
HETATM   18  C   UNL     1      -9.447  13.754  66.696  1.00  0.00    -0.279 C  
HETATM   19  O   UNL     1      -9.673  14.325  65.407  1.00  0.00    -0.533 OA 
HETATM   20  H   UNL     1      -9.048  14.015  64.763  1.00  0.00     0.000 HD 
ENDBRANCH  15  18
ENDBRANCH  12  15
ENDBRANCH   9  12
ENDBRANCH   3   9
TORSDOF 5
ENDMDL
MODEL      117
REMARK 921   NORMALIZED FREE ENERGY PREDICTED BY IDOCK:   -3.70 KCAL/MOL
REMARK 922        TOTAL FREE ENERGY PREDICTED BY IDOCK:   -5.48 KCAL/MOL
REMARK 923 INTER-LIGAND FREE ENERGY PREDICTED BY IDOCK:   -4.80 KCAL/MOL
REMARK 924 INTRA-LIGAND FREE ENERGY PREDICTED BY IDOCK:   -0.67 KCAL/MOL
REMARK 927      BINDING AFFINITY PREDICTED BY RF-SCORE:    0.00 PKD
ROOT
HETATM    1  C   UNL     1      -8.768  14.088  67.807  1.00  0.00    -0.185 C  
HETATM    2  O   UNL     1      -7.586  13.750  67.898  1.00  0.00    -0.123 OA 
HETATM    3  CA  UNL     1      -9.328  15.285  68.558  1.00  0.00    -0.200 C  
ENDROOT
BRANCH   3   4
HETATM    4  N   UNL     1     -10.769  15.116  68.804  1.00  0.00    -0.231 N  
HETATM    5  C   UNL     1     -12.864  15.175  70.019  1.00  0.00    -0.121 C  
HETATM    6  O   UNL     1     -10.809  16.056  70.884  1.00  0.00    -0.208 OA 
HETATM    7  H   UNL     1     -11.338  14.701  68.066  1.00  0.00     0.000 HD 
HETATM    8  C   UNL     1     -11.391  15.485  69.971  1.00  0.00    -0.321 C  
ENDBRANCH   3   4
BRANCH   3   9
HETATM    9  C   UNL     1      -8.966  16.621  67.868  1.00  0.00    -0.217 C  
HETATM   10  H   UNL     1      -7.425  17.815  67.896  1.00  0.00     0.000 HD 
HETATM   11  O   UNL     1      -7.646  16.994  68.320  1.00  0.00    -0.196 OA 
BRANCH   9  12
HETATM   12  C   UNL     1      -8.992  16.553  66.315  1.00  0.00    -0.324 C  
HETATM   13  H   UNL     1      -7.928  17.259  64.790  1.00  0.00     0.000 HD 
HETATM   14  O   UNL     1      -7.913  17.301  65.740  1.00  0.00    -0.511 OA 
BRANCH  12  15
HETATM   15  C   UNL     1     -10.335  17.034  65.728  1.00  0.00    -0.261 C  
HETATM   16  H   UNL     1     -11.975  17.848  66.430  1.00  0.00     0.000 HD 
HETATM   17  O   UNL     1     -11.148  17.551  66.791  1.00  0.00     0.062 OA 
BRANCH  15  18
HETATM   18  C   UNL     1     -11.091  15.911  64.989  1.00  0.00    -0.360 C  
HETATM   19  O   UNL     1     -11.648  16.360  63.752  1.00  0.00    -1.605 OA 
HETATM   20  H   UNL     1     -12.114  15.669  63.297  1.00  0.00     0.000 HD 
ENDBRANCH  15  18
ENDBRANCH  12  15
ENDBRANCH   9  12
ENDBRANCH   3   9
TORSDOF 5
ENDMDL
MODEL      118
REMARK 921   NORMALIZED FREE ENERGY PREDICTED BY IDOCK:   -3.69 KCAL/MOL
REMARK 922        TOTAL FREE ENERGY PREDICTED BY IDOCK:   -5.46 KCAL/MOL
REMARK 923 INTER-LIGAND FREE ENERGY PREDICTED BY IDOCK:   -5.29 KCAL/MOL
REMARK 924 INTRA-LIGAND FREE ENERGY PREDICTED BY IDOCK:   -0.18 KCAL/MOL
REMARK 927      BINDING AFFINITY PREDICTED BY RF-SCORE:    0.00 PKD
ROOT
HETATM    1  C   UNL     1     -11.239  11.086  67.939  1.00  0.00    -0.310 C  
HETATM    2  O   UNL     1     -11.113   9.863  68.026  1.00  0.00    -0.249 OA 
HETATM    3  CA  UNL     1     -10.042  12.018  67.843  1.00  0.00    -0.195 C  
ENDROOT
BRANCH   3   4
HETATM    4  N   UNL     1     -10.378  13.349  68.375  1.00  0.00    -0.248 N  
HETATM    5  C   UNL     1     -11.619  15.410  68.655  1.00  0.00    -0.373 C  
HETATM    6  O   UNL     1     -12.370  13.590  67.288  1.00  0.00    -0.297 OA 
HETATM    7  H   UNL     1      -9.735  13.777  69.042  1.00  0.00     0.000 HD 
HETATM    8  C   UNL     1     -11.505  14.048  68.023  1.00  0.00    -0.311 C  
ENDBRANCH   3   4
BRANCH   3   9
HETATM    9  C   UNL     1      -9.444  12.048  66.418  1.00  0.00    -0.231 C  
HETATM   10  H   UNL     1      -7.955  11.158  65.528  1.00  0.00     0.000 HD 
HETATM   11  O   UNL     1      -8.323  11.138  66.404  1.00  0.00    -0.161 OA 
BRANCH   9  12
HETATM   12  C   UNL     1     -10.456  11.656  65.304  1.00  0.00    -0.273 C  
HETATM   13  H   UNL     1     -10.787  10.117  64.090  1.00  0.00     0.000 HD 
HETATM   14  O   UNL     1     -10.169  10.357  64.770  1.00  0.00    -0.345 OA 
BRANCH  12  15
HETATM   15  C   UNL     1     -10.504  12.693  64.163  1.00  0.00    -0.413 C  
HETATM   16  H   UNL     1     -10.184  14.620  63.988  1.00  0.00     0.000 HD 
HETATM   17  O   UNL     1     -10.155  13.981  64.690  1.00  0.00    -0.358 OA 
BRANCH  15  18
HETATM   18  C   UNL     1     -11.889  12.762  63.487  1.00  0.00    -0.546 C  
HETATM   19  O   UNL     1     -12.311  11.491  62.992  1.00  0.00    -0.975 OA 
HETATM   20  H   UNL     1     -13.163  11.533  62.576  1.00  0.00     0.000 HD 
ENDBRANCH  15  18
ENDBRANCH  12  15
ENDBRANCH   9  12
ENDBRANCH   3   9
TORSDOF 5
ENDMDL
MODEL      119
REMARK 921   NORMALIZED FREE ENERGY PREDICTED BY IDOCK:   -3.69 KCAL/MOL
REMARK 922        TOTAL FREE ENERGY PREDICTED BY IDOCK:   -5.46 KCAL/MOL
REMARK 923 INTER-LIGAND FREE ENERGY PREDICTED BY IDOCK:   -4.57 KCAL/MOL
REMARK 924 INTRA-LIGAND FREE ENERGY PREDICTED BY IDOCK:   -0.88 KCAL/MOL
REMARK 927      BINDING AFFINITY PREDICTED BY RF-SCORE:    0.00 PKD
ROOT
HETATM    1  C   UNL     1     -11.721  13.474  67.519  1.00  0.00    -0.367 C  
HETATM    2  O   UNL     1     -10.866  12.738  67.022  1.00  0.00    -0.250 OA 
HETATM    3  CA  UNL     1     -11.355  14.717  68.313  1.00  0.00    -0.297 C  
ENDROOT
BRANCH   3   4
HETATM    4  N   UNL     1     -12.411  15.040  69.287  1.00  0.00    -0.581 N  
HETATM    5  C   UNL     1     -13.425  15.461  71.446  1.00  0.00    -0.607 C  
HETATM    6  O   UNL     1     -11.074  15.111  71.136  1.00  0.00    -0.311 OA 
HETATM    7  H   UNL     1     -13.362  15.169  68.941  1.00  0.00     0.000 HD 
HETATM    8  C   UNL     1     -12.189  15.175  70.635  1.00  0.00    -0.351 C  
ENDBRANCH   3   4
BRANCH   3   9
HETATM    9  C   UNL     1     -10.973  15.900  67.394  1.00  0.00    -0.257 C  
HETATM   10  H   UNL     1     -11.146  17.839  67.499  1.00  0.00     0.000 HD 
HETATM   11  O   UNL     1     -11.381  17.113  68.065  1.00  0.00    -0.103 OA 
BRANCH   9  12
HETATM   12  C   UNL     1      -9.457  15.969  67.057  1.00  0.00    -0.218 C  
HETATM   13  H   UNL     1      -8.266  15.530  65.526  1.00  0.00     0.000 HD 
HETATM   14  O   UNL     1      -9.193  15.488  65.732  1.00  0.00    -0.317 OA 
BRANCH  12  15
HETATM   15  C   UNL     1      -8.593  15.197  68.076  1.00  0.00    -0.156 C  
HETATM   16  H   UNL     1      -7.604  15.635  69.711  1.00  0.00     0.000 HD 
HETATM   17  O   UNL     1      -8.135  16.110  69.083  1.00  0.00    -0.229 OA 
BRANCH  15  18
HETATM   18  C   UNL     1      -7.388  14.497  67.417  1.00  0.00    -0.157 C  
HETATM   19  O   UNL     1      -7.677  13.144  67.063  1.00  0.00    -0.374 OA 
HETATM   20  H   UNL     1      -6.935  12.713  66.657  1.00  0.00     0.000 HD 
ENDBRANCH  15  18
ENDBRANCH  12  15
ENDBRANCH   9  12
ENDBRANCH   3   9
TORSDOF 5
ENDMDL
MODEL      120
REMARK 921   NORMALIZED FREE ENERGY PREDICTED BY IDOCK:   -3.67 KCAL/MOL
REMARK 922        TOTAL FREE ENERGY PREDICTED BY IDOCK:   -5.44 KCAL/MOL
REMARK 923 INTER-LIGAND FREE ENERGY PREDICTED BY IDOCK:   -4.80 KCAL/MOL
REMARK 924 INTRA-LIGAND FREE ENERGY PREDICTED BY IDOCK:   -0.64 KCAL/MOL
REMARK 927      BINDING AFFINITY PREDICTED BY RF-SCORE:    0.00 PKD
ROOT
HETATM    1  C   UNL     1     -12.716  12.942  65.067  1.00  0.00    -0.404 C  
HETATM    2  O   UNL     1     -13.224  12.352  64.111  1.00  0.00    -0.761 OA 
HETATM    3  CA  UNL     1     -11.708  12.275  65.987  1.00  0.00    -0.388 C  
ENDROOT
BRANCH   3   4
HETATM    4  N   UNL     1     -11.740  12.889  67.325  1.00  0.00    -0.362 N  
HETATM    5  C   UNL     1     -11.935  13.016  69.736  1.00  0.00    -0.377 C  
HETATM    6  O   UNL     1     -11.921  10.951  68.518  1.00  0.00    -0.520 OA 
HETATM    7  H   UNL     1     -11.652  13.903  67.391  1.00  0.00     0.000 HD 
HETATM    8  C   UNL     1     -11.882  12.174  68.489  1.00  0.00    -0.310 C  
ENDBRANCH   3   4
BRANCH   3   9
HETATM    9  C   UNL     1     -10.296  12.223  65.359  1.00  0.00    -0.269 C  
HETATM   10  H   UNL     1      -8.601  13.124  65.703  1.00  0.00     0.000 HD 
HETATM   11  O   UNL     1      -9.468  13.155  66.089  1.00  0.00    -0.237 OA 
BRANCH   9  12
HETATM   12  C   UNL     1      -9.648  10.810  65.386  1.00  0.00    -0.223 C  
HETATM   13  H   UNL     1      -8.330   9.814  66.492  1.00  0.00     0.000 HD 
HETATM   14  O   UNL     1      -8.726  10.678  66.476  1.00  0.00    -0.139 OA 
BRANCH  12  15
HETATM   15  C   UNL     1      -8.944  10.461  64.058  1.00  0.00    -0.228 C  
HETATM   16  H   UNL     1      -9.394  10.555  62.152  1.00  0.00     0.000 HD 
HETATM   17  O   UNL     1      -9.827  10.769  62.969  1.00  0.00    -0.322 OA 
BRANCH  15  18
HETATM   18  C   UNL     1      -8.522   8.980  63.986  1.00  0.00    -0.163 C  
HETATM   19  O   UNL     1      -7.308   8.731  64.696  1.00  0.00    -0.093 OA 
HETATM   20  H   UNL     1      -7.048   7.818  64.652  1.00  0.00     0.000 HD 
ENDBRANCH  15  18
ENDBRANCH  12  15
ENDBRANCH   9  12
ENDBRANCH   3   9
TORSDOF 5
ENDMDL
MODEL      121
REMARK 921   NORMALIZED FREE ENERGY PREDICTED BY IDOCK:   -3.66 KCAL/MOL
REMARK 922        TOTAL FREE ENERGY PREDICTED BY IDOCK:   -5.42 KCAL/MOL
REMARK 923 INTER-LIGAND FREE ENERGY PREDICTED BY IDOCK:   -4.43 KCAL/MOL
REMARK 924 INTRA-LIGAND FREE ENERGY PREDICTED BY IDOCK:   -1.00 KCAL/MOL
REMARK 927      BINDING AFFINITY PREDICTED BY RF-SCORE:    0.00 PKD
ROOT
HETATM    1  C   UNL     1     -10.711   9.449  67.597  1.00  0.00    -0.230 C  
HETATM    2  O   UNL     1     -10.346   9.748  66.458  1.00  0.00    -0.234 OA 
HETATM    3  CA  UNL     1     -10.684  10.446  68.743  1.00  0.00    -0.225 C  
ENDROOT
BRANCH   3   4
HETATM    4  N   UNL     1     -10.540   9.750  70.033  1.00  0.00    -0.255 N  
HETATM    5  C   UNL     1      -9.426   8.681  71.899  1.00  0.00    -0.369 C  
HETATM    6  O   UNL     1      -8.260   9.769  70.109  1.00  0.00    -0.176 OA 
HETATM    7  H   UNL     1     -11.389   9.489  70.536  1.00  0.00     0.000 HD 
HETATM    8  C   UNL     1      -9.330   9.434  70.598  1.00  0.00    -0.252 C  
ENDBRANCH   3   4
BRANCH   3   9
HETATM    9  C   UNL     1     -11.883  11.421  68.692  1.00  0.00    -0.310 C  
HETATM   10  H   UNL     1     -12.917  12.406  70.019  1.00  0.00     0.000 HD 
HETATM   11  O   UNL     1     -12.180  11.807  70.051  1.00  0.00    -0.287 OA 
BRANCH   9  12
HETATM   12  C   UNL     1     -11.624  12.688  67.829  1.00  0.00    -0.348 C  
HETATM   13  H   UNL     1     -11.894  13.270  65.946  1.00  0.00     0.000 HD 
HETATM   14  O   UNL     1     -12.052  12.496  66.474  1.00  0.00    -0.572 OA 
BRANCH  12  15
HETATM   15  C   UNL     1     -10.144  13.124  67.854  1.00  0.00    -0.232 C  
HETATM   16  H   UNL     1      -9.088  14.495  68.777  1.00  0.00     0.000 HD 
HETATM   17  O   UNL     1      -9.999  14.227  68.761  1.00  0.00    -0.231 OA 
BRANCH  15  18
HETATM   18  C   UNL     1      -9.623  13.523  66.458  1.00  0.00    -0.277 C  
HETATM   19  O   UNL     1      -9.361  12.385  65.635  1.00  0.00    -0.430 OA 
HETATM   20  H   UNL     1      -9.040  12.631  64.776  1.00  0.00     0.000 HD 
ENDBRANCH  15  18
ENDBRANCH  12  15
ENDBRANCH   9  12
ENDBRANCH   3   9
TORSDOF 5
ENDMDL
MODEL      122
REMARK 921   NORMALIZED FREE ENERGY PREDICTED BY IDOCK:   -3.66 KCAL/MOL
REMARK 922        TOTAL FREE ENERGY PREDICTED BY IDOCK:   -5.42 KCAL/MOL
REMARK 923 INTER-LIGAND FREE ENERGY PREDICTED BY IDOCK:   -4.85 KCAL/MOL
REMARK 924 INTRA-LIGAND FREE ENERGY PREDICTED BY IDOCK:   -0.57 KCAL/MOL
REMARK 927      BINDING AFFINITY PREDICTED BY RF-SCORE:    0.00 PKD
ROOT
HETATM    1  C   UNL     1     -10.471   7.721  67.442  1.00  0.00    -0.292 C  
HETATM    2  O   UNL     1     -11.136   6.713  67.195  1.00  0.00    -0.392 OA 
HETATM    3  CA  UNL     1     -10.639   8.504  68.734  1.00  0.00    -0.133 C  
ENDROOT
BRANCH   3   4
HETATM    4  N   UNL     1     -10.258   9.913  68.540  1.00  0.00    -0.170 N  
HETATM    5  C   UNL     1     -10.543  12.308  68.315  1.00  0.00    -0.243 C  
HETATM    6  O   UNL     1     -12.330  10.811  68.872  1.00  0.00    -0.433 OA 
HETATM    7  H   UNL     1      -9.277  10.126  68.358  1.00  0.00     0.000 HD 
HETATM    8  C   UNL     1     -11.148  10.957  68.589  1.00  0.00    -0.252 C  
ENDBRANCH   3   4
BRANCH   3   9
HETATM    9  C   UNL     1      -9.920   7.823  69.922  1.00  0.00    -0.191 C  
HETATM   10  H   UNL     1      -8.573   8.376  71.219  1.00  0.00     0.000 HD 
HETATM   11  O   UNL     1      -9.015   8.795  70.489  1.00  0.00    -0.149 OA 
BRANCH   9  12
HETATM   12  C   UNL     1     -10.886   7.298  71.022  1.00  0.00    -0.239 C  
HETATM   13  H   UNL     1     -12.726   6.552  71.134  1.00  0.00     0.000 HD 
HETATM   14  O   UNL     1     -12.135   6.873  70.462  1.00  0.00    -0.353 OA 
BRANCH  12  15
HETATM   15  C   UNL     1     -11.136   8.341  72.130  1.00  0.00    -0.328 C  
HETATM   16  H   UNL     1     -11.157   8.344  74.091  1.00  0.00     0.000 HD 
HETATM   17  O   UNL     1     -11.004   7.702  73.409  1.00  0.00    -0.371 OA 
BRANCH  15  18
HETATM   18  C   UNL     1     -12.525   9.001  72.017  1.00  0.00    -0.390 C  
HETATM   19  O   UNL     1     -13.313   8.803  73.191  1.00  0.00    -0.918 OA 
HETATM   20  H   UNL     1     -14.169   9.209  73.122  1.00  0.00     0.000 HD 
ENDBRANCH  15  18
ENDBRANCH  12  15
ENDBRANCH   9  12
ENDBRANCH   3   9
TORSDOF 5
ENDMDL
MODEL      123
REMARK 921   NORMALIZED FREE ENERGY PREDICTED BY IDOCK:   -3.65 KCAL/MOL
REMARK 922        TOTAL FREE ENERGY PREDICTED BY IDOCK:   -5.41 KCAL/MOL
REMARK 923 INTER-LIGAND FREE ENERGY PREDICTED BY IDOCK:   -4.91 KCAL/MOL
REMARK 924 INTRA-LIGAND FREE ENERGY PREDICTED BY IDOCK:   -0.50 KCAL/MOL
REMARK 927      BINDING AFFINITY PREDICTED BY RF-SCORE:    0.00 PKD
ROOT
HETATM    1  C   UNL     1     -10.160  13.051  67.993  1.00  0.00    -0.235 C  
HETATM    2  O   UNL     1      -9.005  13.007  67.566  1.00  0.00    -0.174 OA 
HETATM    3  CA  UNL     1     -11.184  14.038  67.457  1.00  0.00    -0.309 C  
ENDROOT
BRANCH   3   4
HETATM    4  N   UNL     1     -12.201  14.337  68.479  1.00  0.00    -0.577 N  
HETATM    5  C   UNL     1     -13.226  15.444  70.374  1.00  0.00    -0.139 C  
HETATM    6  O   UNL     1     -11.155  16.149  69.392  1.00  0.00    -0.296 OA 
HETATM    7  H   UNL     1     -13.039  13.755  68.509  1.00  0.00     0.000 HD 
HETATM    8  C   UNL     1     -12.086  15.354  69.394  1.00  0.00    -0.280 C  
ENDBRANCH   3   4
BRANCH   3   9
HETATM    9  C   UNL     1     -11.777  13.580  66.104  1.00  0.00    -0.365 C  
HETATM   10  H   UNL     1     -13.571  13.479  65.349  1.00  0.00     0.000 HD 
HETATM   11  O   UNL     1     -13.207  13.761  66.180  1.00  0.00    -0.093 OA 
BRANCH   9  12
HETATM   12  C   UNL     1     -11.212  14.353  64.878  1.00  0.00    -0.389 C  
HETATM   13  H   UNL     1      -9.692  14.192  63.607  1.00  0.00     0.000 HD 
HETATM   14  O   UNL     1     -10.037  13.720  64.356  1.00  0.00    -0.319 OA 
BRANCH  12  15
HETATM   15  C   UNL     1     -10.912  15.831  65.204  1.00  0.00    -0.382 C  
HETATM   16  H   UNL     1     -11.162  17.557  64.307  1.00  0.00     0.000 HD 
HETATM   17  O   UNL     1     -11.347  16.647  64.106  1.00  0.00    -1.141 OA 
BRANCH  15  18
HETATM   18  C   UNL     1      -9.415  16.081  65.481  1.00  0.00    -0.000 C  
HETATM   19  O   UNL     1      -9.181  16.521  66.819  1.00  0.00    -0.213 OA 
HETATM   20  H   UNL     1      -8.259  16.675  66.989  1.00  0.00     0.000 HD 
ENDBRANCH  15  18
ENDBRANCH  12  15
ENDBRANCH   9  12
ENDBRANCH   3   9
TORSDOF 5
ENDMDL
MODEL      124
REMARK 921   NORMALIZED FREE ENERGY PREDICTED BY IDOCK:   -3.65 KCAL/MOL
REMARK 922        TOTAL FREE ENERGY PREDICTED BY IDOCK:   -5.41 KCAL/MOL
REMARK 923 INTER-LIGAND FREE ENERGY PREDICTED BY IDOCK:   -4.72 KCAL/MOL
REMARK 924 INTRA-LIGAND FREE ENERGY PREDICTED BY IDOCK:   -0.69 KCAL/MOL
REMARK 927      BINDING AFFINITY PREDICTED BY RF-SCORE:    0.00 PKD
ROOT
HETATM    1  C   UNL     1     -13.342   7.132  71.577  1.00  0.00    -0.344 C  
HETATM    2  O   UNL     1     -14.347   7.778  71.274  1.00  0.00    -0.384 OA 
HETATM    3  CA  UNL     1     -11.945   7.566  71.165  1.00  0.00    -0.308 C  
ENDROOT
BRANCH   3   4
HETATM    4  N   UNL     1     -11.047   6.403  71.069  1.00  0.00    -0.279 N  
HETATM    5  C   UNL     1      -9.856   4.562  70.041  1.00  0.00    -0.296 C  
HETATM    6  O   UNL     1     -11.179   6.134  68.806  1.00  0.00    -0.367 OA 
HETATM    7  H   UNL     1     -10.611   6.060  71.925  1.00  0.00     0.000 HD 
HETATM    8  C   UNL     1     -10.763   5.754  69.893  1.00  0.00    -0.342 C  
ENDBRANCH   3   4
BRANCH   3   9
HETATM    9  C   UNL     1     -11.402   8.700  72.064  1.00  0.00    -0.362 C  
HETATM   10  H   UNL     1      -9.791   8.961  73.132  1.00  0.00     0.000 HD 
HETATM   11  O   UNL     1     -10.125   8.264  72.579  1.00  0.00    -0.273 OA 
BRANCH   9  12
HETATM   12  C   UNL     1     -11.237  10.060  71.329  1.00  0.00    -0.200 C  
HETATM   13  H   UNL     1     -12.357  11.643  70.889  1.00  0.00     0.000 HD 
HETATM   14  O   UNL     1     -12.458  10.812  71.338  1.00  0.00    -0.369 OA 
BRANCH  12  15
HETATM   15  C   UNL     1     -10.739   9.887  69.879  1.00  0.00    -0.280 C  
HETATM   16  H   UNL     1      -8.997   9.742  68.990  1.00  0.00     0.000 HD 
HETATM   17  O   UNL     1      -9.304   9.849  69.882  1.00  0.00    -0.220 OA 
BRANCH  15  18
HETATM   18  C   UNL     1     -11.230  11.014  68.948  1.00  0.00    -0.265 C  
HETATM   19  O   UNL     1     -10.615  12.267  69.248  1.00  0.00    -0.435 OA 
HETATM   20  H   UNL     1     -10.918  12.962  68.675  1.00  0.00     0.000 HD 
ENDBRANCH  15  18
ENDBRANCH  12  15
ENDBRANCH   9  12
ENDBRANCH   3   9
TORSDOF 5
ENDMDL
MODEL      125
REMARK 921   NORMALIZED FREE ENERGY PREDICTED BY IDOCK:   -3.64 KCAL/MOL
REMARK 922        TOTAL FREE ENERGY PREDICTED BY IDOCK:   -5.40 KCAL/MOL
REMARK 923 INTER-LIGAND FREE ENERGY PREDICTED BY IDOCK:   -5.29 KCAL/MOL
REMARK 924 INTRA-LIGAND FREE ENERGY PREDICTED BY IDOCK:   -0.11 KCAL/MOL
REMARK 927      BINDING AFFINITY PREDICTED BY RF-SCORE:    0.00 PKD
ROOT
HETATM    1  C   UNL     1      -9.986  19.358  67.342  1.00  0.00    -0.371 C  
HETATM    2  O   UNL     1     -10.453  19.653  68.444  1.00  0.00    -0.419 OA 
HETATM    3  CA  UNL     1      -9.091  18.146  67.141  1.00  0.00    -0.257 C  
ENDROOT
BRANCH   3   4
HETATM    4  N   UNL     1      -8.191  18.350  65.994  1.00  0.00    -0.132 N  
HETATM    5  C   UNL     1      -6.273  19.163  64.758  1.00  0.00    -0.256 C  
HETATM    6  O   UNL     1      -6.562  19.487  67.116  1.00  0.00    -0.194 OA 
HETATM    7  H   UNL     1      -8.463  17.955  65.093  1.00  0.00     0.000 HD 
HETATM    8  C   UNL     1      -7.007  19.041  66.067  1.00  0.00    -0.259 C  
ENDBRANCH   3   4
BRANCH   3   9
HETATM    9  C   UNL     1      -9.904  16.832  67.069  1.00  0.00    -0.262 C  
HETATM   10  H   UNL     1     -11.647  16.251  67.723  1.00  0.00     0.000 HD 
HETATM   11  O   UNL     1     -11.148  17.059  67.767  1.00  0.00    -0.263 OA 
BRANCH   9  12
HETATM   12  C   UNL     1     -10.193  16.351  65.619  1.00  0.00    -0.324 C  
HETATM   13  H   UNL     1     -11.141  17.022  64.005  1.00  0.00     0.000 HD 
HETATM   14  O   UNL     1     -10.965  17.316  64.892  1.00  0.00    -0.815 OA 
BRANCH  12  15
HETATM   15  C   UNL     1     -10.900  14.980  65.585  1.00  0.00    -0.349 C  
HETATM   16  H   UNL     1     -10.351  13.110  65.371  1.00  0.00     0.000 HD 
HETATM   17  O   UNL     1      -9.916  13.954  65.392  1.00  0.00    -0.306 OA 
BRANCH  15  18
HETATM   18  C   UNL     1     -11.969  14.895  64.477  1.00  0.00    -0.410 C  
HETATM   19  O   UNL     1     -13.102  14.125  64.879  1.00  0.00    -0.677 OA 
HETATM   20  H   UNL     1     -13.761  14.073  64.197  1.00  0.00     0.000 HD 
ENDBRANCH  15  18
ENDBRANCH  12  15
ENDBRANCH   9  12
ENDBRANCH   3   9
TORSDOF 5
ENDMDL
MODEL      126
REMARK 921   NORMALIZED FREE ENERGY PREDICTED BY IDOCK:   -3.64 KCAL/MOL
REMARK 922        TOTAL FREE ENERGY PREDICTED BY IDOCK:   -5.40 KCAL/MOL
REMARK 923 INTER-LIGAND FREE ENERGY PREDICTED BY IDOCK:   -4.76 KCAL/MOL
REMARK 924 INTRA-LIGAND FREE ENERGY PREDICTED BY IDOCK:   -0.64 KCAL/MOL
REMARK 927      BINDING AFFINITY PREDICTED BY RF-SCORE:    0.00 PKD
ROOT
HETATM    1  C   UNL     1      -9.681   7.426  70.263  1.00  0.00    -0.172 C  
HETATM    2  O   UNL     1      -8.511   7.642  70.584  1.00  0.00    -0.124 OA 
HETATM    3  CA  UNL     1     -10.770   8.474  70.422  1.00  0.00    -0.228 C  
ENDROOT
BRANCH   3   4
HETATM    4  N   UNL     1     -12.086   7.834  70.587  1.00  0.00    -0.494 N  
HETATM    5  C   UNL     1     -14.142   7.171  71.684  1.00  0.00    -0.477 C  
HETATM    6  O   UNL     1     -12.538   8.657  72.667  1.00  0.00    -0.371 OA 
HETATM    7  H   UNL     1     -12.449   7.273  69.815  1.00  0.00     0.000 HD 
HETATM    8  C   UNL     1     -12.853   7.949  71.720  1.00  0.00    -0.328 C  
ENDBRANCH   3   4
BRANCH   3   9
HETATM    9  C   UNL     1     -10.728   9.529  69.292  1.00  0.00    -0.222 C  
HETATM   10  H   UNL     1     -10.620   9.462  67.347  1.00  0.00     0.000 HD 
HETATM   11  O   UNL     1     -10.646   8.814  68.041  1.00  0.00    -0.219 OA 
BRANCH   9  12
HETATM   12  C   UNL     1     -11.958  10.480  69.276  1.00  0.00    -0.122 C  
HETATM   13  H   UNL     1     -12.933  11.607  67.959  1.00  0.00     0.000 HD 
HETATM   14  O   UNL     1     -12.181  11.026  67.970  1.00  0.00    -0.520 OA 
BRANCH  12  15
HETATM   15  C   UNL     1     -11.831  11.622  70.306  1.00  0.00    -0.326 C  
HETATM   16  H   UNL     1     -12.803  12.195  71.910  1.00  0.00     0.000 HD 
HETATM   17  O   UNL     1     -12.882  11.492  71.276  1.00  0.00    -0.404 OA 
BRANCH  15  18
HETATM   18  C   UNL     1     -11.892  13.016  69.652  1.00  0.00    -0.319 C  
HETATM   19  O   UNL     1     -10.607  13.466  69.221  1.00  0.00    -0.438 OA 
HETATM   20  H   UNL     1     -10.645  14.325  68.817  1.00  0.00     0.000 HD 
ENDBRANCH  15  18
ENDBRANCH  12  15
ENDBRANCH   9  12
ENDBRANCH   3   9
TORSDOF 5
ENDMDL
MODEL      127
REMARK 921   NORMALIZED FREE ENERGY PREDICTED BY IDOCK:   -3.64 KCAL/MOL
REMARK 922        TOTAL FREE ENERGY PREDICTED BY IDOCK:   -5.39 KCAL/MOL
REMARK 923 INTER-LIGAND FREE ENERGY PREDICTED BY IDOCK:   -4.34 KCAL/MOL
REMARK 924 INTRA-LIGAND FREE ENERGY PREDICTED BY IDOCK:   -1.05 KCAL/MOL
REMARK 927      BINDING AFFINITY PREDICTED BY RF-SCORE:    0.00 PKD
ROOT
HETATM    1  C   UNL     1     -11.419  15.997  64.918  1.00  0.00    -0.125 C  
HETATM    2  O   UNL     1     -11.174  16.275  63.742  1.00  0.00    -0.608 OA 
HETATM    3  CA  UNL     1     -10.319  15.764  65.940  1.00  0.00    -0.354 C  
ENDROOT
BRANCH   3   4
HETATM    4  N   UNL     1     -10.789  14.873  67.014  1.00  0.00    -0.308 N  
HETATM    5  C   UNL     1     -11.492  12.815  68.080  1.00  0.00    -0.357 C  
HETATM    6  O   UNL     1     -10.659  12.923  65.835  1.00  0.00    -0.263 OA 
HETATM    7  H   UNL     1     -11.003  15.285  67.922  1.00  0.00     0.000 HD 
HETATM    8  C   UNL     1     -10.957  13.519  66.862  1.00  0.00    -0.288 C  
ENDBRANCH   3   4
BRANCH   3   9
HETATM    9  C   UNL     1      -9.713  17.091  66.453  1.00  0.00    -0.293 C  
HETATM   10  H   UNL     1     -10.265  18.455  67.732  1.00  0.00     0.000 HD 
HETATM   11  O   UNL     1     -10.637  17.639  67.418  1.00  0.00    -0.356 OA 
BRANCH   9  12
HETATM   12  C   UNL     1      -8.309  16.931  67.100  1.00  0.00    -0.193 C  
HETATM   13  H   UNL     1      -6.897  15.537  67.232  1.00  0.00     0.000 HD 
HETATM   14  O   UNL     1      -7.755  15.635  66.837  1.00  0.00    -0.226 OA 
BRANCH  12  15
HETATM   15  C   UNL     1      -8.330  17.193  68.620  1.00  0.00    -0.257 C  
HETATM   16  H   UNL     1      -7.144  18.053  69.924  1.00  0.00     0.000 HD 
HETATM   17  O   UNL     1      -7.131  17.891  68.988  1.00  0.00    -0.260 OA 
BRANCH  15  18
HETATM   18  C   UNL     1      -8.451  15.893  69.441  1.00  0.00    -0.191 C  
HETATM   19  O   UNL     1      -9.812  15.519  69.661  1.00  0.00    -0.265 OA 
HETATM   20  H   UNL     1      -9.887  14.719  70.166  1.00  0.00     0.000 HD 
ENDBRANCH  15  18
ENDBRANCH  12  15
ENDBRANCH   9  12
ENDBRANCH   3   9
TORSDOF 5
ENDMDL
MODEL      128
REMARK 921   NORMALIZED FREE ENERGY PREDICTED BY IDOCK:   -3.63 KCAL/MOL
REMARK 922        TOTAL FREE ENERGY PREDICTED BY IDOCK:   -5.39 KCAL/MOL
REMARK 923 INTER-LIGAND FREE ENERGY PREDICTED BY IDOCK:   -5.42 KCAL/MOL
REMARK 924 INTRA-LIGAND FREE ENERGY PREDICTED BY IDOCK:    0.04 KCAL/MOL
REMARK 927      BINDING AFFINITY PREDICTED BY RF-SCORE:    0.00 PKD
ROOT
HETATM    1  C   UNL     1     -10.187  11.893  68.632  1.00  0.00    -0.191 C  
HETATM    2  O   UNL     1      -9.329  11.181  68.107  1.00  0.00    -0.163 OA 
HETATM    3  CA  UNL     1     -10.488  13.297  68.134  1.00  0.00    -0.245 C  
ENDROOT
BRANCH   3   4
HETATM    4  N   UNL     1     -11.023  14.131  69.223  1.00  0.00    -0.318 N  
HETATM    5  C   UNL     1     -12.359  14.716  71.157  1.00  0.00    -0.403 C  
HETATM    6  O   UNL     1     -12.282  12.510  70.221  1.00  0.00    -0.329 OA 
HETATM    7  H   UNL     1     -10.715  15.102  69.282  1.00  0.00     0.000 HD 
HETATM    8  C   UNL     1     -11.912  13.675  70.165  1.00  0.00    -0.337 C  
ENDBRANCH   3   4
BRANCH   3   9
HETATM    9  C   UNL     1     -11.373  13.285  66.866  1.00  0.00    -0.318 C  
HETATM   10  H   UNL     1     -12.604  14.547  66.032  1.00  0.00     0.000 HD 
HETATM   11  O   UNL     1     -12.059  14.555  66.811  1.00  0.00    -0.395 OA 
BRANCH   9  12
HETATM   12  C   UNL     1     -10.580  13.057  65.549  1.00  0.00    -0.282 C  
HETATM   13  H   UNL     1      -9.761  14.160  64.111  1.00  0.00     0.000 HD 
HETATM   14  O   UNL     1     -10.246  14.300  64.917  1.00  0.00    -0.413 OA 
BRANCH  12  15
HETATM   15  C   UNL     1     -11.339  12.152  64.556  1.00  0.00    -0.334 C  
HETATM   16  H   UNL     1     -10.917  10.568  63.479  1.00  0.00     0.000 HD 
HETATM   17  O   UNL     1     -10.450  11.126  64.089  1.00  0.00    -0.333 OA 
BRANCH  15  18
HETATM   18  C   UNL     1     -11.906  12.937  63.356  1.00  0.00    -0.507 C  
HETATM   19  O   UNL     1     -12.632  14.097  63.766  1.00  0.00    -0.856 OA 
HETATM   20  H   UNL     1     -12.981  14.581  63.028  1.00  0.00     0.000 HD 
ENDBRANCH  15  18
ENDBRANCH  12  15
ENDBRANCH   9  12
ENDBRANCH   3   9
TORSDOF 5
ENDMDL
MODEL      129
REMARK 921   NORMALIZED FREE ENERGY PREDICTED BY IDOCK:   -3.63 KCAL/MOL
REMARK 922        TOTAL FREE ENERGY PREDICTED BY IDOCK:   -5.38 KCAL/MOL
REMARK 923 INTER-LIGAND FREE ENERGY PREDICTED BY IDOCK:   -5.15 KCAL/MOL
REMARK 924 INTRA-LIGAND FREE ENERGY PREDICTED BY IDOCK:   -0.22 KCAL/MOL
REMARK 927      BINDING AFFINITY PREDICTED BY RF-SCORE:    0.00 PKD
ROOT
HETATM    1  C   UNL     1     -10.726  10.505  67.845  1.00  0.00    -0.260 C  
HETATM    2  O   UNL     1     -10.876   9.282  67.802  1.00  0.00    -0.237 OA 
HETATM    3  CA  UNL     1     -11.737  11.420  68.517  1.00  0.00    -0.318 C  
ENDROOT
BRANCH   3   4
HETATM    4  N   UNL     1     -11.697  12.765  67.919  1.00  0.00    -0.348 N  
HETATM    5  C   UNL     1     -11.838  14.466  66.201  1.00  0.00    -0.391 C  
HETATM    6  O   UNL     1     -12.383  12.162  65.828  1.00  0.00    -0.564 OA 
HETATM    7  H   UNL     1     -11.436  13.550  68.517  1.00  0.00     0.000 HD 
HETATM    8  C   UNL     1     -11.990  13.024  66.604  1.00  0.00    -0.387 C  
ENDBRANCH   3   4
BRANCH   3   9
HETATM    9  C   UNL     1     -11.586  11.418  70.056  1.00  0.00    -0.299 C  
HETATM   10  H   UNL     1     -11.959  12.698  71.479  1.00  0.00     0.000 HD 
HETATM   11  O   UNL     1     -12.051  12.699  70.534  1.00  0.00    -0.363 OA 
BRANCH   9  12
HETATM   12  C   UNL     1     -12.371  10.276  70.762  1.00  0.00    -0.350 C  
HETATM   13  H   UNL     1     -13.888  10.098  72.036  1.00  0.00     0.000 HD 
HETATM   14  O   UNL     1     -13.408  10.796  71.604  1.00  0.00    -0.370 OA 
BRANCH  12  15
HETATM   15  C   UNL     1     -11.449   9.347  71.578  1.00  0.00    -0.397 C  
HETATM   16  H   UNL     1      -9.551   8.855  71.546  1.00  0.00     0.000 HD 
HETATM   17  O   UNL     1     -10.119   9.426  71.044  1.00  0.00    -0.288 OA 
BRANCH  15  18
HETATM   18  C   UNL     1     -11.930   7.882  71.569  1.00  0.00    -0.301 C  
HETATM   19  O   UNL     1     -11.324   7.122  70.522  1.00  0.00    -0.279 OA 
HETATM   20  H   UNL     1     -11.620   6.220  70.517  1.00  0.00     0.000 HD 
ENDBRANCH  15  18
ENDBRANCH  12  15
ENDBRANCH   9  12
ENDBRANCH   3   9
TORSDOF 5
ENDMDL
MODEL      130
REMARK 921   NORMALIZED FREE ENERGY PREDICTED BY IDOCK:   -3.60 KCAL/MOL
REMARK 922        TOTAL FREE ENERGY PREDICTED BY IDOCK:   -5.34 KCAL/MOL
REMARK 923 INTER-LIGAND FREE ENERGY PREDICTED BY IDOCK:   -4.76 KCAL/MOL
REMARK 924 INTRA-LIGAND FREE ENERGY PREDICTED BY IDOCK:   -0.58 KCAL/MOL
REMARK 927      BINDING AFFINITY PREDICTED BY RF-SCORE:    0.00 PKD
ROOT
HETATM    1  C   UNL     1      -7.937  15.120  67.020  1.00  0.00    -0.188 C  
HETATM    2  O   UNL     1      -6.724  15.265  67.179  1.00  0.00    -0.276 OA 
HETATM    3  CA  UNL     1      -8.950  16.109  67.573  1.00  0.00    -0.191 C  
ENDROOT
BRANCH   3   4
HETATM    4  N   UNL     1     -10.242  15.446  67.819  1.00  0.00    -0.238 N  
HETATM    5  C   UNL     1     -12.141  14.619  69.074  1.00  0.00    -0.270 C  
HETATM    6  O   UNL     1     -10.395  15.948  70.040  1.00  0.00    -0.289 OA 
HETATM    7  H   UNL     1     -10.714  15.006  67.029  1.00  0.00     0.000 HD 
HETATM    8  C   UNL     1     -10.846  15.388  69.050  1.00  0.00    -0.244 C  
ENDBRANCH   3   4
BRANCH   3   9
HETATM    9  C   UNL     1      -9.058  17.379  66.697  1.00  0.00    -0.258 C  
HETATM   10  H   UNL     1     -10.090  17.883  65.122  1.00  0.00     0.000 HD 
HETATM   11  O   UNL     1     -10.024  17.103  65.660  1.00  0.00    -0.558 OA 
BRANCH   9  12
HETATM   12  C   UNL     1      -9.479  18.651  67.485  1.00  0.00    -0.291 C  
HETATM   13  H   UNL     1     -11.154  19.470  68.176  1.00  0.00     0.000 HD 
HETATM   14  O   UNL     1     -10.896  18.692  67.694  1.00  0.00    -0.418 OA 
BRANCH  12  15
HETATM   15  C   UNL     1      -9.012  19.950  66.796  1.00  0.00    -0.360 C  
HETATM   16  H   UNL     1      -9.693  21.123  65.379  1.00  0.00     0.000 HD 
HETATM   17  O   UNL     1      -9.980  20.323  65.804  1.00  0.00    -0.387 OA 
BRANCH  15  18
HETATM   18  C   UNL     1      -7.623  19.804  66.142  1.00  0.00    -0.320 C  
HETATM   19  O   UNL     1      -6.908  21.040  66.115  1.00  0.00    -0.477 OA 
HETATM   20  H   UNL     1      -6.052  20.951  65.713  1.00  0.00     0.000 HD 
ENDBRANCH  15  18
ENDBRANCH  12  15
ENDBRANCH   9  12
ENDBRANCH   3   9
TORSDOF 5
ENDMDL
MODEL      131
REMARK 921   NORMALIZED FREE ENERGY PREDICTED BY IDOCK:   -3.60 KCAL/MOL
REMARK 922        TOTAL FREE ENERGY PREDICTED BY IDOCK:   -5.34 KCAL/MOL
REMARK 923 INTER-LIGAND FREE ENERGY PREDICTED BY IDOCK:   -4.74 KCAL/MOL
REMARK 924 INTRA-LIGAND FREE ENERGY PREDICTED BY IDOCK:   -0.60 KCAL/MOL
REMARK 927      BINDING AFFINITY PREDICTED BY RF-SCORE:    0.00 PKD
ROOT
HETATM    1  C   UNL     1     -10.146   9.556  66.176  1.00  0.00    -0.256 C  
HETATM    2  O   UNL     1      -9.250   9.809  65.367  1.00  0.00    -0.191 OA 
HETATM    3  CA  UNL     1     -10.523  10.517  67.291  1.00  0.00    -0.250 C  
ENDROOT
BRANCH   3   4
HETATM    4  N   UNL     1     -11.103   9.787  68.431  1.00  0.00    -0.473 N  
HETATM    5  C   UNL     1     -11.218   8.777  70.629  1.00  0.00    -0.294 C  
HETATM    6  O   UNL     1      -9.352  10.075  69.867  1.00  0.00    -0.220 OA 
HETATM    7  H   UNL     1     -12.043   9.404  68.329  1.00  0.00     0.000 HD 
HETATM    8  C   UNL     1     -10.450   9.593  69.623  1.00  0.00    -0.229 C  
ENDBRANCH   3   4
BRANCH   3   9
HETATM    9  C   UNL     1     -11.406  11.679  66.782  1.00  0.00    -0.286 C  
HETATM   10  H   UNL     1     -12.803  12.794  67.562  1.00  0.00     0.000 HD 
HETATM   11  O   UNL     1     -12.259  12.080  67.875  1.00  0.00    -0.470 OA 
BRANCH   9  12
HETATM   12  C   UNL     1     -10.597  12.903  66.267  1.00  0.00    -0.266 C  
HETATM   13  H   UNL     1      -8.968  13.918  66.788  1.00  0.00     0.000 HD 
HETATM   14  O   UNL     1      -9.463  13.170  67.102  1.00  0.00    -0.222 OA 
BRANCH  12  15
HETATM   15  C   UNL     1     -11.467  14.172  66.145  1.00  0.00    -0.347 C  
HETATM   16  H   UNL     1     -11.774  15.551  64.785  1.00  0.00     0.000 HD 
HETATM   17  O   UNL     1     -11.238  14.771  64.861  1.00  0.00    -0.372 OA 
BRANCH  15  18
HETATM   18  C   UNL     1     -11.175  15.197  67.260  1.00  0.00    -0.324 C  
HETATM   19  O   UNL     1     -12.085  15.076  68.354  1.00  0.00    -0.544 OA 
HETATM   20  H   UNL     1     -11.905  15.708  69.041  1.00  0.00     0.000 HD 
ENDBRANCH  15  18
ENDBRANCH  12  15
ENDBRANCH   9  12
ENDBRANCH   3   9
TORSDOF 5
ENDMDL
MODEL      132
REMARK 921   NORMALIZED FREE ENERGY PREDICTED BY IDOCK:   -3.60 KCAL/MOL
REMARK 922        TOTAL FREE ENERGY PREDICTED BY IDOCK:   -5.34 KCAL/MOL
REMARK 923 INTER-LIGAND FREE ENERGY PREDICTED BY IDOCK:   -4.83 KCAL/MOL
REMARK 924 INTRA-LIGAND FREE ENERGY PREDICTED BY IDOCK:   -0.51 KCAL/MOL
REMARK 927      BINDING AFFINITY PREDICTED BY RF-SCORE:    0.00 PKD
ROOT
HETATM    1  C   UNL     1     -10.126  19.179  66.243  1.00  0.00    -0.431 C  
HETATM    2  O   UNL     1     -11.030  19.788  66.819  1.00  0.00    -0.429 OA 
HETATM    3  CA  UNL     1      -9.558  17.876  66.781  1.00  0.00    -0.305 C  
ENDROOT
BRANCH   3   4
HETATM    4  N   UNL     1      -8.166  17.695  66.337  1.00  0.00    -0.266 N  
HETATM    5  C   UNL     1      -5.749  17.846  66.398  1.00  0.00    -0.215 C  
HETATM    6  O   UNL     1      -7.164  18.563  68.195  1.00  0.00    -0.242 OA 
HETATM    7  H   UNL     1      -8.003  17.251  65.433  1.00  0.00     0.000 HD 
HETATM    8  C   UNL     1      -7.074  18.089  67.070  1.00  0.00    -0.195 C  
ENDBRANCH   3   4
BRANCH   3   9
HETATM    9  C   UNL     1     -10.474  16.671  66.466  1.00  0.00    -0.262 C  
HETATM   10  H   UNL     1     -10.746  15.513  64.921  1.00  0.00     0.000 HD 
HETATM   11  O   UNL     1     -10.183  16.253  65.114  1.00  0.00    -0.566 OA 
BRANCH   9  12
HETATM   12  C   UNL     1     -10.291  15.472  67.439  1.00  0.00    -0.266 C  
HETATM   13  H   UNL     1      -9.400  13.695  67.437  1.00  0.00     0.000 HD 
HETATM   14  O   UNL     1      -9.512  14.427  66.842  1.00  0.00    -0.236 OA 
BRANCH  12  15
HETATM   15  C   UNL     1     -11.639  14.905  67.932  1.00  0.00    -0.344 C  
HETATM   16  H   UNL     1     -12.776  15.133  69.513  1.00  0.00     0.000 HD 
HETATM   17  O   UNL     1     -11.946  15.482  69.210  1.00  0.00    -0.342 OA 
BRANCH  15  18
HETATM   18  C   UNL     1     -11.627  13.367  68.041  1.00  0.00    -0.334 C  
HETATM   19  O   UNL     1     -10.883  12.913  69.173  1.00  0.00    -0.393 OA 
HETATM   20  H   UNL     1     -10.875  11.966  69.241  1.00  0.00     0.000 HD 
ENDBRANCH  15  18
ENDBRANCH  12  15
ENDBRANCH   9  12
ENDBRANCH   3   9
TORSDOF 5
ENDMDL
MODEL      133
REMARK 921   NORMALIZED FREE ENERGY PREDICTED BY IDOCK:   -3.59 KCAL/MOL
REMARK 922        TOTAL FREE ENERGY PREDICTED BY IDOCK:   -5.34 KCAL/MOL
REMARK 923 INTER-LIGAND FREE ENERGY PREDICTED BY IDOCK:   -5.01 KCAL/MOL
REMARK 924 INTRA-LIGAND FREE ENERGY PREDICTED BY IDOCK:   -0.33 KCAL/MOL
REMARK 927      BINDING AFFINITY PREDICTED BY RF-SCORE:    0.00 PKD
ROOT
HETATM    1  C   UNL     1     -11.963  13.329  69.299  1.00  0.00    -0.303 C  
HETATM    2  O   UNL     1     -12.735  13.649  70.206  1.00  0.00    -0.229 OA 
HETATM    3  CA  UNL     1     -12.022  13.970  67.923  1.00  0.00    -0.351 C  
ENDROOT
BRANCH   3   4
HETATM    4  N   UNL     1     -11.502  13.049  66.898  1.00  0.00    -0.321 N  
HETATM    5  C   UNL     1     -11.412  11.836  64.804  1.00  0.00    -0.281 C  
HETATM    6  O   UNL     1     -13.064  13.501  65.297  1.00  0.00    -0.713 OA 
HETATM    7  H   UNL     1     -10.656  12.520  67.112  1.00  0.00     0.000 HD 
HETATM    8  C   UNL     1     -12.091  12.861  65.673  1.00  0.00    -0.458 C  
ENDBRANCH   3   4
BRANCH   3   9
HETATM    9  C   UNL     1     -11.353  15.364  67.904  1.00  0.00    -0.325 C  
HETATM   10  H   UNL     1     -11.282  16.876  69.133  1.00  0.00     0.000 HD 
HETATM   11  O   UNL     1     -11.693  16.019  69.145  1.00  0.00    -0.358 OA 
BRANCH   9  12
HETATM   12  C   UNL     1      -9.807  15.316  67.740  1.00  0.00    -0.220 C  
HETATM   13  H   UNL     1      -8.197  15.470  68.895  1.00  0.00     0.000 HD 
HETATM   14  O   UNL     1      -9.141  15.500  68.996  1.00  0.00    -0.200 OA 
BRANCH  12  15
HETATM   15  C   UNL     1      -9.293  16.351  66.717  1.00  0.00    -0.245 C  
HETATM   16  H   UNL     1      -9.512  16.669  64.795  1.00  0.00     0.000 HD 
HETATM   17  O   UNL     1      -9.828  16.032  65.424  1.00  0.00    -0.440 OA 
BRANCH  15  18
HETATM   18  C   UNL     1      -7.753  16.398  66.650  1.00  0.00    -0.275 C  
HETATM   19  O   UNL     1      -7.166  15.110  66.838  1.00  0.00    -0.285 OA 
HETATM   20  H   UNL     1      -6.218  15.139  66.796  1.00  0.00     0.000 HD 
ENDBRANCH  15  18
ENDBRANCH  12  15
ENDBRANCH   9  12
ENDBRANCH   3   9
TORSDOF 5
ENDMDL
MODEL      134
REMARK 921   NORMALIZED FREE ENERGY PREDICTED BY IDOCK:   -3.59 KCAL/MOL
REMARK 922        TOTAL FREE ENERGY PREDICTED BY IDOCK:   -5.33 KCAL/MOL
REMARK 923 INTER-LIGAND FREE ENERGY PREDICTED BY IDOCK:   -4.72 KCAL/MOL
REMARK 924 INTRA-LIGAND FREE ENERGY PREDICTED BY IDOCK:   -0.61 KCAL/MOL
REMARK 927      BINDING AFFINITY PREDICTED BY RF-SCORE:    0.00 PKD
ROOT
HETATM    1  C   UNL     1      -8.720  14.041  67.688  1.00  0.00    -0.189 C  
HETATM    2  O   UNL     1      -7.995  13.217  67.127  1.00  0.00    -0.154 OA 
HETATM    3  CA  UNL     1     -10.002  14.555  67.053  1.00  0.00    -0.255 C  
ENDROOT
BRANCH   3   4
HETATM    4  N   UNL     1     -10.326  15.901  67.555  1.00  0.00    -0.277 N  
HETATM    5  C   UNL     1     -10.656  18.300  67.502  1.00  0.00    -0.432 C  
HETATM    6  O   UNL     1     -10.159  16.990  65.556  1.00  0.00    -0.577 OA 
HETATM    7  H   UNL     1     -10.551  16.004  68.545  1.00  0.00     0.000 HD 
HETATM    8  C   UNL     1     -10.343  17.024  66.766  1.00  0.00    -0.302 C  
ENDBRANCH   3   4
BRANCH   3   9
HETATM    9  C   UNL     1     -11.163  13.543  67.192  1.00  0.00    -0.305 C  
HETATM   10  H   UNL     1     -13.093  13.613  66.921  1.00  0.00     0.000 HD 
HETATM   11  O   UNL     1     -12.379  14.235  66.836  1.00  0.00    -0.408 OA 
BRANCH   9  12
HETATM   12  C   UNL     1     -10.999  12.275  66.306  1.00  0.00    -0.291 C  
HETATM   13  H   UNL     1     -11.747  11.555  64.611  1.00  0.00     0.000 HD 
HETATM   14  O   UNL     1     -11.847  12.329  65.152  1.00  0.00    -0.369 OA 
BRANCH  12  15
HETATM   15  C   UNL     1     -11.265  10.973  67.091  1.00  0.00    -0.217 C  
HETATM   16  H   UNL     1     -12.314  10.459  68.666  1.00  0.00     0.000 HD 
HETATM   17  O   UNL     1     -12.150  11.260  68.183  1.00  0.00    -0.635 OA 
BRANCH  15  18
HETATM   18  C   UNL     1      -9.968  10.331  67.624  1.00  0.00    -0.179 C  
HETATM   19  O   UNL     1      -8.901  10.407  66.678  1.00  0.00    -0.133 OA 
HETATM   20  H   UNL     1      -8.102  10.012  67.007  1.00  0.00     0.000 HD 
ENDBRANCH  15  18
ENDBRANCH  12  15
ENDBRANCH   9  12
ENDBRANCH   3   9
TORSDOF 5
ENDMDL
MODEL      135
REMARK 921   NORMALIZED FREE ENERGY PREDICTED BY IDOCK:   -3.58 KCAL/MOL
REMARK 922        TOTAL FREE ENERGY PREDICTED BY IDOCK:   -5.32 KCAL/MOL
REMARK 923 INTER-LIGAND FREE ENERGY PREDICTED BY IDOCK:   -5.34 KCAL/MOL
REMARK 924 INTRA-LIGAND FREE ENERGY PREDICTED BY IDOCK:    0.02 KCAL/MOL
REMARK 927      BINDING AFFINITY PREDICTED BY RF-SCORE:    0.00 PKD
ROOT
HETATM    1  C   UNL     1     -10.493  10.816  67.047  1.00  0.00    -0.247 C  
HETATM    2  O   UNL     1     -11.652  10.767  67.465  1.00  0.00    -0.510 OA 
HETATM    3  CA  UNL     1     -10.044  11.851  66.029  1.00  0.00    -0.231 C  
ENDROOT
BRANCH   3   4
HETATM    4  N   UNL     1      -8.902  11.349  65.247  1.00  0.00    -0.393 N  
HETATM    5  C   UNL     1      -7.729  10.241  63.441  1.00  0.00    -0.126 C  
HETATM    6  O   UNL     1     -10.103  10.569  63.470  1.00  0.00    -0.286 OA 
HETATM    7  H   UNL     1      -7.964  11.482  65.625  1.00  0.00     0.000 HD 
HETATM    8  C   UNL     1      -9.029  10.711  64.038  1.00  0.00    -0.196 C  
ENDBRANCH   3   4
BRANCH   3   9
HETATM    9  C   UNL     1      -9.794  13.232  66.679  1.00  0.00    -0.276 C  
HETATM   10  H   UNL     1      -8.255  14.118  67.484  1.00  0.00     0.000 HD 
HETATM   11  O   UNL     1      -8.408  13.270  67.084  1.00  0.00    -0.180 OA 
BRANCH   9  12
HETATM   12  C   UNL     1     -10.101  14.433  65.740  1.00  0.00    -0.340 C  
HETATM   13  H   UNL     1      -9.950  16.415  65.783  1.00  0.00     0.000 HD 
HETATM   14  O   UNL     1      -9.762  15.681  66.357  1.00  0.00    -0.243 OA 
BRANCH  12  15
HETATM   15  C   UNL     1     -11.575  14.457  65.282  1.00  0.00    -0.353 C  
HETATM   16  H   UNL     1     -13.320  14.124  66.112  1.00  0.00     0.000 HD 
HETATM   17  O   UNL     1     -12.413  14.109  66.394  1.00  0.00    -0.461 OA 
BRANCH  15  18
HETATM   18  C   UNL     1     -11.842  13.499  64.104  1.00  0.00    -0.437 C  
HETATM   19  O   UNL     1     -12.647  14.103  63.090  1.00  0.00    -1.058 OA 
HETATM   20  H   UNL     1     -12.812  13.512  62.365  1.00  0.00     0.000 HD 
ENDBRANCH  15  18
ENDBRANCH  12  15
ENDBRANCH   9  12
ENDBRANCH   3   9
TORSDOF 5
ENDMDL
MODEL      136
REMARK 921   NORMALIZED FREE ENERGY PREDICTED BY IDOCK:   -3.57 KCAL/MOL
REMARK 922        TOTAL FREE ENERGY PREDICTED BY IDOCK:   -5.31 KCAL/MOL
REMARK 923 INTER-LIGAND FREE ENERGY PREDICTED BY IDOCK:   -4.72 KCAL/MOL
REMARK 924 INTRA-LIGAND FREE ENERGY PREDICTED BY IDOCK:   -0.59 KCAL/MOL
REMARK 927      BINDING AFFINITY PREDICTED BY RF-SCORE:    0.00 PKD
ROOT
HETATM    1  C   UNL     1     -13.648   8.994  71.601  1.00  0.00    -0.390 C  
HETATM    2  O   UNL     1     -14.302   9.014  72.645  1.00  0.00    -0.603 OA 
HETATM    3  CA  UNL     1     -12.200   9.453  71.544  1.00  0.00    -0.369 C  
ENDROOT
BRANCH   3   4
HETATM    4  N   UNL     1     -11.859   9.929  70.193  1.00  0.00    -0.426 N  
HETATM    5  C   UNL     1     -11.577  11.494  68.366  1.00  0.00    -0.375 C  
HETATM    6  O   UNL     1     -12.211  12.150  70.582  1.00  0.00    -0.372 OA 
HETATM    7  H   UNL     1     -11.555   9.241  69.503  1.00  0.00     0.000 HD 
HETATM    8  C   UNL     1     -11.928  11.245  69.809  1.00  0.00    -0.360 C  
ENDBRANCH   3   4
BRANCH   3   9
HETATM    9  C   UNL     1     -11.230   8.379  72.089  1.00  0.00    -0.361 C  
HETATM   10  H   UNL     1     -10.924   6.487  71.727  1.00  0.00     0.000 HD 
HETATM   11  O   UNL     1     -11.520   7.147  71.392  1.00  0.00    -0.254 OA 
BRANCH   9  12
HETATM   12  C   UNL     1      -9.729   8.743  71.914  1.00  0.00    -0.316 C  
HETATM   13  H   UNL     1      -8.332   8.602  70.506  1.00  0.00     0.000 HD 
HETATM   14  O   UNL     1      -9.250   8.380  70.613  1.00  0.00    -0.147 OA 
BRANCH  12  15
HETATM   15  C   UNL     1      -8.839   8.100  72.999  1.00  0.00    -0.248 C  
HETATM   16  H   UNL     1      -7.262   6.935  73.028  1.00  0.00     0.000 HD 
HETATM   17  O   UNL     1      -7.810   7.331  72.360  1.00  0.00    -0.093 OA 
BRANCH  15  18
HETATM   18  C   UNL     1      -9.641   7.202  73.963  1.00  0.00    -0.270 C  
HETATM   19  O   UNL     1      -9.586   5.825  73.588  1.00  0.00    -0.138 OA 
HETATM   20  H   UNL     1     -10.079   5.272  74.182  1.00  0.00     0.000 HD 
ENDBRANCH  15  18
ENDBRANCH  12  15
ENDBRANCH   9  12
ENDBRANCH   3   9
TORSDOF 5
ENDMDL
MODEL      137
REMARK 921   NORMALIZED FREE ENERGY PREDICTED BY IDOCK:   -3.56 KCAL/MOL
REMARK 922        TOTAL FREE ENERGY PREDICTED BY IDOCK:   -5.29 KCAL/MOL
REMARK 923 INTER-LIGAND FREE ENERGY PREDICTED BY IDOCK:   -4.88 KCAL/MOL
REMARK 924 INTRA-LIGAND FREE ENERGY PREDICTED BY IDOCK:   -0.41 KCAL/MOL
REMARK 927      BINDING AFFINITY PREDICTED BY RF-SCORE:    0.00 PKD
ROOT
HETATM    1  C   UNL     1     -10.395  17.019  67.328  1.00  0.00    -0.311 C  
HETATM    2  O   UNL     1     -10.845  18.102  67.707  1.00  0.00    -0.385 OA 
HETATM    3  CA  UNL     1     -10.213  15.842  68.273  1.00  0.00    -0.227 C  
ENDROOT
BRANCH   3   4
HETATM    4  N   UNL     1      -9.139  14.955  67.796  1.00  0.00    -0.182 N  
HETATM    5  C   UNL     1      -7.019  13.784  67.809  1.00  0.00    -0.178 C  
HETATM    6  O   UNL     1      -7.815  15.099  69.648  1.00  0.00    -0.213 OA 
HETATM    7  H   UNL     1      -9.247  14.518  66.880  1.00  0.00     0.000 HD 
HETATM    8  C   UNL     1      -8.001  14.682  68.513  1.00  0.00    -0.136 C  
ENDBRANCH   3   4
BRANCH   3   9
HETATM    9  C   UNL     1     -11.547  15.111  68.551  1.00  0.00    -0.335 C  
HETATM   10  H   UNL     1     -12.859  14.172  67.457  1.00  0.00     0.000 HD 
HETATM   11  O   UNL     1     -12.039  14.620  67.285  1.00  0.00    -0.358 OA 
BRANCH   9  12
HETATM   12  C   UNL     1     -11.419  13.934  69.559  1.00  0.00    -0.274 C  
HETATM   13  H   UNL     1     -11.854  11.995  69.624  1.00  0.00     0.000 HD 
HETATM   14  O   UNL     1     -11.932  12.714  69.008  1.00  0.00    -0.290 OA 
BRANCH  12  15
HETATM   15  C   UNL     1     -12.114  14.235  70.904  1.00  0.00    -0.347 C  
HETATM   16  H   UNL     1     -13.450  13.351  72.035  1.00  0.00     0.000 HD 
HETATM   17  O   UNL     1     -13.022  13.166  71.207  1.00  0.00    -0.325 OA 
BRANCH  15  18
HETATM   18  C   UNL     1     -12.873  15.577  70.888  1.00  0.00    -0.477 C  
HETATM   19  O   UNL     1     -14.286  15.396  70.794  1.00  0.00    -0.842 OA 
HETATM   20  H   UNL     1     -14.753  16.223  70.785  1.00  0.00     0.000 HD 
ENDBRANCH  15  18
ENDBRANCH  12  15
ENDBRANCH   9  12
ENDBRANCH   3   9
TORSDOF 5
ENDMDL
MODEL      138
REMARK 921   NORMALIZED FREE ENERGY PREDICTED BY IDOCK:   -3.55 KCAL/MOL
REMARK 922        TOTAL FREE ENERGY PREDICTED BY IDOCK:   -5.28 KCAL/MOL
REMARK 923 INTER-LIGAND FREE ENERGY PREDICTED BY IDOCK:   -4.33 KCAL/MOL
REMARK 924 INTRA-LIGAND FREE ENERGY PREDICTED BY IDOCK:   -0.95 KCAL/MOL
REMARK 927      BINDING AFFINITY PREDICTED BY RF-SCORE:    0.00 PKD
ROOT
HETATM    1  C   UNL     1      -8.729  13.275  68.067  1.00  0.00    -0.186 C  
HETATM    2  O   UNL     1      -7.510  13.460  68.052  1.00  0.00    -0.109 OA 
HETATM    3  CA  UNL     1      -9.721  14.425  68.106  1.00  0.00    -0.223 C  
ENDROOT
BRANCH   3   4
HETATM    4  N   UNL     1     -10.982  14.002  68.737  1.00  0.00    -0.255 N  
HETATM    5  C   UNL     1     -12.745  13.906  70.395  1.00  0.00    -0.286 C  
HETATM    6  O   UNL     1     -10.907  15.441  70.506  1.00  0.00    -0.309 OA 
HETATM    7  H   UNL     1     -11.534  13.280  68.272  1.00  0.00     0.000 HD 
HETATM    8  C   UNL     1     -11.458  14.523  69.914  1.00  0.00    -0.270 C  
ENDBRANCH   3   4
BRANCH   3   9
HETATM    9  C   UNL     1      -9.908  15.077  66.716  1.00  0.00    -0.243 C  
HETATM   10  H   UNL     1     -11.434  15.443  65.559  1.00  0.00     0.000 HD 
HETATM   11  O   UNL     1     -11.319  15.043  66.414  1.00  0.00    -0.341 OA 
BRANCH   9  12
HETATM   12  C   UNL     1      -9.385  16.539  66.633  1.00  0.00    -0.256 C  
HETATM   13  H   UNL     1      -8.061  17.687  67.573  1.00  0.00     0.000 HD 
HETATM   14  O   UNL     1      -8.380  16.793  67.623  1.00  0.00    -0.179 OA 
BRANCH  12  15
HETATM   15  C   UNL     1     -10.521  17.576  66.760  1.00  0.00    -0.270 C  
HETATM   16  H   UNL     1     -11.259  19.010  65.645  1.00  0.00     0.000 HD 
HETATM   17  O   UNL     1     -10.560  18.372  65.567  1.00  0.00    -0.627 OA 
BRANCH  15  18
HETATM   18  C   UNL     1     -10.350  18.489  67.992  1.00  0.00    -0.383 C  
HETATM   19  O   UNL     1     -10.356  17.751  69.214  1.00  0.00    -0.394 OA 
HETATM   20  H   UNL     1     -10.251  18.312  69.973  1.00  0.00     0.000 HD 
ENDBRANCH  15  18
ENDBRANCH  12  15
ENDBRANCH   9  12
ENDBRANCH   3   9
TORSDOF 5
ENDMDL
MODEL      139
REMARK 921   NORMALIZED FREE ENERGY PREDICTED BY IDOCK:   -3.55 KCAL/MOL
REMARK 922        TOTAL FREE ENERGY PREDICTED BY IDOCK:   -5.28 KCAL/MOL
REMARK 923 INTER-LIGAND FREE ENERGY PREDICTED BY IDOCK:   -5.34 KCAL/MOL
REMARK 924 INTRA-LIGAND FREE ENERGY PREDICTED BY IDOCK:    0.06 KCAL/MOL
REMARK 927      BINDING AFFINITY PREDICTED BY RF-SCORE:    0.00 PKD
ROOT
HETATM    1  C   UNL     1     -12.032  13.642  63.884  1.00  0.00    -0.408 C  
HETATM    2  O   UNL     1     -12.805  14.587  64.053  1.00  0.00    -0.672 OA 
HETATM    3  CA  UNL     1     -10.765  13.475  64.707  1.00  0.00    -0.401 C  
ENDROOT
BRANCH   3   4
HETATM    4  N   UNL     1      -9.751  12.720  63.951  1.00  0.00    -0.447 N  
HETATM    5  C   UNL     1      -8.825  10.953  62.578  1.00  0.00    -0.352 C  
HETATM    6  O   UNL     1     -11.158  11.139  63.098  1.00  0.00    -0.105 OA 
HETATM    7  H   UNL     1      -8.790  13.062  63.963  1.00  0.00     0.000 HD 
HETATM    8  C   UNL     1     -10.026  11.584  63.232  1.00  0.00    -0.409 C  
ENDBRANCH   3   4
BRANCH   3   9
HETATM    9  C   UNL     1     -11.058  12.892  66.109  1.00  0.00    -0.286 C  
HETATM   10  H   UNL     1     -12.515  11.864  66.898  1.00  0.00     0.000 HD 
HETATM   11  O   UNL     1     -12.335  12.222  66.036  1.00  0.00    -0.609 OA 
BRANCH   9  12
HETATM   12  C   UNL     1      -9.971  11.903  66.617  1.00  0.00    -0.199 C  
HETATM   13  H   UNL     1      -9.635   9.943  66.595  1.00  0.00     0.000 HD 
HETATM   14  O   UNL     1     -10.300  10.548  66.284  1.00  0.00    -0.234 OA 
BRANCH  12  15
HETATM   15  C   UNL     1      -9.730  12.026  68.136  1.00  0.00    -0.199 C  
HETATM   16  H   UNL     1      -8.177  11.964  69.332  1.00  0.00     0.000 HD 
HETATM   17  O   UNL     1      -8.326  11.888  68.397  1.00  0.00    -0.159 OA 
BRANCH  15  18
HETATM   18  C   UNL     1     -10.518  10.976  68.945  1.00  0.00    -0.204 C  
HETATM   19  O   UNL     1     -11.812  10.731  68.394  1.00  0.00    -0.657 OA 
HETATM   20  H   UNL     1     -12.297  10.084  68.892  1.00  0.00     0.000 HD 
ENDBRANCH  15  18
ENDBRANCH  12  15
ENDBRANCH   9  12
ENDBRANCH   3   9
TORSDOF 5
ENDMDL
MODEL      140
REMARK 921   NORMALIZED FREE ENERGY PREDICTED BY IDOCK:   -3.54 KCAL/MOL
REMARK 922        TOTAL FREE ENERGY PREDICTED BY IDOCK:   -5.27 KCAL/MOL
REMARK 923 INTER-LIGAND FREE ENERGY PREDICTED BY IDOCK:   -5.57 KCAL/MOL
REMARK 924 INTRA-LIGAND FREE ENERGY PREDICTED BY IDOCK:    0.30 KCAL/MOL
REMARK 927      BINDING AFFINITY PREDICTED BY RF-SCORE:    0.00 PKD
ROOT
HETATM    1  C   UNL     1      -7.329  14.198  67.339  1.00  0.00    -0.120 C  
HETATM    2  O   UNL     1      -6.591  14.169  68.325  1.00  0.00    -0.091 OA 
HETATM    3  CA  UNL     1      -8.831  13.992  67.446  1.00  0.00    -0.206 C  
ENDROOT
BRANCH   3   4
HETATM    4  N   UNL     1      -9.372  13.451  66.187  1.00  0.00    -0.470 N  
HETATM    5  C   UNL     1     -10.254  11.807  64.643  1.00  0.00    -0.326 C  
HETATM    6  O   UNL     1      -9.796  11.342  66.950  1.00  0.00    -0.190 OA 
HETATM    7  H   UNL     1      -9.447  14.079  65.387  1.00  0.00     0.000 HD 
HETATM    8  C   UNL     1      -9.780  12.150  66.030  1.00  0.00    -0.244 C  
ENDBRANCH   3   4
BRANCH   3   9
HETATM    9  C   UNL     1      -9.557  15.265  67.939  1.00  0.00    -0.199 C  
HETATM   10  H   UNL     1      -9.045  17.128  68.203  1.00  0.00     0.000 HD 
HETATM   11  O   UNL     1      -8.599  16.346  67.899  1.00  0.00    -0.172 OA 
BRANCH   9  12
HETATM   12  C   UNL     1     -10.809  15.640  67.097  1.00  0.00    -0.297 C  
HETATM   13  H   UNL     1     -12.536  14.805  66.571  1.00  0.00     0.000 HD 
HETATM   14  O   UNL     1     -11.770  14.576  67.086  1.00  0.00    -0.377 OA 
BRANCH  12  15
HETATM   15  C   UNL     1     -10.447  16.034  65.649  1.00  0.00    -0.397 C  
HETATM   16  H   UNL     1     -10.189  17.708  64.661  1.00  0.00     0.000 HD 
HETATM   17  O   UNL     1     -10.412  17.465  65.552  1.00  0.00    -0.624 OA 
BRANCH  15  18
HETATM   18  C   UNL     1     -11.441  15.463  64.617  1.00  0.00    -0.337 C  
HETATM   19  O   UNL     1     -11.741  16.402  63.583  1.00  0.00    -1.520 OA 
HETATM   20  H   UNL     1     -12.353  16.051  62.947  1.00  0.00     0.000 HD 
ENDBRANCH  15  18
ENDBRANCH  12  15
ENDBRANCH   9  12
ENDBRANCH   3   9
TORSDOF 5
ENDMDL
MODEL      141
REMARK 921   NORMALIZED FREE ENERGY PREDICTED BY IDOCK:   -3.53 KCAL/MOL
REMARK 922        TOTAL FREE ENERGY PREDICTED BY IDOCK:   -5.26 KCAL/MOL
REMARK 923 INTER-LIGAND FREE ENERGY PREDICTED BY IDOCK:   -4.62 KCAL/MOL
REMARK 924 INTRA-LIGAND FREE ENERGY PREDICTED BY IDOCK:   -0.64 KCAL/MOL
REMARK 927      BINDING AFFINITY PREDICTED BY RF-SCORE:    0.00 PKD
ROOT
HETATM    1  C   UNL     1     -10.609   9.898  68.101  1.00  0.00    -0.227 C  
HETATM    2  O   UNL     1     -10.779   8.935  67.350  1.00  0.00    -0.272 OA 
HETATM    3  CA  UNL     1     -10.813   9.798  69.604  1.00  0.00    -0.250 C  
ENDROOT
BRANCH   3   4
HETATM    4  N   UNL     1     -11.171  11.110  70.167  1.00  0.00    -0.480 N  
HETATM    5  C   UNL     1     -12.541  12.802  71.228  1.00  0.00    -0.347 C  
HETATM    6  O   UNL     1     -13.234  10.524  70.950  1.00  0.00    -0.353 OA 
HETATM    7  H   UNL     1     -10.485  11.863  70.108  1.00  0.00     0.000 HD 
HETATM    8  C   UNL     1     -12.377  11.379  70.767  1.00  0.00    -0.386 C  
ENDBRANCH   3   4
BRANCH   3   9
HETATM    9  C   UNL     1      -9.612   9.125  70.308  1.00  0.00    -0.213 C  
HETATM   10  H   UNL     1      -7.737   9.585  70.578  1.00  0.00     0.000 HD 
HETATM   11  O   UNL     1      -8.475   9.999  70.146  1.00  0.00    -0.169 OA 
BRANCH   9  12
HETATM   12  C   UNL     1      -9.849   8.843  71.819  1.00  0.00    -0.315 C  
HETATM   13  H   UNL     1      -8.756   8.472  73.438  1.00  0.00     0.000 HD 
HETATM   14  O   UNL     1      -8.611   8.644  72.515  1.00  0.00    -0.364 OA 
BRANCH  12  15
HETATM   15  C   UNL     1     -10.780   7.635  72.052  1.00  0.00    -0.227 C  
HETATM   16  H   UNL     1     -12.591   7.359  72.753  1.00  0.00     0.000 HD 
HETATM   17  O   UNL     1     -12.017   8.103  72.610  1.00  0.00    -0.381 OA 
BRANCH  15  18
HETATM   18  C   UNL     1     -10.153   6.577  72.982  1.00  0.00    -0.191 C  
HETATM   19  O   UNL     1     -10.228   6.957  74.357  1.00  0.00    -0.441 OA 
HETATM   20  H   UNL     1      -9.842   6.305  74.930  1.00  0.00     0.000 HD 
ENDBRANCH  15  18
ENDBRANCH  12  15
ENDBRANCH   9  12
ENDBRANCH   3   9
TORSDOF 5
ENDMDL
MODEL      142
REMARK 921   NORMALIZED FREE ENERGY PREDICTED BY IDOCK:   -3.53 KCAL/MOL
REMARK 922        TOTAL FREE ENERGY PREDICTED BY IDOCK:   -5.25 KCAL/MOL
REMARK 923 INTER-LIGAND FREE ENERGY PREDICTED BY IDOCK:   -5.52 KCAL/MOL
REMARK 924 INTRA-LIGAND FREE ENERGY PREDICTED BY IDOCK:    0.27 KCAL/MOL
REMARK 927      BINDING AFFINITY PREDICTED BY RF-SCORE:    0.00 PKD
ROOT
HETATM    1  C   UNL     1     -12.283  13.336  64.912  1.00  0.00    -0.420 C  
HETATM    2  O   UNL     1     -13.182  14.084  65.300  1.00  0.00    -0.782 OA 
HETATM    3  CA  UNL     1     -10.813  13.689  65.069  1.00  0.00    -0.352 C  
ENDROOT
BRANCH   3   4
HETATM    4  N   UNL     1     -10.006  13.026  64.031  1.00  0.00    -0.575 N  
HETATM    5  C   UNL     1      -9.271  11.266  62.538  1.00  0.00    -0.265 C  
HETATM    6  O   UNL     1     -11.216  11.093  63.929  1.00  0.00    -0.279 OA 
HETATM    7  H   UNL     1      -9.219  13.538  63.634  1.00  0.00     0.000 HD 
HETATM    8  C   UNL     1     -10.254  11.758  63.568  1.00  0.00    -0.450 C  
ENDBRANCH   3   4
BRANCH   3   9
HETATM    9  C   UNL     1     -10.307  13.434  66.508  1.00  0.00    -0.284 C  
HETATM   10  H   UNL     1      -9.044  12.194  67.326  1.00  0.00     0.000 HD 
HETATM   11  O   UNL     1      -9.354  12.351  66.442  1.00  0.00    -0.232 OA 
BRANCH   9  12
HETATM   12  C   UNL     1      -9.647  14.677  67.170  1.00  0.00    -0.233 C  
HETATM   13  H   UNL     1      -8.995  15.216  68.969  1.00  0.00     0.000 HD 
HETATM   14  O   UNL     1      -9.398  14.457  68.564  1.00  0.00    -0.198 OA 
BRANCH  12  15
HETATM   15  C   UNL     1     -10.488  15.957  66.984  1.00  0.00    -0.306 C  
HETATM   16  H   UNL     1     -10.162  17.784  66.350  1.00  0.00     0.000 HD 
HETATM   17  O   UNL     1      -9.644  16.996  66.466  1.00  0.00    -0.255 OA 
BRANCH  15  18
HETATM   18  C   UNL     1     -11.148  16.425  68.296  1.00  0.00    -0.337 C  
HETATM   19  O   UNL     1     -12.046  15.449  68.826  1.00  0.00    -0.552 OA 
HETATM   20  H   UNL     1     -12.453  15.737  69.634  1.00  0.00     0.000 HD 
ENDBRANCH  15  18
ENDBRANCH  12  15
ENDBRANCH   9  12
ENDBRANCH   3   9
TORSDOF 5
ENDMDL
MODEL      143
REMARK 921   NORMALIZED FREE ENERGY PREDICTED BY IDOCK:   -3.53 KCAL/MOL
REMARK 922        TOTAL FREE ENERGY PREDICTED BY IDOCK:   -5.25 KCAL/MOL
REMARK 923 INTER-LIGAND FREE ENERGY PREDICTED BY IDOCK:   -4.80 KCAL/MOL
REMARK 924 INTRA-LIGAND FREE ENERGY PREDICTED BY IDOCK:   -0.44 KCAL/MOL
REMARK 927      BINDING AFFINITY PREDICTED BY RF-SCORE:    0.00 PKD
ROOT
HETATM    1  C   UNL     1      -9.644  11.016  68.161  1.00  0.00    -0.171 C  
HETATM    2  O   UNL     1     -10.378  11.751  68.823  1.00  0.00    -0.213 OA 
HETATM    3  CA  UNL     1     -10.056  10.472  66.803  1.00  0.00    -0.219 C  
ENDROOT
BRANCH   3   4
HETATM    4  N   UNL     1      -9.369   9.199  66.523  1.00  0.00    -0.175 N  
HETATM    5  C   UNL     1      -8.930   6.819  66.598  1.00  0.00    -0.154 C  
HETATM    6  O   UNL     1     -10.871   7.836  67.569  1.00  0.00    -0.216 OA 
HETATM    7  H   UNL     1      -8.512   9.227  65.971  1.00  0.00     0.000 HD 
HETATM    8  C   UNL     1      -9.817   7.979  66.964  1.00  0.00    -0.227 C  
ENDBRANCH   3   4
BRANCH   3   9
HETATM    9  C   UNL     1      -9.894  11.525  65.683  1.00  0.00    -0.236 C  
HETATM   10  H   UNL     1      -9.786  11.464  63.737  1.00  0.00     0.000 HD 
HETATM   11  O   UNL     1      -9.886  10.816  64.425  1.00  0.00    -0.259 OA 
BRANCH   9  12
HETATM   12  C   UNL     1     -11.012  12.606  65.672  1.00  0.00    -0.280 C  
HETATM   13  H   UNL     1     -12.923  12.744  65.138  1.00  0.00     0.000 HD 
HETATM   14  O   UNL     1     -12.239  12.084  65.145  1.00  0.00    -0.403 OA 
BRANCH  12  15
HETATM   15  C   UNL     1     -10.600  13.869  64.887  1.00  0.00    -0.419 C  
HETATM   16  H   UNL     1      -9.552  15.485  65.257  1.00  0.00     0.000 HD 
HETATM   17  O   UNL     1      -9.806  14.707  65.740  1.00  0.00    -0.317 OA 
BRANCH  15  18
HETATM   18  C   UNL     1     -11.816  14.659  64.362  1.00  0.00    -0.390 C  
HETATM   19  O   UNL     1     -12.314  14.128  63.134  1.00  0.00    -1.125 OA 
HETATM   20  H   UNL     1     -13.063  14.615  62.810  1.00  0.00     0.000 HD 
ENDBRANCH  15  18
ENDBRANCH  12  15
ENDBRANCH   9  12
ENDBRANCH   3   9
TORSDOF 5
ENDMDL
MODEL      144
REMARK 921   NORMALIZED FREE ENERGY PREDICTED BY IDOCK:   -3.52 KCAL/MOL
REMARK 922        TOTAL FREE ENERGY PREDICTED BY IDOCK:   -5.23 KCAL/MOL
REMARK 923 INTER-LIGAND FREE ENERGY PREDICTED BY IDOCK:   -4.73 KCAL/MOL
REMARK 924 INTRA-LIGAND FREE ENERGY PREDICTED BY IDOCK:   -0.51 KCAL/MOL
REMARK 927      BINDING AFFINITY PREDICTED BY RF-SCORE:    0.00 PKD
ROOT
HETATM    1  C   UNL     1      -9.109  11.668  68.483  1.00  0.00    -0.157 C  
HETATM    2  O   UNL     1      -8.445  11.339  67.499  1.00  0.00    -0.127 OA 
HETATM    3  CA  UNL     1     -10.627  11.741  68.448  1.00  0.00    -0.216 C  
ENDROOT
BRANCH   3   4
HETATM    4  N   UNL     1     -11.123  12.710  69.440  1.00  0.00    -0.447 N  
HETATM    5  C   UNL     1     -12.169  14.723  70.287  1.00  0.00    -0.394 C  
HETATM    6  O   UNL     1     -12.108  14.143  67.962  1.00  0.00    -0.351 OA 
HETATM    7  H   UNL     1     -10.956  12.515  70.427  1.00  0.00     0.000 HD 
HETATM    8  C   UNL     1     -11.797  13.859  69.111  1.00  0.00    -0.358 C  
ENDBRANCH   3   4
BRANCH   3   9
HETATM    9  C   UNL     1     -11.277  10.343  68.563  1.00  0.00    -0.251 C  
HETATM   10  H   UNL     1     -11.306   8.740  67.453  1.00  0.00     0.000 HD 
HETATM   11  O   UNL     1     -10.906   9.599  67.382  1.00  0.00    -0.274 OA 
BRANCH   9  12
HETATM   12  C   UNL     1     -10.855   9.557  69.836  1.00  0.00    -0.246 C  
HETATM   13  H   UNL     1     -10.094   7.775  70.284  1.00  0.00     0.000 HD 
HETATM   14  O   UNL     1     -10.353   8.255  69.505  1.00  0.00    -0.210 OA 
BRANCH  12  15
HETATM   15  C   UNL     1     -12.004   9.432  70.857  1.00  0.00    -0.280 C  
HETATM   16  H   UNL     1     -13.073  10.667  71.943  1.00  0.00     0.000 HD 
HETATM   17  O   UNL     1     -12.365  10.744  71.315  1.00  0.00    -0.361 OA 
BRANCH  15  18
HETATM   18  C   UNL     1     -11.630   8.544  72.061  1.00  0.00    -0.362 C  
HETATM   19  O   UNL     1     -12.701   8.425  72.997  1.00  0.00    -0.697 OA 
HETATM   20  H   UNL     1     -12.471   7.877  73.738  1.00  0.00     0.000 HD 
ENDBRANCH  15  18
ENDBRANCH  12  15
ENDBRANCH   9  12
ENDBRANCH   3   9
TORSDOF 5
ENDMDL
MODEL      145
REMARK 921   NORMALIZED FREE ENERGY PREDICTED BY IDOCK:   -3.51 KCAL/MOL
REMARK 922        TOTAL FREE ENERGY PREDICTED BY IDOCK:   -5.23 KCAL/MOL
REMARK 923 INTER-LIGAND FREE ENERGY PREDICTED BY IDOCK:   -4.30 KCAL/MOL
REMARK 924 INTRA-LIGAND FREE ENERGY PREDICTED BY IDOCK:   -0.93 KCAL/MOL
REMARK 927      BINDING AFFINITY PREDICTED BY RF-SCORE:    0.00 PKD
ROOT
HETATM    1  C   UNL     1      -8.954   9.211  70.821  1.00  0.00    -0.242 C  
HETATM    2  O   UNL     1      -7.944   9.860  70.541  1.00  0.00    -0.246 OA 
HETATM    3  CA  UNL     1     -10.257   9.371  70.055  1.00  0.00    -0.229 C  
ENDROOT
BRANCH   3   4
HETATM    4  N   UNL     1     -11.406   9.022  70.908  1.00  0.00    -0.279 N  
HETATM    5  C   UNL     1     -13.394   9.361  72.249  1.00  0.00    -0.539 C  
HETATM    6  O   UNL     1     -12.318  11.112  71.015  1.00  0.00    -0.371 OA 
HETATM    7  H   UNL     1     -11.522   8.047  71.184  1.00  0.00     0.000 HD 
HETATM    8  C   UNL     1     -12.330   9.935  71.352  1.00  0.00    -0.404 C  
ENDBRANCH   3   4
BRANCH   3   9
HETATM    9  C   UNL     1     -10.232   8.618  68.705  1.00  0.00    -0.207 C  
HETATM   10  H   UNL     1     -11.008   6.958  68.038  1.00  0.00     0.000 HD 
HETATM   11  O   UNL     1     -11.024   7.421  68.867  1.00  0.00    -0.110 OA 
BRANCH   9  12
HETATM   12  C   UNL     1     -10.776   9.452  67.511  1.00  0.00    -0.222 C  
HETATM   13  H   UNL     1     -10.365   9.708  65.582  1.00  0.00     0.000 HD 
HETATM   14  O   UNL     1     -10.033   9.198  66.312  1.00  0.00    -0.270 OA 
BRANCH  12  15
HETATM   15  C   UNL     1     -10.788  10.966  67.810  1.00  0.00    -0.259 C  
HETATM   16  H   UNL     1     -12.033  12.454  67.525  1.00  0.00     0.000 HD 
HETATM   17  O   UNL     1     -12.025  11.523  67.341  1.00  0.00    -0.623 OA 
BRANCH  15  18
HETATM   18  C   UNL     1      -9.602  11.705  67.158  1.00  0.00    -0.175 C  
HETATM   19  O   UNL     1      -8.371  11.455  67.838  1.00  0.00    -0.127 OA 
HETATM   20  H   UNL     1      -7.641  11.910  67.437  1.00  0.00     0.000 HD 
ENDBRANCH  15  18
ENDBRANCH  12  15
ENDBRANCH   9  12
ENDBRANCH   3   9
TORSDOF 5
ENDMDL
MODEL      146
REMARK 921   NORMALIZED FREE ENERGY PREDICTED BY IDOCK:   -3.51 KCAL/MOL
REMARK 922        TOTAL FREE ENERGY PREDICTED BY IDOCK:   -5.22 KCAL/MOL
REMARK 923 INTER-LIGAND FREE ENERGY PREDICTED BY IDOCK:   -4.89 KCAL/MOL
REMARK 924 INTRA-LIGAND FREE ENERGY PREDICTED BY IDOCK:   -0.33 KCAL/MOL
REMARK 927      BINDING AFFINITY PREDICTED BY RF-SCORE:    0.00 PKD
ROOT
HETATM    1  C   UNL     1     -11.270  11.304  67.212  1.00  0.00    -0.296 C  
HETATM    2  O   UNL     1     -10.765  11.069  66.112  1.00  0.00    -0.253 OA 
HETATM    3  CA  UNL     1     -10.449  11.804  68.389  1.00  0.00    -0.215 C  
ENDROOT
BRANCH   3   4
HETATM    4  N   UNL     1     -11.076  11.412  69.663  1.00  0.00    -0.421 N  
HETATM    5  C   UNL     1     -11.850   9.947  71.429  1.00  0.00    -0.476 C  
HETATM    6  O   UNL     1     -10.569   9.189  69.550  1.00  0.00    -0.218 OA 
HETATM    7  H   UNL     1     -11.504  12.141  70.233  1.00  0.00     0.000 HD 
HETATM    8  C   UNL     1     -11.117  10.120  70.126  1.00  0.00    -0.315 C  
ENDBRANCH   3   4
BRANCH   3   9
HETATM    9  C   UNL     1     -10.148  13.317  68.284  1.00  0.00    -0.250 C  
HETATM   10  H   UNL     1      -8.773  14.391  67.413  1.00  0.00     0.000 HD 
HETATM   11  O   UNL     1      -8.959  13.462  67.477  1.00  0.00    -0.186 OA 
BRANCH   9  12
HETATM   12  C   UNL     1     -11.308  14.147  67.665  1.00  0.00    -0.319 C  
HETATM   13  H   UNL     1     -11.652  15.197  66.012  1.00  0.00     0.000 HD 
HETATM   14  O   UNL     1     -10.942  14.690  66.390  1.00  0.00    -0.313 OA 
BRANCH  12  15
HETATM   15  C   UNL     1     -11.784  15.278  68.600  1.00  0.00    -0.346 C  
HETATM   16  H   UNL     1     -10.965  16.836  69.466  1.00  0.00     0.000 HD 
HETATM   17  O   UNL     1     -10.672  16.139  68.891  1.00  0.00    -0.244 OA 
BRANCH  15  18
HETATM   18  C   UNL     1     -12.388  14.743  69.914  1.00  0.00    -0.283 C  
HETATM   19  O   UNL     1     -13.527  15.497  70.329  1.00  0.00    -0.752 OA 
HETATM   20  H   UNL     1     -13.900  15.167  71.139  1.00  0.00     0.000 HD 
ENDBRANCH  15  18
ENDBRANCH  12  15
ENDBRANCH   9  12
ENDBRANCH   3   9
TORSDOF 5
ENDMDL
MODEL      147
REMARK 921   NORMALIZED FREE ENERGY PREDICTED BY IDOCK:   -3.50 KCAL/MOL
REMARK 922        TOTAL FREE ENERGY PREDICTED BY IDOCK:   -5.22 KCAL/MOL
REMARK 923 INTER-LIGAND FREE ENERGY PREDICTED BY IDOCK:   -4.50 KCAL/MOL
REMARK 924 INTRA-LIGAND FREE ENERGY PREDICTED BY IDOCK:   -0.72 KCAL/MOL
REMARK 927      BINDING AFFINITY PREDICTED BY RF-SCORE:    0.00 PKD
ROOT
HETATM    1  C   UNL     1     -11.663  14.199  69.808  1.00  0.00    -0.311 C  
HETATM    2  O   UNL     1     -12.588  14.997  69.969  1.00  0.00    -0.292 OA 
HETATM    3  CA  UNL     1     -11.692  13.134  68.723  1.00  0.00    -0.324 C  
ENDROOT
BRANCH   3   4
HETATM    4  N   UNL     1     -10.867  11.978  69.109  1.00  0.00    -0.383 N  
HETATM    5  C   UNL     1     -10.316   9.845  70.117  1.00  0.00    -0.336 C  
HETATM    6  O   UNL     1     -12.535  10.751  70.069  1.00  0.00    -0.325 OA 
HETATM    7  H   UNL     1      -9.878  11.987  68.858  1.00  0.00     0.000 HD 
HETATM    8  C   UNL     1     -11.352  10.888  69.788  1.00  0.00    -0.301 C  
ENDBRANCH   3   4
BRANCH   3   9
HETATM    9  C   UNL     1     -11.342  13.714  67.333  1.00  0.00    -0.315 C  
HETATM   10  H   UNL     1     -12.364  14.487  65.864  1.00  0.00     0.000 HD 
HETATM   11  O   UNL     1     -12.580  14.132  66.719  1.00  0.00    -0.306 OA 
BRANCH   9  12
HETATM   12  C   UNL     1     -10.348  14.909  67.383  1.00  0.00    -0.243 C  
HETATM   13  H   UNL     1     -10.331  16.833  66.882  1.00  0.00     0.000 HD 
HETATM   14  O   UNL     1     -10.938  16.102  66.852  1.00  0.00    -0.237 OA 
BRANCH  12  15
HETATM   15  C   UNL     1      -9.026  14.604  66.649  1.00  0.00    -0.238 C  
HETATM   16  H   UNL     1      -7.628  13.233  66.761  1.00  0.00     0.000 HD 
HETATM   17  O   UNL     1      -8.442  13.421  67.213  1.00  0.00    -0.193 OA 
BRANCH  15  18
HETATM   18  C   UNL     1      -8.024  15.773  66.730  1.00  0.00    -0.238 C  
HETATM   19  O   UNL     1      -8.367  16.840  65.846  1.00  0.00    -0.463 OA 
HETATM   20  H   UNL     1      -7.749  17.560  65.896  1.00  0.00     0.000 HD 
ENDBRANCH  15  18
ENDBRANCH  12  15
ENDBRANCH   9  12
ENDBRANCH   3   9
TORSDOF 5
ENDMDL
MODEL      148
REMARK 921   NORMALIZED FREE ENERGY PREDICTED BY IDOCK:   -3.50 KCAL/MOL
REMARK 922        TOTAL FREE ENERGY PREDICTED BY IDOCK:   -5.22 KCAL/MOL
REMARK 923 INTER-LIGAND FREE ENERGY PREDICTED BY IDOCK:   -4.40 KCAL/MOL
REMARK 924 INTRA-LIGAND FREE ENERGY PREDICTED BY IDOCK:   -0.82 KCAL/MOL
REMARK 927      BINDING AFFINITY PREDICTED BY RF-SCORE:    0.00 PKD
ROOT
HETATM    1  C   UNL     1     -13.509   6.962  71.465  1.00  0.00    -0.198 C  
HETATM    2  O   UNL     1     -14.388   7.825  71.490  1.00  0.00    -0.429 OA 
HETATM    3  CA  UNL     1     -12.049   7.300  71.215  1.00  0.00    -0.338 C  
ENDROOT
BRANCH   3   4
HETATM    4  N   UNL     1     -11.344   6.153  70.620  1.00  0.00    -0.324 N  
HETATM    5  C   UNL     1     -10.062   4.902  68.989  1.00  0.00    -0.210 C  
HETATM    6  O   UNL     1     -10.529   7.245  68.789  1.00  0.00    -0.197 OA 
HETATM    7  H   UNL     1     -11.361   5.264  71.122  1.00  0.00     0.000 HD 
HETATM    8  C   UNL     1     -10.667   6.210  69.427  1.00  0.00    -0.320 C  
ENDBRANCH   3   4
BRANCH   3   9
HETATM    9  C   UNL     1     -11.360   7.865  72.480  1.00  0.00    -0.390 C  
HETATM   10  H   UNL     1     -10.323   7.100  73.943  1.00  0.00     0.000 HD 
HETATM   11  O   UNL     1     -10.746   6.753  73.166  1.00  0.00    -0.259 OA 
BRANCH   9  12
HETATM   12  C   UNL     1     -10.292   8.954  72.179  1.00  0.00    -0.243 C  
HETATM   13  H   UNL     1      -9.961  10.355  70.807  1.00  0.00     0.000 HD 
HETATM   14  O   UNL     1     -10.614   9.689  70.991  1.00  0.00    -0.311 OA 
BRANCH  12  15
HETATM   15  C   UNL     1      -8.871   8.366  72.063  1.00  0.00    -0.211 C  
HETATM   16  H   UNL     1      -7.208   8.469  73.098  1.00  0.00     0.000 HD 
HETATM   17  O   UNL     1      -8.083   8.832  73.169  1.00  0.00    -0.412 OA 
BRANCH  15  18
HETATM   18  C   UNL     1      -8.183   8.744  70.735  1.00  0.00    -0.156 C  
HETATM   19  O   UNL     1      -7.677  10.079  70.751  1.00  0.00    -0.402 OA 
HETATM   20  H   UNL     1      -7.254  10.312  69.934  1.00  0.00     0.000 HD 
ENDBRANCH  15  18
ENDBRANCH  12  15
ENDBRANCH   9  12
ENDBRANCH   3   9
TORSDOF 5
ENDMDL
MODEL      149
REMARK 921   NORMALIZED FREE ENERGY PREDICTED BY IDOCK:   -3.50 KCAL/MOL
REMARK 922        TOTAL FREE ENERGY PREDICTED BY IDOCK:   -5.22 KCAL/MOL
REMARK 923 INTER-LIGAND FREE ENERGY PREDICTED BY IDOCK:   -4.55 KCAL/MOL
REMARK 924 INTRA-LIGAND FREE ENERGY PREDICTED BY IDOCK:   -0.67 KCAL/MOL
REMARK 927      BINDING AFFINITY PREDICTED BY RF-SCORE:    0.00 PKD
ROOT
HETATM    1  C   UNL     1      -8.710  12.200  68.224  1.00  0.00    -0.178 C  
HETATM    2  O   UNL     1      -8.214  13.153  67.621  1.00  0.00    -0.149 OA 
HETATM    3  CA  UNL     1      -9.994  11.531  67.762  1.00  0.00    -0.183 C  
ENDROOT
BRANCH   3   4
HETATM    4  N   UNL     1     -10.694  10.909  68.899  1.00  0.00    -0.201 N  
HETATM    5  C   UNL     1     -12.142  10.755  70.834  1.00  0.00    -0.475 C  
HETATM    6  O   UNL     1     -11.926  12.735  69.499  1.00  0.00    -0.309 OA 
HETATM    7  H   UNL     1     -10.507   9.927  69.100  1.00  0.00     0.000 HD 
HETATM    8  C   UNL     1     -11.582  11.578  69.704  1.00  0.00    -0.333 C  
ENDBRANCH   3   4
BRANCH   3   9
HETATM    9  C   UNL     1      -9.751  10.566  66.578  1.00  0.00    -0.192 C  
HETATM   10  H   UNL     1     -10.174   8.698  66.213  1.00  0.00     0.000 HD 
HETATM   11  O   UNL     1     -10.323   9.290  66.940  1.00  0.00    -0.249 OA 
BRANCH   9  12
HETATM   12  C   UNL     1     -10.362  11.055  65.234  1.00  0.00    -0.275 C  
HETATM   13  H   UNL     1      -9.723  11.542  63.415  1.00  0.00     0.000 HD 
HETATM   14  O   UNL     1      -9.350  11.243  64.237  1.00  0.00    -0.196 OA 
BRANCH  12  15
HETATM   15  C   UNL     1     -11.182  12.352  65.400  1.00  0.00    -0.318 C  
HETATM   16  H   UNL     1     -13.073  12.808  65.644  1.00  0.00     0.000 HD 
HETATM   17  O   UNL     1     -12.569  12.010  65.541  1.00  0.00    -0.300 OA 
BRANCH  15  18
HETATM   18  C   UNL     1     -11.000  13.320  64.213  1.00  0.00    -0.395 C  
HETATM   19  O   UNL     1     -11.595  12.820  63.015  1.00  0.00    -0.800 OA 
HETATM   20  H   UNL     1     -11.483  13.416  62.284  1.00  0.00     0.000 HD 
ENDBRANCH  15  18
ENDBRANCH  12  15
ENDBRANCH   9  12
ENDBRANCH   3   9
TORSDOF 5
ENDMDL
MODEL      150
REMARK 921   NORMALIZED FREE ENERGY PREDICTED BY IDOCK:   -3.50 KCAL/MOL
REMARK 922        TOTAL FREE ENERGY PREDICTED BY IDOCK:   -5.22 KCAL/MOL
REMARK 923 INTER-LIGAND FREE ENERGY PREDICTED BY IDOCK:   -5.10 KCAL/MOL
REMARK 924 INTRA-LIGAND FREE ENERGY PREDICTED BY IDOCK:   -0.12 KCAL/MOL
REMARK 927      BINDING AFFINITY PREDICTED BY RF-SCORE:    0.00 PKD
ROOT
HETATM    1  C   UNL     1     -11.995  16.033  64.383  1.00  0.00     0.070 C  
HETATM    2  O   UNL     1     -11.262  17.016  64.253  1.00  0.00    -1.186 OA 
HETATM    3  CA  UNL     1     -11.489  14.716  64.949  1.00  0.00    -0.401 C  
ENDROOT
BRANCH   3   4
HETATM    4  N   UNL     1     -12.288  13.590  64.436  1.00  0.00    -0.581 N  
HETATM    5  C   UNL     1     -12.768  11.525  63.267  1.00  0.00     0.048 C  
HETATM    6  O   UNL     1     -10.556  12.410  63.532  1.00  0.00    -0.438 OA 
HETATM    7  H   UNL     1     -13.292  13.592  64.614  1.00  0.00     0.000 HD 
HETATM    8  C   UNL     1     -11.757  12.538  63.732  1.00  0.00    -0.485 C  
ENDBRANCH   3   4
BRANCH   3   9
HETATM    9  C   UNL     1     -11.383  14.752  66.492  1.00  0.00    -0.344 C  
HETATM   10  H   UNL     1     -12.164  13.724  67.952  1.00  0.00     0.000 HD 
HETATM   11  O   UNL     1     -12.230  13.701  67.004  1.00  0.00    -0.389 OA 
BRANCH   9  12
HETATM   12  C   UNL     1      -9.933  14.568  67.025  1.00  0.00    -0.255 C  
HETATM   13  H   UNL     1      -8.457  13.248  66.854  1.00  0.00     0.000 HD 
HETATM   14  O   UNL     1      -9.343  13.360  66.529  1.00  0.00    -0.256 OA 
BRANCH  12  15
HETATM   15  C   UNL     1      -9.868  14.590  68.566  1.00  0.00    -0.231 C  
HETATM   16  H   UNL     1     -10.284  13.339  70.017  1.00  0.00     0.000 HD 
HETATM   17  O   UNL     1     -10.325  13.326  69.069  1.00  0.00    -0.115 OA 
BRANCH  15  18
HETATM   18  C   UNL     1     -10.708  15.730  69.176  1.00  0.00    -0.246 C  
HETATM   19  O   UNL     1     -10.168  17.018  68.877  1.00  0.00    -0.286 OA 
HETATM   20  H   UNL     1     -10.685  17.720  69.252  1.00  0.00     0.000 HD 
ENDBRANCH  15  18
ENDBRANCH  12  15
ENDBRANCH   9  12
ENDBRANCH   3   9
TORSDOF 5
ENDMDL
MODEL      151
REMARK 921   NORMALIZED FREE ENERGY PREDICTED BY IDOCK:   -3.49 KCAL/MOL
REMARK 922        TOTAL FREE ENERGY PREDICTED BY IDOCK:   -5.20 KCAL/MOL
REMARK 923 INTER-LIGAND FREE ENERGY PREDICTED BY IDOCK:   -4.60 KCAL/MOL
REMARK 924 INTRA-LIGAND FREE ENERGY PREDICTED BY IDOCK:   -0.60 KCAL/MOL
REMARK 927      BINDING AFFINITY PREDICTED BY RF-SCORE:    0.00 PKD
ROOT
HETATM    1  C   UNL     1      -8.511   6.227  70.531  1.00  0.00    -0.138 C  
HETATM    2  O   UNL     1      -7.740   7.183  70.432  1.00  0.00    -0.091 OA 
HETATM    3  CA  UNL     1      -9.821   6.320  71.297  1.00  0.00    -0.175 C  
ENDROOT
BRANCH   3   4
HETATM    4  N   UNL     1     -10.222   4.997  71.803  1.00  0.00    -0.202 N  
HETATM    5  C   UNL     1     -10.940   3.324  73.401  1.00  0.00    -0.301 C  
HETATM    6  O   UNL     1     -10.745   5.656  73.924  1.00  0.00    -0.271 OA 
HETATM    7  H   UNL     1     -10.203   4.208  71.155  1.00  0.00     0.000 HD 
HETATM    8  C   UNL     1     -10.620   4.764  73.096  1.00  0.00    -0.217 C  
ENDBRANCH   3   4
BRANCH   3   9
HETATM    9  C   UNL     1     -10.921   7.033  70.477  1.00  0.00    -0.265 C  
HETATM   10  H   UNL     1     -12.137   6.504  69.047  1.00  0.00     0.000 HD 
HETATM   11  O   UNL     1     -11.461   6.065  69.551  1.00  0.00    -0.384 OA 
BRANCH   9  12
HETATM   12  C   UNL     1     -12.066   7.627  71.346  1.00  0.00    -0.316 C  
HETATM   13  H   UNL     1     -13.979   7.240  71.728  1.00  0.00     0.000 HD 
HETATM   14  O   UNL     1     -13.279   6.878  71.197  1.00  0.00    -0.283 OA 
BRANCH  12  15
HETATM   15  C   UNL     1     -12.328   9.115  71.036  1.00  0.00    -0.214 C  
HETATM   16  H   UNL     1     -11.294  10.780  71.115  1.00  0.00     0.000 HD 
HETATM   17  O   UNL     1     -11.133   9.863  71.306  1.00  0.00    -0.351 OA 
BRANCH  15  18
HETATM   18  C   UNL     1     -13.501   9.691  71.854  1.00  0.00    -0.413 C  
HETATM   19  O   UNL     1     -13.654   9.034  73.113  1.00  0.00    -0.979 OA 
HETATM   20  H   UNL     1     -14.377   9.388  73.616  1.00  0.00     0.000 HD 
ENDBRANCH  15  18
ENDBRANCH  12  15
ENDBRANCH   9  12
ENDBRANCH   3   9
TORSDOF 5
ENDMDL
MODEL      152
REMARK 921   NORMALIZED FREE ENERGY PREDICTED BY IDOCK:   -3.49 KCAL/MOL
REMARK 922        TOTAL FREE ENERGY PREDICTED BY IDOCK:   -5.20 KCAL/MOL
REMARK 923 INTER-LIGAND FREE ENERGY PREDICTED BY IDOCK:   -4.80 KCAL/MOL
REMARK 924 INTRA-LIGAND FREE ENERGY PREDICTED BY IDOCK:   -0.40 KCAL/MOL
REMARK 927      BINDING AFFINITY PREDICTED BY RF-SCORE:    0.00 PKD
ROOT
HETATM    1  C   UNL     1     -11.572  14.311  68.452  1.00  0.00    -0.320 C  
HETATM    2  O   UNL     1     -12.385  15.160  68.822  1.00  0.00    -0.115 OA 
HETATM    3  CA  UNL     1     -10.750  14.476  67.185  1.00  0.00    -0.286 C  
ENDROOT
BRANCH   3   4
HETATM    4  N   UNL     1     -10.373  13.162  66.636  1.00  0.00    -0.262 N  
HETATM    5  C   UNL     1     -10.652  11.020  65.541  1.00  0.00    -0.267 C  
HETATM    6  O   UNL     1     -12.400  12.652  65.719  1.00  0.00    -0.594 OA 
HETATM    7  H   UNL     1      -9.409  12.850  66.755  1.00  0.00     0.000 HD 
HETATM    8  C   UNL     1     -11.245  12.335  65.974  1.00  0.00    -0.332 C  
ENDBRANCH   3   4
BRANCH   3   9
HETATM    9  C   UNL     1      -9.551  15.431  67.392  1.00  0.00    -0.210 C  
HETATM   10  H   UNL     1      -7.612  15.236  67.360  1.00  0.00     0.000 HD 
HETATM   11  O   UNL     1      -8.348  14.649  67.232  1.00  0.00    -0.188 OA 
BRANCH   9  12
HETATM   12  C   UNL     1      -9.532  16.636  66.409  1.00  0.00    -0.280 C  
HETATM   13  H   UNL     1      -8.204  17.927  65.686  1.00  0.00     0.000 HD 
HETATM   14  O   UNL     1      -8.216  17.190  66.287  1.00  0.00    -0.284 OA 
BRANCH  12  15
HETATM   15  C   UNL     1     -10.531  17.740  66.814  1.00  0.00    -0.300 C  
HETATM   16  H   UNL     1     -11.222  19.388  66.007  1.00  0.00     0.000 HD 
HETATM   17  O   UNL     1     -10.607  18.708  65.758  1.00  0.00    -0.567 OA 
BRANCH  15  18
HETATM   18  C   UNL     1     -10.138  18.435  68.134  1.00  0.00    -0.382 C  
HETATM   19  O   UNL     1     -10.610  17.723  69.278  1.00  0.00    -0.416 OA 
HETATM   20  H   UNL     1     -10.368  18.151  70.091  1.00  0.00     0.000 HD 
ENDBRANCH  15  18
ENDBRANCH  12  15
ENDBRANCH   9  12
ENDBRANCH   3   9
TORSDOF 5
ENDMDL
MODEL      153
REMARK 921   NORMALIZED FREE ENERGY PREDICTED BY IDOCK:   -3.48 KCAL/MOL
REMARK 922        TOTAL FREE ENERGY PREDICTED BY IDOCK:   -5.19 KCAL/MOL
REMARK 923 INTER-LIGAND FREE ENERGY PREDICTED BY IDOCK:   -4.81 KCAL/MOL
REMARK 924 INTRA-LIGAND FREE ENERGY PREDICTED BY IDOCK:   -0.39 KCAL/MOL
REMARK 927      BINDING AFFINITY PREDICTED BY RF-SCORE:    0.00 PKD
ROOT
HETATM    1  C   UNL     1     -10.770   5.176  72.584  1.00  0.00    -0.237 C  
HETATM    2  O   UNL     1     -11.724   4.624  73.133  1.00  0.00    -0.257 OA 
HETATM    3  CA  UNL     1     -10.956   6.291  71.567  1.00  0.00    -0.271 C  
ENDROOT
BRANCH   3   4
HETATM    4  N   UNL     1      -9.818   6.337  70.633  1.00  0.00    -0.183 N  
HETATM    5  C   UNL     1      -8.645   6.282  68.515  1.00  0.00    -0.114 C  
HETATM    6  O   UNL     1     -11.034   6.223  68.705  1.00  0.00    -0.298 OA 
HETATM    7  H   UNL     1      -8.879   6.429  71.023  1.00  0.00     0.000 HD 
HETATM    8  C   UNL     1      -9.948   6.262  69.269  1.00  0.00    -0.155 C  
ENDBRANCH   3   4
BRANCH   3   9
HETATM    9  C   UNL     1     -11.261   7.647  72.244  1.00  0.00    -0.293 C  
HETATM   10  H   UNL     1     -10.319   8.805  73.499  1.00  0.00     0.000 HD 
HETATM   11  O   UNL     1     -10.131   7.972  73.083  1.00  0.00    -0.307 OA 
BRANCH   9  12
HETATM   12  C   UNL     1     -11.521   8.805  71.239  1.00  0.00    -0.292 C  
HETATM   13  H   UNL     1     -10.730  10.574  70.792  1.00  0.00     0.000 HD 
HETATM   14  O   UNL     1     -10.571   9.866  71.406  1.00  0.00    -0.119 OA 
BRANCH  12  15
HETATM   15  C   UNL     1     -12.955   9.364  71.346  1.00  0.00    -0.346 C  
HETATM   16  H   UNL     1     -13.786  11.014  72.003  1.00  0.00     0.000 HD 
HETATM   17  O   UNL     1     -12.903  10.670  71.938  1.00  0.00    -0.445 OA 
BRANCH  15  18
HETATM   18  C   UNL     1     -13.883   8.451  72.172  1.00  0.00    -0.347 C  
HETATM   19  O   UNL     1     -14.323   9.079  73.377  1.00  0.00    -1.143 OA 
HETATM   20  H   UNL     1     -14.895   8.517  73.887  1.00  0.00     0.000 HD 
ENDBRANCH  15  18
ENDBRANCH  12  15
ENDBRANCH   9  12
ENDBRANCH   3   9
TORSDOF 5
ENDMDL
MODEL      154
REMARK 921   NORMALIZED FREE ENERGY PREDICTED BY IDOCK:   -3.47 KCAL/MOL
REMARK 922        TOTAL FREE ENERGY PREDICTED BY IDOCK:   -5.18 KCAL/MOL
REMARK 923 INTER-LIGAND FREE ENERGY PREDICTED BY IDOCK:   -4.59 KCAL/MOL
REMARK 924 INTRA-LIGAND FREE ENERGY PREDICTED BY IDOCK:   -0.59 KCAL/MOL
REMARK 927      BINDING AFFINITY PREDICTED BY RF-SCORE:    0.00 PKD
ROOT
HETATM    1  C   UNL     1      -9.275  13.754  67.087  1.00  0.00    -0.243 C  
HETATM    2  O   UNL     1      -8.152  13.779  67.593  1.00  0.00    -0.150 OA 
HETATM    3  CA  UNL     1      -9.929  12.460  66.632  1.00  0.00    -0.225 C  
ENDROOT
BRANCH   3   4
HETATM    4  N   UNL     1     -10.894  12.719  65.549  1.00  0.00    -0.270 N  
HETATM    5  C   UNL     1     -12.051  12.399  63.446  1.00  0.00    -0.620 C  
HETATM    6  O   UNL     1     -10.420  10.866  64.304  1.00  0.00    -0.362 OA 
HETATM    7  H   UNL     1     -11.490  13.544  65.623  1.00  0.00     0.000 HD 
HETATM    8  C   UNL     1     -11.036  11.914  64.447  1.00  0.00    -0.337 C  
ENDBRANCH   3   4
BRANCH   3   9
HETATM    9  C   UNL     1     -10.522  11.663  67.816  1.00  0.00    -0.187 C  
HETATM   10  H   UNL     1     -12.317  11.124  68.355  1.00  0.00     0.000 HD 
HETATM   11  O   UNL     1     -11.953  11.614  67.627  1.00  0.00    -0.618 OA 
BRANCH   9  12
HETATM   12  C   UNL     1      -9.958  10.219  67.946  1.00  0.00    -0.164 C  
HETATM   13  H   UNL     1     -10.510   8.372  67.461  1.00  0.00     0.000 HD 
HETATM   14  O   UNL     1     -10.855   9.254  67.381  1.00  0.00    -0.255 OA 
BRANCH  12  15
HETATM   15  C   UNL     1      -9.636   9.844  69.407  1.00  0.00    -0.215 C  
HETATM   16  H   UNL     1      -9.002   8.246  70.351  1.00  0.00     0.000 HD 
HETATM   17  O   UNL     1      -9.200   8.477  69.452  1.00  0.00    -0.152 OA 
BRANCH  15  18
HETATM   18  C   UNL     1     -10.844  10.039  70.346  1.00  0.00    -0.318 C  
HETATM   19  O   UNL     1     -11.804   8.990  70.212  1.00  0.00    -0.469 OA 
HETATM   20  H   UNL     1     -12.548   9.110  70.791  1.00  0.00     0.000 HD 
ENDBRANCH  15  18
ENDBRANCH  12  15
ENDBRANCH   9  12
ENDBRANCH   3   9
TORSDOF 5
ENDMDL
MODEL      155
REMARK 921   NORMALIZED FREE ENERGY PREDICTED BY IDOCK:   -3.47 KCAL/MOL
REMARK 922        TOTAL FREE ENERGY PREDICTED BY IDOCK:   -5.17 KCAL/MOL
REMARK 923 INTER-LIGAND FREE ENERGY PREDICTED BY IDOCK:   -5.19 KCAL/MOL
REMARK 924 INTRA-LIGAND FREE ENERGY PREDICTED BY IDOCK:    0.02 KCAL/MOL
REMARK 927      BINDING AFFINITY PREDICTED BY RF-SCORE:    0.00 PKD
ROOT
HETATM    1  C   UNL     1      -9.717  19.395  66.889  1.00  0.00    -0.343 C  
HETATM    2  O   UNL     1     -10.839  19.533  67.381  1.00  0.00    -0.486 OA 
HETATM    3  CA  UNL     1      -8.784  18.270  67.304  1.00  0.00    -0.255 C  
ENDROOT
BRANCH   3   4
HETATM    4  N   UNL     1      -7.379  18.658  67.096  1.00  0.00    -0.209 N  
HETATM    5  C   UNL     1      -5.312  19.877  67.424  1.00  0.00    -0.171 C  
HETATM    6  O   UNL     1      -7.253  20.172  68.799  1.00  0.00    -0.245 OA 
HETATM    7  H   UNL     1      -6.856  18.191  66.355  1.00  0.00     0.000 HD 
HETATM    8  C   UNL     1      -6.733  19.611  67.844  1.00  0.00    -0.240 C  
ENDBRANCH   3   4
BRANCH   3   9
HETATM    9  C   UNL     1      -9.164  16.927  66.638  1.00  0.00    -0.256 C  
HETATM   10  H   UNL     1      -8.328  15.171  66.502  1.00  0.00     0.000 HD 
HETATM   11  O   UNL     1      -8.095  15.996  66.911  1.00  0.00    -0.197 OA 
BRANCH   9  12
HETATM   12  C   UNL     1     -10.515  16.339  67.137  1.00  0.00    -0.297 C  
HETATM   13  H   UNL     1     -11.214  15.421  68.756  1.00  0.00     0.000 HD 
HETATM   14  O   UNL     1     -10.389  15.780  68.451  1.00  0.00    -0.225 OA 
BRANCH  12  15
HETATM   15  C   UNL     1     -11.088  15.283  66.170  1.00  0.00    -0.280 C  
HETATM   16  H   UNL     1     -11.000  13.332  65.993  1.00  0.00     0.000 HD 
HETATM   17  O   UNL     1     -10.647  13.982  66.588  1.00  0.00    -0.272 OA 
BRANCH  15  18
HETATM   18  C   UNL     1     -10.668  15.532  64.708  1.00  0.00    -0.304 C  
HETATM   19  O   UNL     1     -11.197  16.756  64.196  1.00  0.00    -1.415 OA 
HETATM   20  H   UNL     1     -10.938  16.910  63.295  1.00  0.00     0.000 HD 
ENDBRANCH  15  18
ENDBRANCH  12  15
ENDBRANCH   9  12
ENDBRANCH   3   9
TORSDOF 5
ENDMDL
MODEL      156
REMARK 921   NORMALIZED FREE ENERGY PREDICTED BY IDOCK:   -3.44 KCAL/MOL
REMARK 922        TOTAL FREE ENERGY PREDICTED BY IDOCK:   -5.14 KCAL/MOL
REMARK 923 INTER-LIGAND FREE ENERGY PREDICTED BY IDOCK:   -4.33 KCAL/MOL
REMARK 924 INTRA-LIGAND FREE ENERGY PREDICTED BY IDOCK:   -0.82 KCAL/MOL
REMARK 927      BINDING AFFINITY PREDICTED BY RF-SCORE:    0.00 PKD
ROOT
HETATM    1  C   UNL     1      -9.410   8.135  73.236  1.00  0.00    -0.238 C  
HETATM    2  O   UNL     1      -8.241   8.517  73.149  1.00  0.00    -0.368 OA 
HETATM    3  CA  UNL     1     -10.296   7.958  72.014  1.00  0.00    -0.225 C  
ENDROOT
BRANCH   3   4
HETATM    4  N   UNL     1     -11.715   8.125  72.373  1.00  0.00    -0.378 N  
HETATM    5  C   UNL     1     -13.908   9.149  72.453  1.00  0.00    -0.524 C  
HETATM    6  O   UNL     1     -12.106   9.986  71.111  1.00  0.00    -0.322 OA 
HETATM    7  H   UNL     1     -12.137   7.436  72.997  1.00  0.00     0.000 HD 
HETATM    8  C   UNL     1     -12.500   9.154  71.918  1.00  0.00    -0.387 C  
ENDBRANCH   3   4
BRANCH   3   9
HETATM    9  C   UNL     1      -9.994   6.639  71.265  1.00  0.00    -0.180 C  
HETATM   10  H   UNL     1     -11.008   5.026  70.851  1.00  0.00     0.000 HD 
HETATM   11  O   UNL     1     -11.194   5.837  71.310  1.00  0.00    -0.246 OA 
BRANCH   9  12
HETATM   12  C   UNL     1      -9.552   6.843  69.789  1.00  0.00    -0.154 C  
HETATM   13  H   UNL     1      -8.253   7.961  68.780  1.00  0.00     0.000 HD 
HETATM   14  O   UNL     1      -8.524   7.836  69.683  1.00  0.00    -0.130 OA 
BRANCH  12  15
HETATM   15  C   UNL     1     -10.733   7.211  68.867  1.00  0.00    -0.175 C  
HETATM   16  H   UNL     1     -11.736   6.328  67.432  1.00  0.00     0.000 HD 
HETATM   17  O   UNL     1     -11.008   6.102  67.999  1.00  0.00    -0.312 OA 
BRANCH  15  18
HETATM   18  C   UNL     1     -10.456   8.475  68.029  1.00  0.00    -0.191 C  
HETATM   19  O   UNL     1     -11.357   9.538  68.342  1.00  0.00    -0.496 OA 
HETATM   20  H   UNL     1     -11.186  10.316  67.826  1.00  0.00     0.000 HD 
ENDBRANCH  15  18
ENDBRANCH  12  15
ENDBRANCH   9  12
ENDBRANCH   3   9
TORSDOF 5
ENDMDL
MODEL      157
REMARK 921   NORMALIZED FREE ENERGY PREDICTED BY IDOCK:   -3.43 KCAL/MOL
REMARK 922        TOTAL FREE ENERGY PREDICTED BY IDOCK:   -5.13 KCAL/MOL
REMARK 923 INTER-LIGAND FREE ENERGY PREDICTED BY IDOCK:   -4.57 KCAL/MOL
REMARK 924 INTRA-LIGAND FREE ENERGY PREDICTED BY IDOCK:   -0.56 KCAL/MOL
REMARK 927      BINDING AFFINITY PREDICTED BY RF-SCORE:    0.00 PKD
ROOT
HETATM    1  C   UNL     1     -12.704  10.824  70.122  1.00  0.00    -0.167 C  
HETATM    2  O   UNL     1     -12.851  11.328  71.237  1.00  0.00    -0.393 OA 
HETATM    3  CA  UNL     1     -11.348  10.355  69.619  1.00  0.00    -0.272 C  
ENDROOT
BRANCH   3   4
HETATM    4  N   UNL     1     -11.296  10.400  68.148  1.00  0.00    -0.473 N  
HETATM    5  C   UNL     1     -10.632  11.155  65.945  1.00  0.00    -0.294 C  
HETATM    6  O   UNL     1      -9.678  12.000  67.975  1.00  0.00    -0.185 OA 
HETATM    7  H   UNL     1     -11.898   9.763  67.625  1.00  0.00     0.000 HD 
HETATM    8  C   UNL     1     -10.485  11.252  67.440  1.00  0.00    -0.212 C  
ENDBRANCH   3   4
BRANCH   3   9
HETATM    9  C   UNL     1     -10.952   8.983  70.214  1.00  0.00    -0.244 C  
HETATM   10  H   UNL     1      -9.557   7.672  69.846  1.00  0.00     0.000 HD 
HETATM   11  O   UNL     1      -9.800   8.515  69.481  1.00  0.00    -0.181 OA 
BRANCH   9  12
HETATM   12  C   UNL     1     -10.627   9.029  71.734  1.00  0.00    -0.356 C  
HETATM   13  H   UNL     1      -9.025   8.891  72.903  1.00  0.00     0.000 HD 
HETATM   14  O   UNL     1      -9.224   8.863  71.974  1.00  0.00    -0.348 OA 
BRANCH  12  15
HETATM   15  C   UNL     1     -11.424   7.980  72.536  1.00  0.00    -0.409 C  
HETATM   16  H   UNL     1     -11.194   6.092  73.017  1.00  0.00     0.000 HD 
HETATM   17  O   UNL     1     -10.704   6.738  72.523  1.00  0.00    -0.213 OA 
BRANCH  15  18
HETATM   18  C   UNL     1     -12.846   7.765  71.977  1.00  0.00    -0.240 C  
HETATM   19  O   UNL     1     -13.792   8.669  72.550  1.00  0.00    -0.587 OA 
HETATM   20  H   UNL     1     -14.667   8.537  72.206  1.00  0.00     0.000 HD 
ENDBRANCH  15  18
ENDBRANCH  12  15
ENDBRANCH   9  12
ENDBRANCH   3   9
TORSDOF 5
ENDMDL
MODEL      158
REMARK 921   NORMALIZED FREE ENERGY PREDICTED BY IDOCK:   -3.43 KCAL/MOL
REMARK 922        TOTAL FREE ENERGY PREDICTED BY IDOCK:   -5.13 KCAL/MOL
REMARK 923 INTER-LIGAND FREE ENERGY PREDICTED BY IDOCK:   -4.83 KCAL/MOL
REMARK 924 INTRA-LIGAND FREE ENERGY PREDICTED BY IDOCK:   -0.30 KCAL/MOL
REMARK 927      BINDING AFFINITY PREDICTED BY RF-SCORE:    0.00 PKD
ROOT
HETATM    1  C   UNL     1     -10.970  15.094  64.862  1.00  0.00    -0.419 C  
HETATM    2  O   UNL     1     -12.060  14.566  64.631  1.00  0.00    -0.438 OA 
HETATM    3  CA  UNL     1     -10.609  15.637  66.235  1.00  0.00    -0.307 C  
ENDROOT
BRANCH   3   4
HETATM    4  N   UNL     1      -9.618  16.720  66.120  1.00  0.00    -0.285 N  
HETATM    5  C   UNL     1      -8.655  18.925  66.399  1.00  0.00    -0.301 C  
HETATM    6  O   UNL     1     -10.727  18.250  67.399  1.00  0.00    -0.412 OA 
HETATM    7  H   UNL     1      -8.765  16.537  65.591  1.00  0.00     0.000 HD 
HETATM    8  C   UNL     1      -9.776  17.960  66.686  1.00  0.00    -0.319 C  
ENDBRANCH   3   4
BRANCH   3   9
HETATM    9  C   UNL     1     -10.194  14.513  67.212  1.00  0.00    -0.255 C  
HETATM   10  H   UNL     1     -10.085  14.342  69.151  1.00  0.00     0.000 HD 
HETATM   11  O   UNL     1     -10.341  15.033  68.551  1.00  0.00    -0.220 OA 
BRANCH   9  12
HETATM   12  C   UNL     1     -11.027  13.209  67.059  1.00  0.00    -0.269 C  
HETATM   13  H   UNL     1     -12.472  12.259  68.040  1.00  0.00     0.000 HD 
HETATM   14  O   UNL     1     -11.963  13.056  68.133  1.00  0.00    -0.343 OA 
BRANCH  12  15
HETATM   15  C   UNL     1     -10.137  11.953  66.957  1.00  0.00    -0.205 C  
HETATM   16  H   UNL     1      -9.792  10.568  65.611  1.00  0.00     0.000 HD 
HETATM   17  O   UNL     1     -10.340  11.341  65.674  1.00  0.00    -0.241 OA 
BRANCH  15  18
HETATM   18  C   UNL     1     -10.428  10.931  68.075  1.00  0.00    -0.191 C  
HETATM   19  O   UNL     1     -11.610  10.173  67.817  1.00  0.00    -0.627 OA 
HETATM   20  H   UNL     1     -11.789   9.543  68.506  1.00  0.00     0.000 HD 
ENDBRANCH  15  18
ENDBRANCH  12  15
ENDBRANCH   9  12
ENDBRANCH   3   9
TORSDOF 5
ENDMDL
MODEL      159
REMARK 921   NORMALIZED FREE ENERGY PREDICTED BY IDOCK:   -3.43 KCAL/MOL
REMARK 922        TOTAL FREE ENERGY PREDICTED BY IDOCK:   -5.12 KCAL/MOL
REMARK 923 INTER-LIGAND FREE ENERGY PREDICTED BY IDOCK:   -4.28 KCAL/MOL
REMARK 924 INTRA-LIGAND FREE ENERGY PREDICTED BY IDOCK:   -0.84 KCAL/MOL
REMARK 927      BINDING AFFINITY PREDICTED BY RF-SCORE:    0.00 PKD
ROOT
HETATM    1  C   UNL     1     -11.408  16.234  70.270  1.00  0.00    -0.287 C  
HETATM    2  O   UNL     1     -11.410  16.001  71.480  1.00  0.00    -0.374 OA 
HETATM    3  CA  UNL     1     -10.165  16.718  69.542  1.00  0.00    -0.166 C  
ENDROOT
BRANCH   3   4
HETATM    4  N   UNL     1     -10.533  17.498  68.348  1.00  0.00    -0.375 N  
HETATM    5  C   UNL     1     -10.890  19.452  66.962  1.00  0.00    -0.540 C  
HETATM    6  O   UNL     1      -9.908  19.543  69.147  1.00  0.00    -0.433 OA 
HETATM    7  H   UNL     1     -10.903  16.996  67.541  1.00  0.00     0.000 HD 
HETATM    8  C   UNL     1     -10.408  18.862  68.261  1.00  0.00    -0.335 C  
ENDBRANCH   3   4
BRANCH   3   9
HETATM    9  C   UNL     1      -9.177  15.565  69.251  1.00  0.00    -0.268 C  
HETATM   10  H   UNL     1      -9.185  14.004  68.082  1.00  0.00     0.000 HD 
HETATM   11  O   UNL     1      -9.792  14.713  68.260  1.00  0.00    -0.210 OA 
BRANCH   9  12
HETATM   12  C   UNL     1      -7.786  16.042  68.746  1.00  0.00    -0.187 C  
HETATM   13  H   UNL     1      -6.682  17.695  68.809  1.00  0.00     0.000 HD 
HETATM   14  O   UNL     1      -7.533  17.403  69.118  1.00  0.00    -0.222 OA 
BRANCH  12  15
HETATM   15  C   UNL     1      -7.627  15.877  67.220  1.00  0.00    -0.203 C  
HETATM   16  H   UNL     1      -6.345  15.008  66.017  1.00  0.00     0.000 HD 
HETATM   17  O   UNL     1      -6.443  15.110  66.956  1.00  0.00    -0.227 OA 
BRANCH  15  18
HETATM   18  C   UNL     1      -7.549  17.230  66.486  1.00  0.00    -0.288 C  
HETATM   19  O   UNL     1      -6.218  17.747  66.449  1.00  0.00    -0.169 OA 
HETATM   20  H   UNL     1      -6.170  18.581  65.997  1.00  0.00     0.000 HD 
ENDBRANCH  15  18
ENDBRANCH  12  15
ENDBRANCH   9  12
ENDBRANCH   3   9
TORSDOF 5
ENDMDL
MODEL      160
REMARK 921   NORMALIZED FREE ENERGY PREDICTED BY IDOCK:   -3.43 KCAL/MOL
REMARK 922        TOTAL FREE ENERGY PREDICTED BY IDOCK:   -5.12 KCAL/MOL
REMARK 923 INTER-LIGAND FREE ENERGY PREDICTED BY IDOCK:   -4.46 KCAL/MOL
REMARK 924 INTRA-LIGAND FREE ENERGY PREDICTED BY IDOCK:   -0.66 KCAL/MOL
REMARK 927      BINDING AFFINITY PREDICTED BY RF-SCORE:    0.00 PKD
ROOT
HETATM    1  C   UNL     1      -7.028  17.650  68.938  1.00  0.00    -0.251 C  
HETATM    2  O   UNL     1      -5.808  17.491  68.853  1.00  0.00    -0.169 OA 
HETATM    3  CA  UNL     1      -8.001  16.957  67.999  1.00  0.00    -0.185 C  
ENDROOT
BRANCH   3   4
HETATM    4  N   UNL     1      -9.241  17.740  67.867  1.00  0.00    -0.260 N  
HETATM    5  C   UNL     1     -10.762  19.412  66.996  1.00  0.00    -0.582 C  
HETATM    6  O   UNL     1      -8.612  18.953  66.040  1.00  0.00    -0.467 OA 
HETATM    7  H   UNL     1     -10.001  17.553  68.522  1.00  0.00     0.000 HD 
HETATM    8  C   UNL     1      -9.433  18.708  66.913  1.00  0.00    -0.301 C  
ENDBRANCH   3   4
BRANCH   3   9
HETATM    9  C   UNL     1      -8.236  15.480  68.394  1.00  0.00    -0.145 C  
HETATM   10  H   UNL     1      -9.381  14.563  69.679  1.00  0.00     0.000 HD 
HETATM   11  O   UNL     1      -9.237  15.470  69.436  1.00  0.00    -0.257 OA 
BRANCH   9  12
HETATM   12  C   UNL     1      -8.696  14.580  67.213  1.00  0.00    -0.210 C  
HETATM   13  H   UNL     1      -9.139  14.790  65.286  1.00  0.00     0.000 HD 
HETATM   14  O   UNL     1      -8.858  15.340  66.008  1.00  0.00    -0.244 OA 
BRANCH  12  15
HETATM   15  C   UNL     1      -9.998  13.815  67.530  1.00  0.00    -0.233 C  
HETATM   16  H   UNL     1     -10.621  11.962  67.381  1.00  0.00     0.000 HD 
HETATM   17  O   UNL     1      -9.820  12.433  67.186  1.00  0.00    -0.201 OA 
BRANCH  15  18
HETATM   18  C   UNL     1     -11.216  14.388  66.778  1.00  0.00    -0.337 C  
HETATM   19  O   UNL     1     -12.369  14.486  67.615  1.00  0.00    -0.617 OA 
HETATM   20  H   UNL     1     -13.119  14.839  67.153  1.00  0.00     0.000 HD 
ENDBRANCH  15  18
ENDBRANCH  12  15
ENDBRANCH   9  12
ENDBRANCH   3   9
TORSDOF 5
ENDMDL
MODEL      161
REMARK 921   NORMALIZED FREE ENERGY PREDICTED BY IDOCK:   -3.42 KCAL/MOL
REMARK 922        TOTAL FREE ENERGY PREDICTED BY IDOCK:   -5.11 KCAL/MOL
REMARK 923 INTER-LIGAND FREE ENERGY PREDICTED BY IDOCK:   -5.18 KCAL/MOL
REMARK 924 INTRA-LIGAND FREE ENERGY PREDICTED BY IDOCK:    0.06 KCAL/MOL
REMARK 927      BINDING AFFINITY PREDICTED BY RF-SCORE:    0.00 PKD
ROOT
HETATM    1  C   UNL     1     -10.041  10.941  68.586  1.00  0.00    -0.191 C  
HETATM    2  O   UNL     1      -9.113  10.263  68.140  1.00  0.00    -0.133 OA 
HETATM    3  CA  UNL     1     -10.242  12.395  68.194  1.00  0.00    -0.225 C  
ENDROOT
BRANCH   3   4
HETATM    4  N   UNL     1     -10.946  13.128  69.260  1.00  0.00    -0.434 N  
HETATM    5  C   UNL     1     -12.529  13.519  71.051  1.00  0.00    -0.451 C  
HETATM    6  O   UNL     1     -12.221  11.386  70.001  1.00  0.00    -0.309 OA 
HETATM    7  H   UNL     1     -10.702  14.107  69.413  1.00  0.00     0.000 HD 
HETATM    8  C   UNL     1     -11.912  12.569  70.059  1.00  0.00    -0.299 C  
ENDBRANCH   3   4
BRANCH   3   9
HETATM    9  C   UNL     1     -10.902  12.535  66.802  1.00  0.00    -0.249 C  
HETATM   10  H   UNL     1     -12.535  11.862  65.978  1.00  0.00     0.000 HD 
HETATM   11  O   UNL     1     -12.130  11.776  66.833  1.00  0.00    -0.566 OA 
BRANCH   9  12
HETATM   12  C   UNL     1     -11.200  14.005  66.394  1.00  0.00    -0.319 C  
HETATM   13  H   UNL     1     -12.393  15.484  66.978  1.00  0.00     0.000 HD 
HETATM   14  O   UNL     1     -12.211  14.586  67.228  1.00  0.00    -0.347 OA 
BRANCH  12  15
HETATM   15  C   UNL     1     -11.607  14.131  64.911  1.00  0.00    -0.379 C  
HETATM   16  H   UNL     1     -11.026  13.342  63.212  1.00  0.00     0.000 HD 
HETATM   17  O   UNL     1     -10.775  13.265  64.125  1.00  0.00    -0.405 OA 
BRANCH  15  18
HETATM   18  C   UNL     1     -11.497  15.578  64.390  1.00  0.00    -0.259 C  
HETATM   19  O   UNL     1     -10.621  16.373  65.190  1.00  0.00    -0.610 OA 
HETATM   20  H   UNL     1     -10.553  17.264  64.869  1.00  0.00     0.000 HD 
ENDBRANCH  15  18
ENDBRANCH  12  15
ENDBRANCH   9  12
ENDBRANCH   3   9
TORSDOF 5
ENDMDL
MODEL      162
REMARK 921   NORMALIZED FREE ENERGY PREDICTED BY IDOCK:   -3.40 KCAL/MOL
REMARK 922        TOTAL FREE ENERGY PREDICTED BY IDOCK:   -5.09 KCAL/MOL
REMARK 923 INTER-LIGAND FREE ENERGY PREDICTED BY IDOCK:   -4.73 KCAL/MOL
REMARK 924 INTRA-LIGAND FREE ENERGY PREDICTED BY IDOCK:   -0.36 KCAL/MOL
REMARK 927      BINDING AFFINITY PREDICTED BY RF-SCORE:    0.00 PKD
ROOT
HETATM    1  C   UNL     1     -10.398  16.171  69.271  1.00  0.00    -0.265 C  
HETATM    2  O   UNL     1     -11.082  16.658  70.174  1.00  0.00    -0.310 OA 
HETATM    3  CA  UNL     1     -10.635  16.504  67.807  1.00  0.00    -0.332 C  
ENDROOT
BRANCH   3   4
HETATM    4  N   UNL     1     -10.185  15.399  66.944  1.00  0.00    -0.268 N  
HETATM    5  C   UNL     1     -10.319  13.341  65.674  1.00  0.00    -0.292 C  
HETATM    6  O   UNL     1     -12.207  14.361  66.744  1.00  0.00    -0.420 OA 
HETATM    7  H   UNL     1      -9.207  15.384  66.654  1.00  0.00     0.000 HD 
HETATM    8  C   UNL     1     -11.006  14.389  66.509  1.00  0.00    -0.316 C  
ENDBRANCH   3   4
BRANCH   3   9
HETATM    9  C   UNL     1     -10.038  17.878  67.422  1.00  0.00    -0.340 C  
HETATM   10  H   UNL     1     -10.727  19.699  67.313  1.00  0.00     0.000 HD 
HETATM   11  O   UNL     1     -11.094  18.855  67.550  1.00  0.00    -0.356 OA 
BRANCH   9  12
HETATM   12  C   UNL     1      -8.821  18.300  68.293  1.00  0.00    -0.287 C  
HETATM   13  H   UNL     1      -8.422  19.615  69.730  1.00  0.00     0.000 HD 
HETATM   14  O   UNL     1      -9.165  19.357  69.198  1.00  0.00    -0.323 OA 
BRANCH  12  15
HETATM   15  C   UNL     1      -7.605  18.716  67.440  1.00  0.00    -0.227 C  
HETATM   16  H   UNL     1      -5.664  18.823  67.700  1.00  0.00     0.000 HD 
HETATM   17  O   UNL     1      -6.413  18.567  68.225  1.00  0.00    -0.204 OA 
BRANCH  15  18
HETATM   18  C   UNL     1      -7.714  20.165  66.924  1.00  0.00    -0.304 C  
HETATM   19  O   UNL     1      -7.468  20.258  65.520  1.00  0.00    -0.485 OA 
HETATM   20  H   UNL     1      -7.536  21.150  65.203  1.00  0.00     0.000 HD 
ENDBRANCH  15  18
ENDBRANCH  12  15
ENDBRANCH   9  12
ENDBRANCH   3   9
TORSDOF 5
ENDMDL
MODEL      163
REMARK 921   NORMALIZED FREE ENERGY PREDICTED BY IDOCK:   -3.39 KCAL/MOL
REMARK 922        TOTAL FREE ENERGY PREDICTED BY IDOCK:   -5.07 KCAL/MOL
REMARK 923 INTER-LIGAND FREE ENERGY PREDICTED BY IDOCK:   -4.79 KCAL/MOL
REMARK 924 INTRA-LIGAND FREE ENERGY PREDICTED BY IDOCK:   -0.29 KCAL/MOL
REMARK 927      BINDING AFFINITY PREDICTED BY RF-SCORE:    0.00 PKD
ROOT
HETATM    1  C   UNL     1      -9.081  14.354  66.735  1.00  0.00    -0.257 C  
HETATM    2  O   UNL     1      -8.776  13.259  66.258  1.00  0.00     0.108 OA 
HETATM    3  CA  UNL     1     -10.415  15.021  66.441  1.00  0.00    -0.294 C  
ENDROOT
BRANCH   3   4
HETATM    4  N   UNL     1     -10.301  16.484  66.563  1.00  0.00    -0.306 N  
HETATM    5  C   UNL     1     -10.505  18.814  65.934  1.00  0.00    -0.424 C  
HETATM    6  O   UNL     1     -11.398  17.010  64.632  1.00  0.00    -0.889 OA 
HETATM    7  H   UNL     1      -9.845  16.864  67.392  1.00  0.00     0.000 HD 
HETATM    8  C   UNL     1     -10.774  17.366  65.623  1.00  0.00    -0.111 C  
ENDBRANCH   3   4
BRANCH   3   9
HETATM    9  C   UNL     1     -11.564  14.414  67.280  1.00  0.00    -0.379 C  
HETATM   10  H   UNL     1     -13.222  13.474  66.870  1.00  0.00     0.000 HD 
HETATM   11  O   UNL     1     -12.516  13.847  66.355  1.00  0.00    -0.441 OA 
BRANCH   9  12
HETATM   12  C   UNL     1     -11.097  13.327  68.289  1.00  0.00    -0.266 C  
HETATM   13  H   UNL     1     -11.452  11.405  68.654  1.00  0.00     0.000 HD 
HETATM   14  O   UNL     1     -11.737  12.070  68.038  1.00  0.00    -0.337 OA 
BRANCH  12  15
HETATM   15  C   UNL     1     -11.329  13.749  69.755  1.00  0.00    -0.134 C  
HETATM   16  H   UNL     1     -12.199  12.971  71.331  1.00  0.00     0.000 HD 
HETATM   17  O   UNL     1     -12.057  12.712  70.428  1.00  0.00    -0.364 OA 
BRANCH  15  18
HETATM   18  C   UNL     1     -12.094  15.084  69.871  1.00  0.00    -0.334 C  
HETATM   19  O   UNL     1     -11.365  16.059  70.617  1.00  0.00    -0.360 OA 
HETATM   20  H   UNL     1     -11.836  16.881  70.689  1.00  0.00     0.000 HD 
ENDBRANCH  15  18
ENDBRANCH  12  15
ENDBRANCH   9  12
ENDBRANCH   3   9
TORSDOF 5
ENDMDL
MODEL      164
REMARK 921   NORMALIZED FREE ENERGY PREDICTED BY IDOCK:   -3.38 KCAL/MOL
REMARK 922        TOTAL FREE ENERGY PREDICTED BY IDOCK:   -5.07 KCAL/MOL
REMARK 923 INTER-LIGAND FREE ENERGY PREDICTED BY IDOCK:   -4.82 KCAL/MOL
REMARK 924 INTRA-LIGAND FREE ENERGY PREDICTED BY IDOCK:   -0.24 KCAL/MOL
REMARK 927      BINDING AFFINITY PREDICTED BY RF-SCORE:    0.00 PKD
ROOT
HETATM    1  C   UNL     1     -11.150  15.977  69.705  1.00  0.00    -0.337 C  
HETATM    2  O   UNL     1     -11.011  15.415  70.793  1.00  0.00    -0.326 OA 
HETATM    3  CA  UNL     1      -9.982  16.612  68.968  1.00  0.00    -0.280 C  
ENDROOT
BRANCH   3   4
HETATM    4  N   UNL     1     -10.450  17.706  68.100  1.00  0.00    -0.382 N  
HETATM    5  C   UNL     1     -10.507  19.908  67.092  1.00  0.00    -0.566 C  
HETATM    6  O   UNL     1      -8.781  19.184  68.590  1.00  0.00    -0.349 OA 
HETATM    7  H   UNL     1     -11.284  17.548  67.534  1.00  0.00     0.000 HD 
HETATM    8  C   UNL     1      -9.827  18.926  68.008  1.00  0.00    -0.352 C  
ENDBRANCH   3   4
BRANCH   3   9
HETATM    9  C   UNL     1      -9.119  15.560  68.234  1.00  0.00    -0.186 C  
HETATM   10  H   UNL     1      -7.989  14.072  68.791  1.00  0.00     0.000 HD 
HETATM   11  O   UNL     1      -8.519  14.718  69.243  1.00  0.00    -0.136 OA 
BRANCH   9  12
HETATM   12  C   UNL     1      -9.918  14.686  67.226  1.00  0.00    -0.235 C  
HETATM   13  H   UNL     1     -11.657  14.762  66.264  1.00  0.00     0.000 HD 
HETATM   14  O   UNL     1     -11.168  15.296  66.880  1.00  0.00    -0.322 OA 
BRANCH  12  15
HETATM   15  C   UNL     1     -10.160  13.256  67.752  1.00  0.00    -0.229 C  
HETATM   16  H   UNL     1      -9.576  11.450  67.260  1.00  0.00     0.000 HD 
HETATM   17  O   UNL     1      -9.427  12.330  66.937  1.00  0.00    -0.204 OA 
BRANCH  15  18
HETATM   18  C   UNL     1     -11.655  12.876  67.760  1.00  0.00    -0.343 C  
HETATM   19  O   UNL     1     -12.135  12.550  66.455  1.00  0.00    -0.572 OA 
HETATM   20  H   UNL     1     -13.056  12.316  66.460  1.00  0.00     0.000 HD 
ENDBRANCH  15  18
ENDBRANCH  12  15
ENDBRANCH   9  12
ENDBRANCH   3   9
TORSDOF 5
ENDMDL
MODEL      165
REMARK 921   NORMALIZED FREE ENERGY PREDICTED BY IDOCK:   -3.38 KCAL/MOL
REMARK 922        TOTAL FREE ENERGY PREDICTED BY IDOCK:   -5.06 KCAL/MOL
REMARK 923 INTER-LIGAND FREE ENERGY PREDICTED BY IDOCK:   -4.50 KCAL/MOL
REMARK 924 INTRA-LIGAND FREE ENERGY PREDICTED BY IDOCK:   -0.57 KCAL/MOL
REMARK 927      BINDING AFFINITY PREDICTED BY RF-SCORE:    0.00 PKD
ROOT
HETATM    1  C   UNL     1     -11.339  11.718  69.114  1.00  0.00    -0.279 C  
HETATM    2  O   UNL     1     -12.449  11.199  68.982  1.00  0.00    -0.439 OA 
HETATM    3  CA  UNL     1     -10.314  11.733  67.992  1.00  0.00    -0.198 C  
ENDROOT
BRANCH   3   4
HETATM    4  N   UNL     1      -8.948  11.802  68.536  1.00  0.00    -0.292 N  
HETATM    5  C   UNL     1      -6.735  11.039  69.158  1.00  0.00    -0.084 C  
HETATM    6  O   UNL     1      -8.303   9.696  67.941  1.00  0.00    -0.116 OA 
HETATM    7  H   UNL     1      -8.645  12.676  68.967  1.00  0.00     0.000 HD 
HETATM    8  C   UNL     1      -8.059  10.757  68.499  1.00  0.00    -0.133 C  
ENDBRANCH   3   4
BRANCH   3   9
HETATM    9  C   UNL     1     -10.622  12.826  66.942  1.00  0.00    -0.244 C  
HETATM   10  H   UNL     1      -9.545  13.997  65.815  1.00  0.00     0.000 HD 
HETATM   11  O   UNL     1      -9.356  13.325  66.459  1.00  0.00    -0.253 OA 
BRANCH   9  12
HETATM   12  C   UNL     1     -11.480  12.324  65.746  1.00  0.00    -0.367 C  
HETATM   13  H   UNL     1     -11.394  10.892  64.369  1.00  0.00     0.000 HD 
HETATM   14  O   UNL     1     -10.870  11.199  65.099  1.00  0.00    -0.248 OA 
BRANCH  12  15
HETATM   15  C   UNL     1     -11.756  13.436  64.714  1.00  0.00    -0.361 C  
HETATM   16  H   UNL     1     -12.847  15.065  64.646  1.00  0.00     0.000 HD 
HETATM   17  O   UNL     1     -12.677  14.380  65.282  1.00  0.00    -0.498 OA 
BRANCH  15  18
HETATM   18  C   UNL     1     -12.324  12.885  63.390  1.00  0.00    -0.410 C  
HETATM   19  O   UNL     1     -13.245  11.814  63.603  1.00  0.00    -0.573 OA 
HETATM   20  H   UNL     1     -13.594  11.475  62.788  1.00  0.00     0.000 HD 
ENDBRANCH  15  18
ENDBRANCH  12  15
ENDBRANCH   9  12
ENDBRANCH   3   9
TORSDOF 5
ENDMDL
MODEL      166
REMARK 921   NORMALIZED FREE ENERGY PREDICTED BY IDOCK:   -3.38 KCAL/MOL
REMARK 922        TOTAL FREE ENERGY PREDICTED BY IDOCK:   -5.06 KCAL/MOL
REMARK 923 INTER-LIGAND FREE ENERGY PREDICTED BY IDOCK:   -4.06 KCAL/MOL
REMARK 924 INTRA-LIGAND FREE ENERGY PREDICTED BY IDOCK:   -1.00 KCAL/MOL
REMARK 927      BINDING AFFINITY PREDICTED BY RF-SCORE:    0.00 PKD
ROOT
HETATM    1  C   UNL     1     -12.087   8.769  72.257  1.00  0.00    -0.353 C  
HETATM    2  O   UNL     1     -13.020   9.574  72.221  1.00  0.00    -0.401 OA 
HETATM    3  CA  UNL     1     -11.250   8.445  71.030  1.00  0.00    -0.266 C  
ENDROOT
BRANCH   3   4
HETATM    4  N   UNL     1     -10.680   7.091  71.134  1.00  0.00    -0.228 N  
HETATM    5  C   UNL     1     -10.242   4.785  70.537  1.00  0.00    -0.252 C  
HETATM    6  O   UNL     1     -11.501   6.291  69.160  1.00  0.00    -0.394 OA 
HETATM    7  H   UNL     1     -10.101   6.873  71.945  1.00  0.00     0.000 HD 
HETATM    8  C   UNL     1     -10.884   6.105  70.201  1.00  0.00    -0.329 C  
ENDBRANCH   3   4
BRANCH   3   9
HETATM    9  C   UNL     1     -10.200   9.542  70.738  1.00  0.00    -0.293 C  
HETATM   10  H   UNL     1      -8.456  10.011  71.473  1.00  0.00     0.000 HD 
HETATM   11  O   UNL     1      -9.101   9.336  71.652  1.00  0.00    -0.315 OA 
BRANCH   9  12
HETATM   12  C   UNL     1      -9.677   9.536  69.274  1.00  0.00    -0.176 C  
HETATM   13  H   UNL     1      -8.263   8.619  68.218  1.00  0.00     0.000 HD 
HETATM   14  O   UNL     1      -8.583   8.623  69.113  1.00  0.00    -0.126 OA 
BRANCH  12  15
HETATM   15  C   UNL     1      -9.262  10.942  68.794  1.00  0.00    -0.183 C  
HETATM   16  H   UNL     1      -9.487  12.002  67.159  1.00  0.00     0.000 HD 
HETATM   17  O   UNL     1      -9.742  11.136  67.455  1.00  0.00    -0.171 OA 
BRANCH  15  18
HETATM   18  C   UNL     1      -7.735  11.153  68.838  1.00  0.00    -0.137 C  
HETATM   19  O   UNL     1      -7.222  11.099  70.169  1.00  0.00    -0.434 OA 
HETATM   20  H   UNL     1      -6.281  11.229  70.197  1.00  0.00     0.000 HD 
ENDBRANCH  15  18
ENDBRANCH  12  15
ENDBRANCH   9  12
ENDBRANCH   3   9
TORSDOF 5
ENDMDL
MODEL      167
REMARK 921   NORMALIZED FREE ENERGY PREDICTED BY IDOCK:   -3.38 KCAL/MOL
REMARK 922        TOTAL FREE ENERGY PREDICTED BY IDOCK:   -5.05 KCAL/MOL
REMARK 923 INTER-LIGAND FREE ENERGY PREDICTED BY IDOCK:   -4.32 KCAL/MOL
REMARK 924 INTRA-LIGAND FREE ENERGY PREDICTED BY IDOCK:   -0.74 KCAL/MOL
REMARK 927      BINDING AFFINITY PREDICTED BY RF-SCORE:    0.00 PKD
ROOT
HETATM    1  C   UNL     1     -11.018   6.911  67.270  1.00  0.00    -0.336 C  
HETATM    2  O   UNL     1     -10.485   6.006  66.624  1.00  0.00    -0.232 OA 
HETATM    3  CA  UNL     1     -10.230   7.804  68.213  1.00  0.00    -0.201 C  
ENDROOT
BRANCH   3   4
HETATM    4  N   UNL     1     -11.098   8.326  69.281  1.00  0.00    -0.430 N  
HETATM    5  C   UNL     1     -11.703   9.238  71.442  1.00  0.00    -0.431 C  
HETATM    6  O   UNL     1      -9.437   8.891  70.741  1.00  0.00    -0.189 OA 
HETATM    7  H   UNL     1     -12.106   8.338  69.119  1.00  0.00     0.000 HD 
HETATM    8  C   UNL     1     -10.630   8.797  70.482  1.00  0.00    -0.215 C  
ENDBRANCH   3   4
BRANCH   3   9
HETATM    9  C   UNL     1      -9.449   8.902  67.453  1.00  0.00    -0.145 C  
HETATM   10  H   UNL     1      -7.773   8.964  66.459  1.00  0.00     0.000 HD 
HETATM   11  O   UNL     1      -8.252   8.289  66.925  1.00  0.00    -0.102 OA 
BRANCH   9  12
HETATM   12  C   UNL     1     -10.256   9.562  66.300  1.00  0.00    -0.220 C  
HETATM   13  H   UNL     1     -10.019   9.937  64.361  1.00  0.00     0.000 HD 
HETATM   14  O   UNL     1      -9.526   9.534  65.067  1.00  0.00    -0.267 OA 
BRANCH  12  15
HETATM   15  C   UNL     1     -10.673  11.011  66.629  1.00  0.00    -0.249 C  
HETATM   16  H   UNL     1     -12.065  11.871  67.710  1.00  0.00     0.000 HD 
HETATM   17  O   UNL     1     -11.808  10.980  67.507  1.00  0.00    -0.571 OA 
BRANCH  15  18
HETATM   18  C   UNL     1     -11.010  11.829  65.366  1.00  0.00    -0.297 C  
HETATM   19  O   UNL     1      -9.850  12.426  64.785  1.00  0.00    -0.433 OA 
HETATM   20  H   UNL     1     -10.058  12.930  64.007  1.00  0.00     0.000 HD 
ENDBRANCH  15  18
ENDBRANCH  12  15
ENDBRANCH   9  12
ENDBRANCH   3   9
TORSDOF 5
ENDMDL
MODEL      168
REMARK 921   NORMALIZED FREE ENERGY PREDICTED BY IDOCK:   -3.37 KCAL/MOL
REMARK 922        TOTAL FREE ENERGY PREDICTED BY IDOCK:   -5.04 KCAL/MOL
REMARK 923 INTER-LIGAND FREE ENERGY PREDICTED BY IDOCK:   -4.20 KCAL/MOL
REMARK 924 INTRA-LIGAND FREE ENERGY PREDICTED BY IDOCK:   -0.84 KCAL/MOL
REMARK 927      BINDING AFFINITY PREDICTED BY RF-SCORE:    0.00 PKD
ROOT
HETATM    1  C   UNL     1     -10.727  13.296  64.632  1.00  0.00    -0.400 C  
HETATM    2  O   UNL     1     -11.538  13.013  63.748  1.00  0.00    -0.424 OA 
HETATM    3  CA  UNL     1     -11.124  13.386  66.096  1.00  0.00    -0.288 C  
ENDROOT
BRANCH   3   4
HETATM    4  N   UNL     1     -10.231  14.306  66.820  1.00  0.00    -0.268 N  
HETATM    5  C   UNL     1      -9.585  16.150  68.251  1.00  0.00    -0.216 C  
HETATM    6  O   UNL     1     -11.859  15.466  67.921  1.00  0.00    -0.275 OA 
HETATM    7  H   UNL     1      -9.224  14.196  66.697  1.00  0.00     0.000 HD 
HETATM    8  C   UNL     1     -10.676  15.302  67.653  1.00  0.00    -0.282 C  
ENDBRANCH   3   4
BRANCH   3   9
HETATM    9  C   UNL     1     -11.244  11.990  66.750  1.00  0.00    -0.322 C  
HETATM   10  H   UNL     1     -10.445  10.242  66.425  1.00  0.00     0.000 HD 
HETATM   11  O   UNL     1     -10.371  11.099  66.023  1.00  0.00    -0.241 OA 
BRANCH   9  12
HETATM   12  C   UNL     1     -10.877  11.972  68.261  1.00  0.00    -0.229 C  
HETATM   13  H   UNL     1      -9.246  11.762  69.379  1.00  0.00     0.000 HD 
HETATM   14  O   UNL     1      -9.470  11.773  68.455  1.00  0.00    -0.200 OA 
BRANCH  12  15
HETATM   15  C   UNL     1     -11.670  10.906  69.045  1.00  0.00    -0.320 C  
HETATM   16  H   UNL     1     -12.772  10.871  70.667  1.00  0.00     0.000 HD 
HETATM   17  O   UNL     1     -12.283  11.527  70.184  1.00  0.00    -0.317 OA 
BRANCH  15  18
HETATM   18  C   UNL     1     -10.784   9.730  69.504  1.00  0.00    -0.233 C  
HETATM   19  O   UNL     1     -10.194   9.038  68.403  1.00  0.00    -0.189 OA 
HETATM   20  H   UNL     1      -9.648   8.314  68.685  1.00  0.00     0.000 HD 
ENDBRANCH  15  18
ENDBRANCH  12  15
ENDBRANCH   9  12
ENDBRANCH   3   9
TORSDOF 5
ENDMDL
MODEL      169
REMARK 921   NORMALIZED FREE ENERGY PREDICTED BY IDOCK:   -3.37 KCAL/MOL
REMARK 922        TOTAL FREE ENERGY PREDICTED BY IDOCK:   -5.04 KCAL/MOL
REMARK 923 INTER-LIGAND FREE ENERGY PREDICTED BY IDOCK:   -4.56 KCAL/MOL
REMARK 924 INTRA-LIGAND FREE ENERGY PREDICTED BY IDOCK:   -0.48 KCAL/MOL
REMARK 927      BINDING AFFINITY PREDICTED BY RF-SCORE:    0.00 PKD
ROOT
HETATM    1  C   UNL     1     -10.849  15.908  65.408  1.00  0.00    -0.349 C  
HETATM    2  O   UNL     1      -9.891  16.682  65.454  1.00  0.00    -0.538 OA 
HETATM    3  CA  UNL     1     -10.703  14.423  65.698  1.00  0.00    -0.320 C  
ENDROOT
BRANCH   3   4
HETATM    4  N   UNL     1     -11.744  13.653  64.996  1.00  0.00    -0.326 N  
HETATM    5  C   UNL     1     -12.697  12.072  63.428  1.00  0.00    -0.527 C  
HETATM    6  O   UNL     1     -10.338  12.355  63.752  1.00  0.00    -0.411 OA 
HETATM    7  H   UNL     1     -12.719  13.839  65.230  1.00  0.00     0.000 HD 
HETATM    8  C   UNL     1     -11.475  12.699  64.046  1.00  0.00    -0.411 C  
ENDBRANCH   3   4
BRANCH   3   9
HETATM    9  C   UNL     1     -10.631  14.133  67.216  1.00  0.00    -0.277 C  
HETATM   10  H   UNL     1     -11.871  14.299  68.711  1.00  0.00     0.000 HD 
HETATM   11  O   UNL     1     -11.916  14.476  67.779  1.00  0.00    -0.363 OA 
BRANCH   9  12
HETATM   12  C   UNL     1     -10.283  12.657  67.557  1.00  0.00    -0.215 C  
HETATM   13  H   UNL     1     -11.069  11.162  68.606  1.00  0.00     0.000 HD 
HETATM   14  O   UNL     1     -11.281  12.065  68.398  1.00  0.00    -0.221 OA 
BRANCH  12  15
HETATM   15  C   UNL     1      -8.894  12.518  68.213  1.00  0.00    -0.171 C  
HETATM   16  H   UNL     1      -7.105  13.264  67.912  1.00  0.00     0.000 HD 
HETATM   17  O   UNL     1      -7.961  13.349  67.508  1.00  0.00    -0.160 OA 
BRANCH  15  18
HETATM   18  C   UNL     1      -8.390  11.060  68.225  1.00  0.00    -0.133 C  
HETATM   19  O   UNL     1      -9.464  10.119  68.203  1.00  0.00    -0.141 OA 
HETATM   20  H   UNL     1      -9.154   9.221  68.211  1.00  0.00     0.000 HD 
ENDBRANCH  15  18
ENDBRANCH  12  15
ENDBRANCH   9  12
ENDBRANCH   3   9
TORSDOF 5
ENDMDL
MODEL      170
REMARK 921   NORMALIZED FREE ENERGY PREDICTED BY IDOCK:   -3.36 KCAL/MOL
REMARK 922        TOTAL FREE ENERGY PREDICTED BY IDOCK:   -5.04 KCAL/MOL
REMARK 923 INTER-LIGAND FREE ENERGY PREDICTED BY IDOCK:   -4.63 KCAL/MOL
REMARK 924 INTRA-LIGAND FREE ENERGY PREDICTED BY IDOCK:   -0.40 KCAL/MOL
REMARK 927      BINDING AFFINITY PREDICTED BY RF-SCORE:    0.00 PKD
ROOT
HETATM    1  C   UNL     1     -11.268  16.195  68.127  1.00  0.00    -0.311 C  
HETATM    2  O   UNL     1     -11.865  15.751  69.109  1.00  0.00    -0.381 OA 
HETATM    3  CA  UNL     1     -10.298  15.348  67.319  1.00  0.00    -0.271 C  
ENDROOT
BRANCH   3   4
HETATM    4  N   UNL     1      -9.291  16.198  66.661  1.00  0.00    -0.225 N  
HETATM    5  C   UNL     1      -7.327  17.598  66.445  1.00  0.00    -0.323 C  
HETATM    6  O   UNL     1      -7.924  16.462  68.469  1.00  0.00    -0.182 OA 
HETATM    7  H   UNL     1      -9.414  16.411  65.671  1.00  0.00     0.000 HD 
HETATM    8  C   UNL     1      -8.197  16.720  67.304  1.00  0.00    -0.176 C  
ENDBRANCH   3   4
BRANCH   3   9
HETATM    9  C   UNL     1     -11.032  14.390  66.352  1.00  0.00    -0.319 C  
HETATM   10  H   UNL     1     -10.972  14.057  64.432  1.00  0.00     0.000 HD 
HETATM   11  O   UNL     1     -10.521  14.645  65.026  1.00  0.00    -0.393 OA 
BRANCH   9  12
HETATM   12  C   UNL     1     -10.855  12.886  66.705  1.00  0.00    -0.267 C  
HETATM   13  H   UNL     1     -11.965  11.237  66.727  1.00  0.00     0.000 HD 
HETATM   14  O   UNL     1     -12.073  12.156  66.512  1.00  0.00    -0.627 OA 
BRANCH  12  15
HETATM   15  C   UNL     1     -10.341  12.678  68.145  1.00  0.00    -0.234 C  
HETATM   16  H   UNL     1      -8.833  11.751  68.989  1.00  0.00     0.000 HD 
HETATM   17  O   UNL     1      -9.149  11.879  68.103  1.00  0.00    -0.178 OA 
BRANCH  15  18
HETATM   18  C   UNL     1     -11.390  12.004  69.053  1.00  0.00    -0.275 C  
HETATM   19  O   UNL     1     -10.794  11.110  69.994  1.00  0.00    -0.467 OA 
HETATM   20  H   UNL     1     -11.440  10.695  70.553  1.00  0.00     0.000 HD 
ENDBRANCH  15  18
ENDBRANCH  12  15
ENDBRANCH   9  12
ENDBRANCH   3   9
TORSDOF 5
ENDMDL
MODEL      171
REMARK 921   NORMALIZED FREE ENERGY PREDICTED BY IDOCK:   -3.36 KCAL/MOL
REMARK 922        TOTAL FREE ENERGY PREDICTED BY IDOCK:   -5.03 KCAL/MOL
REMARK 923 INTER-LIGAND FREE ENERGY PREDICTED BY IDOCK:   -4.63 KCAL/MOL
REMARK 924 INTRA-LIGAND FREE ENERGY PREDICTED BY IDOCK:   -0.40 KCAL/MOL
REMARK 927      BINDING AFFINITY PREDICTED BY RF-SCORE:    0.00 PKD
ROOT
HETATM    1  C   UNL     1     -12.342  13.790  65.858  1.00  0.00    -0.476 C  
HETATM    2  O   UNL     1     -12.917  14.576  65.103  1.00  0.00    -0.543 OA 
HETATM    3  CA  UNL     1     -11.134  14.199  66.684  1.00  0.00    -0.312 C  
ENDROOT
BRANCH   3   4
HETATM    4  N   UNL     1     -10.283  13.032  66.973  1.00  0.00    -0.243 N  
HETATM    5  C   UNL     1      -8.248  11.752  67.265  1.00  0.00    -0.163 C  
HETATM    6  O   UNL     1      -8.276  14.111  66.842  1.00  0.00    -0.127 OA 
HETATM    7  H   UNL     1     -10.740  12.141  67.169  1.00  0.00     0.000 HD 
HETATM    8  C   UNL     1      -8.911  13.076  66.992  1.00  0.00    -0.225 C  
ENDBRANCH   3   4
BRANCH   3   9
HETATM    9  C   UNL     1     -11.538  15.002  67.942  1.00  0.00    -0.333 C  
HETATM   10  H   UNL     1     -12.220  14.544  69.710  1.00  0.00     0.000 HD 
HETATM   11  O   UNL     1     -11.972  14.050  68.937  1.00  0.00    -0.335 OA 
BRANCH   9  12
HETATM   12  C   UNL     1     -10.393  15.882  68.519  1.00  0.00    -0.232 C  
HETATM   13  H   UNL     1     -10.056  16.988  70.137  1.00  0.00     0.000 HD 
HETATM   14  O   UNL     1     -10.756  16.450  69.784  1.00  0.00    -0.322 OA 
BRANCH  12  15
HETATM   15  C   UNL     1      -9.964  17.000  67.546  1.00  0.00    -0.274 C  
HETATM   16  H   UNL     1      -8.294  17.928  67.103  1.00  0.00     0.000 HD 
HETATM   17  O   UNL     1      -8.558  17.240  67.703  1.00  0.00    -0.213 OA 
BRANCH  15  18
HETATM   18  C   UNL     1     -10.746  18.310  67.771  1.00  0.00    -0.333 C  
HETATM   19  O   UNL     1     -10.305  19.007  68.936  1.00  0.00    -0.501 OA 
HETATM   20  H   UNL     1     -10.786  19.814  69.075  1.00  0.00     0.000 HD 
ENDBRANCH  15  18
ENDBRANCH  12  15
ENDBRANCH   9  12
ENDBRANCH   3   9
TORSDOF 5
ENDMDL
MODEL      172
REMARK 921   NORMALIZED FREE ENERGY PREDICTED BY IDOCK:   -3.34 KCAL/MOL
REMARK 922        TOTAL FREE ENERGY PREDICTED BY IDOCK:   -5.01 KCAL/MOL
REMARK 923 INTER-LIGAND FREE ENERGY PREDICTED BY IDOCK:   -4.45 KCAL/MOL
REMARK 924 INTRA-LIGAND FREE ENERGY PREDICTED BY IDOCK:   -0.56 KCAL/MOL
REMARK 927      BINDING AFFINITY PREDICTED BY RF-SCORE:    0.00 PKD
ROOT
HETATM    1  C   UNL     1      -6.888  16.065  69.212  1.00  0.00    -0.201 C  
HETATM    2  O   UNL     1      -6.175  16.339  70.179  1.00  0.00    -0.163 OA 
HETATM    3  CA  UNL     1      -7.958  17.015  68.700  1.00  0.00    -0.258 C  
ENDROOT
BRANCH   3   4
HETATM    4  N   UNL     1      -9.034  16.270  68.024  1.00  0.00    -0.185 N  
HETATM    5  C   UNL     1     -11.240  15.338  67.666  1.00  0.00    -0.320 C  
HETATM    6  O   UNL     1     -10.703  16.802  69.487  1.00  0.00    -0.330 OA 
HETATM    7  H   UNL     1      -8.810  15.783  67.156  1.00  0.00     0.000 HD 
HETATM    8  C   UNL     1     -10.320  16.193  68.496  1.00  0.00    -0.254 C  
ENDBRANCH   3   4
BRANCH   3   9
HETATM    9  C   UNL     1      -7.359  18.155  67.845  1.00  0.00    -0.225 C  
HETATM   10  H   UNL     1      -5.653  18.458  66.951  1.00  0.00     0.000 HD 
HETATM   11  O   UNL     1      -6.021  17.757  67.476  1.00  0.00    -0.145 OA 
BRANCH   9  12
HETATM   12  C   UNL     1      -8.183  18.482  66.568  1.00  0.00    -0.281 C  
HETATM   13  H   UNL     1      -7.939  18.402  64.596  1.00  0.00     0.000 HD 
HETATM   14  O   UNL     1      -7.435  18.203  65.377  1.00  0.00    -0.499 OA 
BRANCH  12  15
HETATM   15  C   UNL     1      -8.678  19.943  66.546  1.00  0.00    -0.350 C  
HETATM   16  H   UNL     1      -8.072  21.653  67.289  1.00  0.00     0.000 HD 
HETATM   17  O   UNL     1      -7.768  20.754  67.302  1.00  0.00    -0.348 OA 
BRANCH  15  18
HETATM   18  C   UNL     1     -10.105  20.090  67.113  1.00  0.00    -0.446 C  
HETATM   19  O   UNL     1     -10.826  18.858  67.086  1.00  0.00    -0.444 OA 
HETATM   20  H   UNL     1     -11.704  18.948  67.435  1.00  0.00     0.000 HD 
ENDBRANCH  15  18
ENDBRANCH  12  15
ENDBRANCH   9  12
ENDBRANCH   3   9
TORSDOF 5
ENDMDL
MODEL      173
REMARK 921   NORMALIZED FREE ENERGY PREDICTED BY IDOCK:   -3.33 KCAL/MOL
REMARK 922        TOTAL FREE ENERGY PREDICTED BY IDOCK:   -5.00 KCAL/MOL
REMARK 923 INTER-LIGAND FREE ENERGY PREDICTED BY IDOCK:   -4.24 KCAL/MOL
REMARK 924 INTRA-LIGAND FREE ENERGY PREDICTED BY IDOCK:   -0.76 KCAL/MOL
REMARK 927      BINDING AFFINITY PREDICTED BY RF-SCORE:    0.00 PKD
ROOT
HETATM    1  C   UNL     1     -12.701  13.738  66.039  1.00  0.00    -0.354 C  
HETATM    2  O   UNL     1     -13.245  14.252  65.060  1.00  0.00    -0.638 OA 
HETATM    3  CA  UNL     1     -11.192  13.725  66.212  1.00  0.00    -0.306 C  
ENDROOT
BRANCH   3   4
HETATM    4  N   UNL     1     -10.774  12.580  67.038  1.00  0.00    -0.239 N  
HETATM    5  C   UNL     1     -10.204  10.289  67.581  1.00  0.00    -0.247 C  
HETATM    6  O   UNL     1     -10.682  11.041  65.355  1.00  0.00    -0.236 OA 
HETATM    7  H   UNL     1     -10.614  12.737  68.033  1.00  0.00     0.000 HD 
HETATM    8  C   UNL     1     -10.586  11.313  66.545  1.00  0.00    -0.266 C  
ENDBRANCH   3   4
BRANCH   3   9
HETATM    9  C   UNL     1     -10.654  15.085  66.715  1.00  0.00    -0.301 C  
HETATM   10  H   UNL     1     -10.922  16.167  68.315  1.00  0.00     0.000 HD 
HETATM   11  O   UNL     1     -11.252  15.331  68.006  1.00  0.00    -0.302 OA 
BRANCH   9  12
HETATM   12  C   UNL     1      -9.105  15.142  66.832  1.00  0.00    -0.247 C  
HETATM   13  H   UNL     1      -7.686  14.383  68.000  1.00  0.00     0.000 HD 
HETATM   14  O   UNL     1      -8.633  14.348  67.928  1.00  0.00    -0.149 OA 
BRANCH  12  15
HETATM   15  C   UNL     1      -8.579  16.587  66.967  1.00  0.00    -0.193 C  
HETATM   16  H   UNL     1      -9.036  18.335  66.205  1.00  0.00     0.000 HD 
HETATM   17  O   UNL     1      -9.359  17.446  66.122  1.00  0.00    -0.414 OA 
BRANCH  15  18
HETATM   18  C   UNL     1      -7.086  16.708  66.601  1.00  0.00    -0.222 C  
HETATM   19  O   UNL     1      -6.240  16.108  67.583  1.00  0.00    -0.128 OA 
HETATM   20  H   UNL     1      -5.321  16.182  67.358  1.00  0.00     0.000 HD 
ENDBRANCH  15  18
ENDBRANCH  12  15
ENDBRANCH   9  12
ENDBRANCH   3   9
TORSDOF 5
ENDMDL
MODEL      174
REMARK 921   NORMALIZED FREE ENERGY PREDICTED BY IDOCK:   -3.31 KCAL/MOL
REMARK 922        TOTAL FREE ENERGY PREDICTED BY IDOCK:   -4.97 KCAL/MOL
REMARK 923 INTER-LIGAND FREE ENERGY PREDICTED BY IDOCK:   -5.00 KCAL/MOL
REMARK 924 INTRA-LIGAND FREE ENERGY PREDICTED BY IDOCK:    0.03 KCAL/MOL
REMARK 927      BINDING AFFINITY PREDICTED BY RF-SCORE:    0.00 PKD
ROOT
HETATM    1  C   UNL     1     -12.052  12.662  64.202  1.00  0.00    -0.439 C  
HETATM    2  O   UNL     1     -13.222  12.309  64.043  1.00  0.00    -0.757 OA 
HETATM    3  CA  UNL     1     -11.452  12.878  65.581  1.00  0.00    -0.332 C  
ENDROOT
BRANCH   3   4
HETATM    4  N   UNL     1     -10.349  13.851  65.521  1.00  0.00    -0.319 N  
HETATM    5  C   UNL     1      -9.224  15.988  65.706  1.00  0.00    -0.215 C  
HETATM    6  O   UNL     1     -11.495  15.626  66.384  1.00  0.00    -0.041 OA 
HETATM    7  H   UNL     1      -9.442  13.530  65.181  1.00  0.00     0.000 HD 
HETATM    8  C   UNL     1     -10.471  15.166  65.896  1.00  0.00    -0.336 C  
ENDBRANCH   3   4
BRANCH   3   9
HETATM    9  C   UNL     1     -11.069  11.543  66.262  1.00  0.00    -0.263 C  
HETATM   10  H   UNL     1      -9.521  10.358  66.198  1.00  0.00     0.000 HD 
HETATM   11  O   UNL     1      -9.757  11.178  65.781  1.00  0.00    -0.206 OA 
BRANCH   9  12
HETATM   12  C   UNL     1     -11.061  11.610  67.815  1.00  0.00    -0.249 C  
HETATM   13  H   UNL     1     -12.255  11.093  69.319  1.00  0.00     0.000 HD 
HETATM   14  O   UNL     1     -12.259  11.052  68.369  1.00  0.00    -0.586 OA 
BRANCH  12  15
HETATM   15  C   UNL     1     -10.860  13.047  68.340  1.00  0.00    -0.258 C  
HETATM   16  H   UNL     1      -9.337  14.147  68.902  1.00  0.00     0.000 HD 
HETATM   17  O   UNL     1      -9.461  13.263  68.579  1.00  0.00    -0.198 OA 
BRANCH  15  18
HETATM   18  C   UNL     1     -11.660  13.321  69.629  1.00  0.00    -0.261 C  
HETATM   19  O   UNL     1     -12.569  14.412  69.478  1.00  0.00    -0.545 OA 
HETATM   20  H   UNL     1     -13.061  14.581  70.272  1.00  0.00     0.000 HD 
ENDBRANCH  15  18
ENDBRANCH  12  15
ENDBRANCH   9  12
ENDBRANCH   3   9
TORSDOF 5
ENDMDL
MODEL      175
REMARK 921   NORMALIZED FREE ENERGY PREDICTED BY IDOCK:   -3.28 KCAL/MOL
REMARK 922        TOTAL FREE ENERGY PREDICTED BY IDOCK:   -4.94 KCAL/MOL
REMARK 923 INTER-LIGAND FREE ENERGY PREDICTED BY IDOCK:   -4.02 KCAL/MOL
REMARK 924 INTRA-LIGAND FREE ENERGY PREDICTED BY IDOCK:   -0.92 KCAL/MOL
REMARK 927      BINDING AFFINITY PREDICTED BY RF-SCORE:    0.00 PKD
ROOT
HETATM    1  C   UNL     1      -7.884   6.448  70.751  1.00  0.00    -0.106 C  
HETATM    2  O   UNL     1      -7.537   5.975  71.835  1.00  0.00    -0.094 OA 
HETATM    3  CA  UNL     1      -9.249   7.082  70.544  1.00  0.00    -0.159 C  
ENDROOT
BRANCH   3   4
HETATM    4  N   UNL     1      -9.660   6.982  69.133  1.00  0.00    -0.149 N  
HETATM    5  C   UNL     1     -11.048   6.416  67.231  1.00  0.00    -0.416 C  
HETATM    6  O   UNL     1     -11.730   6.098  69.507  1.00  0.00    -0.298 OA 
HETATM    7  H   UNL     1      -9.014   7.320  68.419  1.00  0.00     0.000 HD 
HETATM    8  C   UNL     1     -10.862   6.461  68.724  1.00  0.00    -0.317 C  
ENDBRANCH   3   4
BRANCH   3   9
HETATM    9  C   UNL     1      -9.313   8.519  71.111  1.00  0.00    -0.196 C  
HETATM   10  H   UNL     1      -9.479  10.301  70.336  1.00  0.00     0.000 HD 
HETATM   11  O   UNL     1      -9.441   9.418  69.988  1.00  0.00    -0.195 OA 
BRANCH   9  12
HETATM   12  C   UNL     1     -10.485   8.750  72.107  1.00  0.00    -0.314 C  
HETATM   13  H   UNL     1     -11.389   7.758  73.574  1.00  0.00     0.000 HD 
HETATM   14  O   UNL     1     -10.673   7.618  72.966  1.00  0.00    -0.335 OA 
BRANCH  12  15
HETATM   15  C   UNL     1     -11.807   9.088  71.388  1.00  0.00    -0.325 C  
HETATM   16  H   UNL     1     -12.781  10.723  70.911  1.00  0.00     0.000 HD 
HETATM   17  O   UNL     1     -11.967  10.514  71.354  1.00  0.00    -0.330 OA 
BRANCH  15  18
HETATM   18  C   UNL     1     -13.031   8.442  72.070  1.00  0.00    -0.358 C  
HETATM   19  O   UNL     1     -13.140   7.049  71.771  1.00  0.00    -0.425 OA 
HETATM   20  H   UNL     1     -13.893   6.651  72.191  1.00  0.00     0.000 HD 
ENDBRANCH  15  18
ENDBRANCH  12  15
ENDBRANCH   9  12
ENDBRANCH   3   9
TORSDOF 5
ENDMDL
MODEL      176
REMARK 921   NORMALIZED FREE ENERGY PREDICTED BY IDOCK:   -3.27 KCAL/MOL
REMARK 922        TOTAL FREE ENERGY PREDICTED BY IDOCK:   -4.92 KCAL/MOL
REMARK 923 INTER-LIGAND FREE ENERGY PREDICTED BY IDOCK:   -4.24 KCAL/MOL
REMARK 924 INTRA-LIGAND FREE ENERGY PREDICTED BY IDOCK:   -0.69 KCAL/MOL
REMARK 927      BINDING AFFINITY PREDICTED BY RF-SCORE:    0.00 PKD
ROOT
HETATM    1  C   UNL     1      -7.469  13.116  67.298  1.00  0.00    -0.064 C  
HETATM    2  O   UNL     1      -7.001  13.366  68.411  1.00  0.00    -0.086 OA 
HETATM    3  CA  UNL     1      -8.883  12.592  67.115  1.00  0.00    -0.202 C  
ENDROOT
BRANCH   3   4
HETATM    4  N   UNL     1      -8.988  11.804  65.875  1.00  0.00    -0.380 N  
HETATM    5  C   UNL     1      -9.233   9.847  64.469  1.00  0.00    -0.315 C  
HETATM    6  O   UNL     1      -9.412   9.789  66.859  1.00  0.00    -0.151 OA 
HETATM    7  H   UNL     1      -8.890  12.293  64.985  1.00  0.00     0.000 HD 
HETATM    8  C   UNL     1      -9.210  10.450  65.849  1.00  0.00    -0.170 C  
ENDBRANCH   3   4
BRANCH   3   9
HETATM    9  C   UNL     1      -9.938  13.717  67.228  1.00  0.00    -0.239 C  
HETATM   10  H   UNL     1     -10.374  15.308  66.188  1.00  0.00     0.000 HD 
HETATM   11  O   UNL     1      -9.727  14.616  66.117  1.00  0.00    -0.290 OA 
BRANCH   9  12
HETATM   12  C   UNL     1     -11.406  13.205  67.220  1.00  0.00    -0.306 C  
HETATM   13  H   UNL     1     -13.177  13.818  66.557  1.00  0.00     0.000 HD 
HETATM   14  O   UNL     1     -12.280  14.131  66.562  1.00  0.00    -0.445 OA 
BRANCH  12  15
HETATM   15  C   UNL     1     -11.931  12.906  68.639  1.00  0.00    -0.247 C  
HETATM   16  H   UNL     1     -11.679  13.664  70.430  1.00  0.00     0.000 HD 
HETATM   17  O   UNL     1     -11.356  13.848  69.556  1.00  0.00    -0.261 OA 
BRANCH  15  18
HETATM   18  C   UNL     1     -11.608  11.469  69.096  1.00  0.00    -0.316 C  
HETATM   19  O   UNL     1     -11.834  10.511  68.062  1.00  0.00    -0.765 OA 
HETATM   20  H   UNL     1     -11.635   9.626  68.343  1.00  0.00     0.000 HD 
ENDBRANCH  15  18
ENDBRANCH  12  15
ENDBRANCH   9  12
ENDBRANCH   3   9
TORSDOF 5
ENDMDL
MODEL      177
REMARK 921   NORMALIZED FREE ENERGY PREDICTED BY IDOCK:   -3.27 KCAL/MOL
REMARK 922        TOTAL FREE ENERGY PREDICTED BY IDOCK:   -4.92 KCAL/MOL
REMARK 923 INTER-LIGAND FREE ENERGY PREDICTED BY IDOCK:   -5.00 KCAL/MOL
REMARK 924 INTRA-LIGAND FREE ENERGY PREDICTED BY IDOCK:    0.08 KCAL/MOL
REMARK 927      BINDING AFFINITY PREDICTED BY RF-SCORE:    0.00 PKD
ROOT
HETATM    1  C   UNL     1     -10.363  17.355  68.284  1.00  0.00    -0.374 C  
HETATM    2  O   UNL     1     -10.767  18.507  68.115  1.00  0.00    -0.315 OA 
HETATM    3  CA  UNL     1     -10.776  16.211  67.372  1.00  0.00    -0.291 C  
ENDROOT
BRANCH   3   4
HETATM    4  N   UNL     1     -10.716  14.927  68.091  1.00  0.00    -0.246 N  
HETATM    5  C   UNL     1     -11.346  12.677  68.728  1.00  0.00    -0.333 C  
HETATM    6  O   UNL     1     -12.391  13.886  66.941  1.00  0.00    -0.410 OA 
HETATM    7  H   UNL     1     -10.008  14.814  68.817  1.00  0.00     0.000 HD 
HETATM    8  C   UNL     1     -11.560  13.873  67.839  1.00  0.00    -0.342 C  
ENDBRANCH   3   4
BRANCH   3   9
HETATM    9  C   UNL     1      -9.987  16.217  66.042  1.00  0.00    -0.345 C  
HETATM   10  H   UNL     1      -9.871  17.422  64.514  1.00  0.00     0.000 HD 
HETATM   11  O   UNL     1     -10.355  17.419  65.331  1.00  0.00    -0.631 OA 
BRANCH   9  12
HETATM   12  C   UNL     1      -8.444  16.166  66.227  1.00  0.00    -0.322 C  
HETATM   13  H   UNL     1      -7.126  15.187  67.349  1.00  0.00     0.000 HD 
HETATM   14  O   UNL     1      -8.069  15.218  67.235  1.00  0.00    -0.168 OA 
BRANCH  12  15
HETATM   15  C   UNL     1      -7.847  17.549  66.559  1.00  0.00    -0.276 C  
HETATM   16  H   UNL     1      -6.832  18.921  65.592  1.00  0.00     0.000 HD 
HETATM   17  O   UNL     1      -7.199  18.069  65.388  1.00  0.00    -0.502 OA 
BRANCH  15  18
HETATM   18  C   UNL     1      -6.844  17.493  67.729  1.00  0.00    -0.174 C  
HETATM   19  O   UNL     1      -7.156  18.439  68.752  1.00  0.00    -0.269 OA 
HETATM   20  H   UNL     1      -6.539  18.404  69.473  1.00  0.00     0.000 HD 
ENDBRANCH  15  18
ENDBRANCH  12  15
ENDBRANCH   9  12
ENDBRANCH   3   9
TORSDOF 5
ENDMDL
MODEL      178
REMARK 921   NORMALIZED FREE ENERGY PREDICTED BY IDOCK:   -3.27 KCAL/MOL
REMARK 922        TOTAL FREE ENERGY PREDICTED BY IDOCK:   -4.91 KCAL/MOL
REMARK 923 INTER-LIGAND FREE ENERGY PREDICTED BY IDOCK:   -4.43 KCAL/MOL
REMARK 924 INTRA-LIGAND FREE ENERGY PREDICTED BY IDOCK:   -0.48 KCAL/MOL
REMARK 927      BINDING AFFINITY PREDICTED BY RF-SCORE:    0.00 PKD
ROOT
HETATM    1  C   UNL     1     -13.402   6.982  71.883  1.00  0.00    -0.175 C  
HETATM    2  O   UNL     1     -14.235   7.301  71.033  1.00  0.00    -0.248 OA 
HETATM    3  CA  UNL     1     -11.914   7.222  71.688  1.00  0.00    -0.308 C  
ENDROOT
BRANCH   3   4
HETATM    4  N   UNL     1     -11.125   6.247  72.460  1.00  0.00    -0.259 N  
HETATM    5  C   UNL     1      -9.753   4.296  72.882  1.00  0.00    -0.172 C  
HETATM    6  O   UNL     1     -10.397   5.010  70.686  1.00  0.00    -0.247 OA 
HETATM    7  H   UNL     1     -11.074   6.363  73.473  1.00  0.00     0.000 HD 
HETATM    8  C   UNL     1     -10.456   5.190  71.895  1.00  0.00    -0.207 C  
ENDBRANCH   3   4
BRANCH   3   9
HETATM    9  C   UNL     1     -11.524   8.694  71.961  1.00  0.00    -0.367 C  
HETATM   10  H   UNL     1     -10.019   9.584  72.823  1.00  0.00     0.000 HD 
HETATM   11  O   UNL     1     -10.258   8.680  72.655  1.00  0.00    -0.253 OA 
BRANCH   9  12
HETATM   12  C   UNL     1     -11.412   9.562  70.676  1.00  0.00    -0.297 C  
HETATM   13  H   UNL     1     -10.019  10.617  69.727  1.00  0.00     0.000 HD 
HETATM   14  O   UNL     1     -10.088  10.086  70.512  1.00  0.00    -0.216 OA 
BRANCH  12  15
HETATM   15  C   UNL     1     -12.439  10.713  70.654  1.00  0.00    -0.371 C  
HETATM   16  H   UNL     1     -12.376  12.660  70.429  1.00  0.00     0.000 HD 
HETATM   17  O   UNL     1     -11.744  11.951  70.443  1.00  0.00    -0.283 OA 
BRANCH  15  18
HETATM   18  C   UNL     1     -13.264  10.792  71.955  1.00  0.00    -0.419 C  
HETATM   19  O   UNL     1     -13.487  12.140  72.371  1.00  0.00    -0.610 OA 
HETATM   20  H   UNL     1     -13.995  12.189  73.171  1.00  0.00     0.000 HD 
ENDBRANCH  15  18
ENDBRANCH  12  15
ENDBRANCH   9  12
ENDBRANCH   3   9
TORSDOF 5
ENDMDL
MODEL      179
REMARK 921   NORMALIZED FREE ENERGY PREDICTED BY IDOCK:   -3.26 KCAL/MOL
REMARK 922        TOTAL FREE ENERGY PREDICTED BY IDOCK:   -4.91 KCAL/MOL
REMARK 923 INTER-LIGAND FREE ENERGY PREDICTED BY IDOCK:   -4.11 KCAL/MOL
REMARK 924 INTRA-LIGAND FREE ENERGY PREDICTED BY IDOCK:   -0.79 KCAL/MOL
REMARK 927      BINDING AFFINITY PREDICTED BY RF-SCORE:    0.00 PKD
ROOT
HETATM    1  C   UNL     1     -11.450  11.795  68.628  1.00  0.00    -0.288 C  
HETATM    2  O   UNL     1     -12.435  11.058  68.713  1.00  0.00    -0.468 OA 
HETATM    3  CA  UNL     1     -10.344  11.552  67.615  1.00  0.00    -0.186 C  
ENDROOT
BRANCH   3   4
HETATM    4  N   UNL     1      -9.068  12.110  68.096  1.00  0.00    -0.192 N  
HETATM    5  C   UNL     1      -6.841  12.131  69.047  1.00  0.00    -0.098 C  
HETATM    6  O   UNL     1      -8.048  10.120  68.553  1.00  0.00    -0.100 OA 
HETATM    7  H   UNL     1      -8.950  13.123  68.081  1.00  0.00     0.000 HD 
HETATM    8  C   UNL     1      -8.030  11.344  68.564  1.00  0.00    -0.143 C  
ENDBRANCH   3   4
BRANCH   3   9
HETATM    9  C   UNL     1     -10.738  12.033  66.199  1.00  0.00    -0.275 C  
HETATM   10  H   UNL     1     -10.486  13.676  65.181  1.00  0.00     0.000 HD 
HETATM   11  O   UNL     1     -10.243  13.381  66.051  1.00  0.00    -0.288 OA 
BRANCH   9  12
HETATM   12  C   UNL     1     -10.182  11.138  65.055  1.00  0.00    -0.296 C  
HETATM   13  H   UNL     1      -8.461  10.268  64.569  1.00  0.00     0.000 HD 
HETATM   14  O   UNL     1      -8.801  10.815  65.268  1.00  0.00    -0.188 OA 
BRANCH  12  15
HETATM   15  C   UNL     1     -10.361  11.783  63.665  1.00  0.00    -0.434 C  
HETATM   16  H   UNL     1     -11.873  12.237  62.501  1.00  0.00     0.000 HD 
HETATM   17  O   UNL     1     -11.762  11.839  63.356  1.00  0.00    -0.427 OA 
BRANCH  15  18
HETATM   18  C   UNL     1      -9.611  11.016  62.558  1.00  0.00    -0.175 C  
HETATM   19  O   UNL     1      -9.548   9.614  62.822  1.00  0.00    -0.558 OA 
HETATM   20  H   UNL     1      -9.086   9.141  62.140  1.00  0.00     0.000 HD 
ENDBRANCH  15  18
ENDBRANCH  12  15
ENDBRANCH   9  12
ENDBRANCH   3   9
TORSDOF 5
ENDMDL
MODEL      180
REMARK 921   NORMALIZED FREE ENERGY PREDICTED BY IDOCK:   -3.26 KCAL/MOL
REMARK 922        TOTAL FREE ENERGY PREDICTED BY IDOCK:   -4.91 KCAL/MOL
REMARK 923 INTER-LIGAND FREE ENERGY PREDICTED BY IDOCK:   -4.45 KCAL/MOL
REMARK 924 INTRA-LIGAND FREE ENERGY PREDICTED BY IDOCK:   -0.46 KCAL/MOL
REMARK 927      BINDING AFFINITY PREDICTED BY RF-SCORE:    0.00 PKD
ROOT
HETATM    1  C   UNL     1     -10.502   5.648  69.149  1.00  0.00    -0.269 C  
HETATM    2  O   UNL     1      -9.471   4.977  69.229  1.00  0.00    -0.116 OA 
HETATM    3  CA  UNL     1     -10.780   6.818  70.079  1.00  0.00    -0.247 C  
ENDROOT
BRANCH   3   4
HETATM    4  N   UNL     1     -12.230   7.031  70.225  1.00  0.00    -0.622 N  
HETATM    5  C   UNL     1     -14.332   7.496  71.334  1.00  0.00    -0.540 C  
HETATM    6  O   UNL     1     -12.205   7.612  72.432  1.00  0.00    -0.258 OA 
HETATM    7  H   UNL     1     -12.819   6.913  69.401  1.00  0.00     0.000 HD 
HETATM    8  C   UNL     1     -12.833   7.377  71.409  1.00  0.00    -0.365 C  
ENDBRANCH   3   4
BRANCH   3   9
HETATM    9  C   UNL     1     -10.004   8.088  69.661  1.00  0.00    -0.188 C  
HETATM   10  H   UNL     1      -8.167   8.711  69.866  1.00  0.00     0.000 HD 
HETATM   11  O   UNL     1      -8.644   7.931  70.122  1.00  0.00    -0.131 OA 
BRANCH   9  12
HETATM   12  C   UNL     1     -10.012   8.353  68.129  1.00  0.00    -0.191 C  
HETATM   13  H   UNL     1      -8.732   8.264  66.610  1.00  0.00     0.000 HD 
HETATM   14  O   UNL     1      -8.727   8.102  67.546  1.00  0.00    -0.128 OA 
BRANCH  12  15
HETATM   15  C   UNL     1     -10.474   9.785  67.783  1.00  0.00    -0.246 C  
HETATM   16  H   UNL     1      -9.685  11.353  66.909  1.00  0.00     0.000 HD 
HETATM   17  O   UNL     1      -9.401  10.472  67.122  1.00  0.00    -0.153 OA 
BRANCH  15  18
HETATM   18  C   UNL     1     -10.914  10.579  69.030  1.00  0.00    -0.243 C  
HETATM   19  O   UNL     1     -12.322  10.815  69.049  1.00  0.00    -0.751 OA 
HETATM   20  H   UNL     1     -12.593  11.304  69.817  1.00  0.00     0.000 HD 
ENDBRANCH  15  18
ENDBRANCH  12  15
ENDBRANCH   9  12
ENDBRANCH   3   9
TORSDOF 5
ENDMDL
MODEL      181
REMARK 921   NORMALIZED FREE ENERGY PREDICTED BY IDOCK:   -3.25 KCAL/MOL
REMARK 922        TOTAL FREE ENERGY PREDICTED BY IDOCK:   -4.89 KCAL/MOL
REMARK 923 INTER-LIGAND FREE ENERGY PREDICTED BY IDOCK:   -4.67 KCAL/MOL
REMARK 924 INTRA-LIGAND FREE ENERGY PREDICTED BY IDOCK:   -0.22 KCAL/MOL
REMARK 927      BINDING AFFINITY PREDICTED BY RF-SCORE:    0.00 PKD
ROOT
HETATM    1  C   UNL     1      -8.792  12.294  68.038  1.00  0.00    -0.182 C  
HETATM    2  O   UNL     1      -8.352  13.376  68.431  1.00  0.00    -0.159 OA 
HETATM    3  CA  UNL     1     -10.155  11.772  68.465  1.00  0.00    -0.207 C  
ENDROOT
BRANCH   3   4
HETATM    4  N   UNL     1     -10.186  10.301  68.416  1.00  0.00    -0.160 N  
HETATM    5  C   UNL     1     -10.584   8.035  69.174  1.00  0.00    -0.181 C  
HETATM    6  O   UNL     1     -11.246   9.978  70.411  1.00  0.00    -0.275 OA 
HETATM    7  H   UNL     1      -9.803   9.839  67.591  1.00  0.00     0.000 HD 
HETATM    8  C   UNL     1     -10.700   9.516  69.418  1.00  0.00    -0.225 C  
ENDBRANCH   3   4
BRANCH   3   9
HETATM    9  C   UNL     1     -11.304  12.446  67.680  1.00  0.00    -0.312 C  
HETATM   10  H   UNL     1     -12.714  13.719  68.120  1.00  0.00     0.000 HD 
HETATM   11  O   UNL     1     -12.007  13.305  68.603  1.00  0.00    -0.339 OA 
BRANCH   9  12
HETATM   12  C   UNL     1     -10.826  13.270  66.451  1.00  0.00    -0.288 C  
HETATM   13  H   UNL     1     -10.556  15.181  65.973  1.00  0.00     0.000 HD 
HETATM   14  O   UNL     1     -10.848  14.677  66.724  1.00  0.00    -0.300 OA 
BRANCH  12  15
HETATM   15  C   UNL     1     -11.654  12.969  65.184  1.00  0.00    -0.324 C  
HETATM   16  H   UNL     1     -11.267  12.537  63.311  1.00  0.00     0.000 HD 
HETATM   17  O   UNL     1     -10.757  12.723  64.090  1.00  0.00    -0.362 OA 
BRANCH  15  18
HETATM   18  C   UNL     1     -12.618  14.117  64.822  1.00  0.00    -0.302 C  
HETATM   19  O   UNL     1     -12.585  14.429  63.429  1.00  0.00    -1.054 OA 
HETATM   20  H   UNL     1     -13.179  15.136  63.206  1.00  0.00     0.000 HD 
ENDBRANCH  15  18
ENDBRANCH  12  15
ENDBRANCH   9  12
ENDBRANCH   3   9
TORSDOF 5
ENDMDL
MODEL      182
REMARK 921   NORMALIZED FREE ENERGY PREDICTED BY IDOCK:   -3.24 KCAL/MOL
REMARK 922        TOTAL FREE ENERGY PREDICTED BY IDOCK:   -4.88 KCAL/MOL
REMARK 923 INTER-LIGAND FREE ENERGY PREDICTED BY IDOCK:   -4.64 KCAL/MOL
REMARK 924 INTRA-LIGAND FREE ENERGY PREDICTED BY IDOCK:   -0.25 KCAL/MOL
REMARK 927      BINDING AFFINITY PREDICTED BY RF-SCORE:    0.00 PKD
ROOT
HETATM    1  C   UNL     1     -10.108  18.402  66.638  1.00  0.00    -0.380 C  
HETATM    2  O   UNL     1     -11.024  18.740  67.391  1.00  0.00    -0.422 OA 
HETATM    3  CA  UNL     1      -8.726  18.042  67.157  1.00  0.00    -0.243 C  
ENDROOT
BRANCH   3   4
HETATM    4  N   UNL     1      -7.703  18.296  66.129  1.00  0.00    -0.245 N  
HETATM    5  C   UNL     1      -6.144  19.561  64.773  1.00  0.00    -0.313 C  
HETATM    6  O   UNL     1      -7.377  20.506  66.599  1.00  0.00    -0.271 OA 
HETATM    7  H   UNL     1      -7.401  17.514  65.547  1.00  0.00     0.000 HD 
HETATM    8  C   UNL     1      -7.133  19.526  65.907  1.00  0.00    -0.289 C  
ENDBRANCH   3   4
BRANCH   3   9
HETATM    9  C   UNL     1      -8.680  16.611  67.740  1.00  0.00    -0.201 C  
HETATM   10  H   UNL     1      -7.955  15.805  69.360  1.00  0.00     0.000 HD 
HETATM   11  O   UNL     1      -7.983  16.684  69.003  1.00  0.00    -0.240 OA 
BRANCH   9  12
HETATM   12  C   UNL     1     -10.083  15.974  67.949  1.00  0.00    -0.241 C  
HETATM   13  H   UNL     1     -11.189  15.307  69.462  1.00  0.00     0.000 HD 
HETATM   14  O   UNL     1     -10.331  15.697  69.334  1.00  0.00    -0.223 OA 
BRANCH  12  15
HETATM   15  C   UNL     1     -10.275  14.690  67.115  1.00  0.00    -0.256 C  
HETATM   16  H   UNL     1      -9.837  14.107  65.294  1.00  0.00     0.000 HD 
HETATM   17  O   UNL     1      -9.719  14.898  65.808  1.00  0.00    -0.323 OA 
BRANCH  15  18
HETATM   18  C   UNL     1     -11.757  14.282  66.994  1.00  0.00    -0.403 C  
HETATM   19  O   UNL     1     -12.454  14.410  68.234  1.00  0.00    -0.587 OA 
HETATM   20  H   UNL     1     -13.367  14.158  68.159  1.00  0.00     0.000 HD 
ENDBRANCH  15  18
ENDBRANCH  12  15
ENDBRANCH   9  12
ENDBRANCH   3   9
TORSDOF 5
ENDMDL
MODEL      183
REMARK 921   NORMALIZED FREE ENERGY PREDICTED BY IDOCK:   -3.24 KCAL/MOL
REMARK 922        TOTAL FREE ENERGY PREDICTED BY IDOCK:   -4.88 KCAL/MOL
REMARK 923 INTER-LIGAND FREE ENERGY PREDICTED BY IDOCK:   -4.11 KCAL/MOL
REMARK 924 INTRA-LIGAND FREE ENERGY PREDICTED BY IDOCK:   -0.76 KCAL/MOL
REMARK 927      BINDING AFFINITY PREDICTED BY RF-SCORE:    0.00 PKD
ROOT
HETATM    1  C   UNL     1     -12.127   6.950  71.657  1.00  0.00    -0.353 C  
HETATM    2  O   UNL     1     -12.672   5.994  72.212  1.00  0.00    -0.088 OA 
HETATM    3  CA  UNL     1     -11.503   8.093  72.441  1.00  0.00    -0.397 C  
ENDROOT
BRANCH   3   4
HETATM    4  N   UNL     1     -11.505   9.331  71.644  1.00  0.00    -0.378 N  
HETATM    5  C   UNL     1     -12.378  11.349  70.630  1.00  0.00    -0.466 C  
HETATM    6  O   UNL     1     -13.630   9.987  72.154  1.00  0.00    -0.395 OA 
HETATM    7  H   UNL     1     -10.652   9.583  71.144  1.00  0.00     0.000 HD 
HETATM    8  C   UNL     1     -12.589  10.165  71.535  1.00  0.00    -0.434 C  
ENDBRANCH   3   4
BRANCH   3   9
HETATM    9  C   UNL     1     -10.112   7.717  73.004  1.00  0.00    -0.320 C  
HETATM   10  H   UNL     1      -9.476   6.703  74.543  1.00  0.00     0.000 HD 
HETATM   11  O   UNL     1     -10.331   6.933  74.197  1.00  0.00    -0.373 OA 
BRANCH   9  12
HETATM   12  C   UNL     1      -9.225   6.922  72.005  1.00  0.00    -0.140 C  
HETATM   13  H   UNL     1      -8.254   5.187  71.955  1.00  0.00     0.000 HD 
HETATM   14  O   UNL     1      -8.797   5.673  72.565  1.00  0.00    -0.131 OA 
BRANCH  12  15
HETATM   15  C   UNL     1      -7.999   7.733  71.535  1.00  0.00    -0.092 C  
HETATM   16  H   UNL     1      -7.591   9.625  71.220  1.00  0.00     0.000 HD 
HETATM   17  O   UNL     1      -8.345   9.125  71.510  1.00  0.00    -0.336 OA 
BRANCH  15  18
HETATM   18  C   UNL     1      -7.500   7.293  70.144  1.00  0.00    -0.088 C  
HETATM   19  O   UNL     1      -8.296   6.243  69.593  1.00  0.00    -0.122 OA 
HETATM   20  H   UNL     1      -7.989   5.972  68.736  1.00  0.00     0.000 HD 
ENDBRANCH  15  18
ENDBRANCH  12  15
ENDBRANCH   9  12
ENDBRANCH   3   9
TORSDOF 5
ENDMDL
MODEL      184
REMARK 921   NORMALIZED FREE ENERGY PREDICTED BY IDOCK:   -3.23 KCAL/MOL
REMARK 922        TOTAL FREE ENERGY PREDICTED BY IDOCK:   -4.86 KCAL/MOL
REMARK 923 INTER-LIGAND FREE ENERGY PREDICTED BY IDOCK:   -4.37 KCAL/MOL
REMARK 924 INTRA-LIGAND FREE ENERGY PREDICTED BY IDOCK:   -0.49 KCAL/MOL
REMARK 927      BINDING AFFINITY PREDICTED BY RF-SCORE:    0.00 PKD
ROOT
HETATM    1  C   UNL     1      -8.404  17.910  66.513  1.00  0.00    -0.262 C  
HETATM    2  O   UNL     1      -8.669  19.068  66.843  1.00  0.00    -0.285 OA 
HETATM    3  CA  UNL     1      -9.116  16.714  67.122  1.00  0.00    -0.214 C  
ENDROOT
BRANCH   3   4
HETATM    4  N   UNL     1      -8.255  15.520  67.077  1.00  0.00    -0.220 N  
HETATM    5  C   UNL     1      -6.617  13.900  67.826  1.00  0.00    -0.186 C  
HETATM    6  O   UNL     1      -7.421  15.698  69.193  1.00  0.00    -0.168 OA 
HETATM    7  H   UNL     1      -8.263  14.953  66.228  1.00  0.00     0.000 HD 
HETATM    8  C   UNL     1      -7.444  15.126  68.111  1.00  0.00    -0.114 C  
ENDBRANCH   3   4
BRANCH   3   9
HETATM    9  C   UNL     1     -10.516  16.496  66.502  1.00  0.00    -0.270 C  
HETATM   10  H   UNL     1     -11.397  17.056  64.855  1.00  0.00     0.000 HD 
HETATM   11  O   UNL     1     -10.537  17.190  65.236  1.00  0.00    -0.662 OA 
BRANCH   9  12
HETATM   12  C   UNL     1     -10.882  14.999  66.288  1.00  0.00    -0.333 C  
HETATM   13  H   UNL     1     -11.763  13.881  64.900  1.00  0.00     0.000 HD 
HETATM   14  O   UNL     1     -11.540  14.795  65.031  1.00  0.00    -0.362 OA 
BRANCH  12  15
HETATM   15  C   UNL     1     -11.751  14.439  67.432  1.00  0.00    -0.397 C  
HETATM   16  H   UNL     1     -12.608  15.160  69.042  1.00  0.00     0.000 HD 
HETATM   17  O   UNL     1     -12.073  15.505  68.338  1.00  0.00    -0.210 OA 
BRANCH  15  18
HETATM   18  C   UNL     1     -11.054  13.296  68.197  1.00  0.00    -0.259 C  
HETATM   19  O   UNL     1     -10.399  13.759  69.378  1.00  0.00    -0.432 OA 
HETATM   20  H   UNL     1      -9.969  13.055  69.849  1.00  0.00     0.000 HD 
ENDBRANCH  15  18
ENDBRANCH  12  15
ENDBRANCH   9  12
ENDBRANCH   3   9
TORSDOF 5
ENDMDL
MODEL      185
REMARK 921   NORMALIZED FREE ENERGY PREDICTED BY IDOCK:   -3.22 KCAL/MOL
REMARK 922        TOTAL FREE ENERGY PREDICTED BY IDOCK:   -4.85 KCAL/MOL
REMARK 923 INTER-LIGAND FREE ENERGY PREDICTED BY IDOCK:   -4.69 KCAL/MOL
REMARK 924 INTRA-LIGAND FREE ENERGY PREDICTED BY IDOCK:   -0.16 KCAL/MOL
REMARK 927      BINDING AFFINITY PREDICTED BY RF-SCORE:    0.00 PKD
ROOT
HETATM    1  C   UNL     1      -9.878  11.547  63.700  1.00  0.00    -0.353 C  
HETATM    2  O   UNL     1     -10.076  10.379  63.362  1.00  0.00    -0.200 OA 
HETATM    3  CA  UNL     1     -10.787  12.271  64.679  1.00  0.00    -0.308 C  
ENDROOT
BRANCH   3   4
HETATM    4  N   UNL     1     -10.753  13.724  64.442  1.00  0.00    -0.571 N  
HETATM    5  C   UNL     1     -11.590  15.987  64.228  1.00  0.00    -0.139 C  
HETATM    6  O   UNL     1     -12.937  14.142  64.954  1.00  0.00    -0.705 OA 
HETATM    7  H   UNL     1      -9.864  14.147  64.171  1.00  0.00     0.000 HD 
HETATM    8  C   UNL     1     -11.848  14.542  64.565  1.00  0.00    -0.446 C  
ENDBRANCH   3   4
BRANCH   3   9
HETATM    9  C   UNL     1     -10.495  11.872  66.144  1.00  0.00    -0.237 C  
HETATM   10  H   UNL     1     -11.578  11.612  67.744  1.00  0.00     0.000 HD 
HETATM   11  O   UNL     1     -11.758  11.857  66.844  1.00  0.00    -0.541 OA 
BRANCH   9  12
HETATM   12  C   UNL     1      -9.794  10.492  66.291  1.00  0.00    -0.217 C  
HETATM   13  H   UNL     1     -10.225   8.689  67.009  1.00  0.00     0.000 HD 
HETATM   14  O   UNL     1     -10.653   9.533  66.920  1.00  0.00    -0.231 OA 
BRANCH  12  15
HETATM   15  C   UNL     1      -8.462  10.589  67.064  1.00  0.00    -0.128 C  
HETATM   16  H   UNL     1      -7.405  12.022  67.887  1.00  0.00     0.000 HD 
HETATM   17  O   UNL     1      -8.225  11.962  67.411  1.00  0.00    -0.147 OA 
BRANCH  15  18
HETATM   18  C   UNL     1      -7.269  10.041  66.255  1.00  0.00    -0.106 C  
HETATM   19  O   UNL     1      -6.806  10.974  65.278  1.00  0.00    -0.358 OA 
HETATM   20  H   UNL     1      -6.071  10.637  64.780  1.00  0.00     0.000 HD 
ENDBRANCH  15  18
ENDBRANCH  12  15
ENDBRANCH   9  12
ENDBRANCH   3   9
TORSDOF 5
ENDMDL
MODEL      186
REMARK 921   NORMALIZED FREE ENERGY PREDICTED BY IDOCK:   -3.22 KCAL/MOL
REMARK 922        TOTAL FREE ENERGY PREDICTED BY IDOCK:   -4.85 KCAL/MOL
REMARK 923 INTER-LIGAND FREE ENERGY PREDICTED BY IDOCK:   -4.02 KCAL/MOL
REMARK 924 INTRA-LIGAND FREE ENERGY PREDICTED BY IDOCK:   -0.82 KCAL/MOL
REMARK 927      BINDING AFFINITY PREDICTED BY RF-SCORE:    0.00 PKD
ROOT
HETATM    1  C   UNL     1     -10.418   4.187  72.877  1.00  0.00    -0.172 C  
HETATM    2  O   UNL     1     -11.152   4.093  73.863  1.00  0.00    -0.242 OA 
HETATM    3  CA  UNL     1     -10.307   5.470  72.070  1.00  0.00    -0.213 C  
ENDROOT
BRANCH   3   4
HETATM    4  N   UNL     1      -9.924   5.177  70.679  1.00  0.00    -0.210 N  
HETATM    5  C   UNL     1     -10.092   5.134  68.263  1.00  0.00    -0.199 C  
HETATM    6  O   UNL     1     -11.637   6.302  69.675  1.00  0.00    -0.430 OA 
HETATM    7  H   UNL     1      -9.074   4.636  70.517  1.00  0.00     0.000 HD 
HETATM    8  C   UNL     1     -10.646   5.589  69.587  1.00  0.00    -0.305 C  
ENDBRANCH   3   4
BRANCH   3   9
HETATM    9  C   UNL     1      -9.395   6.511  72.760  1.00  0.00    -0.139 C  
HETATM   10  H   UNL     1      -7.599   7.200  72.439  1.00  0.00     0.000 HD 
HETATM   11  O   UNL     1      -8.159   6.560  72.014  1.00  0.00    -0.107 OA 
BRANCH   9  12
HETATM   12  C   UNL     1     -10.018   7.933  72.843  1.00  0.00    -0.294 C  
HETATM   13  H   UNL     1     -11.749   8.756  73.372  1.00  0.00     0.000 HD 
HETATM   14  O   UNL     1     -11.368   7.887  73.321  1.00  0.00    -0.312 OA 
BRANCH  12  15
HETATM   15  C   UNL     1      -9.964   8.677  71.493  1.00  0.00    -0.274 C  
HETATM   16  H   UNL     1      -8.727   9.914  70.606  1.00  0.00     0.000 HD 
HETATM   17  O   UNL     1      -8.760   9.456  71.438  1.00  0.00    -0.288 OA 
BRANCH  15  18
HETATM   18  C   UNL     1     -11.188   9.590  71.273  1.00  0.00    -0.382 C  
HETATM   19  O   UNL     1     -12.340   8.855  70.858  1.00  0.00    -0.458 OA 
HETATM   20  H   UNL     1     -13.094   9.417  70.723  1.00  0.00     0.000 HD 
ENDBRANCH  15  18
ENDBRANCH  12  15
ENDBRANCH   9  12
ENDBRANCH   3   9
TORSDOF 5
ENDMDL
MODEL      187
REMARK 921   NORMALIZED FREE ENERGY PREDICTED BY IDOCK:   -3.21 KCAL/MOL
REMARK 922        TOTAL FREE ENERGY PREDICTED BY IDOCK:   -4.85 KCAL/MOL
REMARK 923 INTER-LIGAND FREE ENERGY PREDICTED BY IDOCK:   -3.62 KCAL/MOL
REMARK 924 INTRA-LIGAND FREE ENERGY PREDICTED BY IDOCK:   -1.22 KCAL/MOL
REMARK 927      BINDING AFFINITY PREDICTED BY RF-SCORE:    0.00 PKD
ROOT
HETATM    1  C   UNL     1      -8.153  10.956  67.524  1.00  0.00    -0.116 C  
HETATM    2  O   UNL     1      -7.724  10.405  66.509  1.00  0.00    -0.112 OA 
HETATM    3  CA  UNL     1      -9.210  10.314  68.408  1.00  0.00    -0.136 C  
ENDROOT
BRANCH   3   4
HETATM    4  N   UNL     1      -9.983  11.344  69.123  1.00  0.00    -0.416 N  
HETATM    5  C   UNL     1     -11.839  12.817  69.625  1.00  0.00    -0.384 C  
HETATM    6  O   UNL     1     -11.898  11.159  67.894  1.00  0.00    -0.601 OA 
HETATM    7  H   UNL     1      -9.544  11.810  69.917  1.00  0.00     0.000 HD 
HETATM    8  C   UNL     1     -11.261  11.711  68.783  1.00  0.00    -0.245 C  
ENDBRANCH   3   4
BRANCH   3   9
HETATM    9  C   UNL     1      -8.611   9.230  69.333  1.00  0.00    -0.142 C  
HETATM   10  H   UNL     1      -7.914   9.203  71.154  1.00  0.00     0.000 HD 
HETATM   11  O   UNL     1      -8.282   9.870  70.585  1.00  0.00    -0.210 OA 
BRANCH   9  12
HETATM   12  C   UNL     1      -9.564   8.028  69.590  1.00  0.00    -0.168 C  
HETATM   13  H   UNL     1     -11.440   7.519  69.172  1.00  0.00     0.000 HD 
HETATM   14  O   UNL     1     -10.858   8.254  69.016  1.00  0.00    -0.131 OA 
BRANCH  12  15
HETATM   15  C   UNL     1      -9.706   7.702  71.091  1.00  0.00    -0.162 C  
HETATM   16  H   UNL     1      -9.711   6.080  72.193  1.00  0.00     0.000 HD 
HETATM   17  O   UNL     1      -9.623   6.280  71.268  1.00  0.00    -0.172 OA 
BRANCH  15  18
HETATM   18  C   UNL     1     -11.029   8.227  71.686  1.00  0.00    -0.264 C  
HETATM   19  O   UNL     1     -11.215   9.621  71.441  1.00  0.00    -0.365 OA 
HETATM   20  H   UNL     1     -12.029   9.945  71.807  1.00  0.00     0.000 HD 
ENDBRANCH  15  18
ENDBRANCH  12  15
ENDBRANCH   9  12
ENDBRANCH   3   9
TORSDOF 5
ENDMDL
MODEL      188
REMARK 921   NORMALIZED FREE ENERGY PREDICTED BY IDOCK:   -3.21 KCAL/MOL
REMARK 922        TOTAL FREE ENERGY PREDICTED BY IDOCK:   -4.84 KCAL/MOL
REMARK 923 INTER-LIGAND FREE ENERGY PREDICTED BY IDOCK:   -4.84 KCAL/MOL
REMARK 924 INTRA-LIGAND FREE ENERGY PREDICTED BY IDOCK:   -0.00 KCAL/MOL
REMARK 927      BINDING AFFINITY PREDICTED BY RF-SCORE:    0.00 PKD
ROOT
HETATM    1  C   UNL     1      -8.652  12.905  67.669  1.00  0.00    -0.182 C  
HETATM    2  O   UNL     1      -8.551  13.988  67.090  1.00  0.00    -0.205 OA 
HETATM    3  CA  UNL     1     -10.001  12.303  68.029  1.00  0.00    -0.202 C  
ENDROOT
BRANCH   3   4
HETATM    4  N   UNL     1      -9.878  11.417  69.198  1.00  0.00    -0.415 N  
HETATM    5  C   UNL     1      -9.259   9.456  70.477  1.00  0.00    -0.314 C  
HETATM    6  O   UNL     1      -8.607   9.808  68.198  1.00  0.00    -0.118 OA 
HETATM    7  H   UNL     1     -10.309  11.714  70.074  1.00  0.00     0.000 HD 
HETATM    8  C   UNL     1      -9.217  10.214  69.178  1.00  0.00    -0.197 C  
ENDBRANCH   3   4
BRANCH   3   9
HETATM    9  C   UNL     1     -10.681  11.636  66.811  1.00  0.00    -0.260 C  
HETATM   10  H   UNL     1     -12.183  10.417  66.567  1.00  0.00     0.000 HD 
HETATM   11  O   UNL     1     -11.766  10.828  67.315  1.00  0.00    -0.396 OA 
BRANCH   9  12
HETATM   12  C   UNL     1     -11.221  12.648  65.761  1.00  0.00    -0.312 C  
HETATM   13  H   UNL     1     -12.980  13.373  65.182  1.00  0.00     0.000 HD 
HETATM   14  O   UNL     1     -12.649  12.754  65.824  1.00  0.00    -0.562 OA 
BRANCH  12  15
HETATM   15  C   UNL     1     -10.784  12.293  64.325  1.00  0.00    -0.351 C  
HETATM   16  H   UNL     1      -9.272  12.735  63.156  1.00  0.00     0.000 HD 
HETATM   17  O   UNL     1      -9.542  12.953  64.040  1.00  0.00    -0.021 OA 
BRANCH  15  18
HETATM   18  C   UNL     1     -11.840  12.690  63.273  1.00  0.00    -0.425 C  
HETATM   19  O   UNL     1     -12.701  11.601  62.936  1.00  0.00    -0.879 OA 
HETATM   20  H   UNL     1     -13.351  11.845  62.288  1.00  0.00     0.000 HD 
ENDBRANCH  15  18
ENDBRANCH  12  15
ENDBRANCH   9  12
ENDBRANCH   3   9
TORSDOF 5
ENDMDL
MODEL      189
REMARK 921   NORMALIZED FREE ENERGY PREDICTED BY IDOCK:   -3.21 KCAL/MOL
REMARK 922        TOTAL FREE ENERGY PREDICTED BY IDOCK:   -4.84 KCAL/MOL
REMARK 923 INTER-LIGAND FREE ENERGY PREDICTED BY IDOCK:   -4.68 KCAL/MOL
REMARK 924 INTRA-LIGAND FREE ENERGY PREDICTED BY IDOCK:   -0.16 KCAL/MOL
REMARK 927      BINDING AFFINITY PREDICTED BY RF-SCORE:    0.00 PKD
ROOT
HETATM    1  C   UNL     1     -12.403  13.252  66.198  1.00  0.00    -0.358 C  
HETATM    2  O   UNL     1     -12.488  14.115  65.322  1.00  0.00    -0.445 OA 
HETATM    3  CA  UNL     1     -11.072  12.850  66.811  1.00  0.00    -0.281 C  
ENDROOT
BRANCH   3   4
HETATM    4  N   UNL     1     -11.126  11.464  67.305  1.00  0.00    -0.287 N  
HETATM    5  C   UNL     1     -10.556   9.117  67.483  1.00  0.00    -0.317 C  
HETATM    6  O   UNL     1      -9.371  10.663  66.087  1.00  0.00    -0.167 OA 
HETATM    7  H   UNL     1     -11.827  11.232  68.010  1.00  0.00     0.000 HD 
HETATM    8  C   UNL     1     -10.288  10.467  66.873  1.00  0.00    -0.240 C  
ENDBRANCH   3   4
BRANCH   3   9
HETATM    9  C   UNL     1     -10.589  13.870  67.868  1.00  0.00    -0.245 C  
HETATM   10  H   UNL     1      -8.878  14.276  68.711  1.00  0.00     0.000 HD 
HETATM   11  O   UNL     1      -9.175  13.649  68.061  1.00  0.00    -0.183 OA 
BRANCH   9  12
HETATM   12  C   UNL     1     -10.842  15.352  67.471  1.00  0.00    -0.305 C  
HETATM   13  H   UNL     1      -9.845  16.835  66.599  1.00  0.00     0.000 HD 
HETATM   14  O   UNL     1      -9.690  15.929  66.842  1.00  0.00    -0.223 OA 
BRANCH  12  15
HETATM   15  C   UNL     1     -11.270  16.217  68.675  1.00  0.00    -0.369 C  
HETATM   16  H   UNL     1     -10.472  17.661  69.734  1.00  0.00     0.000 HD 
HETATM   17  O   UNL     1     -10.209  17.129  68.993  1.00  0.00    -0.302 OA 
BRANCH  15  18
HETATM   18  C   UNL     1     -11.621  15.369  69.915  1.00  0.00    -0.323 C  
HETATM   19  O   UNL     1     -13.000  15.477  70.268  1.00  0.00    -0.635 OA 
HETATM   20  H   UNL     1     -13.216  14.955  71.031  1.00  0.00     0.000 HD 
ENDBRANCH  15  18
ENDBRANCH  12  15
ENDBRANCH   9  12
ENDBRANCH   3   9
TORSDOF 5
ENDMDL
MODEL      190
REMARK 921   NORMALIZED FREE ENERGY PREDICTED BY IDOCK:   -3.17 KCAL/MOL
REMARK 922        TOTAL FREE ENERGY PREDICTED BY IDOCK:   -4.79 KCAL/MOL
REMARK 923 INTER-LIGAND FREE ENERGY PREDICTED BY IDOCK:   -4.10 KCAL/MOL
REMARK 924 INTRA-LIGAND FREE ENERGY PREDICTED BY IDOCK:   -0.69 KCAL/MOL
REMARK 927      BINDING AFFINITY PREDICTED BY RF-SCORE:    0.00 PKD
ROOT
HETATM    1  C   UNL     1      -7.816  12.567  67.335  1.00  0.00    -0.175 C  
HETATM    2  O   UNL     1      -7.954  12.837  68.530  1.00  0.00    -0.144 OA 
HETATM    3  CA  UNL     1      -8.951  11.999  66.498  1.00  0.00    -0.193 C  
ENDROOT
BRANCH   3   4
HETATM    4  N   UNL     1      -8.421  11.202  65.379  1.00  0.00    -0.375 N  
HETATM    5  C   UNL     1      -8.009   9.249  64.007  1.00  0.00    -0.137 C  
HETATM    6  O   UNL     1      -9.471   9.246  65.908  1.00  0.00    -0.220 OA 
HETATM    7  H   UNL     1      -7.814  11.666  64.703  1.00  0.00     0.000 HD 
HETATM    8  C   UNL     1      -8.697   9.870  65.194  1.00  0.00    -0.165 C  
ENDBRANCH   3   4
BRANCH   3   9
HETATM    9  C   UNL     1      -9.955  13.092  66.064  1.00  0.00    -0.276 C  
HETATM   10  H   UNL     1     -11.076  13.390  64.497  1.00  0.00     0.000 HD 
HETATM   11  O   UNL     1     -10.459  12.718  64.764  1.00  0.00    -0.306 OA 
BRANCH   9  12
HETATM   12  C   UNL     1     -11.139  13.285  67.053  1.00  0.00    -0.282 C  
HETATM   13  H   UNL     1     -13.071  12.822  67.148  1.00  0.00     0.000 HD 
HETATM   14  O   UNL     1     -12.347  12.705  66.544  1.00  0.00    -0.500 OA 
BRANCH  12  15
HETATM   15  C   UNL     1     -11.377  14.769  67.402  1.00  0.00    -0.351 C  
HETATM   16  H   UNL     1     -11.172  16.489  66.483  1.00  0.00     0.000 HD 
HETATM   17  O   UNL     1     -11.025  15.575  66.268  1.00  0.00    -0.314 OA 
BRANCH  15  18
HETATM   18  C   UNL     1     -10.569  15.221  68.636  1.00  0.00    -0.236 C  
HETATM   19  O   UNL     1     -10.213  14.124  69.478  1.00  0.00    -0.429 OA 
HETATM   20  H   UNL     1      -9.716  14.403  70.238  1.00  0.00     0.000 HD 
ENDBRANCH  15  18
ENDBRANCH  12  15
ENDBRANCH   9  12
ENDBRANCH   3   9
TORSDOF 5
ENDMDL
MODEL      191
REMARK 921   NORMALIZED FREE ENERGY PREDICTED BY IDOCK:   -3.17 KCAL/MOL
REMARK 922        TOTAL FREE ENERGY PREDICTED BY IDOCK:   -4.79 KCAL/MOL
REMARK 923 INTER-LIGAND FREE ENERGY PREDICTED BY IDOCK:   -4.79 KCAL/MOL
REMARK 924 INTRA-LIGAND FREE ENERGY PREDICTED BY IDOCK:    0.01 KCAL/MOL
REMARK 927      BINDING AFFINITY PREDICTED BY RF-SCORE:    0.00 PKD
ROOT
HETATM    1  C   UNL     1      -9.243   9.222  69.584  1.00  0.00    -0.175 C  
HETATM    2  O   UNL     1      -8.128   8.733  69.389  1.00  0.00    -0.102 OA 
HETATM    3  CA  UNL     1      -9.644  10.573  69.015  1.00  0.00    -0.202 C  
ENDROOT
BRANCH   3   4
HETATM    4  N   UNL     1     -10.680  11.201  69.851  1.00  0.00    -0.454 N  
HETATM    5  C   UNL     1     -12.663  11.360  71.234  1.00  0.00    -0.498 C  
HETATM    6  O   UNL     1     -11.774   9.284  70.430  1.00  0.00    -0.225 OA 
HETATM    7  H   UNL     1     -10.645  12.213  69.981  1.00  0.00     0.000 HD 
HETATM    8  C   UNL     1     -11.690  10.504  70.466  1.00  0.00    -0.350 C  
ENDBRANCH   3   4
BRANCH   3   9
HETATM    9  C   UNL     1     -10.024  10.481  67.518  1.00  0.00    -0.172 C  
HETATM   10  H   UNL     1     -11.009   9.205  66.422  1.00  0.00     0.000 HD 
HETATM   11  O   UNL     1     -10.776   9.261  67.341  1.00  0.00    -0.279 OA 
BRANCH   9  12
HETATM   12  C   UNL     1     -10.854  11.691  67.006  1.00  0.00    -0.266 C  
HETATM   13  H   UNL     1     -12.693  12.415  67.223  1.00  0.00     0.000 HD 
HETATM   14  O   UNL     1     -12.186  11.675  67.536  1.00  0.00    -0.501 OA 
BRANCH  12  15
HETATM   15  C   UNL     1     -10.904  11.759  65.465  1.00  0.00    -0.297 C  
HETATM   16  H   UNL     1      -9.599  11.693  64.003  1.00  0.00     0.000 HD 
HETATM   17  O   UNL     1      -9.568  11.652  64.951  1.00  0.00    -0.224 OA 
BRANCH  15  18
HETATM   18  C   UNL     1     -11.559  13.058  64.953  1.00  0.00    -0.326 C  
HETATM   19  O   UNL     1     -12.984  13.008  65.028  1.00  0.00    -0.723 OA 
HETATM   20  H   UNL     1     -13.388  13.808  64.713  1.00  0.00     0.000 HD 
ENDBRANCH  15  18
ENDBRANCH  12  15
ENDBRANCH   9  12
ENDBRANCH   3   9
TORSDOF 5
ENDMDL
MODEL      192
REMARK 921   NORMALIZED FREE ENERGY PREDICTED BY IDOCK:   -3.17 KCAL/MOL
REMARK 922        TOTAL FREE ENERGY PREDICTED BY IDOCK:   -4.79 KCAL/MOL
REMARK 923 INTER-LIGAND FREE ENERGY PREDICTED BY IDOCK:   -4.38 KCAL/MOL
REMARK 924 INTRA-LIGAND FREE ENERGY PREDICTED BY IDOCK:   -0.41 KCAL/MOL
REMARK 927      BINDING AFFINITY PREDICTED BY RF-SCORE:    0.00 PKD
ROOT
HETATM    1  C   UNL     1     -11.031  16.090  65.802  1.00  0.00    -0.140 C  
HETATM    2  O   UNL     1     -10.423  16.107  64.730  1.00  0.00    -0.592 OA 
HETATM    3  CA  UNL     1     -10.325  16.264  67.136  1.00  0.00    -0.285 C  
ENDROOT
BRANCH   3   4
HETATM    4  N   UNL     1     -11.079  15.602  68.213  1.00  0.00    -0.320 N  
HETATM    5  C   UNL     1     -11.689  13.871  69.795  1.00  0.00    -0.372 C  
HETATM    6  O   UNL     1      -9.751  13.755  68.390  1.00  0.00    -0.220 OA 
HETATM    7  H   UNL     1     -11.894  16.083  68.596  1.00  0.00     0.000 HD 
HETATM    8  C   UNL     1     -10.749  14.374  68.732  1.00  0.00    -0.252 C  
ENDBRANCH   3   4
BRANCH   3   9
HETATM    9  C   UNL     1      -9.995  17.746  67.427  1.00  0.00    -0.323 C  
HETATM   10  H   UNL     1     -10.185  18.924  68.970  1.00  0.00     0.000 HD 
HETATM   11  O   UNL     1     -10.388  18.013  68.791  1.00  0.00    -0.368 OA 
BRANCH   9  12
HETATM   12  C   UNL     1      -8.495  18.105  67.232  1.00  0.00    -0.242 C  
HETATM   13  H   UNL     1      -7.267  18.540  65.729  1.00  0.00     0.000 HD 
HETATM   14  O   UNL     1      -8.184  18.320  65.849  1.00  0.00    -0.506 OA 
BRANCH  12  15
HETATM   15  C   UNL     1      -7.553  17.035  67.821  1.00  0.00    -0.170 C  
HETATM   16  H   UNL     1      -5.936  17.028  68.930  1.00  0.00     0.000 HD 
HETATM   17  O   UNL     1      -6.516  17.687  68.567  1.00  0.00    -0.183 OA 
BRANCH  15  18
HETATM   18  C   UNL     1      -6.929  16.136  66.734  1.00  0.00    -0.072 C  
HETATM   19  O   UNL     1      -5.624  15.682  67.094  1.00  0.00    -0.332 OA 
HETATM   20  H   UNL     1      -5.239  15.128  66.425  1.00  0.00     0.000 HD 
ENDBRANCH  15  18
ENDBRANCH  12  15
ENDBRANCH   9  12
ENDBRANCH   3   9
TORSDOF 5
ENDMDL
MODEL      193
REMARK 921   NORMALIZED FREE ENERGY PREDICTED BY IDOCK:   -3.17 KCAL/MOL
REMARK 922        TOTAL FREE ENERGY PREDICTED BY IDOCK:   -4.78 KCAL/MOL
REMARK 923 INTER-LIGAND FREE ENERGY PREDICTED BY IDOCK:   -3.99 KCAL/MOL
REMARK 924 INTRA-LIGAND FREE ENERGY PREDICTED BY IDOCK:   -0.79 KCAL/MOL
REMARK 927      BINDING AFFINITY PREDICTED BY RF-SCORE:    0.00 PKD
ROOT
HETATM    1  C   UNL     1      -9.536  17.804  66.568  1.00  0.00    -0.290 C  
HETATM    2  O   UNL     1     -10.537  18.396  66.161  1.00  0.00    -0.409 OA 
HETATM    3  CA  UNL     1      -9.371  17.400  68.024  1.00  0.00    -0.276 C  
ENDROOT
BRANCH   3   4
HETATM    4  N   UNL     1      -7.945  17.313  68.380  1.00  0.00    -0.243 N  
HETATM    5  C   UNL     1      -5.753  18.067  69.082  1.00  0.00    -0.214 C  
HETATM    6  O   UNL     1      -7.685  19.485  69.028  1.00  0.00    -0.362 OA 
HETATM    7  H   UNL     1      -7.482  16.407  68.293  1.00  0.00     0.000 HD 
HETATM    8  C   UNL     1      -7.203  18.379  68.822  1.00  0.00    -0.284 C  
ENDBRANCH   3   4
BRANCH   3   9
HETATM    9  C   UNL     1     -10.178  16.126  68.367  1.00  0.00    -0.240 C  
HETATM   10  H   UNL     1     -12.029  15.756  68.854  1.00  0.00     0.000 HD 
HETATM   11  O   UNL     1     -11.534  16.539  68.643  1.00  0.00    -0.313 OA 
BRANCH   9  12
HETATM   12  C   UNL     1     -10.171  15.057  67.239  1.00  0.00    -0.242 C  
HETATM   13  H   UNL     1     -11.471  13.840  66.353  1.00  0.00     0.000 HD 
HETATM   14  O   UNL     1     -11.475  14.494  67.043  1.00  0.00    -0.343 OA 
BRANCH  12  15
HETATM   15  C   UNL     1      -9.149  13.932  67.502  1.00  0.00    -0.201 C  
HETATM   16  H   UNL     1      -7.230  13.664  67.196  1.00  0.00     0.000 HD 
HETATM   17  O   UNL     1      -7.860  14.356  67.034  1.00  0.00    -0.135 OA 
BRANCH  15  18
HETATM   18  C   UNL     1      -9.542  12.606  66.820  1.00  0.00    -0.241 C  
HETATM   19  O   UNL     1     -10.292  11.755  67.688  1.00  0.00    -0.194 OA 
HETATM   20  H   UNL     1     -10.534  10.938  67.269  1.00  0.00     0.000 HD 
ENDBRANCH  15  18
ENDBRANCH  12  15
ENDBRANCH   9  12
ENDBRANCH   3   9
TORSDOF 5
ENDMDL
MODEL      194
REMARK 921   NORMALIZED FREE ENERGY PREDICTED BY IDOCK:   -3.16 KCAL/MOL
REMARK 922        TOTAL FREE ENERGY PREDICTED BY IDOCK:   -4.78 KCAL/MOL
REMARK 923 INTER-LIGAND FREE ENERGY PREDICTED BY IDOCK:   -5.14 KCAL/MOL
REMARK 924 INTRA-LIGAND FREE ENERGY PREDICTED BY IDOCK:    0.36 KCAL/MOL
REMARK 927      BINDING AFFINITY PREDICTED BY RF-SCORE:    0.00 PKD
ROOT
HETATM    1  C   UNL     1      -9.964  11.864  67.009  1.00  0.00    -0.202 C  
HETATM    2  O   UNL     1      -9.100  11.697  66.147  1.00  0.00    -0.213 OA 
HETATM    3  CA  UNL     1      -9.870  12.974  68.044  1.00  0.00    -0.224 C  
ENDROOT
BRANCH   3   4
HETATM    4  N   UNL     1     -10.599  12.605  69.268  1.00  0.00    -0.436 N  
HETATM    5  C   UNL     1     -12.295  11.558  70.646  1.00  0.00    -0.457 C  
HETATM    6  O   UNL     1     -12.082  11.172  68.290  1.00  0.00    -0.620 OA 
HETATM    7  H   UNL     1     -10.286  13.003  70.154  1.00  0.00     0.000 HD 
HETATM    8  C   UNL     1     -11.677  11.755  69.287  1.00  0.00    -0.335 C  
ENDBRANCH   3   4
BRANCH   3   9
HETATM    9  C   UNL     1     -10.285  14.345  67.461  1.00  0.00    -0.240 C  
HETATM   10  H   UNL     1     -11.877  15.044  66.579  1.00  0.00     0.000 HD 
HETATM   11  O   UNL     1     -11.623  14.201  66.937  1.00  0.00    -0.351 OA 
BRANCH   9  12
HETATM   12  C   UNL     1     -10.247  15.504  68.497  1.00  0.00    -0.215 C  
HETATM   13  H   UNL     1     -11.523  16.470  69.676  1.00  0.00     0.000 HD 
HETATM   14  O   UNL     1     -11.547  15.762  69.043  1.00  0.00    -0.360 OA 
BRANCH  12  15
HETATM   15  C   UNL     1      -9.660  16.802  67.904  1.00  0.00    -0.236 C  
HETATM   16  H   UNL     1     -10.293  18.635  67.609  1.00  0.00     0.000 HD 
HETATM   17  O   UNL     1     -10.654  17.836  67.974  1.00  0.00    -0.382 OA 
BRANCH  15  18
HETATM   18  C   UNL     1      -9.192  16.625  66.446  1.00  0.00    -0.287 C  
HETATM   19  O   UNL     1     -10.244  16.861  65.509  1.00  0.00    -0.580 OA 
HETATM   20  H   UNL     1      -9.956  16.752  64.611  1.00  0.00     0.000 HD 
ENDBRANCH  15  18
ENDBRANCH  12  15
ENDBRANCH   9  12
ENDBRANCH   3   9
TORSDOF 5
ENDMDL
MODEL      195
REMARK 921   NORMALIZED FREE ENERGY PREDICTED BY IDOCK:   -3.16 KCAL/MOL
REMARK 922        TOTAL FREE ENERGY PREDICTED BY IDOCK:   -4.78 KCAL/MOL
REMARK 923 INTER-LIGAND FREE ENERGY PREDICTED BY IDOCK:   -4.85 KCAL/MOL
REMARK 924 INTRA-LIGAND FREE ENERGY PREDICTED BY IDOCK:    0.08 KCAL/MOL
REMARK 927      BINDING AFFINITY PREDICTED BY RF-SCORE:    0.00 PKD
ROOT
HETATM    1  C   UNL     1      -8.292  15.667  68.364  1.00  0.00    -0.162 C  
HETATM    2  O   UNL     1      -7.615  14.645  68.238  1.00  0.00    -0.105 OA 
HETATM    3  CA  UNL     1      -8.850  16.421  67.168  1.00  0.00    -0.195 C  
ENDROOT
BRANCH   3   4
HETATM    4  N   UNL     1      -9.041  17.844  67.494  1.00  0.00    -0.244 N  
HETATM    5  C   UNL     1     -10.005  19.798  68.552  1.00  0.00    -0.538 C  
HETATM    6  O   UNL     1     -10.634  17.551  69.101  1.00  0.00    -0.297 OA 
HETATM    7  H   UNL     1      -8.464  18.530  67.007  1.00  0.00     0.000 HD 
HETATM    8  C   UNL     1      -9.951  18.299  68.416  1.00  0.00    -0.382 C  
ENDBRANCH   3   4
BRANCH   3   9
HETATM    9  C   UNL     1     -10.113  15.739  66.592  1.00  0.00    -0.279 C  
HETATM   10  H   UNL     1     -10.980  15.694  64.846  1.00  0.00     0.000 HD 
HETATM   11  O   UNL     1     -10.204  16.112  65.200  1.00  0.00    -0.542 OA 
BRANCH   9  12
HETATM   12  C   UNL     1     -10.106  14.190  66.723  1.00  0.00    -0.262 C  
HETATM   13  H   UNL     1      -9.939  12.610  65.527  1.00  0.00     0.000 HD 
HETATM   14  O   UNL     1      -9.944  13.557  65.447  1.00  0.00    -0.273 OA 
BRANCH  12  15
HETATM   15  C   UNL     1     -11.374  13.653  67.418  1.00  0.00    -0.315 C  
HETATM   16  H   UNL     1     -13.305  13.705  67.074  1.00  0.00     0.000 HD 
HETATM   17  O   UNL     1     -12.523  14.036  66.647  1.00  0.00    -0.420 OA 
BRANCH  15  18
HETATM   18  C   UNL     1     -11.519  14.170  68.863  1.00  0.00    -0.293 C  
HETATM   19  O   UNL     1     -12.566  15.132  68.990  1.00  0.00    -0.545 OA 
HETATM   20  H   UNL     1     -12.655  15.451  69.880  1.00  0.00     0.000 HD 
ENDBRANCH  15  18
ENDBRANCH  12  15
ENDBRANCH   9  12
ENDBRANCH   3   9
TORSDOF 5
ENDMDL
MODEL      196
REMARK 921   NORMALIZED FREE ENERGY PREDICTED BY IDOCK:   -3.16 KCAL/MOL
REMARK 922        TOTAL FREE ENERGY PREDICTED BY IDOCK:   -4.77 KCAL/MOL
REMARK 923 INTER-LIGAND FREE ENERGY PREDICTED BY IDOCK:   -4.22 KCAL/MOL
REMARK 924 INTRA-LIGAND FREE ENERGY PREDICTED BY IDOCK:   -0.55 KCAL/MOL
REMARK 927      BINDING AFFINITY PREDICTED BY RF-SCORE:    0.00 PKD
ROOT
HETATM    1  C   UNL     1     -11.831  13.087  68.099  1.00  0.00    -0.340 C  
HETATM    2  O   UNL     1     -12.359  13.847  68.913  1.00  0.00    -0.301 OA 
HETATM    3  CA  UNL     1     -10.663  13.520  67.228  1.00  0.00    -0.267 C  
ENDROOT
BRANCH   3   4
HETATM    4  N   UNL     1     -10.632  12.742  65.978  1.00  0.00    -0.265 N  
HETATM    5  C   UNL     1     -11.057  12.204  63.655  1.00  0.00    -0.528 C  
HETATM    6  O   UNL     1     -11.644  14.302  64.654  1.00  0.00    -0.378 OA 
HETATM    7  H   UNL     1     -10.192  11.822  65.994  1.00  0.00     0.000 HD 
HETATM    8  C   UNL     1     -11.162  13.186  64.792  1.00  0.00    -0.324 C  
ENDBRANCH   3   4
BRANCH   3   9
HETATM    9  C   UNL     1      -9.326  13.504  68.004  1.00  0.00    -0.213 C  
HETATM   10  H   UNL     1      -7.552  12.762  67.680  1.00  0.00     0.000 HD 
HETATM   11  O   UNL     1      -8.374  12.771  67.203  1.00  0.00    -0.183 OA 
BRANCH   9  12
HETATM   12  C   UNL     1      -8.768  14.921  68.320  1.00  0.00    -0.166 C  
HETATM   13  H   UNL     1      -8.681  16.158  69.875  1.00  0.00     0.000 HD 
HETATM   14  O   UNL     1      -9.022  15.292  69.681  1.00  0.00    -0.232 OA 
BRANCH  12  15
HETATM   15  C   UNL     1      -9.329  15.999  67.369  1.00  0.00    -0.217 C  
HETATM   16  H   UNL     1      -9.261  16.360  65.443  1.00  0.00     0.000 HD 
HETATM   17  O   UNL     1      -8.915  15.697  66.029  1.00  0.00    -0.334 OA 
BRANCH  15  18
HETATM   18  C   UNL     1      -8.868  17.420  67.751  1.00  0.00    -0.232 C  
HETATM   19  O   UNL     1      -7.674  17.407  68.535  1.00  0.00    -0.246 OA 
HETATM   20  H   UNL     1      -7.390  18.282  68.770  1.00  0.00     0.000 HD 
ENDBRANCH  15  18
ENDBRANCH  12  15
ENDBRANCH   9  12
ENDBRANCH   3   9
TORSDOF 5
ENDMDL
MODEL      197
REMARK 921   NORMALIZED FREE ENERGY PREDICTED BY IDOCK:   -3.16 KCAL/MOL
REMARK 922        TOTAL FREE ENERGY PREDICTED BY IDOCK:   -4.77 KCAL/MOL
REMARK 923 INTER-LIGAND FREE ENERGY PREDICTED BY IDOCK:   -4.94 KCAL/MOL
REMARK 924 INTRA-LIGAND FREE ENERGY PREDICTED BY IDOCK:    0.17 KCAL/MOL
REMARK 927      BINDING AFFINITY PREDICTED BY RF-SCORE:    0.00 PKD
ROOT
HETATM    1  C   UNL     1     -10.731  12.515  68.730  1.00  0.00    -0.202 C  
HETATM    2  O   UNL     1     -11.460  13.025  69.584  1.00  0.00    -0.251 OA 
HETATM    3  CA  UNL     1     -11.286  11.681  67.587  1.00  0.00    -0.295 C  
ENDROOT
BRANCH   3   4
HETATM    4  N   UNL     1     -10.284  10.709  67.119  1.00  0.00    -0.206 N  
HETATM    5  C   UNL     1      -8.920   8.708  67.125  1.00  0.00    -0.148 C  
HETATM    6  O   UNL     1     -10.644   9.138  68.734  1.00  0.00    -0.218 OA 
HETATM    7  H   UNL     1      -9.758  10.930  66.273  1.00  0.00     0.000 HD 
HETATM    8  C   UNL     1     -10.017   9.523  67.757  1.00  0.00    -0.174 C  
ENDBRANCH   3   4
BRANCH   3   9
HETATM    9  C   UNL     1     -11.873  12.562  66.460  1.00  0.00    -0.367 C  
HETATM   10  H   UNL     1     -12.734  14.310  66.382  1.00  0.00     0.000 HD 
HETATM   11  O   UNL     1     -12.373  13.769  67.075  1.00  0.00    -0.378 OA 
BRANCH   9  12
HETATM   12  C   UNL     1     -10.849  12.923  65.347  1.00  0.00    -0.283 C  
HETATM   13  H   UNL     1      -9.279  14.122  65.123  1.00  0.00     0.000 HD 
HETATM   14  O   UNL     1      -9.905  13.902  65.802  1.00  0.00    -0.291 OA 
BRANCH  12  15
HETATM   15  C   UNL     1     -11.534  13.416  64.056  1.00  0.00    -0.352 C  
HETATM   16  H   UNL     1     -12.517  15.019  63.499  1.00  0.00     0.000 HD 
HETATM   17  O   UNL     1     -12.096  14.715  64.294  1.00  0.00    -0.475 OA 
BRANCH  15  18
HETATM   18  C   UNL     1     -12.634  12.452  63.567  1.00  0.00    -0.425 C  
HETATM   19  O   UNL     1     -12.092  11.299  62.922  1.00  0.00    -0.879 OA 
HETATM   20  H   UNL     1     -12.769  10.705  62.621  1.00  0.00     0.000 HD 
ENDBRANCH  15  18
ENDBRANCH  12  15
ENDBRANCH   9  12
ENDBRANCH   3   9
TORSDOF 5
ENDMDL
MODEL      198
REMARK 921   NORMALIZED FREE ENERGY PREDICTED BY IDOCK:   -3.15 KCAL/MOL
REMARK 922        TOTAL FREE ENERGY PREDICTED BY IDOCK:   -4.77 KCAL/MOL
REMARK 923 INTER-LIGAND FREE ENERGY PREDICTED BY IDOCK:   -4.58 KCAL/MOL
REMARK 924 INTRA-LIGAND FREE ENERGY PREDICTED BY IDOCK:   -0.19 KCAL/MOL
REMARK 927      BINDING AFFINITY PREDICTED BY RF-SCORE:    0.00 PKD
ROOT
HETATM    1  C   UNL     1      -8.755  10.768  68.900  1.00  0.00    -0.152 C  
HETATM    2  O   UNL     1      -7.696  11.310  68.575  1.00  0.00    -0.115 OA 
HETATM    3  CA  UNL     1     -10.097  11.468  68.763  1.00  0.00    -0.179 C  
ENDROOT
BRANCH   3   4
HETATM    4  N   UNL     1     -11.060  10.938  69.743  1.00  0.00    -0.331 N  
HETATM    5  C   UNL     1     -12.842  10.965  71.384  1.00  0.00    -0.554 C  
HETATM    6  O   UNL     1     -12.151  12.901  70.151  1.00  0.00    -0.340 OA 
HETATM    7  H   UNL     1     -11.033   9.940  69.953  1.00  0.00     0.000 HD 
HETATM    8  C   UNL     1     -11.992  11.711  70.390  1.00  0.00    -0.358 C  
ENDBRANCH   3   4
BRANCH   3   9
HETATM    9  C   UNL     1     -10.615  11.447  67.307  1.00  0.00    -0.227 C  
HETATM   10  H   UNL     1     -12.304  10.982  66.451  1.00  0.00     0.000 HD 
HETATM   11  O   UNL     1     -11.986  10.995  67.346  1.00  0.00    -0.450 OA 
BRANCH   9  12
HETATM   12  C   UNL     1     -10.535  12.826  66.592  1.00  0.00    -0.257 C  
HETATM   13  H   UNL     1      -9.134  14.136  66.071  1.00  0.00     0.000 HD 
HETATM   14  O   UNL     1      -9.183  13.294  66.507  1.00  0.00    -0.240 OA 
BRANCH  12  15
HETATM   15  C   UNL     1     -11.417  13.892  67.274  1.00  0.00    -0.344 C  
HETATM   16  H   UNL     1     -13.008  14.932  66.791  1.00  0.00     0.000 HD 
HETATM   17  O   UNL     1     -12.464  14.276  66.372  1.00  0.00    -0.441 OA 
BRANCH  15  18
HETATM   18  C   UNL     1     -10.613  15.137  67.702  1.00  0.00    -0.263 C  
HETATM   19  O   UNL     1     -11.460  16.209  68.118  1.00  0.00    -0.326 OA 
HETATM   20  H   UNL     1     -10.965  16.975  68.382  1.00  0.00     0.000 HD 
ENDBRANCH  15  18
ENDBRANCH  12  15
ENDBRANCH   9  12
ENDBRANCH   3   9
TORSDOF 5
ENDMDL
MODEL      199
REMARK 921   NORMALIZED FREE ENERGY PREDICTED BY IDOCK:   -3.15 KCAL/MOL
REMARK 922        TOTAL FREE ENERGY PREDICTED BY IDOCK:   -4.76 KCAL/MOL
REMARK 923 INTER-LIGAND FREE ENERGY PREDICTED BY IDOCK:   -4.01 KCAL/MOL
REMARK 924 INTRA-LIGAND FREE ENERGY PREDICTED BY IDOCK:   -0.75 KCAL/MOL
REMARK 927      BINDING AFFINITY PREDICTED BY RF-SCORE:    0.00 PKD
ROOT
HETATM    1  C   UNL     1     -10.364  13.271  67.235  1.00  0.00    -0.247 C  
HETATM    2  O   UNL     1     -10.889  13.207  66.121  1.00  0.00    -0.277 OA 
HETATM    3  CA  UNL     1      -9.427  14.402  67.624  1.00  0.00    -0.214 C  
ENDROOT
BRANCH   3   4
HETATM    4  N   UNL     1      -8.483  13.961  68.664  1.00  0.00    -0.296 N  
HETATM    5  C   UNL     1      -6.387  13.229  69.633  1.00  0.00    -0.089 C  
HETATM    6  O   UNL     1      -6.619  13.917  67.348  1.00  0.00    -0.270 OA 
HETATM    7  H   UNL     1      -8.838  13.828  69.611  1.00  0.00     0.000 HD 
HETATM    8  C   UNL     1      -7.152  13.717  68.431  1.00  0.00    -0.107 C  
ENDBRANCH   3   4
BRANCH   3   9
HETATM    9  C   UNL     1     -10.197  15.693  67.990  1.00  0.00    -0.227 C  
HETATM   10  H   UNL     1     -10.498  16.700  69.632  1.00  0.00     0.000 HD 
HETATM   11  O   UNL     1     -10.024  15.907  69.407  1.00  0.00    -0.242 OA 
BRANCH   9  12
HETATM   12  C   UNL     1      -9.726  16.949  67.204  1.00  0.00    -0.253 C  
HETATM   13  H   UNL     1      -9.558  17.526  65.309  1.00  0.00     0.000 HD 
HETATM   14  O   UNL     1      -9.847  16.758  65.789  1.00  0.00    -0.505 OA 
BRANCH  12  15
HETATM   15  C   UNL     1      -8.279  17.353  67.557  1.00  0.00    -0.201 C  
HETATM   16  H   UNL     1      -7.393  18.937  68.300  1.00  0.00     0.000 HD 
HETATM   17  O   UNL     1      -8.283  18.688  68.082  1.00  0.00    -0.284 OA 
BRANCH  15  18
HETATM   18  C   UNL     1      -7.331  17.271  66.344  1.00  0.00    -0.301 C  
HETATM   19  O   UNL     1      -7.517  18.361  65.440  1.00  0.00    -0.494 OA 
HETATM   20  H   UNL     1      -6.933  18.311  64.693  1.00  0.00     0.000 HD 
ENDBRANCH  15  18
ENDBRANCH  12  15
ENDBRANCH   9  12
ENDBRANCH   3   9
TORSDOF 5
ENDMDL
MODEL      200
REMARK 921   NORMALIZED FREE ENERGY PREDICTED BY IDOCK:   -3.14 KCAL/MOL
REMARK 922        TOTAL FREE ENERGY PREDICTED BY IDOCK:   -4.75 KCAL/MOL
REMARK 923 INTER-LIGAND FREE ENERGY PREDICTED BY IDOCK:   -3.90 KCAL/MOL
REMARK 924 INTRA-LIGAND FREE ENERGY PREDICTED BY IDOCK:   -0.85 KCAL/MOL
REMARK 927      BINDING AFFINITY PREDICTED BY RF-SCORE:    0.00 PKD
ROOT
HETATM    1  C   UNL     1      -6.797  17.082  68.647  1.00  0.00    -0.187 C  
HETATM    2  O   UNL     1      -6.392  17.021  69.809  1.00  0.00    -0.234 OA 
HETATM    3  CA  UNL     1      -8.150  17.676  68.291  1.00  0.00    -0.278 C  
ENDROOT
BRANCH   3   4
HETATM    4  N   UNL     1      -8.662  17.090  67.041  1.00  0.00    -0.213 N  
HETATM    5  C   UNL     1     -10.270  16.150  65.492  1.00  0.00    -0.360 C  
HETATM    6  O   UNL     1     -10.865  17.045  67.636  1.00  0.00    -0.331 OA 
HETATM    7  H   UNL     1      -7.996  16.898  66.291  1.00  0.00     0.000 HD 
HETATM    8  C   UNL     1      -9.983  16.785  66.827  1.00  0.00    -0.282 C  
ENDBRANCH   3   4
BRANCH   3   9
HETATM    9  C   UNL     1      -8.120  19.222  68.287  1.00  0.00    -0.332 C  
HETATM   10  H   UNL     1      -8.092  20.604  69.662  1.00  0.00     0.000 HD 
HETATM   11  O   UNL     1      -8.110  19.654  69.665  1.00  0.00     0.014 OA 
BRANCH   9  12
HETATM   12  C   UNL     1      -6.899  19.824  67.536  1.00  0.00    -0.222 C  
HETATM   13  H   UNL     1      -5.658  21.365  67.738  1.00  0.00     0.000 HD 
HETATM   14  O   UNL     1      -6.404  20.997  68.197  1.00  0.00    -0.336 OA 
BRANCH  12  15
HETATM   15  C   UNL     1      -7.217  20.148  66.062  1.00  0.00    -0.286 C  
HETATM   16  H   UNL     1      -8.791  20.039  64.897  1.00  0.00     0.000 HD 
HETATM   17  O   UNL     1      -8.595  19.839  65.805  1.00  0.00    -0.377 OA 
BRANCH  15  18
HETATM   18  C   UNL     1      -6.315  19.373  65.080  1.00  0.00    -0.270 C  
HETATM   19  O   UNL     1      -6.212  17.990  65.420  1.00  0.00    -0.209 OA 
HETATM   20  H   UNL     1      -5.657  17.512  64.816  1.00  0.00     0.000 HD 
ENDBRANCH  15  18
ENDBRANCH  12  15
ENDBRANCH   9  12
ENDBRANCH   3   9
TORSDOF 5
ENDMDL
MODEL      201
REMARK 921   NORMALIZED FREE ENERGY PREDICTED BY IDOCK:   -3.13 KCAL/MOL
REMARK 922        TOTAL FREE ENERGY PREDICTED BY IDOCK:   -4.74 KCAL/MOL
REMARK 923 INTER-LIGAND FREE ENERGY PREDICTED BY IDOCK:   -4.15 KCAL/MOL
REMARK 924 INTRA-LIGAND FREE ENERGY PREDICTED BY IDOCK:   -0.59 KCAL/MOL
REMARK 927      BINDING AFFINITY PREDICTED BY RF-SCORE:    0.00 PKD
ROOT
HETATM    1  C   UNL     1     -11.293   6.440  69.729  1.00  0.00    -0.427 C  
HETATM    2  O   UNL     1     -10.668   5.405  69.973  1.00  0.00    -0.308 OA 
HETATM    3  CA  UNL     1     -10.612   7.796  69.651  1.00  0.00    -0.242 C  
ENDROOT
BRANCH   3   4
HETATM    4  N   UNL     1     -11.561   8.873  69.983  1.00  0.00    -0.457 N  
HETATM    5  C   UNL     1     -12.866  10.370  71.368  1.00  0.00    -0.556 C  
HETATM    6  O   UNL     1     -11.239   8.841  72.242  1.00  0.00    -0.354 OA 
HETATM    7  H   UNL     1     -12.048   9.337  69.216  1.00  0.00     0.000 HD 
HETATM    8  C   UNL     1     -11.826   9.286  71.264  1.00  0.00    -0.343 C  
ENDBRANCH   3   4
BRANCH   3   9
HETATM    9  C   UNL     1      -9.884   8.002  68.302  1.00  0.00    -0.170 C  
HETATM   10  H   UNL     1     -10.441   8.455  66.490  1.00  0.00     0.000 HD 
HETATM   11  O   UNL     1     -10.889   8.329  67.318  1.00  0.00    -0.232 OA 
BRANCH   9  12
HETATM   12  C   UNL     1      -8.799   9.115  68.339  1.00  0.00    -0.129 C  
HETATM   13  H   UNL     1      -8.220  10.570  69.565  1.00  0.00     0.000 HD 
HETATM   14  O   UNL     1      -8.883   9.889  69.543  1.00  0.00    -0.168 OA 
BRANCH  12  15
HETATM   15  C   UNL     1      -8.873  10.047  67.111  1.00  0.00    -0.135 C  
HETATM   16  H   UNL     1      -7.780  10.375  65.516  1.00  0.00     0.000 HD 
HETATM   17  O   UNL     1      -7.734   9.802  66.272  1.00  0.00    -0.100 OA 
BRANCH  15  18
HETATM   18  C   UNL     1      -8.922  11.537  67.504  1.00  0.00    -0.159 C  
HETATM   19  O   UNL     1      -8.052  12.335  66.701  1.00  0.00    -0.372 OA 
HETATM   20  H   UNL     1      -8.082  13.253  66.942  1.00  0.00     0.000 HD 
ENDBRANCH  15  18
ENDBRANCH  12  15
ENDBRANCH   9  12
ENDBRANCH   3   9
TORSDOF 5
ENDMDL
MODEL      202
REMARK 921   NORMALIZED FREE ENERGY PREDICTED BY IDOCK:   -3.13 KCAL/MOL
REMARK 922        TOTAL FREE ENERGY PREDICTED BY IDOCK:   -4.74 KCAL/MOL
REMARK 923 INTER-LIGAND FREE ENERGY PREDICTED BY IDOCK:   -4.79 KCAL/MOL
REMARK 924 INTRA-LIGAND FREE ENERGY PREDICTED BY IDOCK:    0.06 KCAL/MOL
REMARK 927      BINDING AFFINITY PREDICTED BY RF-SCORE:    0.00 PKD
ROOT
HETATM    1  C   UNL     1     -10.786  15.477  68.169  1.00  0.00    -0.296 C  
HETATM    2  O   UNL     1     -10.571  16.516  67.541  1.00  0.00    -0.316 OA 
HETATM    3  CA  UNL     1     -12.133  14.774  68.131  1.00  0.00    -0.132 C  
ENDROOT
BRANCH   3   4
HETATM    4  N   UNL     1     -12.349  13.999  69.364  1.00  0.00    -0.455 N  
HETATM    5  C   UNL     1     -12.923  13.572  71.678  1.00  0.00    -0.447 C  
HETATM    6  O   UNL     1     -13.184  15.709  70.624  1.00  0.00    -0.487 OA 
HETATM    7  H   UNL     1     -12.131  13.003  69.351  1.00  0.00     0.000 HD 
HETATM    8  C   UNL     1     -12.826  14.542  70.531  1.00  0.00    -0.304 C  
ENDBRANCH   3   4
BRANCH   3   9
HETATM    9  C   UNL     1     -12.318  13.948  66.836  1.00  0.00    -0.292 C  
HETATM   10  H   UNL     1     -11.864  14.207  64.958  1.00  0.00     0.000 HD 
HETATM   11  O   UNL     1     -11.749  14.715  65.753  1.00  0.00    -0.352 OA 
BRANCH   9  12
HETATM   12  C   UNL     1     -11.658  12.541  66.890  1.00  0.00    -0.370 C  
HETATM   13  H   UNL     1     -11.868  10.852  67.919  1.00  0.00     0.000 HD 
HETATM   14  O   UNL     1     -12.271  11.712  67.886  1.00  0.00    -0.560 OA 
BRANCH  12  15
HETATM   15  C   UNL     1     -10.136  12.616  67.134  1.00  0.00    -0.223 C  
HETATM   16  H   UNL     1      -8.520  12.523  66.028  1.00  0.00     0.000 HD 
HETATM   17  O   UNL     1      -9.456  12.476  65.878  1.00  0.00    -0.209 OA 
BRANCH  15  18
HETATM   18  C   UNL     1      -9.643  11.535  68.118  1.00  0.00    -0.187 C  
HETATM   19  O   UNL     1      -9.805  10.216  67.595  1.00  0.00    -0.164 OA 
HETATM   20  H   UNL     1      -9.501   9.551  68.201  1.00  0.00     0.000 HD 
ENDBRANCH  15  18
ENDBRANCH  12  15
ENDBRANCH   9  12
ENDBRANCH   3   9
TORSDOF 5
ENDMDL
MODEL      203
REMARK 921   NORMALIZED FREE ENERGY PREDICTED BY IDOCK:   -3.12 KCAL/MOL
REMARK 922        TOTAL FREE ENERGY PREDICTED BY IDOCK:   -4.72 KCAL/MOL
REMARK 923 INTER-LIGAND FREE ENERGY PREDICTED BY IDOCK:   -4.13 KCAL/MOL
REMARK 924 INTRA-LIGAND FREE ENERGY PREDICTED BY IDOCK:   -0.58 KCAL/MOL
REMARK 927      BINDING AFFINITY PREDICTED BY RF-SCORE:    0.00 PKD
ROOT
HETATM    1  C   UNL     1     -12.817   7.726  71.752  1.00  0.00    -0.327 C  
HETATM    2  O   UNL     1     -13.967   7.772  71.311  1.00  0.00    -0.319 OA 
HETATM    3  CA  UNL     1     -11.794   6.726  71.239  1.00  0.00    -0.348 C  
ENDROOT
BRANCH   3   4
HETATM    4  N   UNL     1     -10.790   6.433  72.276  1.00  0.00    -0.229 N  
HETATM    5  C   UNL     1      -9.805   5.362  74.212  1.00  0.00    -0.209 C  
HETATM    6  O   UNL     1     -11.890   4.684  73.244  1.00  0.00    -0.249 OA 
HETATM    7  H   UNL     1      -9.936   6.992  72.290  1.00  0.00     0.000 HD 
HETATM    8  C   UNL     1     -10.938   5.452  73.224  1.00  0.00    -0.307 C  
ENDBRANCH   3   4
BRANCH   3   9
HETATM    9  C   UNL     1     -11.184   7.162  69.887  1.00  0.00    -0.208 C  
HETATM   10  H   UNL     1     -10.466   8.828  69.172  1.00  0.00     0.000 HD 
HETATM   11  O   UNL     1     -10.840   8.560  70.004  1.00  0.00    -0.237 OA 
BRANCH   9  12
HETATM   12  C   UNL     1      -9.929   6.344  69.472  1.00  0.00    -0.162 C  
HETATM   13  H   UNL     1      -8.000   6.259  69.947  1.00  0.00     0.000 HD 
HETATM   14  O   UNL     1      -8.767   6.759  70.201  1.00  0.00    -0.139 OA 
BRANCH  12  15
HETATM   15  C   UNL     1      -9.652   6.423  67.956  1.00  0.00    -0.118 C  
HETATM   16  H   UNL     1      -8.631   7.598  66.763  1.00  0.00     0.000 HD 
HETATM   17  O   UNL     1      -8.802   7.550  67.696  1.00  0.00    -0.128 OA 
BRANCH  15  18
HETATM   18  C   UNL     1     -10.946   6.542  67.125  1.00  0.00    -0.408 C  
HETATM   19  O   UNL     1     -11.083   5.477  66.184  1.00  0.00    -0.747 OA 
HETATM   20  H   UNL     1     -11.880   5.551  65.672  1.00  0.00     0.000 HD 
ENDBRANCH  15  18
ENDBRANCH  12  15
ENDBRANCH   9  12
ENDBRANCH   3   9
TORSDOF 5
ENDMDL
MODEL      204
REMARK 921   NORMALIZED FREE ENERGY PREDICTED BY IDOCK:   -3.11 KCAL/MOL
REMARK 922        TOTAL FREE ENERGY PREDICTED BY IDOCK:   -4.71 KCAL/MOL
REMARK 923 INTER-LIGAND FREE ENERGY PREDICTED BY IDOCK:   -4.47 KCAL/MOL
REMARK 924 INTRA-LIGAND FREE ENERGY PREDICTED BY IDOCK:   -0.24 KCAL/MOL
REMARK 927      BINDING AFFINITY PREDICTED BY RF-SCORE:    0.00 PKD
ROOT
HETATM    1  C   UNL     1      -9.015  14.332  67.179  1.00  0.00    -0.225 C  
HETATM    2  O   UNL     1      -9.242  13.378  66.434  1.00  0.00    -0.217 OA 
HETATM    3  CA  UNL     1      -9.877  15.584  67.178  1.00  0.00    -0.235 C  
ENDROOT
BRANCH   3   4
HETATM    4  N   UNL     1      -9.098  16.751  67.625  1.00  0.00    -0.217 N  
HETATM    5  C   UNL     1      -8.615  19.069  68.135  1.00  0.00    -0.355 C  
HETATM    6  O   UNL     1     -10.778  18.287  67.459  1.00  0.00    -0.419 OA 
HETATM    7  H   UNL     1      -8.126  16.605  67.897  1.00  0.00     0.000 HD 
HETATM    8  C   UNL     1      -9.606  18.024  67.695  1.00  0.00    -0.271 C  
ENDBRANCH   3   4
BRANCH   3   9
HETATM    9  C   UNL     1     -11.196  15.380  67.958  1.00  0.00    -0.325 C  
HETATM   10  H   UNL     1     -12.813  14.326  67.680  1.00  0.00     0.000 HD 
HETATM   11  O   UNL     1     -12.002  14.451  67.201  1.00  0.00    -0.405 OA 
BRANCH   9  12
HETATM   12  C   UNL     1     -10.994  14.845  69.404  1.00  0.00    -0.271 C  
HETATM   13  H   UNL     1     -11.393  13.191  70.433  1.00  0.00     0.000 HD 
HETATM   14  O   UNL     1     -11.517  13.518  69.549  1.00  0.00    -0.274 OA 
BRANCH  12  15
HETATM   15  C   UNL     1     -11.618  15.774  70.466  1.00  0.00    -0.375 C  
HETATM   16  H   UNL     1     -11.489  15.986  72.411  1.00  0.00     0.000 HD 
HETATM   17  O   UNL     1     -11.106  15.414  71.757  1.00  0.00    -0.366 OA 
BRANCH  15  18
HETATM   18  C   UNL     1     -13.158  15.707  70.476  1.00  0.00    -0.108 C  
HETATM   19  O   UNL     1     -13.640  14.469  71.000  1.00  0.00    -0.408 OA 
HETATM   20  H   UNL     1     -14.589  14.427  71.007  1.00  0.00     0.000 HD 
ENDBRANCH  15  18
ENDBRANCH  12  15
ENDBRANCH   9  12
ENDBRANCH   3   9
TORSDOF 5
ENDMDL
MODEL      205
REMARK 921   NORMALIZED FREE ENERGY PREDICTED BY IDOCK:   -3.11 KCAL/MOL
REMARK 922        TOTAL FREE ENERGY PREDICTED BY IDOCK:   -4.71 KCAL/MOL
REMARK 923 INTER-LIGAND FREE ENERGY PREDICTED BY IDOCK:   -3.98 KCAL/MOL
REMARK 924 INTRA-LIGAND FREE ENERGY PREDICTED BY IDOCK:   -0.73 KCAL/MOL
REMARK 927      BINDING AFFINITY PREDICTED BY RF-SCORE:    0.00 PKD
ROOT
HETATM    1  C   UNL     1     -10.590   8.366  68.619  1.00  0.00    -0.113 C  
HETATM    2  O   UNL     1     -10.687   7.398  67.863  1.00  0.00    -0.206 OA 
HETATM    3  CA  UNL     1     -11.284   8.409  69.971  1.00  0.00    -0.085 C  
ENDROOT
BRANCH   3   4
HETATM    4  N   UNL     1     -11.551   9.800  70.373  1.00  0.00    -0.302 N  
HETATM    5  C   UNL     1     -12.801  11.695  71.217  1.00  0.00    -0.430 C  
HETATM    6  O   UNL     1     -13.648   9.452  71.205  1.00  0.00    -0.316 OA 
HETATM    7  H   UNL     1     -10.815  10.492  70.230  1.00  0.00     0.000 HD 
HETATM    8  C   UNL     1     -12.735  10.219  70.928  1.00  0.00    -0.370 C  
ENDBRANCH   3   4
BRANCH   3   9
HETATM    9  C   UNL     1     -10.524   7.587  71.038  1.00  0.00    -0.215 C  
HETATM   10  H   UNL     1     -10.070   7.852  72.916  1.00  0.00     0.000 HD 
HETATM   11  O   UNL     1     -10.537   8.357  72.260  1.00  0.00    -0.297 OA 
BRANCH   9  12
HETATM   12  C   UNL     1     -11.132   6.179  71.296  1.00  0.00    -0.291 C  
HETATM   13  H   UNL     1     -12.769   5.408  72.119  1.00  0.00     0.000 HD 
HETATM   14  O   UNL     1     -12.398   6.269  71.962  1.00  0.00    -0.328 OA 
BRANCH  12  15
HETATM   15  C   UNL     1     -10.180   5.267  72.099  1.00  0.00    -0.199 C  
HETATM   16  H   UNL     1      -9.448   3.459  71.897  1.00  0.00     0.000 HD 
HETATM   17  O   UNL     1     -10.034   4.021  71.403  1.00  0.00    -0.185 OA 
BRANCH  15  18
HETATM   18  C   UNL     1     -10.682   5.010  73.534  1.00  0.00    -0.282 C  
HETATM   19  O   UNL     1     -10.560   6.166  74.363  1.00  0.00    -0.358 OA 
HETATM   20  H   UNL     1     -10.870   6.008  75.247  1.00  0.00     0.000 HD 
ENDBRANCH  15  18
ENDBRANCH  12  15
ENDBRANCH   9  12
ENDBRANCH   3   9
TORSDOF 5
ENDMDL
MODEL      206
REMARK 921   NORMALIZED FREE ENERGY PREDICTED BY IDOCK:   -3.10 KCAL/MOL
REMARK 922        TOTAL FREE ENERGY PREDICTED BY IDOCK:   -4.70 KCAL/MOL
REMARK 923 INTER-LIGAND FREE ENERGY PREDICTED BY IDOCK:   -4.81 KCAL/MOL
REMARK 924 INTRA-LIGAND FREE ENERGY PREDICTED BY IDOCK:    0.12 KCAL/MOL
REMARK 927      BINDING AFFINITY PREDICTED BY RF-SCORE:    0.00 PKD
ROOT
HETATM    1  C   UNL     1      -9.940  12.453  67.712  1.00  0.00    -0.205 C  
HETATM    2  O   UNL     1      -9.741  11.474  68.435  1.00  0.00    -0.191 OA 
HETATM    3  CA  UNL     1     -11.337  12.875  67.290  1.00  0.00    -0.310 C  
ENDROOT
BRANCH   3   4
HETATM    4  N   UNL     1     -11.295  13.597  66.007  1.00  0.00    -0.308 N  
HETATM    5  C   UNL     1     -11.922  14.203  63.747  1.00  0.00    -0.156 C  
HETATM    6  O   UNL     1     -13.139  12.624  65.078  1.00  0.00    -0.808 OA 
HETATM    7  H   UNL     1     -10.563  14.295  65.871  1.00  0.00     0.000 HD 
HETATM    8  C   UNL     1     -12.185  13.385  64.983  1.00  0.00    -0.424 C  
ENDBRANCH   3   4
BRANCH   3   9
HETATM    9  C   UNL     1     -12.075  13.642  68.412  1.00  0.00    -0.277 C  
HETATM   10  H   UNL     1     -12.370  13.350  70.317  1.00  0.00     0.000 HD 
HETATM   11  O   UNL     1     -11.916  12.879  69.628  1.00  0.00    -0.313 OA 
BRANCH   9  12
HETATM   12  C   UNL     1     -11.556  15.092  68.627  1.00  0.00    -0.325 C  
HETATM   13  H   UNL     1     -10.654  16.508  67.562  1.00  0.00     0.000 HD 
HETATM   14  O   UNL     1     -10.971  15.621  67.431  1.00  0.00    -0.314 OA 
BRANCH  12  15
HETATM   15  C   UNL     1     -10.548  15.187  69.791  1.00  0.00    -0.252 C  
HETATM   16  H   UNL     1     -10.486  16.073  71.540  1.00  0.00     0.000 HD 
HETATM   17  O   UNL     1     -11.106  16.014  70.823  1.00  0.00    -0.343 OA 
BRANCH  15  18
HETATM   18  C   UNL     1      -9.186  15.756  69.346  1.00  0.00    -0.263 C  
HETATM   19  O   UNL     1      -8.145  14.780  69.416  1.00  0.00    -0.323 OA 
HETATM   20  H   UNL     1      -7.306  15.130  69.141  1.00  0.00     0.000 HD 
ENDBRANCH  15  18
ENDBRANCH  12  15
ENDBRANCH   9  12
ENDBRANCH   3   9
TORSDOF 5
ENDMDL
MODEL      207
REMARK 921   NORMALIZED FREE ENERGY PREDICTED BY IDOCK:   -3.09 KCAL/MOL
REMARK 922        TOTAL FREE ENERGY PREDICTED BY IDOCK:   -4.69 KCAL/MOL
REMARK 923 INTER-LIGAND FREE ENERGY PREDICTED BY IDOCK:   -4.10 KCAL/MOL
REMARK 924 INTRA-LIGAND FREE ENERGY PREDICTED BY IDOCK:   -0.59 KCAL/MOL
REMARK 927      BINDING AFFINITY PREDICTED BY RF-SCORE:    0.00 PKD
ROOT
HETATM    1  C   UNL     1     -11.219   6.184  69.926  1.00  0.00    -0.414 C  
HETATM    2  O   UNL     1     -11.225   6.444  68.721  1.00  0.00    -0.333 OA 
HETATM    3  CA  UNL     1     -10.729   7.179  70.966  1.00  0.00    -0.232 C  
ENDROOT
BRANCH   3   4
HETATM    4  N   UNL     1     -10.231   6.477  72.161  1.00  0.00    -0.184 N  
HETATM    5  C   UNL     1      -8.652   5.346  73.608  1.00  0.00    -0.110 C  
HETATM    6  O   UNL     1      -8.041   6.364  71.525  1.00  0.00    -0.111 OA 
HETATM    7  H   UNL     1     -10.894   6.265  72.906  1.00  0.00     0.000 HD 
HETATM    8  C   UNL     1      -8.924   6.091  72.328  1.00  0.00    -0.141 C  
ENDBRANCH   3   4
BRANCH   3   9
HETATM    9  C   UNL     1     -11.788   8.262  71.276  1.00  0.00    -0.288 C  
HETATM   10  H   UNL     1     -12.805   8.782  72.856  1.00  0.00     0.000 HD 
HETATM   11  O   UNL     1     -12.154   8.117  72.666  1.00  0.00    -0.359 OA 
BRANCH   9  12
HETATM   12  C   UNL     1     -11.297   9.713  71.009  1.00  0.00    -0.374 C  
HETATM   13  H   UNL     1     -11.936  11.568  71.335  1.00  0.00     0.000 HD 
HETATM   14  O   UNL     1     -12.235  10.681  71.498  1.00  0.00    -0.335 OA 
BRANCH  12  15
HETATM   15  C   UNL     1     -11.009   9.970  69.516  1.00  0.00    -0.253 C  
HETATM   16  H   UNL     1      -9.417  10.287  68.416  1.00  0.00     0.000 HD 
HETATM   17  O   UNL     1      -9.594  10.129  69.335  1.00  0.00    -0.210 OA 
BRANCH  15  18
HETATM   18  C   UNL     1     -11.748  11.212  68.978  1.00  0.00    -0.339 C  
HETATM   19  O   UNL     1     -11.209  12.427  69.499  1.00  0.00    -0.420 OA 
HETATM   20  H   UNL     1     -11.664  13.193  69.168  1.00  0.00     0.000 HD 
ENDBRANCH  15  18
ENDBRANCH  12  15
ENDBRANCH   9  12
ENDBRANCH   3   9
TORSDOF 5
ENDMDL
MODEL      208
REMARK 921   NORMALIZED FREE ENERGY PREDICTED BY IDOCK:   -3.08 KCAL/MOL
REMARK 922        TOTAL FREE ENERGY PREDICTED BY IDOCK:   -4.67 KCAL/MOL
REMARK 923 INTER-LIGAND FREE ENERGY PREDICTED BY IDOCK:   -4.12 KCAL/MOL
REMARK 924 INTRA-LIGAND FREE ENERGY PREDICTED BY IDOCK:   -0.55 KCAL/MOL
REMARK 927      BINDING AFFINITY PREDICTED BY RF-SCORE:    0.00 PKD
ROOT
HETATM    1  C   UNL     1      -8.341   8.538  70.288  1.00  0.00    -0.125 C  
HETATM    2  O   UNL     1      -8.047   8.582  71.485  1.00  0.00    -0.127 OA 
HETATM    3  CA  UNL     1      -9.760   8.768  69.795  1.00  0.00    -0.177 C  
ENDROOT
BRANCH   3   4
HETATM    4  N   UNL     1      -9.985   8.070  68.518  1.00  0.00    -0.186 N  
HETATM    5  C   UNL     1     -10.722   6.324  67.010  1.00  0.00    -0.435 C  
HETATM    6  O   UNL     1     -11.183   6.321  69.363  1.00  0.00    -0.382 OA 
HETATM    7  H   UNL     1      -9.624   8.499  67.665  1.00  0.00     0.000 HD 
HETATM    8  C   UNL     1     -10.652   6.875  68.409  1.00  0.00    -0.210 C  
ENDBRANCH   3   4
BRANCH   3   9
HETATM    9  C   UNL     1     -10.122  10.271  69.755  1.00  0.00    -0.203 C  
HETATM   10  H   UNL     1      -9.666  11.769  68.593  1.00  0.00     0.000 HD 
HETATM   11  O   UNL     1      -9.444  10.846  68.617  1.00  0.00    -0.177 OA 
BRANCH   9  12
HETATM   12  C   UNL     1     -11.649  10.546  69.652  1.00  0.00    -0.271 C  
HETATM   13  H   UNL     1     -12.917  11.351  68.350  1.00  0.00     0.000 HD 
HETATM   14  O   UNL     1     -11.984  11.184  68.413  1.00  0.00    -0.561 OA 
BRANCH  12  15
HETATM   15  C   UNL     1     -12.175  11.387  70.834  1.00  0.00    -0.344 C  
HETATM   16  H   UNL     1     -13.579  11.199  72.190  1.00  0.00     0.000 HD 
HETATM   17  O   UNL     1     -13.255  10.681  71.462  1.00  0.00    -0.389 OA 
BRANCH  15  18
HETATM   18  C   UNL     1     -12.650  12.787  70.395  1.00  0.00    -0.053 C  
HETATM   19  O   UNL     1     -11.563  13.699  70.235  1.00  0.00    -0.483 OA 
HETATM   20  H   UNL     1     -11.855  14.561  69.965  1.00  0.00     0.000 HD 
ENDBRANCH  15  18
ENDBRANCH  12  15
ENDBRANCH   9  12
ENDBRANCH   3   9
TORSDOF 5
ENDMDL
MODEL      209
REMARK 921   NORMALIZED FREE ENERGY PREDICTED BY IDOCK:   -3.08 KCAL/MOL
REMARK 922        TOTAL FREE ENERGY PREDICTED BY IDOCK:   -4.67 KCAL/MOL
REMARK 923 INTER-LIGAND FREE ENERGY PREDICTED BY IDOCK:   -4.68 KCAL/MOL
REMARK 924 INTRA-LIGAND FREE ENERGY PREDICTED BY IDOCK:    0.02 KCAL/MOL
REMARK 927      BINDING AFFINITY PREDICTED BY RF-SCORE:    0.00 PKD
ROOT
HETATM    1  C   UNL     1      -9.577  14.355  67.393  1.00  0.00    -0.216 C  
HETATM    2  O   UNL     1      -8.401  14.613  67.127  1.00  0.00    -0.200 OA 
HETATM    3  CA  UNL     1     -10.682  15.389  67.259  1.00  0.00    -0.307 C  
ENDROOT
BRANCH   3   4
HETATM    4  N   UNL     1     -11.790  15.088  68.181  1.00  0.00    -0.498 N  
HETATM    5  C   UNL     1     -13.048  15.065  70.251  1.00  0.00    -0.124 C  
HETATM    6  O   UNL     1     -11.006  16.286  69.958  1.00  0.00    -0.343 OA 
HETATM    7  H   UNL     1     -12.560  14.514  67.837  1.00  0.00     0.000 HD 
HETATM    8  C   UNL     1     -11.844  15.535  69.478  1.00  0.00    -0.372 C  
ENDBRANCH   3   4
BRANCH   3   9
HETATM    9  C   UNL     1     -11.128  15.572  65.789  1.00  0.00    -0.217 C  
HETATM   10  H   UNL     1     -10.219  15.980  64.113  1.00  0.00     0.000 HD 
HETATM   11  O   UNL     1      -9.945  15.867  65.016  1.00  0.00    -0.395 OA 
BRANCH   9  12
HETATM   12  C   UNL     1     -11.852  14.332  65.194  1.00  0.00    -0.384 C  
HETATM   13  H   UNL     1     -13.496  13.271  65.552  1.00  0.00     0.000 HD 
HETATM   14  O   UNL     1     -13.053  14.029  65.916  1.00  0.00    -0.411 OA 
BRANCH  12  15
HETATM   15  C   UNL     1     -10.941  13.087  65.147  1.00  0.00    -0.295 C  
HETATM   16  H   UNL     1      -9.775  12.237  63.819  1.00  0.00     0.000 HD 
HETATM   17  O   UNL     1     -10.336  13.003  63.848  1.00  0.00    -0.382 OA 
BRANCH  15  18
HETATM   18  C   UNL     1     -11.707  11.784  65.453  1.00  0.00    -0.049 C  
HETATM   19  O   UNL     1     -11.642  11.432  66.835  1.00  0.00    -0.492 OA 
HETATM   20  H   UNL     1     -12.114  10.630  67.023  1.00  0.00     0.000 HD 
ENDBRANCH  15  18
ENDBRANCH  12  15
ENDBRANCH   9  12
ENDBRANCH   3   9
TORSDOF 5
ENDMDL
MODEL      210
REMARK 921   NORMALIZED FREE ENERGY PREDICTED BY IDOCK:   -3.05 KCAL/MOL
REMARK 922        TOTAL FREE ENERGY PREDICTED BY IDOCK:   -4.64 KCAL/MOL
REMARK 923 INTER-LIGAND FREE ENERGY PREDICTED BY IDOCK:   -4.83 KCAL/MOL
REMARK 924 INTRA-LIGAND FREE ENERGY PREDICTED BY IDOCK:    0.19 KCAL/MOL
REMARK 927      BINDING AFFINITY PREDICTED BY RF-SCORE:    0.00 PKD
ROOT
HETATM    1  C   UNL     1      -9.213  12.356  67.075  1.00  0.00    -0.208 C  
HETATM    2  O   UNL     1      -8.308  12.247  67.904  1.00  0.00    -0.143 OA 
HETATM    3  CA  UNL     1      -9.875  11.146  66.436  1.00  0.00    -0.211 C  
ENDROOT
BRANCH   3   4
HETATM    4  N   UNL     1     -10.413  11.488  65.109  1.00  0.00    -0.275 N  
HETATM    5  C   UNL     1     -12.012  12.261  63.462  1.00  0.00    -0.625 C  
HETATM    6  O   UNL     1     -12.398  12.356  65.826  1.00  0.00    -0.644 OA 
HETATM    7  H   UNL     1      -9.828  11.307  64.292  1.00  0.00     0.000 HD 
HETATM    8  C   UNL     1     -11.655  12.037  64.908  1.00  0.00    -0.273 C  
ENDBRANCH   3   4
BRANCH   3   9
HETATM    9  C   UNL     1     -10.912  10.489  67.377  1.00  0.00    -0.288 C  
HETATM   10  H   UNL     1     -11.546   8.669  67.673  1.00  0.00     0.000 HD 
HETATM   11  O   UNL     1     -10.909   9.072  67.096  1.00  0.00    -0.210 OA 
BRANCH   9  12
HETATM   12  C   UNL     1     -10.629  10.727  68.887  1.00  0.00    -0.216 C  
HETATM   13  H   UNL     1      -9.744   9.771  70.389  1.00  0.00     0.000 HD 
HETATM   14  O   UNL     1      -9.917   9.625  69.466  1.00  0.00    -0.184 OA 
BRANCH  12  15
HETATM   15  C   UNL     1     -11.918  10.999  69.690  1.00  0.00    -0.353 C  
HETATM   16  H   UNL     1     -12.754  12.557  70.539  1.00  0.00     0.000 HD 
HETATM   17  O   UNL     1     -11.960  12.389  70.044  1.00  0.00    -0.328 OA 
BRANCH  15  18
HETATM   18  C   UNL     1     -12.014  10.132  70.962  1.00  0.00    -0.378 C  
HETATM   19  O   UNL     1     -12.516   8.824  70.686  1.00  0.00    -0.491 OA 
HETATM   20  H   UNL     1     -12.576   8.290  71.469  1.00  0.00     0.000 HD 
ENDBRANCH  15  18
ENDBRANCH  12  15
ENDBRANCH   9  12
ENDBRANCH   3   9
TORSDOF 5
ENDMDL
MODEL      211
REMARK 921   NORMALIZED FREE ENERGY PREDICTED BY IDOCK:   -3.04 KCAL/MOL
REMARK 922        TOTAL FREE ENERGY PREDICTED BY IDOCK:   -4.62 KCAL/MOL
REMARK 923 INTER-LIGAND FREE ENERGY PREDICTED BY IDOCK:   -4.15 KCAL/MOL
REMARK 924 INTRA-LIGAND FREE ENERGY PREDICTED BY IDOCK:   -0.47 KCAL/MOL
REMARK 927      BINDING AFFINITY PREDICTED BY RF-SCORE:    0.00 PKD
ROOT
HETATM    1  C   UNL     1     -11.132  15.193  68.808  1.00  0.00    -0.267 C  
HETATM    2  O   UNL     1     -11.582  16.082  69.534  1.00  0.00    -0.330 OA 
HETATM    3  CA  UNL     1     -11.172  15.288  67.292  1.00  0.00    -0.306 C  
ENDROOT
BRANCH   3   4
HETATM    4  N   UNL     1     -11.188  13.945  66.688  1.00  0.00    -0.313 N  
HETATM    5  C   UNL     1     -11.982  12.095  65.341  1.00  0.00    -0.296 C  
HETATM    6  O   UNL     1     -13.017  14.257  65.359  1.00  0.00    -0.654 OA 
HETATM    7  H   UNL     1     -10.451  13.290  66.952  1.00  0.00     0.000 HD 
HETATM    8  C   UNL     1     -12.138  13.523  65.791  1.00  0.00    -0.433 C  
ENDBRANCH   3   4
BRANCH   3   9
HETATM    9  C   UNL     1     -10.058  16.206  66.739  1.00  0.00    -0.271 C  
HETATM   10  H   UNL     1     -10.003  17.997  65.969  1.00  0.00     0.000 HD 
HETATM   11  O   UNL     1     -10.688  17.433  66.309  1.00  0.00    -0.227 OA 
BRANCH   9  12
HETATM   12  C   UNL     1      -8.937  16.522  67.769  1.00  0.00    -0.202 C  
HETATM   13  H   UNL     1      -7.889  18.102  68.369  1.00  0.00     0.000 HD 
HETATM   14  O   UNL     1      -8.575  17.909  67.740  1.00  0.00    -0.236 OA 
BRANCH  12  15
HETATM   15  C   UNL     1      -7.683  15.648  67.557  1.00  0.00    -0.168 C  
HETATM   16  H   UNL     1      -7.210  13.764  67.823  1.00  0.00     0.000 HD 
HETATM   17  O   UNL     1      -7.982  14.302  67.953  1.00  0.00    -0.127 OA 
BRANCH  15  18
HETATM   18  C   UNL     1      -6.463  16.167  68.346  1.00  0.00    -0.119 C  
HETATM   19  O   UNL     1      -6.839  16.772  69.584  1.00  0.00    -0.202 OA 
HETATM   20  H   UNL     1      -6.089  17.091  70.070  1.00  0.00     0.000 HD 
ENDBRANCH  15  18
ENDBRANCH  12  15
ENDBRANCH   9  12
ENDBRANCH   3   9
TORSDOF 5
ENDMDL
MODEL      212
REMARK 921   NORMALIZED FREE ENERGY PREDICTED BY IDOCK:   -3.04 KCAL/MOL
REMARK 922        TOTAL FREE ENERGY PREDICTED BY IDOCK:   -4.62 KCAL/MOL
REMARK 923 INTER-LIGAND FREE ENERGY PREDICTED BY IDOCK:   -3.93 KCAL/MOL
REMARK 924 INTRA-LIGAND FREE ENERGY PREDICTED BY IDOCK:   -0.70 KCAL/MOL
REMARK 927      BINDING AFFINITY PREDICTED BY RF-SCORE:    0.00 PKD
ROOT
HETATM    1  C   UNL     1     -11.209   6.376  69.256  1.00  0.00    -0.375 C  
HETATM    2  O   UNL     1     -10.610   5.305  69.135  1.00  0.00    -0.204 OA 
HETATM    3  CA  UNL     1     -10.854   7.382  70.339  1.00  0.00    -0.243 C  
ENDROOT
BRANCH   3   4
HETATM    4  N   UNL     1     -12.024   8.207  70.684  1.00  0.00    -0.486 N  
HETATM    5  C   UNL     1     -13.688   9.273  72.085  1.00  0.00    -0.517 C  
HETATM    6  O   UNL     1     -11.826   8.036  72.952  1.00  0.00    -0.337 OA 
HETATM    7  H   UNL     1     -12.557   8.629  69.923  1.00  0.00     0.000 HD 
HETATM    8  C   UNL     1     -12.440   8.439  71.972  1.00  0.00    -0.359 C  
ENDBRANCH   3   4
BRANCH   3   9
HETATM    9  C   UNL     1      -9.598   8.206  69.975  1.00  0.00    -0.171 C  
HETATM   10  H   UNL     1      -9.146  10.103  69.972  1.00  0.00     0.000 HD 
HETATM   11  O   UNL     1      -9.918   9.597  70.196  1.00  0.00    -0.230 OA 
BRANCH   9  12
HETATM   12  C   UNL     1      -8.334   7.820  70.794  1.00  0.00    -0.116 C  
HETATM   13  H   UNL     1      -7.068   6.292  70.917  1.00  0.00     0.000 HD 
HETATM   14  O   UNL     1      -7.840   6.528  70.416  1.00  0.00    -0.105 OA 
BRANCH  12  15
HETATM   15  C   UNL     1      -8.587   7.859  72.316  1.00  0.00    -0.145 C  
HETATM   16  H   UNL     1      -7.777   8.755  73.861  1.00  0.00     0.000 HD 
HETATM   17  O   UNL     1      -7.622   8.730  72.925  1.00  0.00    -0.365 OA 
BRANCH  15  18
HETATM   18  C   UNL     1      -8.512   6.461  72.963  1.00  0.00    -0.120 C  
HETATM   19  O   UNL     1      -9.778   6.031  73.463  1.00  0.00    -0.153 OA 
HETATM   20  H   UNL     1      -9.732   5.170  73.861  1.00  0.00     0.000 HD 
ENDBRANCH  15  18
ENDBRANCH  12  15
ENDBRANCH   9  12
ENDBRANCH   3   9
TORSDOF 5
ENDMDL
MODEL      213
REMARK 921   NORMALIZED FREE ENERGY PREDICTED BY IDOCK:   -3.04 KCAL/MOL
REMARK 922        TOTAL FREE ENERGY PREDICTED BY IDOCK:   -4.62 KCAL/MOL
REMARK 923 INTER-LIGAND FREE ENERGY PREDICTED BY IDOCK:   -4.72 KCAL/MOL
REMARK 924 INTRA-LIGAND FREE ENERGY PREDICTED BY IDOCK:    0.09 KCAL/MOL
REMARK 927      BINDING AFFINITY PREDICTED BY RF-SCORE:    0.00 PKD
ROOT
HETATM    1  C   UNL     1     -11.267  11.052  67.973  1.00  0.00    -0.309 C  
HETATM    2  O   UNL     1     -12.345  11.240  68.539  1.00  0.00    -0.543 OA 
HETATM    3  CA  UNL     1     -11.099  11.231  66.473  1.00  0.00    -0.216 C  
ENDROOT
BRANCH   3   4
HETATM    4  N   UNL     1     -10.004  10.385  65.969  1.00  0.00    -0.229 N  
HETATM    5  C   UNL     1      -7.730   9.654  65.568  1.00  0.00    -0.112 C  
HETATM    6  O   UNL     1      -8.292  11.524  66.958  1.00  0.00    -0.152 OA 
HETATM    7  H   UNL     1     -10.246   9.575  65.396  1.00  0.00     0.000 HD 
HETATM    8  C   UNL     1      -8.677  10.623  66.224  1.00  0.00    -0.156 C  
ENDBRANCH   3   4
BRANCH   3   9
HETATM    9  C   UNL     1     -10.967  12.720  66.078  1.00  0.00    -0.278 C  
HETATM   10  H   UNL     1     -10.774  13.689  64.397  1.00  0.00     0.000 HD 
HETATM   11  O   UNL     1     -10.856  12.774  64.639  1.00  0.00    -0.302 OA 
BRANCH   9  12
HETATM   12  C   UNL     1     -12.158  13.602  66.548  1.00  0.00    -0.423 C  
HETATM   13  H   UNL     1     -13.707  14.545  65.732  1.00  0.00     0.000 HD 
HETATM   14  O   UNL     1     -12.978  14.006  65.445  1.00  0.00    -0.726 OA 
BRANCH  12  15
HETATM   15  C   UNL     1     -11.693  14.843  67.338  1.00  0.00    -0.293 C  
HETATM   16  H   UNL     1     -10.065  15.932  67.433  1.00  0.00     0.000 HD 
HETATM   17  O   UNL     1     -10.351  15.168  66.947  1.00  0.00    -0.263 OA 
BRANCH  15  18
HETATM   18  C   UNL     1     -11.756  14.629  68.864  1.00  0.00    -0.309 C  
HETATM   19  O   UNL     1     -10.494  14.238  69.406  1.00  0.00    -0.404 OA 
HETATM   20  H   UNL     1     -10.533  14.107  70.346  1.00  0.00     0.000 HD 
ENDBRANCH  15  18
ENDBRANCH  12  15
ENDBRANCH   9  12
ENDBRANCH   3   9
TORSDOF 5
ENDMDL
MODEL      214
REMARK 921   NORMALIZED FREE ENERGY PREDICTED BY IDOCK:   -3.02 KCAL/MOL
REMARK 922        TOTAL FREE ENERGY PREDICTED BY IDOCK:   -4.60 KCAL/MOL
REMARK 923 INTER-LIGAND FREE ENERGY PREDICTED BY IDOCK:   -4.77 KCAL/MOL
REMARK 924 INTRA-LIGAND FREE ENERGY PREDICTED BY IDOCK:    0.18 KCAL/MOL
REMARK 927      BINDING AFFINITY PREDICTED BY RF-SCORE:    0.00 PKD
ROOT
HETATM    1  C   UNL     1     -10.815  11.833  67.277  1.00  0.00    -0.253 C  
HETATM    2  O   UNL     1     -11.922  11.293  67.307  1.00  0.00    -0.529 OA 
HETATM    3  CA  UNL     1     -10.048  12.036  65.980  1.00  0.00    -0.230 C  
ENDROOT
BRANCH   3   4
HETATM    4  N   UNL     1      -8.599  12.087  66.237  1.00  0.00    -0.390 N  
HETATM    5  C   UNL     1      -6.532  12.691  67.345  1.00  0.00    -0.150 C  
HETATM    6  O   UNL     1      -8.702  13.258  68.192  1.00  0.00    -0.169 OA 
HETATM    7  H   UNL     1      -7.978  11.617  65.578  1.00  0.00     0.000 HD 
HETATM    8  C   UNL     1      -8.037  12.730  67.311  1.00  0.00    -0.172 C  
ENDBRANCH   3   4
BRANCH   3   9
HETATM    9  C   UNL     1     -10.581  13.245  65.176  1.00  0.00    -0.330 C  
HETATM   10  H   UNL     1     -11.427  13.476  63.434  1.00  0.00     0.000 HD 
HETATM   11  O   UNL     1     -11.100  12.734  63.929  1.00  0.00    -0.383 OA 
BRANCH   9  12
HETATM   12  C   UNL     1     -11.686  14.052  65.914  1.00  0.00    -0.366 C  
HETATM   13  H   UNL     1     -13.655  14.303  65.799  1.00  0.00     0.000 HD 
HETATM   14  O   UNL     1     -12.980  13.809  65.348  1.00  0.00    -0.706 OA 
BRANCH  12  15
HETATM   15  C   UNL     1     -11.395  15.568  65.927  1.00  0.00    -0.028 C  
HETATM   16  H   UNL     1     -10.488  16.844  64.747  1.00  0.00     0.000 HD 
HETATM   17  O   UNL     1     -10.667  15.912  64.739  1.00  0.00    -0.559 OA 
BRANCH  15  18
HETATM   18  C   UNL     1     -10.599  16.005  67.174  1.00  0.00    -0.305 C  
HETATM   19  O   UNL     1      -9.198  15.773  67.027  1.00  0.00    -0.203 OA 
HETATM   20  H   UNL     1      -8.707  16.042  67.794  1.00  0.00     0.000 HD 
ENDBRANCH  15  18
ENDBRANCH  12  15
ENDBRANCH   9  12
ENDBRANCH   3   9
TORSDOF 5
ENDMDL
MODEL      215
REMARK 921   NORMALIZED FREE ENERGY PREDICTED BY IDOCK:   -3.02 KCAL/MOL
REMARK 922        TOTAL FREE ENERGY PREDICTED BY IDOCK:   -4.60 KCAL/MOL
REMARK 923 INTER-LIGAND FREE ENERGY PREDICTED BY IDOCK:   -4.16 KCAL/MOL
REMARK 924 INTRA-LIGAND FREE ENERGY PREDICTED BY IDOCK:   -0.43 KCAL/MOL
REMARK 927      BINDING AFFINITY PREDICTED BY RF-SCORE:    0.00 PKD
ROOT
HETATM    1  C   UNL     1      -9.767  11.352  63.415  1.00  0.00    -0.365 C  
HETATM    2  O   UNL     1      -9.528  10.484  62.573  1.00  0.00    -0.280 OA 
HETATM    3  CA  UNL     1     -10.549  11.053  64.684  1.00  0.00    -0.299 C  
ENDROOT
BRANCH   3   4
HETATM    4  N   UNL     1     -11.229  12.265  65.171  1.00  0.00    -0.315 N  
HETATM    5  C   UNL     1     -12.962  13.946  65.364  1.00  0.00    -0.368 C  
HETATM    6  O   UNL     1     -13.179  11.971  64.023  1.00  0.00    -0.681 OA 
HETATM    7  H   UNL     1     -10.739  12.853  65.846  1.00  0.00     0.000 HD 
HETATM    8  C   UNL     1     -12.485  12.647  64.770  1.00  0.00    -0.484 C  
ENDBRANCH   3   4
BRANCH   3   9
HETATM    9  C   UNL     1      -9.674  10.358  65.753  1.00  0.00    -0.228 C  
HETATM   10  H   UNL     1      -9.351   8.508  66.279  1.00  0.00     0.000 HD 
HETATM   11  O   UNL     1      -9.888   8.936  65.622  1.00  0.00    -0.173 OA 
BRANCH   9  12
HETATM   12  C   UNL     1      -8.157  10.676  65.626  1.00  0.00    -0.146 C  
HETATM   13  H   UNL     1      -6.471   9.692  65.248  1.00  0.00     0.000 HD 
HETATM   14  O   UNL     1      -7.398   9.498  65.326  1.00  0.00    -0.097 OA 
BRANCH  12  15
HETATM   15  C   UNL     1      -7.592  11.355  66.891  1.00  0.00    -0.151 C  
HETATM   16  H   UNL     1      -5.919  11.278  67.911  1.00  0.00     0.000 HD 
HETATM   17  O   UNL     1      -6.267  10.860  67.133  1.00  0.00    -0.059 OA 
BRANCH  15  18
HETATM   18  C   UNL     1      -8.475  11.115  68.133  1.00  0.00    -0.138 C  
HETATM   19  O   UNL     1      -8.929  12.337  68.716  1.00  0.00    -0.376 OA 
HETATM   20  H   UNL     1      -9.473  12.189  69.480  1.00  0.00     0.000 HD 
ENDBRANCH  15  18
ENDBRANCH  12  15
ENDBRANCH   9  12
ENDBRANCH   3   9
TORSDOF 5
ENDMDL
MODEL      216
REMARK 921   NORMALIZED FREE ENERGY PREDICTED BY IDOCK:   -3.01 KCAL/MOL
REMARK 922        TOTAL FREE ENERGY PREDICTED BY IDOCK:   -4.58 KCAL/MOL
REMARK 923 INTER-LIGAND FREE ENERGY PREDICTED BY IDOCK:   -3.55 KCAL/MOL
REMARK 924 INTRA-LIGAND FREE ENERGY PREDICTED BY IDOCK:   -1.04 KCAL/MOL
REMARK 927      BINDING AFFINITY PREDICTED BY RF-SCORE:    0.00 PKD
ROOT
HETATM    1  C   UNL     1      -9.362  10.195  69.574  1.00  0.00    -0.210 C  
HETATM    2  O   UNL     1      -8.593   9.244  69.418  1.00  0.00    -0.129 OA 
HETATM    3  CA  UNL     1      -9.805  11.074  68.416  1.00  0.00    -0.182 C  
ENDROOT
BRANCH   3   4
HETATM    4  N   UNL     1     -10.154  12.423  68.892  1.00  0.00    -0.428 N  
HETATM    5  C   UNL     1     -10.136  14.842  69.002  1.00  0.00    -0.237 C  
HETATM    6  O   UNL     1      -8.988  13.587  67.313  1.00  0.00    -0.202 OA 
HETATM    7  H   UNL     1     -10.781  12.503  69.694  1.00  0.00     0.000 HD 
HETATM    8  C   UNL     1      -9.684  13.578  68.320  1.00  0.00    -0.224 C  
ENDBRANCH   3   4
BRANCH   3   9
HETATM    9  C   UNL     1     -10.915  10.405  67.572  1.00  0.00    -0.295 C  
HETATM   10  H   UNL     1     -12.572  11.013  66.743  1.00  0.00     0.000 HD 
HETATM   11  O   UNL     1     -11.890  11.424  67.260  1.00  0.00    -0.594 OA 
BRANCH   9  12
HETATM   12  C   UNL     1     -10.398   9.751  66.260  1.00  0.00    -0.165 C  
HETATM   13  H   UNL     1      -9.784   7.962  65.646  1.00  0.00     0.000 HD 
HETATM   14  O   UNL     1     -10.100   8.362  66.449  1.00  0.00    -0.265 OA 
BRANCH  12  15
HETATM   15  C   UNL     1      -9.163  10.479  65.689  1.00  0.00    -0.186 C  
HETATM   16  H   UNL     1      -8.768  11.567  64.105  1.00  0.00     0.000 HD 
HETATM   17  O   UNL     1      -9.528  11.119  64.457  1.00  0.00    -0.232 OA 
BRANCH  15  18
HETATM   18  C   UNL     1      -7.975   9.525  65.450  1.00  0.00    -0.113 C  
HETATM   19  O   UNL     1      -7.316   9.171  66.667  1.00  0.00    -0.085 OA 
HETATM   20  H   UNL     1      -6.584   8.584  66.520  1.00  0.00     0.000 HD 
ENDBRANCH  15  18
ENDBRANCH  12  15
ENDBRANCH   9  12
ENDBRANCH   3   9
TORSDOF 5
ENDMDL
MODEL      217
REMARK 921   NORMALIZED FREE ENERGY PREDICTED BY IDOCK:   -2.98 KCAL/MOL
REMARK 922        TOTAL FREE ENERGY PREDICTED BY IDOCK:   -4.55 KCAL/MOL
REMARK 923 INTER-LIGAND FREE ENERGY PREDICTED BY IDOCK:   -4.28 KCAL/MOL
REMARK 924 INTRA-LIGAND FREE ENERGY PREDICTED BY IDOCK:   -0.27 KCAL/MOL
REMARK 927      BINDING AFFINITY PREDICTED BY RF-SCORE:    0.00 PKD
ROOT
HETATM    1  C   UNL     1     -11.094  11.355  67.053  1.00  0.00    -0.303 C  
HETATM    2  O   UNL     1     -12.086  12.049  67.286  1.00  0.00    -0.572 OA 
HETATM    3  CA  UNL     1     -10.137  10.919  68.151  1.00  0.00    -0.173 C  
ENDROOT
BRANCH   3   4
HETATM    4  N   UNL     1      -8.790  10.686  67.602  1.00  0.00    -0.131 N  
HETATM    5  C   UNL     1      -6.620  11.220  66.670  1.00  0.00    -0.135 C  
HETATM    6  O   UNL     1      -8.174  12.877  67.436  1.00  0.00    -0.169 OA 
HETATM    7  H   UNL     1      -8.483   9.721  67.475  1.00  0.00     0.000 HD 
HETATM    8  C   UNL     1      -7.925  11.693  67.253  1.00  0.00    -0.157 C  
ENDBRANCH   3   4
BRANCH   3   9
HETATM    9  C   UNL     1     -10.693   9.727  68.964  1.00  0.00    -0.217 C  
HETATM   10  H   UNL     1     -10.115   7.895  69.295  1.00  0.00     0.000 HD 
HETATM   11  O   UNL     1      -9.773   8.627  68.795  1.00  0.00    -0.160 OA 
BRANCH   9  12
HETATM   12  C   UNL     1     -10.878  10.032  70.477  1.00  0.00    -0.314 C  
HETATM   13  H   UNL     1     -10.208   9.335  72.215  1.00  0.00     0.000 HD 
HETATM   14  O   UNL     1     -10.095   9.149  71.289  1.00  0.00    -0.283 OA 
BRANCH  12  15
HETATM   15  C   UNL     1     -12.358   9.970  70.912  1.00  0.00    -0.341 C  
HETATM   16  H   UNL     1     -13.820  11.256  71.141  1.00  0.00     0.000 HD 
HETATM   17  O   UNL     1     -12.909  11.294  70.874  1.00  0.00    -0.319 OA 
BRANCH  15  18
HETATM   18  C   UNL     1     -12.533   9.370  72.321  1.00  0.00    -0.268 C  
HETATM   19  O   UNL     1     -13.897   9.378  72.744  1.00  0.00    -0.738 OA 
HETATM   20  H   UNL     1     -14.006   9.008  73.612  1.00  0.00     0.000 HD 
ENDBRANCH  15  18
ENDBRANCH  12  15
ENDBRANCH   9  12
ENDBRANCH   3   9
TORSDOF 5
ENDMDL
MODEL      218
REMARK 921   NORMALIZED FREE ENERGY PREDICTED BY IDOCK:   -2.98 KCAL/MOL
REMARK 922        TOTAL FREE ENERGY PREDICTED BY IDOCK:   -4.55 KCAL/MOL
REMARK 923 INTER-LIGAND FREE ENERGY PREDICTED BY IDOCK:   -4.83 KCAL/MOL
REMARK 924 INTRA-LIGAND FREE ENERGY PREDICTED BY IDOCK:    0.28 KCAL/MOL
REMARK 927      BINDING AFFINITY PREDICTED BY RF-SCORE:    0.00 PKD
ROOT
HETATM    1  C   UNL     1      -8.649  14.381  68.188  1.00  0.00    -0.166 C  
HETATM    2  O   UNL     1      -8.465  15.380  68.886  1.00  0.00    -0.173 OA 
HETATM    3  CA  UNL     1     -10.036  13.959  67.731  1.00  0.00    -0.241 C  
ENDROOT
BRANCH   3   4
HETATM    4  N   UNL     1     -10.085  12.506  67.495  1.00  0.00    -0.205 N  
HETATM    5  C   UNL     1      -9.297  10.303  66.870  1.00  0.00    -0.183 C  
HETATM    6  O   UNL     1      -7.880  12.234  66.970  1.00  0.00    -0.164 OA 
HETATM    7  H   UNL     1     -10.973  12.026  67.636  1.00  0.00     0.000 HD 
HETATM    8  C   UNL     1      -9.003  11.762  67.095  1.00  0.00    -0.177 C  
ENDBRANCH   3   4
BRANCH   3   9
HETATM    9  C   UNL     1     -10.531  14.801  66.533  1.00  0.00    -0.291 C  
HETATM   10  H   UNL     1      -9.870  15.165  64.735  1.00  0.00     0.000 HD 
HETATM   11  O   UNL     1      -9.565  14.647  65.471  1.00  0.00    -0.273 OA 
BRANCH   9  12
HETATM   12  C   UNL     1     -11.944  14.397  66.023  1.00  0.00    -0.367 C  
HETATM   13  H   UNL     1     -13.438  13.220  66.601  1.00  0.00     0.000 HD 
HETATM   14  O   UNL     1     -12.575  13.467  66.913  1.00  0.00    -0.198 OA 
BRANCH  12  15
HETATM   15  C   UNL     1     -11.907  13.814  64.595  1.00  0.00    -0.402 C  
HETATM   16  H   UNL     1     -12.708  14.264  62.862  1.00  0.00     0.000 HD 
HETATM   17  O   UNL     1     -12.730  14.622  63.741  1.00  0.00    -0.778 OA 
BRANCH  15  18
HETATM   18  C   UNL     1     -12.383  12.348  64.544  1.00  0.00    -0.438 C  
HETATM   19  O   UNL     1     -12.897  11.992  63.260  1.00  0.00    -0.771 OA 
HETATM   20  H   UNL     1     -13.190  11.089  63.229  1.00  0.00     0.000 HD 
ENDBRANCH  15  18
ENDBRANCH  12  15
ENDBRANCH   9  12
ENDBRANCH   3   9
TORSDOF 5
ENDMDL
MODEL      219
REMARK 921   NORMALIZED FREE ENERGY PREDICTED BY IDOCK:   -2.96 KCAL/MOL
REMARK 922        TOTAL FREE ENERGY PREDICTED BY IDOCK:   -4.51 KCAL/MOL
REMARK 923 INTER-LIGAND FREE ENERGY PREDICTED BY IDOCK:   -4.19 KCAL/MOL
REMARK 924 INTRA-LIGAND FREE ENERGY PREDICTED BY IDOCK:   -0.32 KCAL/MOL
REMARK 927      BINDING AFFINITY PREDICTED BY RF-SCORE:    0.00 PKD
ROOT
HETATM    1  C   UNL     1     -10.063   8.263  72.225  1.00  0.00    -0.300 C  
HETATM    2  O   UNL     1      -8.979   8.783  72.500  1.00  0.00    -0.386 OA 
HETATM    3  CA  UNL     1     -10.705   8.408  70.856  1.00  0.00    -0.222 C  
ENDROOT
BRANCH   3   4
HETATM    4  N   UNL     1     -12.169   8.282  70.953  1.00  0.00    -0.484 N  
HETATM    5  C   UNL     1     -14.308   7.278  71.486  1.00  0.00    -0.558 C  
HETATM    6  O   UNL     1     -12.203   6.312  72.105  1.00  0.00    -0.328 OA 
HETATM    7  H   UNL     1     -12.744   9.028  70.560  1.00  0.00     0.000 HD 
HETATM    8  C   UNL     1     -12.804   7.217  71.542  1.00  0.00    -0.388 C  
ENDBRANCH   3   4
BRANCH   3   9
HETATM    9  C   UNL     1     -10.066   7.462  69.813  1.00  0.00    -0.193 C  
HETATM   10  H   UNL     1     -10.747   6.331  68.378  1.00  0.00     0.000 HD 
HETATM   11  O   UNL     1     -11.140   6.913  69.018  1.00  0.00    -0.205 OA 
BRANCH   9  12
HETATM   12  C   UNL     1      -9.028   8.157  68.887  1.00  0.00    -0.141 C  
HETATM   13  H   UNL     1      -7.052   8.351  68.773  1.00  0.00     0.000 HD 
HETATM   14  O   UNL     1      -7.687   7.926  69.338  1.00  0.00    -0.100 OA 
BRANCH  12  15
HETATM   15  C   UNL     1      -9.283   9.673  68.755  1.00  0.00    -0.141 C  
HETATM   16  H   UNL     1      -9.911  10.884  67.346  1.00  0.00     0.000 HD 
HETATM   17  O   UNL     1      -9.754   9.951  67.428  1.00  0.00    -0.154 OA 
BRANCH  15  18
HETATM   18  C   UNL     1      -8.021  10.510  69.048  1.00  0.00    -0.136 C  
HETATM   19  O   UNL     1      -7.649  10.460  70.425  1.00  0.00    -0.451 OA 
HETATM   20  H   UNL     1      -6.872  10.975  70.606  1.00  0.00     0.000 HD 
ENDBRANCH  15  18
ENDBRANCH  12  15
ENDBRANCH   9  12
ENDBRANCH   3   9
TORSDOF 5
ENDMDL
MODEL      220
REMARK 921   NORMALIZED FREE ENERGY PREDICTED BY IDOCK:   -2.92 KCAL/MOL
REMARK 922        TOTAL FREE ENERGY PREDICTED BY IDOCK:   -4.47 KCAL/MOL
REMARK 923 INTER-LIGAND FREE ENERGY PREDICTED BY IDOCK:   -4.59 KCAL/MOL
REMARK 924 INTRA-LIGAND FREE ENERGY PREDICTED BY IDOCK:    0.12 KCAL/MOL
REMARK 927      BINDING AFFINITY PREDICTED BY RF-SCORE:    0.00 PKD
ROOT
HETATM    1  C   UNL     1      -9.720  15.194  66.111  1.00  0.00    -0.310 C  
HETATM    2  O   UNL     1     -10.525  15.634  65.289  1.00  0.00    -0.379 OA 
HETATM    3  CA  UNL     1     -10.125  14.847  67.534  1.00  0.00    -0.228 C  
ENDROOT
BRANCH   3   4
HETATM    4  N   UNL     1      -8.973  14.963  68.445  1.00  0.00    -0.177 N  
HETATM    5  C   UNL     1      -6.819  14.445  69.422  1.00  0.00    -0.132 C  
HETATM    6  O   UNL     1      -7.676  13.364  67.461  1.00  0.00    -0.160 OA 
HETATM    7  H   UNL     1      -9.014  15.666  69.184  1.00  0.00     0.000 HD 
HETATM    8  C   UNL     1      -7.849  14.181  68.356  1.00  0.00    -0.143 C  
ENDBRANCH   3   4
BRANCH   3   9
HETATM    9  C   UNL     1     -10.846  13.481  67.615  1.00  0.00    -0.260 C  
HETATM   10  H   UNL     1     -12.599  12.882  68.223  1.00  0.00     0.000 HD 
HETATM   11  O   UNL     1     -12.156  13.721  68.173  1.00  0.00    -0.364 OA 
BRANCH   9  12
HETATM   12  C   UNL     1     -10.981  12.761  66.243  1.00  0.00    -0.280 C  
HETATM   13  H   UNL     1     -12.438  12.151  65.036  1.00  0.00     0.000 HD 
HETATM   14  O   UNL     1     -12.356  12.591  65.874  1.00  0.00    -0.626 OA 
BRANCH  12  15
HETATM   15  C   UNL     1     -10.260  11.397  66.223  1.00  0.00    -0.233 C  
HETATM   16  H   UNL     1     -10.100   9.900  64.967  1.00  0.00     0.000 HD 
HETATM   17  O   UNL     1     -10.544  10.740  64.979  1.00  0.00    -0.268 OA 
BRANCH  15  18
HETATM   18  C   UNL     1     -10.678  10.492  67.400  1.00  0.00    -0.281 C  
HETATM   19  O   UNL     1     -12.002  10.775  67.854  1.00  0.00    -0.753 OA 
HETATM   20  H   UNL     1     -12.259  10.218  68.579  1.00  0.00     0.000 HD 
ENDBRANCH  15  18
ENDBRANCH  12  15
ENDBRANCH   9  12
ENDBRANCH   3   9
TORSDOF 5
ENDMDL
MODEL      221
REMARK 921   NORMALIZED FREE ENERGY PREDICTED BY IDOCK:   -2.92 KCAL/MOL
REMARK 922        TOTAL FREE ENERGY PREDICTED BY IDOCK:   -4.47 KCAL/MOL
REMARK 923 INTER-LIGAND FREE ENERGY PREDICTED BY IDOCK:   -4.57 KCAL/MOL
REMARK 924 INTRA-LIGAND FREE ENERGY PREDICTED BY IDOCK:    0.10 KCAL/MOL
REMARK 927      BINDING AFFINITY PREDICTED BY RF-SCORE:    0.00 PKD
ROOT
HETATM    1  C   UNL     1     -11.524  16.614  68.293  1.00  0.00     0.008 C  
HETATM    2  O   UNL     1     -11.955  15.692  68.988  1.00  0.00    -0.374 OA 
HETATM    3  CA  UNL     1     -10.075  16.674  67.838  1.00  0.00    -0.270 C  
ENDROOT
BRANCH   3   4
HETATM    4  N   UNL     1      -9.662  18.068  67.606  1.00  0.00    -0.284 N  
HETATM    5  C   UNL     1      -9.435  20.181  66.444  1.00  0.00    -0.479 C  
HETATM    6  O   UNL     1     -10.757  18.357  65.624  1.00  0.00    -0.548 OA 
HETATM    7  H   UNL     1      -9.084  18.523  68.313  1.00  0.00     0.000 HD 
HETATM    8  C   UNL     1     -10.009  18.790  66.491  1.00  0.00    -0.380 C  
ENDBRANCH   3   4
BRANCH   3   9
HETATM    9  C   UNL     1      -9.805  15.736  66.639  1.00  0.00    -0.252 C  
HETATM   10  H   UNL     1      -8.214  15.166  65.666  1.00  0.00     0.000 HD 
HETATM   11  O   UNL     1      -8.380  15.741  66.404  1.00  0.00    -0.284 OA 
BRANCH   9  12
HETATM   12  C   UNL     1     -10.297  14.278  66.859  1.00  0.00    -0.268 C  
HETATM   13  H   UNL     1      -9.498  12.476  67.120  1.00  0.00     0.000 HD 
HETATM   14  O   UNL     1      -9.198  13.367  66.985  1.00  0.00    -0.226 OA 
BRANCH  12  15
HETATM   15  C   UNL     1     -11.245  13.803  65.737  1.00  0.00    -0.297 C  
HETATM   16  H   UNL     1     -13.014  14.320  65.067  1.00  0.00     0.000 HD 
HETATM   17  O   UNL     1     -12.430  14.612  65.757  1.00  0.00    -0.233 OA 
BRANCH  15  18
HETATM   18  C   UNL     1     -11.624  12.315  65.877  1.00  0.00    -0.393 C  
HETATM   19  O   UNL     1     -10.736  11.462  65.154  1.00  0.00    -0.289 OA 
HETATM   20  H   UNL     1     -10.970  10.546  65.240  1.00  0.00     0.000 HD 
ENDBRANCH  15  18
ENDBRANCH  12  15
ENDBRANCH   9  12
ENDBRANCH   3   9
TORSDOF 5
ENDMDL
MODEL      222
REMARK 921   NORMALIZED FREE ENERGY PREDICTED BY IDOCK:   -2.92 KCAL/MOL
REMARK 922        TOTAL FREE ENERGY PREDICTED BY IDOCK:   -4.46 KCAL/MOL
REMARK 923 INTER-LIGAND FREE ENERGY PREDICTED BY IDOCK:   -4.42 KCAL/MOL
REMARK 924 INTRA-LIGAND FREE ENERGY PREDICTED BY IDOCK:   -0.04 KCAL/MOL
REMARK 927      BINDING AFFINITY PREDICTED BY RF-SCORE:    0.00 PKD
ROOT
HETATM    1  C   UNL     1      -9.819  15.672  68.399  1.00  0.00    -0.206 C  
HETATM    2  O   UNL     1     -10.119  15.310  69.539  1.00  0.00    -0.242 OA 
HETATM    3  CA  UNL     1      -8.656  15.060  67.636  1.00  0.00    -0.171 C  
ENDROOT
BRANCH   3   4
HETATM    4  N   UNL     1      -8.116  16.017  66.656  1.00  0.00    -0.267 N  
HETATM    5  C   UNL     1      -6.937  17.966  65.831  1.00  0.00    -0.313 C  
HETATM    6  O   UNL     1      -6.961  17.313  68.138  1.00  0.00    -0.171 OA 
HETATM    7  H   UNL     1      -8.335  15.871  65.670  1.00  0.00     0.000 HD 
HETATM    8  C   UNL     1      -7.337  17.096  66.993  1.00  0.00    -0.181 C  
ENDBRANCH   3   4
BRANCH   3   9
HETATM    9  C   UNL     1      -9.020  13.685  67.028  1.00  0.00    -0.236 C  
HETATM   10  H   UNL     1      -9.634  11.980  67.746  1.00  0.00     0.000 HD 
HETATM   11  O   UNL     1      -9.411  12.824  68.119  1.00  0.00    -0.206 OA 
BRANCH   9  12
HETATM   12  C   UNL     1     -10.161  13.749  65.973  1.00  0.00    -0.311 C  
HETATM   13  H   UNL     1     -11.019  15.115  64.810  1.00  0.00     0.000 HD 
HETATM   14  O   UNL     1     -10.322  15.076  65.455  1.00  0.00    -0.317 OA 
BRANCH  12  15
HETATM   15  C   UNL     1     -11.505  13.237  66.531  1.00  0.00    -0.337 C  
HETATM   16  H   UNL     1     -12.517  11.559  66.466  1.00  0.00     0.000 HD 
HETATM   17  O   UNL     1     -11.690  11.874  66.122  1.00  0.00    -0.484 OA 
BRANCH  15  18
HETATM   18  C   UNL     1     -12.701  14.090  66.061  1.00  0.00    -0.338 C  
HETATM   19  O   UNL     1     -12.926  13.975  64.655  1.00  0.00    -0.639 OA 
HETATM   20  H   UNL     1     -13.663  14.500  64.366  1.00  0.00     0.000 HD 
ENDBRANCH  15  18
ENDBRANCH  12  15
ENDBRANCH   9  12
ENDBRANCH   3   9
TORSDOF 5
ENDMDL
MODEL      223
REMARK 921   NORMALIZED FREE ENERGY PREDICTED BY IDOCK:   -2.89 KCAL/MOL
REMARK 922        TOTAL FREE ENERGY PREDICTED BY IDOCK:   -4.43 KCAL/MOL
REMARK 923 INTER-LIGAND FREE ENERGY PREDICTED BY IDOCK:   -4.03 KCAL/MOL
REMARK 924 INTRA-LIGAND FREE ENERGY PREDICTED BY IDOCK:   -0.40 KCAL/MOL
REMARK 927      BINDING AFFINITY PREDICTED BY RF-SCORE:    0.00 PKD
ROOT
HETATM    1  C   UNL     1      -8.861  18.700  68.410  1.00  0.00    -0.339 C  
HETATM    2  O   UNL     1      -9.192  19.712  69.031  1.00  0.00    -0.332 OA 
HETATM    3  CA  UNL     1      -8.824  17.327  69.061  1.00  0.00    -0.081 C  
ENDROOT
BRANCH   3   4
HETATM    4  N   UNL     1      -7.849  16.457  68.383  1.00  0.00    -0.168 N  
HETATM    5  C   UNL     1      -5.798  15.212  68.050  1.00  0.00    -0.154 C  
HETATM    6  O   UNL     1      -6.339  16.347  70.091  1.00  0.00    -0.129 OA 
HETATM    7  H   UNL     1      -8.070  16.128  67.443  1.00  0.00     0.000 HD 
HETATM    8  C   UNL     1      -6.659  16.064  68.944  1.00  0.00    -0.130 C  
ENDBRANCH   3   4
BRANCH   3   9
HETATM    9  C   UNL     1     -10.235  16.706  69.182  1.00  0.00    -0.309 C  
HETATM   10  H   UNL     1     -11.941  16.972  68.277  1.00  0.00     0.000 HD 
HETATM   11  O   UNL     1     -11.074  17.354  68.202  1.00  0.00    -0.259 OA 
BRANCH   9  12
HETATM   12  C   UNL     1     -10.263  15.166  68.964  1.00  0.00    -0.241 C  
HETATM   13  H   UNL     1     -10.495  13.896  67.452  1.00  0.00     0.000 HD 
HETATM   14  O   UNL     1     -10.477  14.837  67.585  1.00  0.00    -0.250 OA 
BRANCH  12  15
HETATM   15  C   UNL     1     -11.324  14.469  69.841  1.00  0.00    -0.241 C  
HETATM   16  H   UNL     1     -12.761  13.165  69.555  1.00  0.00     0.000 HD 
HETATM   17  O   UNL     1     -12.108  13.595  69.016  1.00  0.00    -0.344 OA 
BRANCH  15  18
HETATM   18  C   UNL     1     -12.245  15.473  70.563  1.00  0.00    -0.404 C  
HETATM   19  O   UNL     1     -13.617  15.081  70.508  1.00  0.00    -0.653 OA 
HETATM   20  H   UNL     1     -14.185  15.699  70.953  1.00  0.00     0.000 HD 
ENDBRANCH  15  18
ENDBRANCH  12  15
ENDBRANCH   9  12
ENDBRANCH   3   9
TORSDOF 5
ENDMDL
MODEL      224
REMARK 921   NORMALIZED FREE ENERGY PREDICTED BY IDOCK:   -2.88 KCAL/MOL
REMARK 922        TOTAL FREE ENERGY PREDICTED BY IDOCK:   -4.42 KCAL/MOL
REMARK 923 INTER-LIGAND FREE ENERGY PREDICTED BY IDOCK:   -3.95 KCAL/MOL
REMARK 924 INTRA-LIGAND FREE ENERGY PREDICTED BY IDOCK:   -0.46 KCAL/MOL
REMARK 927      BINDING AFFINITY PREDICTED BY RF-SCORE:    0.00 PKD
ROOT
HETATM    1  C   UNL     1      -9.847   8.135  71.929  1.00  0.00    -0.212 C  
HETATM    2  O   UNL     1      -8.840   8.846  71.926  1.00  0.00    -0.342 OA 
HETATM    3  CA  UNL     1     -10.808   8.089  70.753  1.00  0.00    -0.232 C  
ENDROOT
BRANCH   3   4
HETATM    4  N   UNL     1     -12.162   7.721  71.202  1.00  0.00    -0.399 N  
HETATM    5  C   UNL     1     -14.402   8.027  72.069  1.00  0.00    -0.511 C  
HETATM    6  O   UNL     1     -12.923   9.843  71.559  1.00  0.00    -0.359 OA 
HETATM    7  H   UNL     1     -12.412   6.732  71.214  1.00  0.00     0.000 HD 
HETATM    8  C   UNL     1     -13.104   8.633  71.607  1.00  0.00    -0.346 C  
ENDBRANCH   3   4
BRANCH   3   9
HETATM    9  C   UNL     1     -10.273   7.206  69.602  1.00  0.00    -0.208 C  
HETATM   10  H   UNL     1     -10.942   5.653  68.631  1.00  0.00     0.000 HD 
HETATM   11  O   UNL     1     -11.271   6.195  69.338  1.00  0.00    -0.391 OA 
BRANCH   9  12
HETATM   12  C   UNL     1      -9.964   7.994  68.298  1.00  0.00    -0.185 C  
HETATM   13  H   UNL     1     -10.525   7.967  66.390  1.00  0.00     0.000 HD 
HETATM   14  O   UNL     1     -10.714   7.485  67.187  1.00  0.00    -0.326 OA 
BRANCH  12  15
HETATM   15  C   UNL     1      -8.459   7.997  67.957  1.00  0.00    -0.126 C  
HETATM   16  H   UNL     1      -7.378   7.904  66.323  1.00  0.00     0.000 HD 
HETATM   17  O   UNL     1      -8.305   7.902  66.533  1.00  0.00    -0.118 OA 
BRANCH  15  18
HETATM   18  C   UNL     1      -7.697   6.845  68.643  1.00  0.00    -0.113 C  
HETATM   19  O   UNL     1      -7.564   5.705  67.794  1.00  0.00    -0.086 OA 
HETATM   20  H   UNL     1      -7.095   4.996  68.216  1.00  0.00     0.000 HD 
ENDBRANCH  15  18
ENDBRANCH  12  15
ENDBRANCH   9  12
ENDBRANCH   3   9
TORSDOF 5
ENDMDL
MODEL      225
REMARK 921   NORMALIZED FREE ENERGY PREDICTED BY IDOCK:   -2.87 KCAL/MOL
REMARK 922        TOTAL FREE ENERGY PREDICTED BY IDOCK:   -4.40 KCAL/MOL
REMARK 923 INTER-LIGAND FREE ENERGY PREDICTED BY IDOCK:   -3.75 KCAL/MOL
REMARK 924 INTRA-LIGAND FREE ENERGY PREDICTED BY IDOCK:   -0.65 KCAL/MOL
REMARK 927      BINDING AFFINITY PREDICTED BY RF-SCORE:    0.00 PKD
ROOT
HETATM    1  C   UNL     1      -8.697   8.966  65.961  1.00  0.00    -0.160 C  
HETATM    2  O   UNL     1      -8.392   7.973  65.297  1.00  0.00    -0.144 OA 
HETATM    3  CA  UNL     1     -10.140   9.293  66.310  1.00  0.00    -0.252 C  
ENDROOT
BRANCH   3   4
HETATM    4  N   UNL     1     -10.309  10.741  66.514  1.00  0.00    -0.238 N  
HETATM    5  C   UNL     1     -10.751  13.054  65.949  1.00  0.00    -0.292 C  
HETATM    6  O   UNL     1     -10.988  11.245  64.395  1.00  0.00    -0.332 OA 
HETATM    7  H   UNL     1     -10.135  11.119  67.446  1.00  0.00     0.000 HD 
HETATM    8  C   UNL     1     -10.687  11.612  65.523  1.00  0.00    -0.281 C  
ENDBRANCH   3   4
BRANCH   3   9
HETATM    9  C   UNL     1     -10.661   8.433  67.485  1.00  0.00    -0.215 C  
HETATM   10  H   UNL     1     -11.294   6.599  67.677  1.00  0.00     0.000 HD 
HETATM   11  O   UNL     1     -10.974   7.127  66.955  1.00  0.00    -0.363 OA 
BRANCH   9  12
HETATM   12  C   UNL     1      -9.650   8.297  68.659  1.00  0.00    -0.149 C  
HETATM   13  H   UNL     1      -8.449   6.905  69.416  1.00  0.00     0.000 HD 
HETATM   14  O   UNL     1      -9.067   6.988  68.698  1.00  0.00    -0.134 OA 
BRANCH  12  15
HETATM   15  C   UNL     1     -10.288   8.628  70.024  1.00  0.00    -0.207 C  
HETATM   16  H   UNL     1     -11.583   7.774  71.225  1.00  0.00     0.000 HD 
HETATM   17  O   UNL     1     -11.190   7.571  70.385  1.00  0.00    -0.266 OA 
BRANCH  15  18
HETATM   18  C   UNL     1     -11.039   9.975  70.013  1.00  0.00    -0.295 C  
HETATM   19  O   UNL     1     -10.208  11.051  69.578  1.00  0.00    -0.418 OA 
HETATM   20  H   UNL     1     -10.670  11.881  69.571  1.00  0.00     0.000 HD 
ENDBRANCH  15  18
ENDBRANCH  12  15
ENDBRANCH   9  12
ENDBRANCH   3   9
TORSDOF 5
ENDMDL
MODEL      226
REMARK 921   NORMALIZED FREE ENERGY PREDICTED BY IDOCK:   -2.86 KCAL/MOL
REMARK 922        TOTAL FREE ENERGY PREDICTED BY IDOCK:   -4.39 KCAL/MOL
REMARK 923 INTER-LIGAND FREE ENERGY PREDICTED BY IDOCK:   -3.76 KCAL/MOL
REMARK 924 INTRA-LIGAND FREE ENERGY PREDICTED BY IDOCK:   -0.64 KCAL/MOL
REMARK 927      BINDING AFFINITY PREDICTED BY RF-SCORE:    0.00 PKD
ROOT
HETATM    1  C   UNL     1      -8.703   9.296  70.347  1.00  0.00    -0.229 C  
HETATM    2  O   UNL     1      -7.746  10.049  70.538  1.00  0.00    -0.264 OA 
HETATM    3  CA  UNL     1     -10.111   9.820  70.117  1.00  0.00    -0.265 C  
ENDROOT
BRANCH   3   4
HETATM    4  N   UNL     1     -11.111   8.825  70.540  1.00  0.00    -0.245 N  
HETATM    5  C   UNL     1     -13.063   7.940  71.667  1.00  0.00    -0.361 C  
HETATM    6  O   UNL     1     -12.474  10.263  71.672  1.00  0.00    -0.389 OA 
HETATM    7  H   UNL     1     -10.986   7.859  70.236  1.00  0.00     0.000 HD 
HETATM    8  C   UNL     1     -12.200   9.124  71.320  1.00  0.00    -0.327 C  
ENDBRANCH   3   4
BRANCH   3   9
HETATM    9  C   UNL     1     -10.311  10.328  68.670  1.00  0.00    -0.184 C  
HETATM   10  H   UNL     1     -10.313  12.078  67.810  1.00  0.00     0.000 HD 
HETATM   11  O   UNL     1     -10.190  11.766  68.700  1.00  0.00    -0.214 OA 
BRANCH   9  12
HETATM   12  C   UNL     1      -9.297   9.735  67.651  1.00  0.00    -0.140 C  
HETATM   13  H   UNL     1      -7.695  10.342  66.642  1.00  0.00     0.000 HD 
HETATM   14  O   UNL     1      -8.315  10.705  67.264  1.00  0.00    -0.119 OA 
BRANCH  12  15
HETATM   15  C   UNL     1      -9.991   9.163  66.397  1.00  0.00    -0.288 C  
HETATM   16  H   UNL     1      -9.781   7.577  65.263  1.00  0.00     0.000 HD 
HETATM   17  O   UNL     1      -9.354   7.929  66.035  1.00  0.00    -0.155 OA 
BRANCH  15  18
HETATM   18  C   UNL     1      -9.954  10.140  65.205  1.00  0.00    -0.311 C  
HETATM   19  O   UNL     1     -10.573  11.390  65.514  1.00  0.00    -0.268 OA 
HETATM   20  H   UNL     1     -10.550  11.992  64.780  1.00  0.00     0.000 HD 
ENDBRANCH  15  18
ENDBRANCH  12  15
ENDBRANCH   9  12
ENDBRANCH   3   9
TORSDOF 5
ENDMDL
MODEL      227
REMARK 921   NORMALIZED FREE ENERGY PREDICTED BY IDOCK:   -2.86 KCAL/MOL
REMARK 922        TOTAL FREE ENERGY PREDICTED BY IDOCK:   -4.39 KCAL/MOL
REMARK 923 INTER-LIGAND FREE ENERGY PREDICTED BY IDOCK:   -4.48 KCAL/MOL
REMARK 924 INTRA-LIGAND FREE ENERGY PREDICTED BY IDOCK:    0.09 KCAL/MOL
REMARK 927      BINDING AFFINITY PREDICTED BY RF-SCORE:    0.00 PKD
ROOT
HETATM    1  C   UNL     1     -10.320  17.481  68.542  1.00  0.00    -0.380 C  
HETATM    2  O   UNL     1     -10.506  18.697  68.476  1.00  0.00    -0.308 OA 
HETATM    3  CA  UNL     1     -11.018  16.504  67.610  1.00  0.00    -0.207 C  
ENDROOT
BRANCH   3   4
HETATM    4  N   UNL     1     -11.151  15.183  68.247  1.00  0.00    -0.278 N  
HETATM    5  C   UNL     1     -11.873  13.529  69.862  1.00  0.00    -0.386 C  
HETATM    6  O   UNL     1     -12.631  15.803  69.869  1.00  0.00    -0.255 OA 
HETATM    7  H   UNL     1     -10.639  14.400  67.840  1.00  0.00     0.000 HD 
HETATM    8  C   UNL     1     -11.925  14.946  69.355  1.00  0.00    -0.301 C  
ENDBRANCH   3   4
BRANCH   3   9
HETATM    9  C   UNL     1     -10.352  16.459  66.215  1.00  0.00    -0.329 C  
HETATM   10  H   UNL     1      -9.415  17.748  65.092  1.00  0.00     0.000 HD 
HETATM   11  O   UNL     1      -9.824  17.776  65.949  1.00  0.00    -0.524 OA 
BRANCH   9  12
HETATM   12  C   UNL     1      -9.218  15.402  66.095  1.00  0.00    -0.327 C  
HETATM   13  H   UNL     1      -9.041  13.422  66.102  1.00  0.00     0.000 HD 
HETATM   14  O   UNL     1      -9.735  14.068  66.176  1.00  0.00    -0.293 OA 
BRANCH  12  15
HETATM   15  C   UNL     1      -8.115  15.602  67.156  1.00  0.00    -0.215 C  
HETATM   16  H   UNL     1      -6.243  16.186  67.158  1.00  0.00     0.000 HD 
HETATM   17  O   UNL     1      -6.922  16.063  66.505  1.00  0.00    -0.171 OA 
BRANCH  15  18
HETATM   18  C   UNL     1      -7.816  14.312  67.945  1.00  0.00    -0.152 C  
HETATM   19  O   UNL     1      -8.347  14.355  69.270  1.00  0.00    -0.351 OA 
HETATM   20  H   UNL     1      -8.163  13.560  69.756  1.00  0.00     0.000 HD 
ENDBRANCH  15  18
ENDBRANCH  12  15
ENDBRANCH   9  12
ENDBRANCH   3   9
TORSDOF 5
ENDMDL
MODEL      228
REMARK 921   NORMALIZED FREE ENERGY PREDICTED BY IDOCK:   -2.85 KCAL/MOL
REMARK 922        TOTAL FREE ENERGY PREDICTED BY IDOCK:   -4.38 KCAL/MOL
REMARK 923 INTER-LIGAND FREE ENERGY PREDICTED BY IDOCK:   -3.33 KCAL/MOL
REMARK 924 INTRA-LIGAND FREE ENERGY PREDICTED BY IDOCK:   -1.06 KCAL/MOL
REMARK 927      BINDING AFFINITY PREDICTED BY RF-SCORE:    0.00 PKD
ROOT
HETATM    1  C   UNL     1      -8.059   6.047  68.620  1.00  0.00    -0.107 C  
HETATM    2  O   UNL     1      -7.945   4.822  68.683  1.00  0.00    -0.079 OA 
HETATM    3  CA  UNL     1      -9.148   6.799  69.369  1.00  0.00    -0.144 C  
ENDROOT
BRANCH   3   4
HETATM    4  N   UNL     1      -9.475   8.059  68.681  1.00  0.00    -0.146 N  
HETATM    5  C   UNL     1     -10.539   9.537  67.084  1.00  0.00    -0.295 C  
HETATM    6  O   UNL     1     -11.090   7.215  67.306  1.00  0.00    -0.288 OA 
HETATM    7  H   UNL     1      -8.986   8.906  68.970  1.00  0.00     0.000 HD 
HETATM    8  C   UNL     1     -10.401   8.158  67.672  1.00  0.00    -0.247 C  
ENDBRANCH   3   4
BRANCH   3   9
HETATM    9  C   UNL     1      -8.804   6.977  70.866  1.00  0.00    -0.148 C  
HETATM   10  H   UNL     1      -8.360   8.495  72.006  1.00  0.00     0.000 HD 
HETATM   11  O   UNL     1      -8.571   8.385  71.087  1.00  0.00    -0.129 OA 
BRANCH   9  12
HETATM   12  C   UNL     1      -9.914   6.469  71.829  1.00  0.00    -0.176 C  
HETATM   13  H   UNL     1     -11.671   5.547  71.698  1.00  0.00     0.000 HD 
HETATM   14  O   UNL     1     -10.992   5.857  71.109  1.00  0.00    -0.270 OA 
BRANCH  12  15
HETATM   15  C   UNL     1     -10.460   7.590  72.738  1.00  0.00    -0.295 C  
HETATM   16  H   UNL     1     -10.978   7.757  74.622  1.00  0.00     0.000 HD 
HETATM   17  O   UNL     1     -10.642   7.067  74.063  1.00  0.00    -0.341 OA 
BRANCH  15  18
HETATM   18  C   UNL     1     -11.789   8.175  72.220  1.00  0.00    -0.382 C  
HETATM   19  O   UNL     1     -11.643   8.795  70.942  1.00  0.00    -0.280 OA 
HETATM   20  H   UNL     1     -12.462   9.155  70.622  1.00  0.00     0.000 HD 
ENDBRANCH  15  18
ENDBRANCH  12  15
ENDBRANCH   9  12
ENDBRANCH   3   9
TORSDOF 5
ENDMDL
MODEL      229
REMARK 921   NORMALIZED FREE ENERGY PREDICTED BY IDOCK:   -2.85 KCAL/MOL
REMARK 922        TOTAL FREE ENERGY PREDICTED BY IDOCK:   -4.37 KCAL/MOL
REMARK 923 INTER-LIGAND FREE ENERGY PREDICTED BY IDOCK:   -4.05 KCAL/MOL
REMARK 924 INTRA-LIGAND FREE ENERGY PREDICTED BY IDOCK:   -0.31 KCAL/MOL
REMARK 927      BINDING AFFINITY PREDICTED BY RF-SCORE:    0.00 PKD
ROOT
HETATM    1  C   UNL     1     -10.832   6.384  69.896  1.00  0.00    -0.310 C  
HETATM    2  O   UNL     1     -10.815   5.498  69.039  1.00  0.00    -0.227 OA 
HETATM    3  CA  UNL     1     -11.625   6.248  71.185  1.00  0.00    -0.275 C  
ENDROOT
BRANCH   3   4
HETATM    4  N   UNL     1     -12.004   7.572  71.704  1.00  0.00    -0.290 N  
HETATM    5  C   UNL     1     -13.433   9.458  72.223  1.00  0.00    -0.539 C  
HETATM    6  O   UNL     1     -14.242   7.404  71.291  1.00  0.00    -0.407 OA 
HETATM    7  H   UNL     1     -11.272   8.161  72.103  1.00  0.00     0.000 HD 
HETATM    8  C   UNL     1     -13.287   8.061  71.681  1.00  0.00    -0.332 C  
ENDBRANCH   3   4
BRANCH   3   9
HETATM    9  C   UNL     1     -10.898   5.358  72.220  1.00  0.00    -0.227 C  
HETATM   10  H   UNL     1      -9.738   3.794  72.122  1.00  0.00     0.000 HD 
HETATM   11  O   UNL     1     -10.184   4.341  71.485  1.00  0.00    -0.160 OA 
BRANCH   9  12
HETATM   12  C   UNL     1      -9.912   6.138  73.135  1.00  0.00    -0.179 C  
HETATM   13  H   UNL     1      -9.980   7.648  74.427  1.00  0.00     0.000 HD 
HETATM   14  O   UNL     1     -10.583   7.172  73.867  1.00  0.00    -0.362 OA 
BRANCH  12  15
HETATM   15  C   UNL     1      -8.729   6.736  72.347  1.00  0.00    -0.127 C  
HETATM   16  H   UNL     1      -6.816   6.350  72.157  1.00  0.00     0.000 HD 
HETATM   17  O   UNL     1      -7.544   5.982  72.642  1.00  0.00    -0.097 OA 
BRANCH  15  18
HETATM   18  C   UNL     1      -8.495   8.225  72.674  1.00  0.00    -0.183 C  
HETATM   19  O   UNL     1      -9.426   9.076  72.005  1.00  0.00    -0.339 OA 
HETATM   20  H   UNL     1      -9.282   9.993  72.207  1.00  0.00     0.000 HD 
ENDBRANCH  15  18
ENDBRANCH  12  15
ENDBRANCH   9  12
ENDBRANCH   3   9
TORSDOF 5
ENDMDL
MODEL      230
REMARK 921   NORMALIZED FREE ENERGY PREDICTED BY IDOCK:   -2.82 KCAL/MOL
REMARK 922        TOTAL FREE ENERGY PREDICTED BY IDOCK:   -4.34 KCAL/MOL
REMARK 923 INTER-LIGAND FREE ENERGY PREDICTED BY IDOCK:   -3.64 KCAL/MOL
REMARK 924 INTRA-LIGAND FREE ENERGY PREDICTED BY IDOCK:   -0.71 KCAL/MOL
REMARK 927      BINDING AFFINITY PREDICTED BY RF-SCORE:    0.00 PKD
ROOT
HETATM    1  C   UNL     1     -10.774  11.050  66.291  1.00  0.00    -0.212 C  
HETATM    2  O   UNL     1     -10.837  12.027  67.040  1.00  0.00    -0.232 OA 
HETATM    3  CA  UNL     1      -9.919   9.836  66.616  1.00  0.00    -0.229 C  
ENDROOT
BRANCH   3   4
HETATM    4  N   UNL     1      -9.510   9.145  65.381  1.00  0.00    -0.434 N  
HETATM    5  C   UNL     1      -8.129   8.582  63.473  1.00  0.00    -0.155 C  
HETATM    6  O   UNL     1      -7.451  10.111  65.190  1.00  0.00    -0.134 OA 
HETATM    7  H   UNL     1     -10.151   8.462  64.977  1.00  0.00     0.000 HD 
HETATM    8  C   UNL     1      -8.315   9.367  64.744  1.00  0.00    -0.154 C  
ENDBRANCH   3   4
BRANCH   3   9
HETATM    9  C   UNL     1     -10.597   8.910  67.652  1.00  0.00    -0.224 C  
HETATM   10  H   UNL     1     -11.197   7.055  67.659  1.00  0.00     0.000 HD 
HETATM   11  O   UNL     1     -10.780   7.623  67.022  1.00  0.00    -0.348 OA 
BRANCH   9  12
HETATM   12  C   UNL     1      -9.787   8.742  68.969  1.00  0.00    -0.181 C  
HETATM   13  H   UNL     1      -8.649   7.360  69.833  1.00  0.00     0.000 HD 
HETATM   14  O   UNL     1      -9.144   7.463  69.028  1.00  0.00    -0.135 OA 
BRANCH  12  15
HETATM   15  C   UNL     1     -10.659   8.950  70.225  1.00  0.00    -0.218 C  
HETATM   16  H   UNL     1     -11.983   7.899  71.218  1.00  0.00     0.000 HD 
HETATM   17  O   UNL     1     -11.447   7.771  70.444  1.00  0.00    -0.252 OA 
BRANCH  15  18
HETATM   18  C   UNL     1     -11.581  10.180  70.105  1.00  0.00    -0.277 C  
HETATM   19  O   UNL     1     -10.844  11.398  69.995  1.00  0.00    -0.450 OA 
HETATM   20  H   UNL     1     -11.411  12.156  69.922  1.00  0.00     0.000 HD 
ENDBRANCH  15  18
ENDBRANCH  12  15
ENDBRANCH   9  12
ENDBRANCH   3   9
TORSDOF 5
ENDMDL
MODEL      231
REMARK 921   NORMALIZED FREE ENERGY PREDICTED BY IDOCK:   -2.80 KCAL/MOL
REMARK 922        TOTAL FREE ENERGY PREDICTED BY IDOCK:   -4.30 KCAL/MOL
REMARK 923 INTER-LIGAND FREE ENERGY PREDICTED BY IDOCK:   -3.52 KCAL/MOL
REMARK 924 INTRA-LIGAND FREE ENERGY PREDICTED BY IDOCK:   -0.79 KCAL/MOL
REMARK 927      BINDING AFFINITY PREDICTED BY RF-SCORE:    0.00 PKD
ROOT
HETATM    1  C   UNL     1      -8.460   9.816  69.560  1.00  0.00    -0.170 C  
HETATM    2  O   UNL     1      -7.995  10.881  69.150  1.00  0.00    -0.147 OA 
HETATM    3  CA  UNL     1      -9.910   9.681  69.997  1.00  0.00    -0.246 C  
ENDROOT
BRANCH   3   4
HETATM    4  N   UNL     1     -10.055   8.600  70.985  1.00  0.00    -0.201 N  
HETATM    5  C   UNL     1     -10.969   7.387  72.872  1.00  0.00    -0.408 C  
HETATM    6  O   UNL     1     -11.935   9.402  72.002  1.00  0.00    -0.355 OA 
HETATM    7  H   UNL     1      -9.384   7.832  70.960  1.00  0.00     0.000 HD 
HETATM    8  C   UNL     1     -11.043   8.566  71.938  1.00  0.00    -0.325 C  
ENDBRANCH   3   4
BRANCH   3   9
HETATM    9  C   UNL     1     -10.869   9.556  68.791  1.00  0.00    -0.142 C  
HETATM   10  H   UNL     1     -11.735  10.817  67.581  1.00  0.00     0.000 HD 
HETATM   11  O   UNL     1     -11.145  10.894  68.322  1.00  0.00    -0.223 OA 
BRANCH   9  12
HETATM   12  C   UNL     1     -10.304   8.696  67.626  1.00  0.00    -0.254 C  
HETATM   13  H   UNL     1     -10.058   8.856  65.659  1.00  0.00     0.000 HD 
HETATM   14  O   UNL     1     -10.404   9.382  66.371  1.00  0.00    -0.242 OA 
BRANCH  12  15
HETATM   15  C   UNL     1     -10.993   7.319  67.526  1.00  0.00    -0.151 C  
HETATM   16  H   UNL     1     -11.557   5.924  68.784  1.00  0.00     0.000 HD 
HETATM   17  O   UNL     1     -11.133   6.772  68.845  1.00  0.00    -0.233 OA 
BRANCH  15  18
HETATM   18  C   UNL     1     -10.214   6.333  66.631  1.00  0.00    -0.164 C  
HETATM   19  O   UNL     1      -9.098   6.953  65.992  1.00  0.00    -0.259 OA 
HETATM   20  H   UNL     1      -8.618   6.347  65.441  1.00  0.00     0.000 HD 
ENDBRANCH  15  18
ENDBRANCH  12  15
ENDBRANCH   9  12
ENDBRANCH   3   9
TORSDOF 5
ENDMDL
MODEL      232
REMARK 921   NORMALIZED FREE ENERGY PREDICTED BY IDOCK:   -2.80 KCAL/MOL
REMARK 922        TOTAL FREE ENERGY PREDICTED BY IDOCK:   -4.30 KCAL/MOL
REMARK 923 INTER-LIGAND FREE ENERGY PREDICTED BY IDOCK:   -3.59 KCAL/MOL
REMARK 924 INTRA-LIGAND FREE ENERGY PREDICTED BY IDOCK:   -0.71 KCAL/MOL
REMARK 927      BINDING AFFINITY PREDICTED BY RF-SCORE:    0.00 PKD
ROOT
HETATM    1  C   UNL     1     -10.684   5.529  72.442  1.00  0.00    -0.235 C  
HETATM    2  O   UNL     1     -11.545   5.023  73.166  1.00  0.00    -0.328 OA 
HETATM    3  CA  UNL     1     -10.947   5.858  70.982  1.00  0.00    -0.266 C  
ENDROOT
BRANCH   3   4
HETATM    4  N   UNL     1      -9.692   5.835  70.211  1.00  0.00    -0.169 N  
HETATM    5  C   UNL     1      -7.852   4.906  68.940  1.00  0.00    -0.077 C  
HETATM    6  O   UNL     1      -9.740   3.619  69.666  1.00  0.00    -0.188 OA 
HETATM    7  H   UNL     1      -9.184   6.712  70.094  1.00  0.00     0.000 HD 
HETATM    8  C   UNL     1      -9.168   4.701  69.642  1.00  0.00    -0.124 C  
ENDBRANCH   3   4
BRANCH   3   9
HETATM    9  C   UNL     1     -11.754   7.167  70.819  1.00  0.00    -0.323 C  
HETATM   10  H   UNL     1     -13.634   7.657  70.982  1.00  0.00     0.000 HD 
HETATM   11  O   UNL     1     -13.138   6.853  71.082  1.00  0.00    -0.311 OA 
BRANCH   9  12
HETATM   12  C   UNL     1     -11.286   8.314  71.760  1.00  0.00    -0.283 C  
HETATM   13  H   UNL     1     -12.083   9.512  73.133  1.00  0.00     0.000 HD 
HETATM   14  O   UNL     1     -12.368   8.811  72.558  1.00  0.00    -0.372 OA 
BRANCH  12  15
HETATM   15  C   UNL     1     -10.627   9.475  70.988  1.00  0.00    -0.322 C  
HETATM   16  H   UNL     1     -10.913  10.373  69.268  1.00  0.00     0.000 HD 
HETATM   17  O   UNL     1     -11.319   9.657  69.743  1.00  0.00    -0.213 OA 
BRANCH  15  18
HETATM   18  C   UNL     1      -9.128   9.231  70.722  1.00  0.00    -0.244 C  
HETATM   19  O   UNL     1      -8.532   8.401  71.719  1.00  0.00    -0.136 OA 
HETATM   20  H   UNL     1      -7.609   8.250  71.556  1.00  0.00     0.000 HD 
ENDBRANCH  15  18
ENDBRANCH  12  15
ENDBRANCH   9  12
ENDBRANCH   3   9
TORSDOF 5
ENDMDL
MODEL      233
REMARK 921   NORMALIZED FREE ENERGY PREDICTED BY IDOCK:   -2.79 KCAL/MOL
REMARK 922        TOTAL FREE ENERGY PREDICTED BY IDOCK:   -4.30 KCAL/MOL
REMARK 923 INTER-LIGAND FREE ENERGY PREDICTED BY IDOCK:   -4.61 KCAL/MOL
REMARK 924 INTRA-LIGAND FREE ENERGY PREDICTED BY IDOCK:    0.31 KCAL/MOL
REMARK 927      BINDING AFFINITY PREDICTED BY RF-SCORE:    0.00 PKD
ROOT
HETATM    1  C   UNL     1      -8.415  12.260  68.022  1.00  0.00    -0.171 C  
HETATM    2  O   UNL     1      -7.316  11.777  67.741  1.00  0.00    -0.092 OA 
HETATM    3  CA  UNL     1      -9.027  13.398  67.222  1.00  0.00    -0.221 C  
ENDROOT
BRANCH   3   4
HETATM    4  N   UNL     1      -9.944  14.188  68.061  1.00  0.00    -0.221 N  
HETATM    5  C   UNL     1     -10.641  15.700  69.820  1.00  0.00    -0.308 C  
HETATM    6  O   UNL     1      -8.346  15.253  69.295  1.00  0.00    -0.219 OA 
HETATM    7  H   UNL     1     -10.946  14.104  67.889  1.00  0.00     0.000 HD 
HETATM    8  C   UNL     1      -9.526  15.030  69.062  1.00  0.00    -0.210 C  
ENDBRANCH   3   4
BRANCH   3   9
HETATM    9  C   UNL     1      -9.662  12.902  65.903  1.00  0.00    -0.184 C  
HETATM   10  H   UNL     1     -11.055  11.619  65.440  1.00  0.00     0.000 HD 
HETATM   11  O   UNL     1     -10.665  11.924  66.251  1.00  0.00    -0.251 OA 
BRANCH   9  12
HETATM   12  C   UNL     1     -10.303  14.034  65.050  1.00  0.00    -0.409 C  
HETATM   13  H   UNL     1     -10.696  15.974  65.234  1.00  0.00     0.000 HD 
HETATM   14  O   UNL     1     -10.305  15.282  65.755  1.00  0.00    -0.296 OA 
BRANCH  12  15
HETATM   15  C   UNL     1     -11.735  13.686  64.595  1.00  0.00    -0.388 C  
HETATM   16  H   UNL     1     -13.170  14.599  63.617  1.00  0.00     0.000 HD 
HETATM   17  O   UNL     1     -12.288  14.813  63.898  1.00  0.00    -0.728 OA 
BRANCH  15  18
HETATM   18  C   UNL     1     -12.651  13.300  65.774  1.00  0.00    -0.347 C  
HETATM   19  O   UNL     1     -12.551  14.224  66.859  1.00  0.00    -0.565 OA 
HETATM   20  H   UNL     1     -13.115  13.986  67.585  1.00  0.00     0.000 HD 
ENDBRANCH  15  18
ENDBRANCH  12  15
ENDBRANCH   9  12
ENDBRANCH   3   9
TORSDOF 5
ENDMDL
MODEL      234
REMARK 921   NORMALIZED FREE ENERGY PREDICTED BY IDOCK:   -2.79 KCAL/MOL
REMARK 922        TOTAL FREE ENERGY PREDICTED BY IDOCK:   -4.29 KCAL/MOL
REMARK 923 INTER-LIGAND FREE ENERGY PREDICTED BY IDOCK:   -3.95 KCAL/MOL
REMARK 924 INTRA-LIGAND FREE ENERGY PREDICTED BY IDOCK:   -0.35 KCAL/MOL
REMARK 927      BINDING AFFINITY PREDICTED BY RF-SCORE:    0.00 PKD
ROOT
HETATM    1  C   UNL     1     -10.174   9.468  68.477  1.00  0.00    -0.199 C  
HETATM    2  O   UNL     1     -10.299   8.556  67.658  1.00  0.00    -0.226 OA 
HETATM    3  CA  UNL     1     -11.158   9.671  69.618  1.00  0.00    -0.193 C  
ENDROOT
BRANCH   3   4
HETATM    4  N   UNL     1     -11.187  11.084  70.033  1.00  0.00    -0.424 N  
HETATM    5  C   UNL     1     -11.578  13.468  69.864  1.00  0.00    -0.271 C  
HETATM    6  O   UNL     1     -12.236  11.898  68.177  1.00  0.00    -0.470 OA 
HETATM    7  H   UNL     1     -10.808  11.324  70.949  1.00  0.00     0.000 HD 
HETATM    8  C   UNL     1     -11.695  12.095  69.256  1.00  0.00    -0.328 C  
ENDBRANCH   3   4
BRANCH   3   9
HETATM    9  C   UNL     1     -10.906   8.685  70.782  1.00  0.00    -0.230 C  
HETATM   10  H   UNL     1     -11.326   8.665  72.686  1.00  0.00     0.000 HD 
HETATM   11  O   UNL     1     -11.481   9.270  71.971  1.00  0.00    -0.355 OA 
BRANCH   9  12
HETATM   12  C   UNL     1     -11.507   7.270  70.548  1.00  0.00    -0.279 C  
HETATM   13  H   UNL     1     -12.686   5.991  71.511  1.00  0.00     0.000 HD 
HETATM   14  O   UNL     1     -12.318   6.856  71.655  1.00  0.00    -0.339 OA 
BRANCH  12  15
HETATM   15  C   UNL     1     -10.421   6.211  70.268  1.00  0.00    -0.229 C  
HETATM   16  H   UNL     1     -10.022   4.395  70.891  1.00  0.00     0.000 HD 
HETATM   17  O   UNL     1     -10.691   5.047  71.064  1.00  0.00    -0.139 OA 
BRANCH  15  18
HETATM   18  C   UNL     1      -9.000   6.730  70.566  1.00  0.00    -0.152 C  
HETATM   19  O   UNL     1      -8.113   6.537  69.463  1.00  0.00    -0.115 OA 
HETATM   20  H   UNL     1      -7.238   6.857  69.646  1.00  0.00     0.000 HD 
ENDBRANCH  15  18
ENDBRANCH  12  15
ENDBRANCH   9  12
ENDBRANCH   3   9
TORSDOF 5
ENDMDL
MODEL      235
REMARK 921   NORMALIZED FREE ENERGY PREDICTED BY IDOCK:   -2.78 KCAL/MOL
REMARK 922        TOTAL FREE ENERGY PREDICTED BY IDOCK:   -4.28 KCAL/MOL
REMARK 923 INTER-LIGAND FREE ENERGY PREDICTED BY IDOCK:   -4.56 KCAL/MOL
REMARK 924 INTRA-LIGAND FREE ENERGY PREDICTED BY IDOCK:    0.28 KCAL/MOL
REMARK 927      BINDING AFFINITY PREDICTED BY RF-SCORE:    0.00 PKD
ROOT
HETATM    1  C   UNL     1     -12.593  10.181  71.697  1.00  0.00    -0.434 C  
HETATM    2  O   UNL     1     -13.118  11.285  71.542  1.00  0.00    -0.417 OA 
HETATM    3  CA  UNL     1     -11.905   9.445  70.560  1.00  0.00    -0.151 C  
ENDROOT
BRANCH   3   4
HETATM    4  N   UNL     1     -11.937   7.991  70.789  1.00  0.00    -0.471 N  
HETATM    5  C   UNL     1     -11.714   5.899  71.989  1.00  0.00    -0.255 C  
HETATM    6  O   UNL     1     -11.449   8.048  73.017  1.00  0.00    -0.370 OA 
HETATM    7  H   UNL     1     -12.171   7.385  70.002  1.00  0.00     0.000 HD 
HETATM    8  C   UNL     1     -11.668   7.404  72.000  1.00  0.00    -0.289 C  
ENDBRANCH   3   4
BRANCH   3   9
HETATM    9  C   UNL     1     -10.489  10.001  70.282  1.00  0.00    -0.272 C  
HETATM   10  H   UNL     1      -8.697   9.236  70.211  1.00  0.00     0.000 HD 
HETATM   11  O   UNL     1      -9.567   8.894  70.381  1.00  0.00    -0.171 OA 
BRANCH   9  12
HETATM   12  C   UNL     1     -10.345  10.685  68.894  1.00  0.00    -0.207 C  
HETATM   13  H   UNL     1      -8.903  11.507  67.798  1.00  0.00     0.000 HD 
HETATM   14  O   UNL     1      -8.992  11.089  68.647  1.00  0.00    -0.160 OA 
BRANCH  12  15
HETATM   15  C   UNL     1     -11.290  11.895  68.734  1.00  0.00    -0.274 C  
HETATM   16  H   UNL     1     -12.716  12.422  67.496  1.00  0.00     0.000 HD 
HETATM   17  O   UNL     1     -12.134  11.678  67.594  1.00  0.00    -0.615 OA 
BRANCH  15  18
HETATM   18  C   UNL     1     -10.524  13.224  68.573  1.00  0.00    -0.250 C  
HETATM   19  O   UNL     1     -10.010  13.392  67.251  1.00  0.00    -0.227 OA 
HETATM   20  H   UNL     1      -9.539  14.211  67.152  1.00  0.00     0.000 HD 
ENDBRANCH  15  18
ENDBRANCH  12  15
ENDBRANCH   9  12
ENDBRANCH   3   9
TORSDOF 5
ENDMDL
MODEL      236
REMARK 921   NORMALIZED FREE ENERGY PREDICTED BY IDOCK:   -2.76 KCAL/MOL
REMARK 922        TOTAL FREE ENERGY PREDICTED BY IDOCK:   -4.26 KCAL/MOL
REMARK 923 INTER-LIGAND FREE ENERGY PREDICTED BY IDOCK:   -3.66 KCAL/MOL
REMARK 924 INTRA-LIGAND FREE ENERGY PREDICTED BY IDOCK:   -0.61 KCAL/MOL
REMARK 927      BINDING AFFINITY PREDICTED BY RF-SCORE:    0.00 PKD
ROOT
HETATM    1  C   UNL     1      -7.883   5.964  69.952  1.00  0.00    -0.096 C  
HETATM    2  O   UNL     1      -6.676   6.207  70.000  1.00  0.00    -0.051 OA 
HETATM    3  CA  UNL     1      -8.923   7.059  69.778  1.00  0.00    -0.141 C  
ENDROOT
BRANCH   3   4
HETATM    4  N   UNL     1     -10.210   6.652  70.366  1.00  0.00    -0.187 N  
HETATM    5  C   UNL     1     -12.320   6.881  71.532  1.00  0.00    -0.420 C  
HETATM    6  O   UNL     1     -10.908   8.737  70.979  1.00  0.00    -0.233 OA 
HETATM    7  H   UNL     1     -10.462   5.664  70.334  1.00  0.00     0.000 HD 
HETATM    8  C   UNL     1     -11.088   7.527  70.956  1.00  0.00    -0.257 C  
ENDBRANCH   3   4
BRANCH   3   9
HETATM    9  C   UNL     1      -9.031   7.526  68.307  1.00  0.00    -0.130 C  
HETATM   10  H   UNL     1      -8.016   8.741  67.169  1.00  0.00     0.000 HD 
HETATM   11  O   UNL     1      -7.949   8.454  68.072  1.00  0.00    -0.115 OA 
BRANCH   9  12
HETATM   12  C   UNL     1      -8.964   6.366  67.274  1.00  0.00    -0.107 C  
HETATM   13  H   UNL     1      -7.932   5.907  65.638  1.00  0.00     0.000 HD 
HETATM   14  O   UNL     1      -7.973   6.616  66.269  1.00  0.00    -0.102 OA 
BRANCH  12  15
HETATM   15  C   UNL     1     -10.329   6.095  66.608  1.00  0.00    -0.187 C  
HETATM   16  H   UNL     1     -12.205   6.079  67.180  1.00  0.00     0.000 HD 
HETATM   17  O   UNL     1     -11.364   6.246  67.590  1.00  0.00    -0.246 OA 
BRANCH  15  18
HETATM   18  C   UNL     1     -10.408   4.690  65.977  1.00  0.00    -0.284 C  
HETATM   19  O   UNL     1     -11.538   4.549  65.115  1.00  0.00    -1.102 OA 
HETATM   20  H   UNL     1     -11.587   3.684  64.726  1.00  0.00     0.000 HD 
ENDBRANCH  15  18
ENDBRANCH  12  15
ENDBRANCH   9  12
ENDBRANCH   3   9
TORSDOF 5
ENDMDL
MODEL      237
REMARK 921   NORMALIZED FREE ENERGY PREDICTED BY IDOCK:   -2.76 KCAL/MOL
REMARK 922        TOTAL FREE ENERGY PREDICTED BY IDOCK:   -4.26 KCAL/MOL
REMARK 923 INTER-LIGAND FREE ENERGY PREDICTED BY IDOCK:   -3.70 KCAL/MOL
REMARK 924 INTRA-LIGAND FREE ENERGY PREDICTED BY IDOCK:   -0.56 KCAL/MOL
REMARK 927      BINDING AFFINITY PREDICTED BY RF-SCORE:    0.00 PKD
ROOT
HETATM    1  C   UNL     1     -10.816  12.572  67.385  1.00  0.00    -0.240 C  
HETATM    2  O   UNL     1     -10.399  13.232  68.339  1.00  0.00    -0.242 OA 
HETATM    3  CA  UNL     1     -10.394  11.131  67.152  1.00  0.00    -0.212 C  
ENDROOT
BRANCH   3   4
HETATM    4  N   UNL     1     -10.480  10.790  65.722  1.00  0.00    -0.222 N  
HETATM    5  C   UNL     1      -9.724  10.409  63.453  1.00  0.00    -0.318 C  
HETATM    6  O   UNL     1      -8.244  10.890  65.276  1.00  0.00    -0.103 OA 
HETATM    7  H   UNL     1     -11.400  10.585  65.331  1.00  0.00     0.000 HD 
HETATM    8  C   UNL     1      -9.393  10.732  64.886  1.00  0.00    -0.222 C  
ENDBRANCH   3   4
BRANCH   3   9
HETATM    9  C   UNL     1     -11.154  10.148  68.073  1.00  0.00    -0.240 C  
HETATM   10  H   UNL     1     -11.326   8.209  68.177  1.00  0.00     0.000 HD 
HETATM   11  O   UNL     1     -10.859   8.812  67.611  1.00  0.00    -0.190 OA 
BRANCH   9  12
HETATM   12  C   UNL     1     -10.780  10.281  69.577  1.00  0.00    -0.249 C  
HETATM   13  H   UNL     1      -9.280   9.759  70.774  1.00  0.00     0.000 HD 
HETATM   14  O   UNL     1      -9.509   9.678  69.855  1.00  0.00    -0.202 OA 
BRANCH  12  15
HETATM   15  C   UNL     1     -11.858   9.684  70.505  1.00  0.00    -0.215 C  
HETATM   16  H   UNL     1     -12.826  10.268  72.107  1.00  0.00     0.000 HD 
HETATM   17  O   UNL     1     -12.162  10.635  71.536  1.00  0.00    -0.335 OA 
BRANCH  15  18
HETATM   18  C   UNL     1     -11.418   8.348  71.138  1.00  0.00    -0.274 C  
HETATM   19  O   UNL     1     -11.634   7.241  70.263  1.00  0.00    -0.433 OA 
HETATM   20  H   UNL     1     -11.363   6.418  70.652  1.00  0.00     0.000 HD 
ENDBRANCH  15  18
ENDBRANCH  12  15
ENDBRANCH   9  12
ENDBRANCH   3   9
TORSDOF 5
ENDMDL
MODEL      238
REMARK 921   NORMALIZED FREE ENERGY PREDICTED BY IDOCK:   -2.73 KCAL/MOL
REMARK 922        TOTAL FREE ENERGY PREDICTED BY IDOCK:   -4.22 KCAL/MOL
REMARK 923 INTER-LIGAND FREE ENERGY PREDICTED BY IDOCK:   -3.81 KCAL/MOL
REMARK 924 INTRA-LIGAND FREE ENERGY PREDICTED BY IDOCK:   -0.41 KCAL/MOL
REMARK 927      BINDING AFFINITY PREDICTED BY RF-SCORE:    0.00 PKD
ROOT
HETATM    1  C   UNL     1      -8.034  10.274  69.365  1.00  0.00    -0.159 C  
HETATM    2  O   UNL     1      -7.497   9.628  70.267  1.00  0.00    -0.126 OA 
HETATM    3  CA  UNL     1      -9.418   9.932  68.838  1.00  0.00    -0.170 C  
ENDROOT
BRANCH   3   4
HETATM    4  N   UNL     1      -9.565  10.375  67.441  1.00  0.00    -0.153 N  
HETATM    5  C   UNL     1     -10.082  10.228  65.079  1.00  0.00    -0.353 C  
HETATM    6  O   UNL     1     -10.503   8.456  66.637  1.00  0.00    -0.294 OA 
HETATM    7  H   UNL     1      -9.279  11.325  67.205  1.00  0.00     0.000 HD 
HETATM    8  C   UNL     1     -10.066   9.582  66.439  1.00  0.00    -0.258 C  
ENDBRANCH   3   4
BRANCH   3   9
HETATM    9  C   UNL     1     -10.537  10.442  69.774  1.00  0.00    -0.258 C  
HETATM   10  H   UNL     1     -11.995  11.726  69.608  1.00  0.00     0.000 HD 
HETATM   11  O   UNL     1     -11.308  11.412  69.032  1.00  0.00    -0.229 OA 
BRANCH   9  12
HETATM   12  C   UNL     1     -11.473   9.319  70.304  1.00  0.00    -0.162 C  
HETATM   13  H   UNL     1     -13.264   9.172  71.155  1.00  0.00     0.000 HD 
HETATM   14  O   UNL     1     -12.692   9.858  70.832  1.00  0.00    -0.321 OA 
BRANCH  12  15
HETATM   15  C   UNL     1     -10.787   8.435  71.366  1.00  0.00    -0.244 C  
HETATM   16  H   UNL     1      -9.990   6.644  71.416  1.00  0.00     0.000 HD 
HETATM   17  O   UNL     1     -10.413   7.188  70.762  1.00  0.00    -0.210 OA 
BRANCH  15  18
HETATM   18  C   UNL     1     -11.690   8.174  72.588  1.00  0.00    -0.355 C  
HETATM   19  O   UNL     1     -11.465   6.885  73.160  1.00  0.00    -0.516 OA 
HETATM   20  H   UNL     1     -12.021   6.724  73.913  1.00  0.00     0.000 HD 
ENDBRANCH  15  18
ENDBRANCH  12  15
ENDBRANCH   9  12
ENDBRANCH   3   9
TORSDOF 5
ENDMDL
MODEL      239
REMARK 921   NORMALIZED FREE ENERGY PREDICTED BY IDOCK:   -2.73 KCAL/MOL
REMARK 922        TOTAL FREE ENERGY PREDICTED BY IDOCK:   -4.22 KCAL/MOL
REMARK 923 INTER-LIGAND FREE ENERGY PREDICTED BY IDOCK:   -3.63 KCAL/MOL
REMARK 924 INTRA-LIGAND FREE ENERGY PREDICTED BY IDOCK:   -0.59 KCAL/MOL
REMARK 927      BINDING AFFINITY PREDICTED BY RF-SCORE:    0.00 PKD
ROOT
HETATM    1  C   UNL     1     -11.293   6.440  69.729  1.00  0.00    -0.427 C  
HETATM    2  O   UNL     1     -10.668   5.405  69.973  1.00  0.00    -0.308 OA 
HETATM    3  CA  UNL     1     -10.612   7.796  69.651  1.00  0.00    -0.242 C  
ENDROOT
BRANCH   3   4
HETATM    4  N   UNL     1     -11.561   8.873  69.983  1.00  0.00    -0.457 N  
HETATM    5  C   UNL     1     -12.866  10.370  71.368  1.00  0.00    -0.556 C  
HETATM    6  O   UNL     1     -11.239   8.841  72.242  1.00  0.00    -0.354 OA 
HETATM    7  H   UNL     1     -12.048   9.337  69.216  1.00  0.00     0.000 HD 
HETATM    8  C   UNL     1     -11.826   9.286  71.264  1.00  0.00    -0.343 C  
ENDBRANCH   3   4
BRANCH   3   9
HETATM    9  C   UNL     1      -9.884   8.002  68.302  1.00  0.00    -0.170 C  
HETATM   10  H   UNL     1      -9.450   9.544  67.191  1.00  0.00     0.000 HD 
HETATM   11  O   UNL     1      -9.897   9.418  68.020  1.00  0.00    -0.154 OA 
BRANCH   9  12
HETATM   12  C   UNL     1      -8.420   7.477  68.293  1.00  0.00    -0.125 C  
HETATM   13  H   UNL     1      -6.583   8.231  68.382  1.00  0.00     0.000 HD 
HETATM   14  O   UNL     1      -7.477   8.552  68.387  1.00  0.00    -0.091 OA 
BRANCH  12  15
HETATM   15  C   UNL     1      -8.113   6.617  67.049  1.00  0.00    -0.113 C  
HETATM   16  H   UNL     1      -6.501   6.026  66.101  1.00  0.00     0.000 HD 
HETATM   17  O   UNL     1      -6.691   6.555  66.867  1.00  0.00    -0.056 OA 
BRANCH  15  18
HETATM   18  C   UNL     1      -8.780   7.168  65.773  1.00  0.00    -0.107 C  
HETATM   19  O   UNL     1      -8.226   8.423  65.374  1.00  0.00    -0.127 OA 
HETATM   20  H   UNL     1      -8.637   8.762  64.587  1.00  0.00     0.000 HD 
ENDBRANCH  15  18
ENDBRANCH  12  15
ENDBRANCH   9  12
ENDBRANCH   3   9
TORSDOF 5
ENDMDL
MODEL      240
REMARK 921   NORMALIZED FREE ENERGY PREDICTED BY IDOCK:   -2.73 KCAL/MOL
REMARK 922        TOTAL FREE ENERGY PREDICTED BY IDOCK:   -4.22 KCAL/MOL
REMARK 923 INTER-LIGAND FREE ENERGY PREDICTED BY IDOCK:   -3.85 KCAL/MOL
REMARK 924 INTRA-LIGAND FREE ENERGY PREDICTED BY IDOCK:   -0.37 KCAL/MOL
REMARK 927      BINDING AFFINITY PREDICTED BY RF-SCORE:    0.00 PKD
ROOT
HETATM    1  C   UNL     1     -10.821   5.461  72.595  1.00  0.00    -0.256 C  
HETATM    2  O   UNL     1     -11.783   4.918  73.142  1.00  0.00    -0.315 OA 
HETATM    3  CA  UNL     1     -10.981   6.347  71.371  1.00  0.00    -0.267 C  
ENDROOT
BRANCH   3   4
HETATM    4  N   UNL     1      -9.749   6.345  70.564  1.00  0.00    -0.168 N  
HETATM    5  C   UNL     1      -8.031   5.488  69.088  1.00  0.00    -0.095 C  
HETATM    6  O   UNL     1     -10.020   4.273  69.647  1.00  0.00    -0.214 OA 
HETATM    7  H   UNL     1      -9.161   7.178  70.582  1.00  0.00     0.000 HD 
HETATM    8  C   UNL     1      -9.347   5.285  69.790  1.00  0.00    -0.134 C  
ENDBRANCH   3   4
BRANCH   3   9
HETATM    9  C   UNL     1     -11.480   7.763  71.742  1.00  0.00    -0.266 C  
HETATM   10  H   UNL     1     -11.578   8.803  73.388  1.00  0.00     0.000 HD 
HETATM   11  O   UNL     1     -11.271   7.933  73.161  1.00  0.00    -0.382 OA 
BRANCH   9  12
HETATM   12  C   UNL     1     -10.764   8.904  70.964  1.00  0.00    -0.247 C  
HETATM   13  H   UNL     1      -9.016   9.850  71.013  1.00  0.00     0.000 HD 
HETATM   14  O   UNL     1      -9.453   9.153  71.488  1.00  0.00    -0.267 OA 
BRANCH  12  15
HETATM   15  C   UNL     1     -11.583  10.212  70.956  1.00  0.00    -0.376 C  
HETATM   16  H   UNL     1     -13.484  10.691  70.912  1.00  0.00     0.000 HD 
HETATM   17  O   UNL     1     -12.980   9.886  70.917  1.00  0.00    -0.335 OA 
BRANCH  15  18
HETATM   18  C   UNL     1     -11.225  11.124  69.765  1.00  0.00    -0.245 C  
HETATM   19  O   UNL     1     -12.158  12.194  69.607  1.00  0.00    -0.280 OA 
HETATM   20  H   UNL     1     -11.937  12.756  68.874  1.00  0.00     0.000 HD 
ENDBRANCH  15  18
ENDBRANCH  12  15
ENDBRANCH   9  12
ENDBRANCH   3   9
TORSDOF 5
ENDMDL
MODEL      241
REMARK 921   NORMALIZED FREE ENERGY PREDICTED BY IDOCK:   -2.73 KCAL/MOL
REMARK 922        TOTAL FREE ENERGY PREDICTED BY IDOCK:   -4.21 KCAL/MOL
REMARK 923 INTER-LIGAND FREE ENERGY PREDICTED BY IDOCK:   -4.32 KCAL/MOL
REMARK 924 INTRA-LIGAND FREE ENERGY PREDICTED BY IDOCK:    0.10 KCAL/MOL
REMARK 927      BINDING AFFINITY PREDICTED BY RF-SCORE:    0.00 PKD
ROOT
HETATM    1  C   UNL     1     -10.448  15.335  65.315  1.00  0.00    -0.411 C  
HETATM    2  O   UNL     1     -11.279  15.023  64.461  1.00  0.00    -0.343 OA 
HETATM    3  CA  UNL     1     -10.819  15.514  66.778  1.00  0.00    -0.291 C  
ENDROOT
BRANCH   3   4
HETATM    4  N   UNL     1      -9.894  16.451  67.438  1.00  0.00    -0.240 N  
HETATM    5  C   UNL     1      -7.805  17.297  68.325  1.00  0.00    -0.244 C  
HETATM    6  O   UNL     1      -7.986  15.248  67.093  1.00  0.00    -0.188 OA 
HETATM    7  H   UNL     1     -10.276  17.319  67.814  1.00  0.00     0.000 HD 
HETATM    8  C   UNL     1      -8.548  16.223  67.575  1.00  0.00    -0.177 C  
ENDBRANCH   3   4
BRANCH   3   9
HETATM    9  C   UNL     1     -10.960  14.159  67.510  1.00  0.00    -0.283 C  
HETATM   10  H   UNL     1     -12.240  13.399  68.770  1.00  0.00     0.000 HD 
HETATM   11  O   UNL     1     -12.154  14.232  68.320  1.00  0.00    -0.322 OA 
BRANCH   9  12
HETATM   12  C   UNL     1     -11.044  12.936  66.555  1.00  0.00    -0.286 C  
HETATM   13  H   UNL     1     -12.456  11.806  65.728  1.00  0.00     0.000 HD 
HETATM   14  O   UNL     1     -12.405  12.554  66.312  1.00  0.00    -0.570 OA 
BRANCH  12  15
HETATM   15  C   UNL     1     -10.246  11.725  67.080  1.00  0.00    -0.212 C  
HETATM   16  H   UNL     1      -9.562  11.127  68.818  1.00  0.00     0.000 HD 
HETATM   17  O   UNL     1     -10.053  11.873  68.495  1.00  0.00    -0.211 OA 
BRANCH  15  18
HETATM   18  C   UNL     1      -8.880  11.570  66.380  1.00  0.00    -0.193 C  
HETATM   19  O   UNL     1      -7.927  12.529  66.840  1.00  0.00    -0.345 OA 
HETATM   20  H   UNL     1      -7.087  12.434  66.409  1.00  0.00     0.000 HD 
ENDBRANCH  15  18
ENDBRANCH  12  15
ENDBRANCH   9  12
ENDBRANCH   3   9
TORSDOF 5
ENDMDL
MODEL      242
REMARK 921   NORMALIZED FREE ENERGY PREDICTED BY IDOCK:   -2.72 KCAL/MOL
REMARK 922        TOTAL FREE ENERGY PREDICTED BY IDOCK:   -4.21 KCAL/MOL
REMARK 923 INTER-LIGAND FREE ENERGY PREDICTED BY IDOCK:   -3.65 KCAL/MOL
REMARK 924 INTRA-LIGAND FREE ENERGY PREDICTED BY IDOCK:   -0.56 KCAL/MOL
REMARK 927      BINDING AFFINITY PREDICTED BY RF-SCORE:    0.00 PKD
ROOT
HETATM    1  C   UNL     1      -8.769   7.352  71.191  1.00  0.00    -0.137 C  
HETATM    2  O   UNL     1      -8.720   7.284  72.421  1.00  0.00    -0.118 OA 
HETATM    3  CA  UNL     1      -9.845   8.144  70.467  1.00  0.00    -0.186 C  
ENDROOT
BRANCH   3   4
HETATM    4  N   UNL     1     -10.084   7.589  69.125  1.00  0.00    -0.187 N  
HETATM    5  C   UNL     1     -10.843   6.018  67.444  1.00  0.00    -0.394 C  
HETATM    6  O   UNL     1     -11.285   5.765  69.787  1.00  0.00    -0.355 OA 
HETATM    7  H   UNL     1      -9.728   8.106  68.320  1.00  0.00     0.000 HD 
HETATM    8  C   UNL     1     -10.759   6.416  68.894  1.00  0.00    -0.288 C  
ENDBRANCH   3   4
BRANCH   3   9
HETATM    9  C   UNL     1      -9.547   9.662  70.469  1.00  0.00    -0.199 C  
HETATM   10  H   UNL     1      -8.352  10.834  69.470  1.00  0.00     0.000 HD 
HETATM   11  O   UNL     1      -8.535   9.901  69.468  1.00  0.00    -0.146 OA 
BRANCH   9  12
HETATM   12  C   UNL     1     -10.793  10.546  70.181  1.00  0.00    -0.227 C  
HETATM   13  H   UNL     1     -12.745  10.295  69.893  1.00  0.00     0.000 HD 
HETATM   14  O   UNL     1     -11.983   9.754  70.069  1.00  0.00    -0.105 OA 
BRANCH  12  15
HETATM   15  C   UNL     1     -10.618  11.412  68.916  1.00  0.00    -0.202 C  
HETATM   16  H   UNL     1     -10.966  13.277  68.418  1.00  0.00     0.000 HD 
HETATM   17  O   UNL     1     -11.074  12.744  69.197  1.00  0.00    -0.242 OA 
BRANCH  15  18
HETATM   18  C   UNL     1     -11.382  10.843  67.702  1.00  0.00    -0.270 C  
HETATM   19  O   UNL     1     -11.894  11.874  66.857  1.00  0.00    -0.590 OA 
HETATM   20  H   UNL     1     -12.364  11.524  66.109  1.00  0.00     0.000 HD 
ENDBRANCH  15  18
ENDBRANCH  12  15
ENDBRANCH   9  12
ENDBRANCH   3   9
TORSDOF 5
ENDMDL
MODEL      243
REMARK 921   NORMALIZED FREE ENERGY PREDICTED BY IDOCK:   -2.71 KCAL/MOL
REMARK 922        TOTAL FREE ENERGY PREDICTED BY IDOCK:   -4.19 KCAL/MOL
REMARK 923 INTER-LIGAND FREE ENERGY PREDICTED BY IDOCK:   -3.52 KCAL/MOL
REMARK 924 INTRA-LIGAND FREE ENERGY PREDICTED BY IDOCK:   -0.67 KCAL/MOL
REMARK 927      BINDING AFFINITY PREDICTED BY RF-SCORE:    0.00 PKD
ROOT
HETATM    1  C   UNL     1     -10.176  10.730  65.603  1.00  0.00    -0.257 C  
HETATM    2  O   UNL     1     -10.733  11.262  64.641  1.00  0.00    -0.321 OA 
HETATM    3  CA  UNL     1      -9.962  11.460  66.919  1.00  0.00    -0.206 C  
ENDROOT
BRANCH   3   4
HETATM    4  N   UNL     1      -8.793  10.916  67.630  1.00  0.00    -0.133 N  
HETATM    5  C   UNL     1      -6.534  10.822  68.500  1.00  0.00    -0.054 C  
HETATM    6  O   UNL     1      -7.443  12.740  67.386  1.00  0.00    -0.150 OA 
HETATM    7  H   UNL     1      -8.869   9.983  68.038  1.00  0.00     0.000 HD 
HETATM    8  C   UNL     1      -7.607  11.591  67.776  1.00  0.00    -0.111 C  
ENDBRANCH   3   4
BRANCH   3   9
HETATM    9  C   UNL     1     -11.249  11.500  67.776  1.00  0.00    -0.279 C  
HETATM   10  H   UNL     1     -11.726  10.920  69.575  1.00  0.00     0.000 HD 
HETATM   11  O   UNL     1     -10.935  10.895  69.049  1.00  0.00    -0.201 OA 
BRANCH   9  12
HETATM   12  C   UNL     1     -11.811  12.932  67.997  1.00  0.00    -0.343 C  
HETATM   13  H   UNL     1     -12.502  14.432  66.889  1.00  0.00     0.000 HD 
HETATM   14  O   UNL     1     -12.158  13.556  66.754  1.00  0.00    -0.389 OA 
BRANCH  12  15
HETATM   15  C   UNL     1     -10.833  13.832  68.781  1.00  0.00    -0.259 C  
HETATM   16  H   UNL     1     -10.955  15.065  70.301  1.00  0.00     0.000 HD 
HETATM   17  O   UNL     1     -11.556  14.512  69.818  1.00  0.00    -0.266 OA 
BRANCH  15  18
HETATM   18  C   UNL     1     -10.126  14.862  67.876  1.00  0.00    -0.227 C  
HETATM   19  O   UNL     1     -10.807  16.117  67.853  1.00  0.00    -0.320 OA 
HETATM   20  H   UNL     1     -10.371  16.751  67.297  1.00  0.00     0.000 HD 
ENDBRANCH  15  18
ENDBRANCH  12  15
ENDBRANCH   9  12
ENDBRANCH   3   9
TORSDOF 5
ENDMDL
MODEL      244
REMARK 921   NORMALIZED FREE ENERGY PREDICTED BY IDOCK:   -2.71 KCAL/MOL
REMARK 922        TOTAL FREE ENERGY PREDICTED BY IDOCK:   -4.19 KCAL/MOL
REMARK 923 INTER-LIGAND FREE ENERGY PREDICTED BY IDOCK:   -4.56 KCAL/MOL
REMARK 924 INTRA-LIGAND FREE ENERGY PREDICTED BY IDOCK:    0.37 KCAL/MOL
REMARK 927      BINDING AFFINITY PREDICTED BY RF-SCORE:    0.00 PKD
ROOT
HETATM    1  C   UNL     1     -11.554  14.492  69.115  1.00  0.00    -0.298 C  
HETATM    2  O   UNL     1     -12.421  14.616  69.981  1.00  0.00    -0.326 OA 
HETATM    3  CA  UNL     1     -11.116  15.653  68.237  1.00  0.00    -0.336 C  
ENDROOT
BRANCH   3   4
HETATM    4  N   UNL     1     -10.602  15.164  66.947  1.00  0.00    -0.291 N  
HETATM    5  C   UNL     1     -10.622  14.053  64.794  1.00  0.00    -0.441 C  
HETATM    6  O   UNL     1     -12.574  14.327  66.159  1.00  0.00    -0.436 OA 
HETATM    7  H   UNL     1      -9.618  15.324  66.729  1.00  0.00     0.000 HD 
HETATM    8  C   UNL     1     -11.370  14.503  66.021  1.00  0.00    -0.341 C  
ENDBRANCH   3   4
BRANCH   3   9
HETATM    9  C   UNL     1     -10.144  16.603  68.975  1.00  0.00    -0.293 C  
HETATM   10  H   UNL     1      -8.269  16.519  69.501  1.00  0.00     0.000 HD 
HETATM   11  O   UNL     1      -8.866  15.935  69.048  1.00  0.00    -0.212 OA 
BRANCH   9  12
HETATM   12  C   UNL     1      -9.977  17.988  68.287  1.00  0.00    -0.371 C  
HETATM   13  H   UNL     1     -10.900  19.061  66.891  1.00  0.00     0.000 HD 
HETATM   14  O   UNL     1     -11.002  18.215  67.311  1.00  0.00    -0.294 OA 
BRANCH  12  15
HETATM   15  C   UNL     1      -8.588  18.157  67.637  1.00  0.00    -0.251 C  
HETATM   16  H   UNL     1      -7.531  17.202  66.289  1.00  0.00     0.000 HD 
HETATM   17  O   UNL     1      -8.386  17.098  66.689  1.00  0.00    -0.213 OA 
BRANCH  15  18
HETATM   18  C   UNL     1      -7.447  18.154  68.675  1.00  0.00    -0.290 C  
HETATM   19  O   UNL     1      -6.315  17.407  68.229  1.00  0.00    -0.163 OA 
HETATM   20  H   UNL     1      -5.612  17.405  68.869  1.00  0.00     0.000 HD 
ENDBRANCH  15  18
ENDBRANCH  12  15
ENDBRANCH   9  12
ENDBRANCH   3   9
TORSDOF 5
ENDMDL
MODEL      245
REMARK 921   NORMALIZED FREE ENERGY PREDICTED BY IDOCK:   -2.67 KCAL/MOL
REMARK 922        TOTAL FREE ENERGY PREDICTED BY IDOCK:   -4.15 KCAL/MOL
REMARK 923 INTER-LIGAND FREE ENERGY PREDICTED BY IDOCK:   -3.77 KCAL/MOL
REMARK 924 INTRA-LIGAND FREE ENERGY PREDICTED BY IDOCK:   -0.38 KCAL/MOL
REMARK 927      BINDING AFFINITY PREDICTED BY RF-SCORE:    0.00 PKD
ROOT
HETATM    1  C   UNL     1      -7.517  12.749  68.289  1.00  0.00    -0.124 C  
HETATM    2  O   UNL     1      -6.652  12.959  67.435  1.00  0.00    -0.161 OA 
HETATM    3  CA  UNL     1      -8.898  12.226  67.929  1.00  0.00    -0.178 C  
ENDROOT
BRANCH   3   4
HETATM    4  N   UNL     1      -9.889  12.647  68.933  1.00  0.00    -0.414 N  
HETATM    5  C   UNL     1     -11.789  13.832  69.857  1.00  0.00    -0.394 C  
HETATM    6  O   UNL     1     -11.159  13.940  67.546  1.00  0.00    -0.274 OA 
HETATM    7  H   UNL     1      -9.800  12.280  69.881  1.00  0.00     0.000 HD 
HETATM    8  C   UNL     1     -10.927  13.506  68.666  1.00  0.00    -0.263 C  
ENDBRANCH   3   4
BRANCH   3   9
HETATM    9  C   UNL     1      -8.890  10.703  67.663  1.00  0.00    -0.131 C  
HETATM   10  H   UNL     1      -9.227   9.113  68.740  1.00  0.00     0.000 HD 
HETATM   11  O   UNL     1      -9.233  10.049  68.904  1.00  0.00    -0.152 OA 
BRANCH   9  12
HETATM   12  C   UNL     1      -9.872  10.257  66.543  1.00  0.00    -0.212 C  
HETATM   13  H   UNL     1     -10.696   8.568  65.892  1.00  0.00     0.000 HD 
HETATM   14  O   UNL     1     -10.096   8.841  66.577  1.00  0.00    -0.274 OA 
BRANCH  12  15
HETATM   15  C   UNL     1      -9.391  10.678  65.139  1.00  0.00    -0.212 C  
HETATM   16  H   UNL     1     -10.094  11.776  63.673  1.00  0.00     0.000 HD 
HETATM   17  O   UNL     1     -10.389  11.516  64.538  1.00  0.00    -0.262 OA 
BRANCH  15  18
HETATM   18  C   UNL     1      -9.105   9.469  64.226  1.00  0.00    -0.170 C  
HETATM   19  O   UNL     1      -9.551   9.687  62.887  1.00  0.00    -0.549 OA 
HETATM   20  H   UNL     1      -9.375   8.942  62.324  1.00  0.00     0.000 HD 
ENDBRANCH  15  18
ENDBRANCH  12  15
ENDBRANCH   9  12
ENDBRANCH   3   9
TORSDOF 5
ENDMDL
MODEL      246
REMARK 921   NORMALIZED FREE ENERGY PREDICTED BY IDOCK:   -2.66 KCAL/MOL
REMARK 922        TOTAL FREE ENERGY PREDICTED BY IDOCK:   -4.13 KCAL/MOL
REMARK 923 INTER-LIGAND FREE ENERGY PREDICTED BY IDOCK:   -3.14 KCAL/MOL
REMARK 924 INTRA-LIGAND FREE ENERGY PREDICTED BY IDOCK:   -0.99 KCAL/MOL
REMARK 927      BINDING AFFINITY PREDICTED BY RF-SCORE:    0.00 PKD
ROOT
HETATM    1  C   UNL     1     -10.928   6.899  68.163  1.00  0.00    -0.147 C  
HETATM    2  O   UNL     1     -11.126   7.061  66.957  1.00  0.00    -0.373 OA 
HETATM    3  CA  UNL     1     -10.099   7.872  68.985  1.00  0.00    -0.200 C  
ENDROOT
BRANCH   3   4
HETATM    4  N   UNL     1      -9.493   7.190  70.141  1.00  0.00    -0.162 N  
HETATM    5  C   UNL     1      -7.785   6.563  71.740  1.00  0.00    -0.095 C  
HETATM    6  O   UNL     1      -7.470   8.242  70.058  1.00  0.00    -0.062 OA 
HETATM    7  H   UNL     1     -10.064   6.519  70.657  1.00  0.00     0.000 HD 
HETATM    8  C   UNL     1      -8.206   7.405  70.565  1.00  0.00    -0.127 C  
ENDBRANCH   3   4
BRANCH   3   9
HETATM    9  C   UNL     1     -10.898   9.142  69.359  1.00  0.00    -0.151 C  
HETATM   10  H   UNL     1     -11.125  10.199  70.981  1.00  0.00     0.000 HD 
HETATM   11  O   UNL     1     -10.633   9.419  70.751  1.00  0.00    -0.254 OA 
BRANCH   9  12
HETATM   12  C   UNL     1     -10.540  10.385  68.497  1.00  0.00    -0.209 C  
HETATM   13  H   UNL     1     -11.403  11.509  67.102  1.00  0.00     0.000 HD 
HETATM   14  O   UNL     1     -11.622  10.749  67.629  1.00  0.00    -0.523 OA 
BRANCH  12  15
HETATM   15  C   UNL     1      -9.253  10.176  67.671  1.00  0.00    -0.141 C  
HETATM   16  H   UNL     1      -7.425  10.884  67.699  1.00  0.00     0.000 HD 
HETATM   17  O   UNL     1      -8.217  11.012  68.206  1.00  0.00    -0.118 OA 
BRANCH  15  18
HETATM   18  C   UNL     1      -9.456  10.487  66.174  1.00  0.00    -0.180 C  
HETATM   19  O   UNL     1     -10.068   9.402  65.476  1.00  0.00    -0.397 OA 
HETATM   20  H   UNL     1     -10.193   9.594  64.555  1.00  0.00     0.000 HD 
ENDBRANCH  15  18
ENDBRANCH  12  15
ENDBRANCH   9  12
ENDBRANCH   3   9
TORSDOF 5
ENDMDL
MODEL      247
REMARK 921   NORMALIZED FREE ENERGY PREDICTED BY IDOCK:   -2.66 KCAL/MOL
REMARK 922        TOTAL FREE ENERGY PREDICTED BY IDOCK:   -4.13 KCAL/MOL
REMARK 923 INTER-LIGAND FREE ENERGY PREDICTED BY IDOCK:   -3.71 KCAL/MOL
REMARK 924 INTRA-LIGAND FREE ENERGY PREDICTED BY IDOCK:   -0.42 KCAL/MOL
REMARK 927      BINDING AFFINITY PREDICTED BY RF-SCORE:    0.00 PKD
ROOT
HETATM    1  C   UNL     1      -9.333   9.023  67.124  1.00  0.00    -0.147 C  
HETATM    2  O   UNL     1      -9.028   8.805  65.950  1.00  0.00    -0.171 OA 
HETATM    3  CA  UNL     1     -10.686   8.632  67.695  1.00  0.00    -0.124 C  
ENDROOT
BRANCH   3   4
HETATM    4  N   UNL     1     -11.046   9.507  68.823  1.00  0.00    -0.456 N  
HETATM    5  C   UNL     1     -11.870  11.478  69.964  1.00  0.00    -0.435 C  
HETATM    6  O   UNL     1     -11.976  11.186  67.587  1.00  0.00    -0.613 OA 
HETATM    7  H   UNL     1     -10.848   9.179  69.768  1.00  0.00     0.000 HD 
HETATM    8  C   UNL     1     -11.633  10.739  68.674  1.00  0.00    -0.272 C  
ENDBRANCH   3   4
BRANCH   3   9
HETATM    9  C   UNL     1     -10.759   7.124  68.029  1.00  0.00    -0.171 C  
HETATM   10  H   UNL     1     -11.160   5.505  67.018  1.00  0.00     0.000 HD 
HETATM   11  O   UNL     1     -11.115   6.432  66.812  1.00  0.00    -0.358 OA 
BRANCH   9  12
HETATM   12  C   UNL     1      -9.434   6.542  68.598  1.00  0.00    -0.123 C  
HETATM   13  H   UNL     1      -7.997   5.300  68.010  1.00  0.00     0.000 HD 
HETATM   14  O   UNL     1      -8.807   5.656  67.662  1.00  0.00    -0.108 OA 
BRANCH  12  15
HETATM   15  C   UNL     1      -9.642   5.820  69.946  1.00  0.00    -0.159 C  
HETATM   16  H   UNL     1     -10.500   4.161  70.545  1.00  0.00     0.000 HD 
HETATM   17  O   UNL     1     -10.373   4.606  69.716  1.00  0.00    -0.182 OA 
BRANCH  15  18
HETATM   18  C   UNL     1     -10.389   6.693  70.974  1.00  0.00    -0.207 C  
HETATM   19  O   UNL     1     -10.281   6.175  72.300  1.00  0.00    -0.182 OA 
HETATM   20  H   UNL     1     -10.741   6.713  72.934  1.00  0.00     0.000 HD 
ENDBRANCH  15  18
ENDBRANCH  12  15
ENDBRANCH   9  12
ENDBRANCH   3   9
TORSDOF 5
ENDMDL
MODEL      248
REMARK 921   NORMALIZED FREE ENERGY PREDICTED BY IDOCK:   -2.65 KCAL/MOL
REMARK 922        TOTAL FREE ENERGY PREDICTED BY IDOCK:   -4.12 KCAL/MOL
REMARK 923 INTER-LIGAND FREE ENERGY PREDICTED BY IDOCK:   -4.27 KCAL/MOL
REMARK 924 INTRA-LIGAND FREE ENERGY PREDICTED BY IDOCK:    0.15 KCAL/MOL
REMARK 927      BINDING AFFINITY PREDICTED BY RF-SCORE:    0.00 PKD
ROOT
HETATM    1  C   UNL     1     -10.304  10.648  66.706  1.00  0.00    -0.245 C  
HETATM    2  O   UNL     1     -10.097   9.861  65.780  1.00  0.00    -0.284 OA 
HETATM    3  CA  UNL     1     -11.068  10.243  67.956  1.00  0.00    -0.274 C  
ENDROOT
BRANCH   3   4
HETATM    4  N   UNL     1     -11.714  11.414  68.571  1.00  0.00    -0.318 N  
HETATM    5  C   UNL     1     -11.916  13.647  69.488  1.00  0.00    -0.397 C  
HETATM    6  O   UNL     1      -9.918  12.817  68.456  1.00  0.00    -0.222 OA 
HETATM    7  H   UNL     1     -12.696  11.337  68.839  1.00  0.00     0.000 HD 
HETATM    8  C   UNL     1     -11.071  12.604  68.806  1.00  0.00    -0.263 C  
ENDBRANCH   3   4
BRANCH   3   9
HETATM    9  C   UNL     1     -10.189   9.430  68.935  1.00  0.00    -0.200 C  
HETATM   10  H   UNL     1      -8.276   9.301  69.287  1.00  0.00     0.000 HD 
HETATM   11  O   UNL     1      -8.816   9.800  68.686  1.00  0.00    -0.121 OA 
BRANCH   9  12
HETATM   12  C   UNL     1     -10.536   9.666  70.432  1.00  0.00    -0.293 C  
HETATM   13  H   UNL     1      -9.629   9.517  72.196  1.00  0.00     0.000 HD 
HETATM   14  O   UNL     1      -9.418   9.373  71.281  1.00  0.00    -0.224 OA 
BRANCH  12  15
HETATM   15  C   UNL     1     -11.765   8.852  70.886  1.00  0.00    -0.267 C  
HETATM   16  H   UNL     1     -13.611   9.252  71.413  1.00  0.00     0.000 HD 
HETATM   17  O   UNL     1     -12.854   9.753  71.134  1.00  0.00    -0.335 OA 
BRANCH  15  18
HETATM   18  C   UNL     1     -11.484   8.012  72.148  1.00  0.00    -0.335 C  
HETATM   19  O   UNL     1     -12.342   6.874  72.241  1.00  0.00    -0.488 OA 
HETATM   20  H   UNL     1     -12.168   6.357  73.018  1.00  0.00     0.000 HD 
ENDBRANCH  15  18
ENDBRANCH  12  15
ENDBRANCH   9  12
ENDBRANCH   3   9
TORSDOF 5
ENDMDL
MODEL      249
REMARK 921   NORMALIZED FREE ENERGY PREDICTED BY IDOCK:   -2.64 KCAL/MOL
REMARK 922        TOTAL FREE ENERGY PREDICTED BY IDOCK:   -4.11 KCAL/MOL
REMARK 923 INTER-LIGAND FREE ENERGY PREDICTED BY IDOCK:   -3.08 KCAL/MOL
REMARK 924 INTRA-LIGAND FREE ENERGY PREDICTED BY IDOCK:   -1.03 KCAL/MOL
REMARK 927      BINDING AFFINITY PREDICTED BY RF-SCORE:    0.00 PKD
ROOT
HETATM    1  C   UNL     1     -10.834   6.478  67.058  1.00  0.00    -0.395 C  
HETATM    2  O   UNL     1     -11.014   5.527  66.295  1.00  0.00    -0.193 OA 
HETATM    3  CA  UNL     1     -10.284   6.296  68.463  1.00  0.00    -0.176 C  
ENDROOT
BRANCH   3   4
HETATM    4  N   UNL     1     -10.740   7.383  69.345  1.00  0.00    -0.292 N  
HETATM    5  C   UNL     1     -11.973   8.463  71.128  1.00  0.00    -0.301 C  
HETATM    6  O   UNL     1     -12.025   6.100  70.728  1.00  0.00    -0.152 OA 
HETATM    7  H   UNL     1     -10.391   8.325  69.167  1.00  0.00     0.000 HD 
HETATM    8  C   UNL     1     -11.609   7.201  70.392  1.00  0.00    -0.258 C  
ENDBRANCH   3   4
BRANCH   3   9
HETATM    9  C   UNL     1      -8.751   6.096  68.463  1.00  0.00    -0.111 C  
HETATM   10  H   UNL     1      -7.251   6.936  69.383  1.00  0.00     0.000 HD 
HETATM   11  O   UNL     1      -8.193   7.059  69.384  1.00  0.00    -0.128 OA 
BRANCH   9  12
HETATM   12  C   UNL     1      -8.305   4.662  68.866  1.00  0.00    -0.081 C  
HETATM   13  H   UNL     1      -7.073   3.256  68.187  1.00  0.00     0.000 HD 
HETATM   14  O   UNL     1      -7.345   4.133  67.941  1.00  0.00    -0.066 OA 
BRANCH  12  15
HETATM   15  C   UNL     1      -9.497   3.692  68.997  1.00  0.00    -0.156 C  
HETATM   16  H   UNL     1     -10.287   2.607  70.427  1.00  0.00     0.000 HD 
HETATM   17  O   UNL     1      -9.553   3.204  70.346  1.00  0.00    -0.171 OA 
BRANCH  15  18
HETATM   18  C   UNL     1      -9.403   2.506  68.016  1.00  0.00    -0.202 C  
HETATM   19  O   UNL     1      -9.625   2.906  66.664  1.00  0.00    -0.398 OA 
HETATM   20  H   UNL     1      -9.568   2.176  66.059  1.00  0.00     0.000 HD 
ENDBRANCH  15  18
ENDBRANCH  12  15
ENDBRANCH   9  12
ENDBRANCH   3   9
TORSDOF 5
ENDMDL
MODEL      250
REMARK 921   NORMALIZED FREE ENERGY PREDICTED BY IDOCK:   -2.64 KCAL/MOL
REMARK 922        TOTAL FREE ENERGY PREDICTED BY IDOCK:   -4.10 KCAL/MOL
REMARK 923 INTER-LIGAND FREE ENERGY PREDICTED BY IDOCK:   -4.04 KCAL/MOL
REMARK 924 INTRA-LIGAND FREE ENERGY PREDICTED BY IDOCK:   -0.07 KCAL/MOL
REMARK 927      BINDING AFFINITY PREDICTED BY RF-SCORE:    0.00 PKD
ROOT
HETATM    1  C   UNL     1      -9.962   5.541  67.054  1.00  0.00    -0.174 C  
HETATM    2  O   UNL     1     -10.108   4.319  66.985  1.00  0.00    -0.178 OA 
HETATM    3  CA  UNL     1     -10.916   6.427  67.838  1.00  0.00    -0.325 C  
ENDROOT
BRANCH   3   4
HETATM    4  N   UNL     1     -10.933   7.790  67.283  1.00  0.00    -0.524 N  
HETATM    5  C   UNL     1     -10.068   9.829  66.303  1.00  0.00    -0.313 C  
HETATM    6  O   UNL     1      -8.736   7.871  66.671  1.00  0.00    -0.130 OA 
HETATM    7  H   UNL     1     -11.820   8.296  67.276  1.00  0.00     0.000 HD 
HETATM    8  C   UNL     1      -9.825   8.420  66.773  1.00  0.00    -0.259 C  
ENDBRANCH   3   4
BRANCH   3   9
HETATM    9  C   UNL     1     -10.637   6.377  69.358  1.00  0.00    -0.257 C  
HETATM   10  H   UNL     1      -9.053   6.095  70.460  1.00  0.00     0.000 HD 
HETATM   11  O   UNL     1      -9.225   6.126  69.526  1.00  0.00    -0.137 OA 
BRANCH   9  12
HETATM   12  C   UNL     1     -11.034   7.678  70.112  1.00  0.00    -0.246 C  
HETATM   13  H   UNL     1     -10.190   9.406  70.616  1.00  0.00     0.000 HD 
HETATM   14  O   UNL     1      -9.947   8.611  70.155  1.00  0.00    -0.177 OA 
BRANCH  12  15
HETATM   15  C   UNL     1     -11.541   7.396  71.542  1.00  0.00    -0.275 C  
HETATM   16  H   UNL     1     -13.140   6.593  72.344  1.00  0.00     0.000 HD 
HETATM   17  O   UNL     1     -12.828   6.767  71.464  1.00  0.00    -0.346 OA 
BRANCH  15  18
HETATM   18  C   UNL     1     -11.636   8.676  72.397  1.00  0.00    -0.315 C  
HETATM   19  O   UNL     1     -12.015   9.814  71.622  1.00  0.00    -0.383 OA 
HETATM   20  H   UNL     1     -12.073  10.603  72.148  1.00  0.00     0.000 HD 
ENDBRANCH  15  18
ENDBRANCH  12  15
ENDBRANCH   9  12
ENDBRANCH   3   9
TORSDOF 5
ENDMDL
MODEL      251
REMARK 921   NORMALIZED FREE ENERGY PREDICTED BY IDOCK:   -2.63 KCAL/MOL
REMARK 922        TOTAL FREE ENERGY PREDICTED BY IDOCK:   -4.09 KCAL/MOL
REMARK 923 INTER-LIGAND FREE ENERGY PREDICTED BY IDOCK:   -3.66 KCAL/MOL
REMARK 924 INTRA-LIGAND FREE ENERGY PREDICTED BY IDOCK:   -0.43 KCAL/MOL
REMARK 927      BINDING AFFINITY PREDICTED BY RF-SCORE:    0.00 PKD
ROOT
HETATM    1  C   UNL     1      -8.605  13.135  68.207  1.00  0.00    -0.166 C  
HETATM    2  O   UNL     1      -8.012  13.600  67.232  1.00  0.00    -0.166 OA 
HETATM    3  CA  UNL     1      -9.729  12.121  68.062  1.00  0.00    -0.203 C  
ENDROOT
BRANCH   3   4
HETATM    4  N   UNL     1     -10.653  12.204  69.206  1.00  0.00    -0.439 N  
HETATM    5  C   UNL     1     -12.319  13.153  70.686  1.00  0.00    -0.405 C  
HETATM    6  O   UNL     1     -11.606  14.201  68.651  1.00  0.00    -0.278 OA 
HETATM    7  H   UNL     1     -10.666  11.429  69.870  1.00  0.00     0.000 HD 
HETATM    8  C   UNL     1     -11.497  13.263  69.428  1.00  0.00    -0.263 C  
ENDBRANCH   3   4
BRANCH   3   9
HETATM    9  C   UNL     1      -9.192  10.695  67.797  1.00  0.00    -0.146 C  
HETATM   10  H   UNL     1      -8.536   9.239  68.915  1.00  0.00     0.000 HD 
HETATM   11  O   UNL     1      -8.867  10.115  69.079  1.00  0.00    -0.145 OA 
BRANCH   9  12
HETATM   12  C   UNL     1     -10.194   9.778  67.041  1.00  0.00    -0.229 C  
HETATM   13  H   UNL     1     -12.149   9.413  67.045  1.00  0.00     0.000 HD 
HETATM   14  O   UNL     1     -11.536   9.973  67.507  1.00  0.00    -0.163 OA 
BRANCH  12  15
HETATM   15  C   UNL     1      -9.816   8.286  67.144  1.00  0.00    -0.217 C  
HETATM   16  H   UNL     1      -9.140   6.910  65.920  1.00  0.00     0.000 HD 
HETATM   17  O   UNL     1      -9.373   7.829  65.857  1.00  0.00    -0.095 OA 
BRANCH  15  18
HETATM   18  C   UNL     1     -10.989   7.412  67.633  1.00  0.00    -0.066 C  
HETATM   19  O   UNL     1     -11.259   6.326  66.746  1.00  0.00    -0.683 OA 
HETATM   20  H   UNL     1     -11.981   5.788  67.048  1.00  0.00     0.000 HD 
ENDBRANCH  15  18
ENDBRANCH  12  15
ENDBRANCH   9  12
ENDBRANCH   3   9
TORSDOF 5
ENDMDL
MODEL      252
REMARK 921   NORMALIZED FREE ENERGY PREDICTED BY IDOCK:   -2.63 KCAL/MOL
REMARK 922        TOTAL FREE ENERGY PREDICTED BY IDOCK:   -4.08 KCAL/MOL
REMARK 923 INTER-LIGAND FREE ENERGY PREDICTED BY IDOCK:   -3.98 KCAL/MOL
REMARK 924 INTRA-LIGAND FREE ENERGY PREDICTED BY IDOCK:   -0.10 KCAL/MOL
REMARK 927      BINDING AFFINITY PREDICTED BY RF-SCORE:    0.00 PKD
ROOT
HETATM    1  C   UNL     1      -7.665  14.190  67.588  1.00  0.00    -0.174 C  
HETATM    2  O   UNL     1      -6.495  13.903  67.327  1.00  0.00    -0.282 OA 
HETATM    3  CA  UNL     1      -8.082  14.733  68.945  1.00  0.00    -0.160 C  
ENDROOT
BRANCH   3   4
HETATM    4  N   UNL     1      -9.489  14.402  69.226  1.00  0.00    -0.405 N  
HETATM    5  C   UNL     1     -11.868  14.182  68.832  1.00  0.00    -0.382 C  
HETATM    6  O   UNL     1     -10.308  14.873  67.149  1.00  0.00    -0.255 OA 
HETATM    7  H   UNL     1      -9.724  14.055  70.157  1.00  0.00     0.000 HD 
HETATM    8  C   UNL     1     -10.501  14.535  68.309  1.00  0.00    -0.242 C  
ENDBRANCH   3   4
BRANCH   3   9
HETATM    9  C   UNL     1      -7.754  16.237  69.092  1.00  0.00    -0.229 C  
HETATM   10  H   UNL     1      -6.253  17.257  69.805  1.00  0.00     0.000 HD 
HETATM   11  O   UNL     1      -6.454  16.333  69.714  1.00  0.00    -0.205 OA 
BRANCH   9  12
HETATM   12  C   UNL     1      -7.752  17.014  67.745  1.00  0.00    -0.172 C  
HETATM   13  H   UNL     1      -6.418  17.691  66.435  1.00  0.00     0.000 HD 
HETATM   14  O   UNL     1      -6.419  17.216  67.259  1.00  0.00    -0.134 OA 
BRANCH  12  15
HETATM   15  C   UNL     1      -8.484  18.368  67.848  1.00  0.00    -0.261 C  
HETATM   16  H   UNL     1      -8.141  20.100  68.701  1.00  0.00     0.000 HD 
HETATM   17  O   UNL     1      -7.691  19.266  68.638  1.00  0.00    -0.334 OA 
BRANCH  15  18
HETATM   18  C   UNL     1      -9.891  18.233  68.464  1.00  0.00    -0.381 C  
HETATM   19  O   UNL     1     -10.869  17.850  67.496  1.00  0.00    -0.364 OA 
HETATM   20  H   UNL     1     -11.736  17.767  67.876  1.00  0.00     0.000 HD 
ENDBRANCH  15  18
ENDBRANCH  12  15
ENDBRANCH   9  12
ENDBRANCH   3   9
TORSDOF 5
ENDMDL
MODEL      253
REMARK 921   NORMALIZED FREE ENERGY PREDICTED BY IDOCK:   -2.62 KCAL/MOL
REMARK 922        TOTAL FREE ENERGY PREDICTED BY IDOCK:   -4.08 KCAL/MOL
REMARK 923 INTER-LIGAND FREE ENERGY PREDICTED BY IDOCK:   -3.29 KCAL/MOL
REMARK 924 INTRA-LIGAND FREE ENERGY PREDICTED BY IDOCK:   -0.79 KCAL/MOL
REMARK 927      BINDING AFFINITY PREDICTED BY RF-SCORE:    0.00 PKD
ROOT
HETATM    1  C   UNL     1     -10.507   6.812  67.829  1.00  0.00    -0.222 C  
HETATM    2  O   UNL     1     -11.361   6.536  66.984  1.00  0.00    -0.342 OA 
HETATM    3  CA  UNL     1      -9.736   8.121  67.802  1.00  0.00    -0.157 C  
ENDROOT
BRANCH   3   4
HETATM    4  N   UNL     1      -8.423   7.964  68.449  1.00  0.00    -0.128 N  
HETATM    5  C   UNL     1      -6.035   7.601  68.629  1.00  0.00    -0.031 C  
HETATM    6  O   UNL     1      -7.185   7.820  66.537  1.00  0.00    -0.082 OA 
HETATM    7  H   UNL     1      -8.383   7.986  69.469  1.00  0.00     0.000 HD 
HETATM    8  C   UNL     1      -7.249   7.788  67.759  1.00  0.00    -0.094 C  
ENDBRANCH   3   4
BRANCH   3   9
HETATM    9  C   UNL     1     -10.570   9.296  68.364  1.00  0.00    -0.190 C  
HETATM   10  H   UNL     1     -11.224   9.802  70.129  1.00  0.00     0.000 HD 
HETATM   11  O   UNL     1     -10.711   9.080  69.785  1.00  0.00    -0.225 OA 
BRANCH   9  12
HETATM   12  C   UNL     1      -9.940  10.694  68.103  1.00  0.00    -0.158 C  
HETATM   13  H   UNL     1      -8.372  11.744  68.730  1.00  0.00     0.000 HD 
HETATM   14  O   UNL     1      -8.757  10.890  68.889  1.00  0.00    -0.162 OA 
BRANCH  12  15
HETATM   15  C   UNL     1     -10.936  11.843  68.359  1.00  0.00    -0.232 C  
HETATM   16  H   UNL     1     -12.742  12.312  67.753  1.00  0.00     0.000 HD 
HETATM   17  O   UNL     1     -12.128  11.605  67.595  1.00  0.00    -0.615 OA 
BRANCH  15  18
HETATM   18  C   UNL     1     -10.351  13.223  67.996  1.00  0.00    -0.241 C  
HETATM   19  O   UNL     1      -9.580  13.778  69.062  1.00  0.00    -0.407 OA 
HETATM   20  H   UNL     1      -9.219  14.628  68.839  1.00  0.00     0.000 HD 
ENDBRANCH  15  18
ENDBRANCH  12  15
ENDBRANCH   9  12
ENDBRANCH   3   9
TORSDOF 5
ENDMDL
MODEL      254
REMARK 921   NORMALIZED FREE ENERGY PREDICTED BY IDOCK:   -2.62 KCAL/MOL
REMARK 922        TOTAL FREE ENERGY PREDICTED BY IDOCK:   -4.08 KCAL/MOL
REMARK 923 INTER-LIGAND FREE ENERGY PREDICTED BY IDOCK:   -3.80 KCAL/MOL
REMARK 924 INTRA-LIGAND FREE ENERGY PREDICTED BY IDOCK:   -0.28 KCAL/MOL
REMARK 927      BINDING AFFINITY PREDICTED BY RF-SCORE:    0.00 PKD
ROOT
HETATM    1  C   UNL     1      -9.700   8.899  69.478  1.00  0.00    -0.173 C  
HETATM    2  O   UNL     1      -9.431   8.176  68.516  1.00  0.00    -0.142 OA 
HETATM    3  CA  UNL     1     -11.005   8.768  70.247  1.00  0.00    -0.235 C  
ENDROOT
BRANCH   3   4
HETATM    4  N   UNL     1     -11.370  10.051  70.870  1.00  0.00    -0.346 N  
HETATM    5  C   UNL     1     -12.798  11.772  71.802  1.00  0.00    -0.403 C  
HETATM    6  O   UNL     1     -13.598   9.620  71.111  1.00  0.00    -0.340 OA 
HETATM    7  H   UNL     1     -10.627  10.727  71.051  1.00  0.00     0.000 HD 
HETATM    8  C   UNL     1     -12.653  10.390  71.221  1.00  0.00    -0.419 C  
ENDBRANCH   3   4
BRANCH   3   9
HETATM    9  C   UNL     1     -10.977   7.580  71.236  1.00  0.00    -0.242 C  
HETATM   10  H   UNL     1     -10.357   5.734  71.157  1.00  0.00     0.000 HD 
HETATM   11  O   UNL     1     -10.373   6.464  70.549  1.00  0.00    -0.192 OA 
BRANCH   9  12
HETATM   12  C   UNL     1     -10.199   7.875  72.549  1.00  0.00    -0.278 C  
HETATM   13  H   UNL     1      -8.704   9.044  73.146  1.00  0.00     0.000 HD 
HETATM   14  O   UNL     1      -9.180   8.863  72.344  1.00  0.00    -0.362 OA 
BRANCH  12  15
HETATM   15  C   UNL     1      -9.578   6.602  73.162  1.00  0.00    -0.152 C  
HETATM   16  H   UNL     1      -9.600   5.719  74.913  1.00  0.00     0.000 HD 
HETATM   17  O   UNL     1      -9.982   6.503  74.536  1.00  0.00    -0.315 OA 
BRANCH  15  18
HETATM   18  C   UNL     1      -8.039   6.593  73.067  1.00  0.00    -0.106 C  
HETATM   19  O   UNL     1      -7.583   6.424  71.724  1.00  0.00    -0.092 OA 
HETATM   20  H   UNL     1      -6.635   6.418  71.666  1.00  0.00     0.000 HD 
ENDBRANCH  15  18
ENDBRANCH  12  15
ENDBRANCH   9  12
ENDBRANCH   3   9
TORSDOF 5
ENDMDL
MODEL      255
REMARK 921   NORMALIZED FREE ENERGY PREDICTED BY IDOCK:   -2.62 KCAL/MOL
REMARK 922        TOTAL FREE ENERGY PREDICTED BY IDOCK:   -4.07 KCAL/MOL
REMARK 923 INTER-LIGAND FREE ENERGY PREDICTED BY IDOCK:   -3.63 KCAL/MOL
REMARK 924 INTRA-LIGAND FREE ENERGY PREDICTED BY IDOCK:   -0.44 KCAL/MOL
REMARK 927      BINDING AFFINITY PREDICTED BY RF-SCORE:    0.00 PKD
ROOT
HETATM    1  C   UNL     1      -9.666   4.802  70.759  1.00  0.00    -0.197 C  
HETATM    2  O   UNL     1     -10.231   3.958  71.458  1.00  0.00    -0.121 OA 
HETATM    3  CA  UNL     1     -10.434   5.732  69.835  1.00  0.00    -0.290 C  
ENDROOT
BRANCH   3   4
HETATM    4  N   UNL     1      -9.589   6.158  68.707  1.00  0.00    -0.124 N  
HETATM    5  C   UNL     1      -9.019   6.799  66.442  1.00  0.00    -0.165 C  
HETATM    6  O   UNL     1     -11.265   6.399  67.177  1.00  0.00    -0.370 OA 
HETATM    7  H   UNL     1      -8.587   6.261  68.869  1.00  0.00     0.000 HD 
HETATM    8  C   UNL     1     -10.072   6.424  67.450  1.00  0.00    -0.158 C  
ENDBRANCH   3   4
BRANCH   3   9
HETATM    9  C   UNL     1     -11.084   6.906  70.605  1.00  0.00    -0.278 C  
HETATM   10  H   UNL     1     -12.765   7.169  71.557  1.00  0.00     0.000 HD 
HETATM   11  O   UNL     1     -12.366   6.447  71.084  1.00  0.00    -0.217 OA 
BRANCH   9  12
HETATM   12  C   UNL     1     -10.230   7.424  71.796  1.00  0.00    -0.191 C  
HETATM   13  H   UNL     1     -10.395   7.576  73.772  1.00  0.00     0.000 HD 
HETATM   14  O   UNL     1     -10.917   7.260  73.044  1.00  0.00    -0.313 OA 
BRANCH  12  15
HETATM   15  C   UNL     1      -9.809   8.898  71.620  1.00  0.00    -0.317 C  
HETATM   16  H   UNL     1     -10.716  10.591  71.227  1.00  0.00     0.000 HD 
HETATM   17  O   UNL     1     -10.975   9.684  71.336  1.00  0.00    -0.360 OA 
BRANCH  15  18
HETATM   18  C   UNL     1      -8.767   9.083  70.498  1.00  0.00    -0.207 C  
HETATM   19  O   UNL     1      -8.571  10.459  70.167  1.00  0.00    -0.323 OA 
HETATM   20  H   UNL     1      -7.929  10.573  69.476  1.00  0.00     0.000 HD 
ENDBRANCH  15  18
ENDBRANCH  12  15
ENDBRANCH   9  12
ENDBRANCH   3   9
TORSDOF 5
ENDMDL
MODEL      256
REMARK 921   NORMALIZED FREE ENERGY PREDICTED BY IDOCK:   -2.61 KCAL/MOL
REMARK 922        TOTAL FREE ENERGY PREDICTED BY IDOCK:   -4.07 KCAL/MOL
REMARK 923 INTER-LIGAND FREE ENERGY PREDICTED BY IDOCK:   -2.98 KCAL/MOL
REMARK 924 INTRA-LIGAND FREE ENERGY PREDICTED BY IDOCK:   -1.09 KCAL/MOL
REMARK 927      BINDING AFFINITY PREDICTED BY RF-SCORE:    0.00 PKD
ROOT
HETATM    1  C   UNL     1     -11.152   6.881  67.132  1.00  0.00    -0.292 C  
HETATM    2  O   UNL     1     -10.720   5.731  67.241  1.00  0.00    -0.259 OA 
HETATM    3  CA  UNL     1     -10.271   8.099  67.351  1.00  0.00    -0.258 C  
ENDROOT
BRANCH   3   4
HETATM    4  N   UNL     1     -11.078   9.252  67.786  1.00  0.00    -0.478 N  
HETATM    5  C   UNL     1     -11.913  10.982  69.261  1.00  0.00    -0.410 C  
HETATM    6  O   UNL     1     -10.102   9.519  69.832  1.00  0.00    -0.202 OA 
HETATM    7  H   UNL     1     -11.770   9.627  67.137  1.00  0.00     0.000 HD 
HETATM    8  C   UNL     1     -10.952   9.849  69.016  1.00  0.00    -0.190 C  
ENDBRANCH   3   4
BRANCH   3   9
HETATM    9  C   UNL     1      -9.375   8.394  66.126  1.00  0.00    -0.201 C  
HETATM   10  H   UNL     1      -8.842  10.004  65.163  1.00  0.00     0.000 HD 
HETATM   11  O   UNL     1      -9.392   9.823  65.916  1.00  0.00    -0.173 OA 
BRANCH   9  12
HETATM   12  C   UNL     1      -7.909   7.903  66.288  1.00  0.00    -0.094 C  
HETATM   13  H   UNL     1      -6.777   6.400  65.644  1.00  0.00     0.000 HD 
HETATM   14  O   UNL     1      -7.674   6.700  65.545  1.00  0.00    -0.086 OA 
BRANCH  12  15
HETATM   15  C   UNL     1      -7.521   7.690  67.767  1.00  0.00    -0.108 C  
HETATM   16  H   UNL     1      -6.262   8.504  69.030  1.00  0.00     0.000 HD 
HETATM   17  O   UNL     1      -6.500   8.635  68.120  1.00  0.00    -0.058 OA 
BRANCH  15  18
HETATM   18  C   UNL     1      -7.027   6.257  68.046  1.00  0.00    -0.080 C  
HETATM   19  O   UNL     1      -8.099   5.314  68.082  1.00  0.00    -0.094 OA 
HETATM   20  H   UNL     1      -7.794   4.431  68.254  1.00  0.00     0.000 HD 
ENDBRANCH  15  18
ENDBRANCH  12  15
ENDBRANCH   9  12
ENDBRANCH   3   9
TORSDOF 5
ENDMDL
MODEL      257
REMARK 921   NORMALIZED FREE ENERGY PREDICTED BY IDOCK:   -2.61 KCAL/MOL
REMARK 922        TOTAL FREE ENERGY PREDICTED BY IDOCK:   -4.07 KCAL/MOL
REMARK 923 INTER-LIGAND FREE ENERGY PREDICTED BY IDOCK:   -4.58 KCAL/MOL
REMARK 924 INTRA-LIGAND FREE ENERGY PREDICTED BY IDOCK:    0.51 KCAL/MOL
REMARK 927      BINDING AFFINITY PREDICTED BY RF-SCORE:    0.00 PKD
ROOT
HETATM    1  C   UNL     1     -10.700  16.097  65.321  1.00  0.00    -0.368 C  
HETATM    2  O   UNL     1     -11.195  16.527  64.278  1.00  0.00    -0.992 OA 
HETATM    3  CA  UNL     1      -9.875  16.975  66.248  1.00  0.00    -0.294 C  
ENDROOT
BRANCH   3   4
HETATM    4  N   UNL     1      -8.916  16.163  67.015  1.00  0.00    -0.202 N  
HETATM    5  C   UNL     1      -6.767  15.329  67.760  1.00  0.00    -0.188 C  
HETATM    6  O   UNL     1      -7.018  17.159  66.232  1.00  0.00    -0.248 OA 
HETATM    7  H   UNL     1      -9.285  15.460  67.656  1.00  0.00     0.000 HD 
HETATM    8  C   UNL     1      -7.553  16.298  66.917  1.00  0.00    -0.244 C  
ENDBRANCH   3   4
BRANCH   3   9
HETATM    9  C   UNL     1     -10.764  17.885  67.127  1.00  0.00    -0.230 C  
HETATM   10  H   UNL     1     -10.850  18.306  69.029  1.00  0.00     0.000 HD 
HETATM   11  O   UNL     1     -10.303  17.747  68.489  1.00  0.00    -0.359 OA 
BRANCH   9  12
HETATM   12  C   UNL     1     -10.735  19.383  66.710  1.00  0.00    -0.448 C  
HETATM   13  H   UNL     1     -10.317  20.453  65.087  1.00  0.00     0.000 HD 
HETATM   14  O   UNL     1     -10.335  19.538  65.342  1.00  0.00    -0.392 OA 
BRANCH  12  15
HETATM   15  C   UNL     1      -9.823  20.229  67.622  1.00  0.00    -0.423 C  
HETATM   16  H   UNL     1      -8.154  19.942  68.611  1.00  0.00     0.000 HD 
HETATM   17  O   UNL     1      -8.716  19.422  68.050  1.00  0.00    -0.303 OA 
BRANCH  15  18
HETATM   18  C   UNL     1     -10.570  20.784  68.851  1.00  0.00     0.720 C  
HETATM   19  O   UNL     1     -10.297  20.032  70.034  1.00  0.00    -0.614 OA 
HETATM   20  H   UNL     1     -10.757  20.374  70.791  1.00  0.00     0.000 HD 
ENDBRANCH  15  18
ENDBRANCH  12  15
ENDBRANCH   9  12
ENDBRANCH   3   9
TORSDOF 5
ENDMDL
MODEL      258
REMARK 921   NORMALIZED FREE ENERGY PREDICTED BY IDOCK:   -2.61 KCAL/MOL
REMARK 922        TOTAL FREE ENERGY PREDICTED BY IDOCK:   -4.07 KCAL/MOL
REMARK 923 INTER-LIGAND FREE ENERGY PREDICTED BY IDOCK:   -3.55 KCAL/MOL
REMARK 924 INTRA-LIGAND FREE ENERGY PREDICTED BY IDOCK:   -0.51 KCAL/MOL
REMARK 927      BINDING AFFINITY PREDICTED BY RF-SCORE:    0.00 PKD
ROOT
HETATM    1  C   UNL     1     -10.430   6.557  67.854  1.00  0.00    -0.222 C  
HETATM    2  O   UNL     1     -11.386   6.521  67.077  1.00  0.00    -0.342 OA 
HETATM    3  CA  UNL     1     -10.001   7.838  68.551  1.00  0.00    -0.182 C  
ENDROOT
BRANCH   3   4
HETATM    4  N   UNL     1      -8.566   7.795  68.878  1.00  0.00    -0.132 N  
HETATM    5  C   UNL     1      -6.219   8.385  68.777  1.00  0.00    -0.045 C  
HETATM    6  O   UNL     1      -7.930   9.559  67.577  1.00  0.00    -0.105 OA 
HETATM    7  H   UNL     1      -8.246   7.095  69.548  1.00  0.00     0.000 HD 
HETATM    8  C   UNL     1      -7.634   8.642  68.332  1.00  0.00    -0.096 C  
ENDBRANCH   3   4
BRANCH   3   9
HETATM    9  C   UNL     1     -10.905   8.171  69.760  1.00  0.00    -0.190 C  
HETATM   10  H   UNL     1     -10.741   7.994  71.694  1.00  0.00     0.000 HD 
HETATM   11  O   UNL     1     -10.185   7.789  70.952  1.00  0.00    -0.198 OA 
BRANCH   9  12
HETATM   12  C   UNL     1     -11.310   9.670  69.846  1.00  0.00    -0.159 C  
HETATM   13  H   UNL     1     -10.412  11.443  69.823  1.00  0.00     0.000 HD 
HETATM   14  O   UNL     1     -10.164  10.527  69.771  1.00  0.00    -0.213 OA 
BRANCH  12  15
HETATM   15  C   UNL     1     -12.119   9.987  71.121  1.00  0.00    -0.380 C  
HETATM   16  H   UNL     1     -13.670   9.215  72.041  1.00  0.00     0.000 HD 
HETATM   17  O   UNL     1     -13.173   9.021  71.256  1.00  0.00    -0.301 OA 
BRANCH  15  18
HETATM   18  C   UNL     1     -12.714  11.409  71.104  1.00  0.00    -0.377 C  
HETATM   19  O   UNL     1     -13.468  11.693  72.283  1.00  0.00    -0.610 OA 
HETATM   20  H   UNL     1     -13.834  12.569  72.272  1.00  0.00     0.000 HD 
ENDBRANCH  15  18
ENDBRANCH  12  15
ENDBRANCH   9  12
ENDBRANCH   3   9
TORSDOF 5
ENDMDL
MODEL      259
REMARK 921   NORMALIZED FREE ENERGY PREDICTED BY IDOCK:   -2.60 KCAL/MOL
REMARK 922        TOTAL FREE ENERGY PREDICTED BY IDOCK:   -4.05 KCAL/MOL
REMARK 923 INTER-LIGAND FREE ENERGY PREDICTED BY IDOCK:   -3.44 KCAL/MOL
REMARK 924 INTRA-LIGAND FREE ENERGY PREDICTED BY IDOCK:   -0.61 KCAL/MOL
REMARK 927      BINDING AFFINITY PREDICTED BY RF-SCORE:    0.00 PKD
ROOT
HETATM    1  C   UNL     1      -7.731   6.997  70.044  1.00  0.00    -0.104 C  
HETATM    2  O   UNL     1      -7.103   6.614  71.033  1.00  0.00    -0.069 OA 
HETATM    3  CA  UNL     1      -9.242   7.156  70.057  1.00  0.00    -0.144 C  
ENDROOT
BRANCH   3   4
HETATM    4  N   UNL     1      -9.793   6.994  68.701  1.00  0.00    -0.145 N  
HETATM    5  C   UNL     1     -10.480   5.859  66.675  1.00  0.00    -0.310 C  
HETATM    6  O   UNL     1      -9.686   4.715  68.627  1.00  0.00    -0.155 OA 
HETATM    7  H   UNL     1     -10.084   7.832  68.197  1.00  0.00     0.000 HD 
HETATM    8  C   UNL     1      -9.938   5.780  68.077  1.00  0.00    -0.144 C  
ENDBRANCH   3   4
BRANCH   3   9
HETATM    9  C   UNL     1      -9.681   8.464  70.756  1.00  0.00    -0.176 C  
HETATM   10  H   UNL     1      -9.008  10.293  70.805  1.00  0.00     0.000 HD 
HETATM   11  O   UNL     1      -8.738   9.490  70.376  1.00  0.00    -0.217 OA 
BRANCH   9  12
HETATM   12  C   UNL     1     -11.124   8.915  70.394  1.00  0.00    -0.239 C  
HETATM   13  H   UNL     1     -11.999  10.219  69.173  1.00  0.00     0.000 HD 
HETATM   14  O   UNL     1     -11.117   9.943  69.395  1.00  0.00    -0.232 OA 
BRANCH  12  15
HETATM   15  C   UNL     1     -11.918   9.389  71.629  1.00  0.00    -0.393 C  
HETATM   16  H   UNL     1     -12.849   8.532  73.127  1.00  0.00     0.000 HD 
HETATM   17  O   UNL     1     -12.360   8.241  72.367  1.00  0.00    -0.353 OA 
BRANCH  15  18
HETATM   18  C   UNL     1     -13.130  10.265  71.250  1.00  0.00    -0.398 C  
HETATM   19  O   UNL     1     -12.752  11.613  70.965  1.00  0.00    -0.356 OA 
HETATM   20  H   UNL     1     -13.498  12.152  70.732  1.00  0.00     0.000 HD 
ENDBRANCH  15  18
ENDBRANCH  12  15
ENDBRANCH   9  12
ENDBRANCH   3   9
TORSDOF 5
ENDMDL
MODEL      260
REMARK 921   NORMALIZED FREE ENERGY PREDICTED BY IDOCK:   -2.58 KCAL/MOL
REMARK 922        TOTAL FREE ENERGY PREDICTED BY IDOCK:   -4.03 KCAL/MOL
REMARK 923 INTER-LIGAND FREE ENERGY PREDICTED BY IDOCK:   -3.66 KCAL/MOL
REMARK 924 INTRA-LIGAND FREE ENERGY PREDICTED BY IDOCK:   -0.37 KCAL/MOL
REMARK 927      BINDING AFFINITY PREDICTED BY RF-SCORE:    0.00 PKD
ROOT
HETATM    1  C   UNL     1      -9.280  11.130  65.550  1.00  0.00    -0.216 C  
HETATM    2  O   UNL     1      -8.545  10.289  66.072  1.00  0.00    -0.137 OA 
HETATM    3  CA  UNL     1     -10.615  11.528  66.158  1.00  0.00    -0.266 C  
ENDROOT
BRANCH   3   4
HETATM    4  N   UNL     1     -11.539  12.006  65.116  1.00  0.00    -0.308 N  
HETATM    5  C   UNL     1     -12.308  13.286  63.210  1.00  0.00    -0.317 C  
HETATM    6  O   UNL     1     -10.049  13.335  64.010  1.00  0.00    -0.337 OA 
HETATM    7  H   UNL     1     -12.494  11.648  65.120  1.00  0.00     0.000 HD 
HETATM    8  C   UNL     1     -11.188  12.905  64.141  1.00  0.00    -0.389 C  
ENDBRANCH   3   4
BRANCH   3   9
HETATM    9  C   UNL     1     -10.443  12.513  67.338  1.00  0.00    -0.219 C  
HETATM   10  H   UNL     1     -11.493  13.983  68.070  1.00  0.00     0.000 HD 
HETATM   11  O   UNL     1     -11.599  13.378  67.346  1.00  0.00    -0.314 OA 
BRANCH   9  12
HETATM   12  C   UNL     1     -10.296  11.817  68.720  1.00  0.00    -0.179 C  
HETATM   13  H   UNL     1      -8.839  11.058  69.841  1.00  0.00     0.000 HD 
HETATM   14  O   UNL     1      -8.929  11.484  68.996  1.00  0.00    -0.022 OA 
BRANCH  12  15
HETATM   15  C   UNL     1     -11.177  10.557  68.840  1.00  0.00    -0.266 C  
HETATM   16  H   UNL     1     -12.747  10.022  69.886  1.00  0.00     0.000 HD 
HETATM   17  O   UNL     1     -12.204  10.798  69.813  1.00  0.00    -0.323 OA 
BRANCH  15  18
HETATM   18  C   UNL     1     -10.367   9.305  69.235  1.00  0.00    -0.215 C  
HETATM   19  O   UNL     1      -9.685   8.731  68.119  1.00  0.00    -0.150 OA 
HETATM   20  H   UNL     1      -9.186   7.961  68.362  1.00  0.00     0.000 HD 
ENDBRANCH  15  18
ENDBRANCH  12  15
ENDBRANCH   9  12
ENDBRANCH   3   9
TORSDOF 5
ENDMDL
MODEL      261
REMARK 921   NORMALIZED FREE ENERGY PREDICTED BY IDOCK:   -2.57 KCAL/MOL
REMARK 922        TOTAL FREE ENERGY PREDICTED BY IDOCK:   -4.02 KCAL/MOL
REMARK 923 INTER-LIGAND FREE ENERGY PREDICTED BY IDOCK:   -3.29 KCAL/MOL
REMARK 924 INTRA-LIGAND FREE ENERGY PREDICTED BY IDOCK:   -0.73 KCAL/MOL
REMARK 927      BINDING AFFINITY PREDICTED BY RF-SCORE:    0.00 PKD
ROOT
HETATM    1  C   UNL     1     -10.070   7.141  68.842  1.00  0.00    -0.177 C  
HETATM    2  O   UNL     1     -10.078   6.235  68.007  1.00  0.00    -0.133 OA 
HETATM    3  CA  UNL     1     -10.188   6.868  70.333  1.00  0.00    -0.192 C  
ENDROOT
BRANCH   3   4
HETATM    4  N   UNL     1     -10.775   8.026  71.028  1.00  0.00    -0.218 N  
HETATM    5  C   UNL     1     -12.479   9.395  72.069  1.00  0.00    -0.440 C  
HETATM    6  O   UNL     1     -12.873   7.166  71.281  1.00  0.00    -0.380 OA 
HETATM    7  H   UNL     1     -10.169   8.821  71.232  1.00  0.00     0.000 HD 
HETATM    8  C   UNL     1     -12.089   8.096  71.416  1.00  0.00    -0.297 C  
ENDBRANCH   3   4
BRANCH   3   9
HETATM    9  C   UNL     1      -8.850   6.388  70.942  1.00  0.00    -0.136 C  
HETATM   10  H   UNL     1      -6.968   6.615  70.487  1.00  0.00     0.000 HD 
HETATM   11  O   UNL     1      -7.790   6.911  70.113  1.00  0.00    -0.102 OA 
BRANCH   9  12
HETATM   12  C   UNL     1      -8.636   6.835  72.416  1.00  0.00    -0.123 C  
HETATM   13  H   UNL     1      -7.169   7.584  73.530  1.00  0.00     0.000 HD 
HETATM   14  O   UNL     1      -7.300   7.310  72.630  1.00  0.00    -0.074 OA 
BRANCH  12  15
HETATM   15  C   UNL     1      -8.961   5.713  73.423  1.00  0.00    -0.129 C  
HETATM   16  H   UNL     1      -9.184   3.766  73.348  1.00  0.00     0.000 HD 
HETATM   17  O   UNL     1      -8.984   4.457  72.728  1.00  0.00    -0.113 OA 
BRANCH  15  18
HETATM   18  C   UNL     1     -10.307   5.937  74.142  1.00  0.00    -0.284 C  
HETATM   19  O   UNL     1     -11.419   5.546  73.337  1.00  0.00    -0.490 OA 
HETATM   20  H   UNL     1     -12.248   5.684  73.780  1.00  0.00     0.000 HD 
ENDBRANCH  15  18
ENDBRANCH  12  15
ENDBRANCH   9  12
ENDBRANCH   3   9
TORSDOF 5
ENDMDL
MODEL      262
REMARK 921   NORMALIZED FREE ENERGY PREDICTED BY IDOCK:   -2.57 KCAL/MOL
REMARK 922        TOTAL FREE ENERGY PREDICTED BY IDOCK:   -4.02 KCAL/MOL
REMARK 923 INTER-LIGAND FREE ENERGY PREDICTED BY IDOCK:   -3.48 KCAL/MOL
REMARK 924 INTRA-LIGAND FREE ENERGY PREDICTED BY IDOCK:   -0.54 KCAL/MOL
REMARK 927      BINDING AFFINITY PREDICTED BY RF-SCORE:    0.00 PKD
ROOT
HETATM    1  C   UNL     1      -9.425  17.792  66.272  1.00  0.00    -0.217 C  
HETATM    2  O   UNL     1     -10.569  17.338  66.215  1.00  0.00    -0.286 OA 
HETATM    3  CA  UNL     1      -8.402  17.285  67.276  1.00  0.00    -0.201 C  
ENDROOT
BRANCH   3   4
HETATM    4  N   UNL     1      -7.413  18.332  67.583  1.00  0.00    -0.214 N  
HETATM    5  C   UNL     1      -6.525  20.375  68.534  1.00  0.00    -0.330 C  
HETATM    6  O   UNL     1      -8.725  19.547  69.003  1.00  0.00    -0.339 OA 
HETATM    7  H   UNL     1      -6.486  18.255  67.166  1.00  0.00     0.000 HD 
HETATM    8  C   UNL     1      -7.669  19.406  68.399  1.00  0.00    -0.328 C  
ENDBRANCH   3   4
BRANCH   3   9
HETATM    9  C   UNL     1      -7.772  15.944  66.833  1.00  0.00    -0.233 C  
HETATM   10  H   UNL     1      -5.959  15.328  66.466  1.00  0.00     0.000 HD 
HETATM   11  O   UNL     1      -6.346  16.152  66.739  1.00  0.00    -0.296 OA 
BRANCH   9  12
HETATM   12  C   UNL     1      -8.069  14.762  67.799  1.00  0.00    -0.152 C  
HETATM   13  H   UNL     1      -7.042  13.437  68.867  1.00  0.00     0.000 HD 
HETATM   14  O   UNL     1      -6.860  14.160  68.277  1.00  0.00    -0.085 OA 
BRANCH  12  15
HETATM   15  C   UNL     1      -8.970  13.689  67.153  1.00  0.00    -0.231 C  
HETATM   16  H   UNL     1     -10.883  13.493  66.767  1.00  0.00     0.000 HD 
HETATM   17  O   UNL     1     -10.328  14.153  67.165  1.00  0.00    -0.262 OA 
BRANCH  15  18
HETATM   18  C   UNL     1      -8.876  12.329  67.873  1.00  0.00    -0.178 C  
HETATM   19  O   UNL     1      -7.813  11.522  67.363  1.00  0.00    -0.128 OA 
HETATM   20  H   UNL     1      -7.755  10.684  67.806  1.00  0.00     0.000 HD 
ENDBRANCH  15  18
ENDBRANCH  12  15
ENDBRANCH   9  12
ENDBRANCH   3   9
TORSDOF 5
ENDMDL
MODEL      263
REMARK 921   NORMALIZED FREE ENERGY PREDICTED BY IDOCK:   -2.55 KCAL/MOL
REMARK 922        TOTAL FREE ENERGY PREDICTED BY IDOCK:   -3.99 KCAL/MOL
REMARK 923 INTER-LIGAND FREE ENERGY PREDICTED BY IDOCK:   -3.32 KCAL/MOL
REMARK 924 INTRA-LIGAND FREE ENERGY PREDICTED BY IDOCK:   -0.67 KCAL/MOL
REMARK 927      BINDING AFFINITY PREDICTED BY RF-SCORE:    0.00 PKD
ROOT
HETATM    1  C   UNL     1      -7.307  10.252  66.535  1.00  0.00    -0.113 C  
HETATM    2  O   UNL     1      -6.938   9.225  65.962  1.00  0.00    -0.086 OA 
HETATM    3  CA  UNL     1      -8.709  10.402  67.102  1.00  0.00    -0.129 C  
ENDROOT
BRANCH   3   4
HETATM    4  N   UNL     1      -9.103  11.821  67.142  1.00  0.00    -0.170 N  
HETATM    5  C   UNL     1      -9.981  13.933  66.346  1.00  0.00    -0.303 C  
HETATM    6  O   UNL     1     -10.046  11.907  65.066  1.00  0.00    -0.254 OA 
HETATM    7  H   UNL     1      -8.912  12.349  67.994  1.00  0.00     0.000 HD 
HETATM    8  C   UNL     1      -9.711  12.472  66.098  1.00  0.00    -0.254 C  
ENDBRANCH   3   4
BRANCH   3   9
HETATM    9  C   UNL     1      -8.867   9.673  68.456  1.00  0.00    -0.124 C  
HETATM   10  H   UNL     1      -8.278  10.016  70.283  1.00  0.00     0.000 HD 
HETATM   11  O   UNL     1      -8.181  10.464  69.451  1.00  0.00    -0.157 OA 
BRANCH   9  12
HETATM   12  C   UNL     1     -10.347   9.458  68.883  1.00  0.00    -0.213 C  
HETATM   13  H   UNL     1     -12.159   9.770  68.128  1.00  0.00     0.000 HD 
HETATM   14  O   UNL     1     -11.255   9.902  67.867  1.00  0.00    -0.226 OA 
BRANCH  12  15
HETATM   15  C   UNL     1     -10.678  10.150  70.222  1.00  0.00    -0.293 C  
HETATM   16  H   UNL     1     -11.210   9.573  72.019  1.00  0.00     0.000 HD 
HETATM   17  O   UNL     1     -11.006   9.147  71.195  1.00  0.00    -0.265 OA 
BRANCH  15  18
HETATM   18  C   UNL     1     -11.841  11.155  70.094  1.00  0.00    -0.365 C  
HETATM   19  O   UNL     1     -12.888  10.889  71.028  1.00  0.00    -0.368 OA 
HETATM   20  H   UNL     1     -13.604  11.508  70.950  1.00  0.00     0.000 HD 
ENDBRANCH  15  18
ENDBRANCH  12  15
ENDBRANCH   9  12
ENDBRANCH   3   9
TORSDOF 5
ENDMDL
MODEL      264
REMARK 921   NORMALIZED FREE ENERGY PREDICTED BY IDOCK:   -2.55 KCAL/MOL
REMARK 922        TOTAL FREE ENERGY PREDICTED BY IDOCK:   -3.99 KCAL/MOL
REMARK 923 INTER-LIGAND FREE ENERGY PREDICTED BY IDOCK:   -3.42 KCAL/MOL
REMARK 924 INTRA-LIGAND FREE ENERGY PREDICTED BY IDOCK:   -0.57 KCAL/MOL
REMARK 927      BINDING AFFINITY PREDICTED BY RF-SCORE:    0.00 PKD
ROOT
HETATM    1  C   UNL     1     -11.950  13.858  65.919  1.00  0.00    -0.407 C  
HETATM    2  O   UNL     1     -12.309  14.995  65.609  1.00  0.00     0.035 OA 
HETATM    3  CA  UNL     1     -10.573  13.573  66.497  1.00  0.00    -0.281 C  
ENDROOT
BRANCH   3   4
HETATM    4  N   UNL     1     -10.158  12.193  66.193  1.00  0.00    -0.223 N  
HETATM    5  C   UNL     1      -9.486  10.292  64.852  1.00  0.00    -0.337 C  
HETATM    6  O   UNL     1      -9.799  12.495  63.959  1.00  0.00    -0.245 OA 
HETATM    7  H   UNL     1     -10.105  11.526  66.963  1.00  0.00     0.000 HD 
HETATM    8  C   UNL     1      -9.837  11.754  64.933  1.00  0.00    -0.223 C  
ENDBRANCH   3   4
BRANCH   3   9
HETATM    9  C   UNL     1     -10.490  13.932  67.998  1.00  0.00    -0.243 C  
HETATM   10  H   UNL     1      -9.984  12.974  69.619  1.00  0.00     0.000 HD 
HETATM   11  O   UNL     1     -10.035  12.753  68.696  1.00  0.00    -0.190 OA 
BRANCH   9  12
HETATM   12  C   UNL     1      -9.541  15.125  68.306  1.00  0.00    -0.211 C  
HETATM   13  H   UNL     1      -9.596  17.111  68.223  1.00  0.00     0.000 HD 
HETATM   14  O   UNL     1     -10.176  16.382  68.035  1.00  0.00    -0.248 OA 
BRANCH  12  15
HETATM   15  C   UNL     1      -8.210  15.032  67.532  1.00  0.00    -0.182 C  
HETATM   16  H   UNL     1      -6.312  14.869  67.997  1.00  0.00     0.000 HD 
HETATM   17  O   UNL     1      -7.131  14.927  68.474  1.00  0.00    -0.100 OA 
BRANCH  15  18
HETATM   18  C   UNL     1      -7.980  16.244  66.607  1.00  0.00    -0.289 C  
HETATM   19  O   UNL     1      -8.869  16.245  65.490  1.00  0.00    -0.277 OA 
HETATM   20  H   UNL     1      -8.728  16.991  64.920  1.00  0.00     0.000 HD 
ENDBRANCH  15  18
ENDBRANCH  12  15
ENDBRANCH   9  12
ENDBRANCH   3   9
TORSDOF 5
ENDMDL
MODEL      265
REMARK 921   NORMALIZED FREE ENERGY PREDICTED BY IDOCK:   -2.55 KCAL/MOL
REMARK 922        TOTAL FREE ENERGY PREDICTED BY IDOCK:   -3.98 KCAL/MOL
REMARK 923 INTER-LIGAND FREE ENERGY PREDICTED BY IDOCK:   -3.25 KCAL/MOL
REMARK 924 INTRA-LIGAND FREE ENERGY PREDICTED BY IDOCK:   -0.74 KCAL/MOL
REMARK 927      BINDING AFFINITY PREDICTED BY RF-SCORE:    0.00 PKD
ROOT
HETATM    1  C   UNL     1     -11.361  10.496  67.838  1.00  0.00    -0.222 C  
HETATM    2  O   UNL     1     -11.642  11.164  66.841  1.00  0.00    -0.428 OA 
HETATM    3  CA  UNL     1     -10.439   9.290  67.769  1.00  0.00    -0.255 C  
ENDROOT
BRANCH   3   4
HETATM    4  N   UNL     1     -10.750   8.338  68.849  1.00  0.00    -0.404 N  
HETATM    5  C   UNL     1     -11.248   6.211  69.896  1.00  0.00    -0.484 C  
HETATM    6  O   UNL     1     -10.679   6.443  67.579  1.00  0.00    -0.238 OA 
HETATM    7  H   UNL     1     -10.875   8.705  69.793  1.00  0.00     0.000 HD 
HETATM    8  C   UNL     1     -10.882   6.985  68.657  1.00  0.00    -0.147 C  
ENDBRANCH   3   4
BRANCH   3   9
HETATM    9  C   UNL     1      -8.950   9.701  67.712  1.00  0.00    -0.118 C  
HETATM   10  H   UNL     1      -7.500   9.815  69.010  1.00  0.00     0.000 HD 
HETATM   11  O   UNL     1      -8.415   9.562  69.046  1.00  0.00    -0.119 OA 
BRANCH   9  12
HETATM   12  C   UNL     1      -8.105   8.859  66.714  1.00  0.00    -0.111 C  
HETATM   13  H   UNL     1      -6.318   8.958  65.847  1.00  0.00     0.000 HD 
HETATM   14  O   UNL     1      -6.835   9.472  66.456  1.00  0.00    -0.081 OA 
BRANCH  12  15
HETATM   15  C   UNL     1      -8.845   8.607  65.384  1.00  0.00    -0.155 C  
HETATM   16  H   UNL     1      -8.641   7.391  63.860  1.00  0.00     0.000 HD 
HETATM   17  O   UNL     1      -8.185   7.546  64.678  1.00  0.00    -0.126 OA 
BRANCH  15  18
HETATM   18  C   UNL     1      -8.908   9.867  64.497  1.00  0.00    -0.209 C  
HETATM   19  O   UNL     1      -7.683  10.097  63.800  1.00  0.00    -0.149 OA 
HETATM   20  H   UNL     1      -7.722  10.872  63.254  1.00  0.00     0.000 HD 
ENDBRANCH  15  18
ENDBRANCH  12  15
ENDBRANCH   9  12
ENDBRANCH   3   9
TORSDOF 5
ENDMDL
MODEL      266
REMARK 921   NORMALIZED FREE ENERGY PREDICTED BY IDOCK:   -2.51 KCAL/MOL
REMARK 922        TOTAL FREE ENERGY PREDICTED BY IDOCK:   -3.93 KCAL/MOL
REMARK 923 INTER-LIGAND FREE ENERGY PREDICTED BY IDOCK:   -2.91 KCAL/MOL
REMARK 924 INTRA-LIGAND FREE ENERGY PREDICTED BY IDOCK:   -1.02 KCAL/MOL
REMARK 927      BINDING AFFINITY PREDICTED BY RF-SCORE:    0.00 PKD
ROOT
HETATM    1  C   UNL     1     -10.932   7.174  67.378  1.00  0.00    -0.226 C  
HETATM    2  O   UNL     1     -11.264   6.188  66.717  1.00  0.00    -0.279 OA 
HETATM    3  CA  UNL     1     -10.198   7.049  68.703  1.00  0.00    -0.176 C  
ENDROOT
BRANCH   3   4
HETATM    4  N   UNL     1     -10.472   8.215  69.560  1.00  0.00    -0.226 N  
HETATM    5  C   UNL     1     -11.516   9.520  71.313  1.00  0.00    -0.447 C  
HETATM    6  O   UNL     1     -11.957   7.191  70.959  1.00  0.00    -0.320 OA 
HETATM    7  H   UNL     1      -9.971   9.082  69.367  1.00  0.00     0.000 HD 
HETATM    8  C   UNL     1     -11.363   8.201  70.604  1.00  0.00    -0.249 C  
ENDBRANCH   3   4
BRANCH   3   9
HETATM    9  C   UNL     1      -8.692   6.761  68.506  1.00  0.00    -0.124 C  
HETATM   10  H   UNL     1      -7.139   7.826  68.004  1.00  0.00     0.000 HD 
HETATM   11  O   UNL     1      -8.064   8.004  68.125  1.00  0.00    -0.125 OA 
BRANCH   9  12
HETATM   12  C   UNL     1      -7.993   6.183  69.770  1.00  0.00    -0.110 C  
HETATM   13  H   UNL     1      -8.521   5.453  71.542  1.00  0.00     0.000 HD 
HETATM   14  O   UNL     1      -8.948   5.806  70.770  1.00  0.00    -0.144 OA 
BRANCH  12  15
HETATM   15  C   UNL     1      -6.964   7.163  70.370  1.00  0.00    -0.058 C  
HETATM   16  H   UNL     1      -5.132   7.043  71.060  1.00  0.00     0.000 HD 
HETATM   17  O   UNL     1      -5.766   6.440  70.690  1.00  0.00    -0.021 OA 
BRANCH  15  18
HETATM   18  C   UNL     1      -7.495   7.878  71.629  1.00  0.00    -0.072 C  
HETATM   19  O   UNL     1      -7.907   9.217  71.355  1.00  0.00    -0.335 OA 
HETATM   20  H   UNL     1      -8.235   9.657  72.130  1.00  0.00     0.000 HD 
ENDBRANCH  15  18
ENDBRANCH  12  15
ENDBRANCH   9  12
ENDBRANCH   3   9
TORSDOF 5
ENDMDL
MODEL      267
REMARK 921   NORMALIZED FREE ENERGY PREDICTED BY IDOCK:   -2.50 KCAL/MOL
REMARK 922        TOTAL FREE ENERGY PREDICTED BY IDOCK:   -3.93 KCAL/MOL
REMARK 923 INTER-LIGAND FREE ENERGY PREDICTED BY IDOCK:   -3.65 KCAL/MOL
REMARK 924 INTRA-LIGAND FREE ENERGY PREDICTED BY IDOCK:   -0.28 KCAL/MOL
REMARK 927      BINDING AFFINITY PREDICTED BY RF-SCORE:    0.00 PKD
ROOT
HETATM    1  C   UNL     1     -11.080  10.487  69.841  1.00  0.00    -0.307 C  
HETATM    2  O   UNL     1     -12.183  10.557  70.388  1.00  0.00    -0.290 OA 
HETATM    3  CA  UNL     1     -10.912  10.627  68.337  1.00  0.00    -0.251 C  
ENDROOT
BRANCH   3   4
HETATM    4  N   UNL     1      -9.711   9.909  67.880  1.00  0.00    -0.139 N  
HETATM    5  C   UNL     1      -8.374   8.073  67.038  1.00  0.00    -0.116 C  
HETATM    6  O   UNL     1     -10.759   7.981  67.252  1.00  0.00    -0.300 OA 
HETATM    7  H   UNL     1      -8.815  10.396  67.919  1.00  0.00     0.000 HD 
HETATM    8  C   UNL     1      -9.727   8.621  67.405  1.00  0.00    -0.175 C  
ENDBRANCH   3   4
BRANCH   3   9
HETATM    9  C   UNL     1     -10.965  12.104  67.883  1.00  0.00    -0.229 C  
HETATM   10  H   UNL     1     -11.106  13.822  68.795  1.00  0.00     0.000 HD 
HETATM   11  O   UNL     1     -11.073  12.915  69.074  1.00  0.00    -0.251 OA 
BRANCH   9  12
HETATM   12  C   UNL     1      -9.728  12.550  67.053  1.00  0.00    -0.213 C  
HETATM   13  H   UNL     1      -7.827  13.029  67.382  1.00  0.00     0.000 HD 
HETATM   14  O   UNL     1      -8.583  12.757  67.889  1.00  0.00    -0.160 OA 
BRANCH  12  15
HETATM   15  C   UNL     1     -10.007  13.819  66.221  1.00  0.00    -0.305 C  
HETATM   16  H   UNL     1      -9.325  15.658  66.175  1.00  0.00     0.000 HD 
HETATM   17  O   UNL     1      -9.154  14.876  66.687  1.00  0.00    -0.252 OA 
BRANCH  15  18
HETATM   18  C   UNL     1     -11.481  14.264  66.299  1.00  0.00    -0.357 C  
HETATM   19  O   UNL     1     -11.719  15.152  67.392  1.00  0.00    -0.306 OA 
HETATM   20  H   UNL     1     -12.627  15.426  67.440  1.00  0.00     0.000 HD 
ENDBRANCH  15  18
ENDBRANCH  12  15
ENDBRANCH   9  12
ENDBRANCH   3   9
TORSDOF 5
ENDMDL
MODEL      268
REMARK 921   NORMALIZED FREE ENERGY PREDICTED BY IDOCK:   -2.50 KCAL/MOL
REMARK 922        TOTAL FREE ENERGY PREDICTED BY IDOCK:   -3.92 KCAL/MOL
REMARK 923 INTER-LIGAND FREE ENERGY PREDICTED BY IDOCK:   -3.68 KCAL/MOL
REMARK 924 INTRA-LIGAND FREE ENERGY PREDICTED BY IDOCK:   -0.24 KCAL/MOL
REMARK 927      BINDING AFFINITY PREDICTED BY RF-SCORE:    0.00 PKD
ROOT
HETATM    1  C   UNL     1     -11.372  10.634  68.078  1.00  0.00    -0.278 C  
HETATM    2  O   UNL     1     -11.456  10.599  66.849  1.00  0.00    -0.241 OA 
HETATM    3  CA  UNL     1     -10.035  10.738  68.795  1.00  0.00    -0.193 C  
ENDROOT
BRANCH   3   4
HETATM    4  N   UNL     1     -10.120  10.145  70.140  1.00  0.00    -0.409 N  
HETATM    5  C   UNL     1      -9.599   8.652  71.974  1.00  0.00    -0.385 C  
HETATM    6  O   UNL     1      -8.377   8.689  69.912  1.00  0.00    -0.116 OA 
HETATM    7  H   UNL     1     -10.828  10.504  70.780  1.00  0.00     0.000 HD 
HETATM    8  C   UNL     1      -9.301   9.135  70.580  1.00  0.00    -0.240 C  
ENDBRANCH   3   4
BRANCH   3   9
HETATM    9  C   UNL     1      -9.484  12.183  68.785  1.00  0.00     0.059 C  
HETATM   10  H   UNL     1      -7.733  12.988  68.485  1.00  0.00     0.000 HD 
HETATM   11  O   UNL     1      -8.072  12.100  68.491  1.00  0.00    -0.150 OA 
BRANCH   9  12
HETATM   12  C   UNL     1     -10.183  13.115  67.756  1.00  0.00    -0.231 C  
HETATM   13  H   UNL     1      -9.819  13.846  65.943  1.00  0.00     0.000 HD 
HETATM   14  O   UNL     1      -9.391  13.277  66.573  1.00  0.00    -0.253 OA 
BRANCH  12  15
HETATM   15  C   UNL     1     -10.523  14.497  68.352  1.00  0.00    -0.246 C  
HETATM   16  H   UNL     1     -11.184  15.173  70.071  1.00  0.00     0.000 HD 
HETATM   17  O   UNL     1     -10.975  14.322  69.703  1.00  0.00    -0.214 OA 
BRANCH  15  18
HETATM   18  C   UNL     1     -11.596  15.245  67.534  1.00  0.00    -0.214 C  
HETATM   19  O   UNL     1     -12.482  14.349  66.863  1.00  0.00    -0.568 OA 
HETATM   20  H   UNL     1     -13.143  14.809  66.359  1.00  0.00     0.000 HD 
ENDBRANCH  15  18
ENDBRANCH  12  15
ENDBRANCH   9  12
ENDBRANCH   3   9
TORSDOF 5
ENDMDL
MODEL      269
REMARK 921   NORMALIZED FREE ENERGY PREDICTED BY IDOCK:   -2.49 KCAL/MOL
REMARK 922        TOTAL FREE ENERGY PREDICTED BY IDOCK:   -3.91 KCAL/MOL
REMARK 923 INTER-LIGAND FREE ENERGY PREDICTED BY IDOCK:   -3.18 KCAL/MOL
REMARK 924 INTRA-LIGAND FREE ENERGY PREDICTED BY IDOCK:   -0.73 KCAL/MOL
REMARK 927      BINDING AFFINITY PREDICTED BY RF-SCORE:    0.00 PKD
ROOT
HETATM    1  C   UNL     1     -10.343   7.376  67.142  1.00  0.00    -0.307 C  
HETATM    2  O   UNL     1     -10.648   8.486  66.702  1.00  0.00    -0.255 OA 
HETATM    3  CA  UNL     1      -9.582   7.204  68.446  1.00  0.00    -0.137 C  
ENDROOT
BRANCH   3   4
HETATM    4  N   UNL     1      -8.814   5.948  68.437  1.00  0.00    -0.111 N  
HETATM    5  C   UNL     1      -6.959   4.450  68.008  1.00  0.00    -0.056 C  
HETATM    6  O   UNL     1      -6.885   6.806  67.570  1.00  0.00    -0.071 OA 
HETATM    7  H   UNL     1      -9.262   5.107  68.804  1.00  0.00     0.000 HD 
HETATM    8  C   UNL     1      -7.530   5.842  67.962  1.00  0.00    -0.085 C  
ENDBRANCH   3   4
BRANCH   3   9
HETATM    9  C   UNL     1     -10.501   7.363  69.679  1.00  0.00    -0.232 C  
HETATM   10  H   UNL     1     -12.157   6.528  70.281  1.00  0.00     0.000 HD 
HETATM   11  O   UNL     1     -11.592   6.430  69.523  1.00  0.00    -0.404 OA 
BRANCH   9  12
HETATM   12  C   UNL     1      -9.782   7.111  71.034  1.00  0.00    -0.165 C  
HETATM   13  H   UNL     1      -9.474   5.591  72.280  1.00  0.00     0.000 HD 
HETATM   14  O   UNL     1      -9.914   5.746  71.451  1.00  0.00    -0.176 OA 
BRANCH  12  15
HETATM   15  C   UNL     1     -10.285   8.051  72.150  1.00  0.00    -0.244 C  
HETATM   16  H   UNL     1      -9.470   9.311  73.412  1.00  0.00     0.000 HD 
HETATM   17  O   UNL     1      -9.160   8.732  72.726  1.00  0.00    -0.338 OA 
BRANCH  15  18
HETATM   18  C   UNL     1     -11.060   7.298  73.250  1.00  0.00    -0.237 C  
HETATM   19  O   UNL     1     -10.190   6.718  74.222  1.00  0.00    -0.357 OA 
HETATM   20  H   UNL     1     -10.667   6.254  74.900  1.00  0.00     0.000 HD 
ENDBRANCH  15  18
ENDBRANCH  12  15
ENDBRANCH   9  12
ENDBRANCH   3   9
TORSDOF 5
ENDMDL
MODEL      270
REMARK 921   NORMALIZED FREE ENERGY PREDICTED BY IDOCK:   -2.49 KCAL/MOL
REMARK 922        TOTAL FREE ENERGY PREDICTED BY IDOCK:   -3.91 KCAL/MOL
REMARK 923 INTER-LIGAND FREE ENERGY PREDICTED BY IDOCK:   -3.36 KCAL/MOL
REMARK 924 INTRA-LIGAND FREE ENERGY PREDICTED BY IDOCK:   -0.55 KCAL/MOL
REMARK 927      BINDING AFFINITY PREDICTED BY RF-SCORE:    0.00 PKD
ROOT
HETATM    1  C   UNL     1      -8.167   6.022  68.536  1.00  0.00    -0.110 C  
HETATM    2  O   UNL     1      -8.429   4.909  68.997  1.00  0.00    -0.082 OA 
HETATM    3  CA  UNL     1      -8.946   7.265  68.933  1.00  0.00    -0.133 C  
ENDROOT
BRANCH   3   4
HETATM    4  N   UNL     1      -8.903   8.269  67.857  1.00  0.00    -0.137 N  
HETATM    5  C   UNL     1      -9.539   9.402  65.813  1.00  0.00    -0.340 C  
HETATM    6  O   UNL     1     -10.771   7.571  66.748  1.00  0.00    -0.319 OA 
HETATM    7  H   UNL     1      -8.160   8.968  67.880  1.00  0.00     0.000 HD 
HETATM    8  C   UNL     1      -9.805   8.319  66.824  1.00  0.00    -0.263 C  
ENDBRANCH   3   4
BRANCH   3   9
HETATM    9  C   UNL     1      -8.505   7.810  70.311  1.00  0.00    -0.133 C  
HETATM   10  H   UNL     1      -6.982   8.838  70.964  1.00  0.00     0.000 HD 
HETATM   11  O   UNL     1      -7.253   8.504  70.117  1.00  0.00    -0.048 OA 
BRANCH   9  12
HETATM   12  C   UNL     1      -9.541   8.765  70.969  1.00  0.00    -0.229 C  
HETATM   13  H   UNL     1     -10.092   9.306  72.801  1.00  0.00     0.000 HD 
HETATM   14  O   UNL     1      -9.459   8.722  72.399  1.00  0.00    -0.293 OA 
BRANCH  12  15
HETATM   15  C   UNL     1     -10.985   8.465  70.517  1.00  0.00    -0.242 C  
HETATM   16  H   UNL     1     -12.588   9.519  70.111  1.00  0.00     0.000 HD 
HETATM   17  O   UNL     1     -11.699   9.704  70.389  1.00  0.00    -0.257 OA 
BRANCH  15  18
HETATM   18  C   UNL     1     -11.727   7.532  71.495  1.00  0.00    -0.280 C  
HETATM   19  O   UNL     1     -12.354   8.254  72.557  1.00  0.00    -0.495 OA 
HETATM   20  H   UNL     1     -12.811   7.679  73.159  1.00  0.00     0.000 HD 
ENDBRANCH  15  18
ENDBRANCH  12  15
ENDBRANCH   9  12
ENDBRANCH   3   9
TORSDOF 5
ENDMDL
MODEL      271
REMARK 921   NORMALIZED FREE ENERGY PREDICTED BY IDOCK:   -2.49 KCAL/MOL
REMARK 922        TOTAL FREE ENERGY PREDICTED BY IDOCK:   -3.90 KCAL/MOL
REMARK 923 INTER-LIGAND FREE ENERGY PREDICTED BY IDOCK:   -4.31 KCAL/MOL
REMARK 924 INTRA-LIGAND FREE ENERGY PREDICTED BY IDOCK:    0.41 KCAL/MOL
REMARK 927      BINDING AFFINITY PREDICTED BY RF-SCORE:    0.00 PKD
ROOT
HETATM    1  C   UNL     1     -10.063  11.327  64.877  1.00  0.00    -0.281 C  
HETATM    2  O   UNL     1     -10.039  10.098  64.790  1.00  0.00    -0.331 OA 
HETATM    3  CA  UNL     1     -11.121  12.060  65.686  1.00  0.00    -0.313 C  
ENDROOT
BRANCH   3   4
HETATM    4  N   UNL     1     -11.336  13.415  65.151  1.00  0.00    -0.294 N  
HETATM    5  C   UNL     1     -10.979  15.790  64.838  1.00  0.00    -0.443 C  
HETATM    6  O   UNL     1      -9.541  14.400  66.160  1.00  0.00    -0.297 OA 
HETATM    7  H   UNL     1     -12.118  13.562  64.513  1.00  0.00     0.000 HD 
HETATM    8  C   UNL     1     -10.544  14.492  65.464  1.00  0.00    -0.351 C  
ENDBRANCH   3   4
BRANCH   3   9
HETATM    9  C   UNL     1     -10.816  12.029  67.201  1.00  0.00    -0.253 C  
HETATM   10  H   UNL     1     -11.876  11.761  68.816  1.00  0.00     0.000 HD 
HETATM   11  O   UNL     1     -12.063  11.779  67.884  1.00  0.00    -0.592 OA 
BRANCH   9  12
HETATM   12  C   UNL     1      -9.768  10.955  67.608  1.00  0.00    -0.171 C  
HETATM   13  H   UNL     1      -9.760   9.089  68.296  1.00  0.00     0.000 HD 
HETATM   14  O   UNL     1     -10.400   9.745  68.047  1.00  0.00    -0.183 OA 
BRANCH  12  15
HETATM   15  C   UNL     1      -8.798  11.464  68.696  1.00  0.00    -0.125 C  
HETATM   16  H   UNL     1      -7.486  12.912  68.856  1.00  0.00     0.000 HD 
HETATM   17  O   UNL     1      -8.083  12.599  68.187  1.00  0.00    -0.147 OA 
BRANCH  15  18
HETATM   18  C   UNL     1      -7.802  10.378  69.152  1.00  0.00    -0.134 C  
HETATM   19  O   UNL     1      -8.015   9.987  70.509  1.00  0.00    -0.399 OA 
HETATM   20  H   UNL     1      -7.401   9.319  70.790  1.00  0.00     0.000 HD 
ENDBRANCH  15  18
ENDBRANCH  12  15
ENDBRANCH   9  12
ENDBRANCH   3   9
TORSDOF 5
ENDMDL
MODEL      272
REMARK 921   NORMALIZED FREE ENERGY PREDICTED BY IDOCK:   -2.48 KCAL/MOL
REMARK 922        TOTAL FREE ENERGY PREDICTED BY IDOCK:   -3.89 KCAL/MOL
REMARK 923 INTER-LIGAND FREE ENERGY PREDICTED BY IDOCK:   -3.64 KCAL/MOL
REMARK 924 INTRA-LIGAND FREE ENERGY PREDICTED BY IDOCK:   -0.26 KCAL/MOL
REMARK 927      BINDING AFFINITY PREDICTED BY RF-SCORE:    0.00 PKD
ROOT
HETATM    1  C   UNL     1      -9.635   9.336  65.812  1.00  0.00    -0.271 C  
HETATM    2  O   UNL     1      -8.795  10.177  65.487  1.00  0.00    -0.154 OA 
HETATM    3  CA  UNL     1      -9.991   9.068  67.265  1.00  0.00    -0.216 C  
ENDROOT
BRANCH   3   4
HETATM    4  N   UNL     1     -10.478   7.689  67.435  1.00  0.00    -0.278 N  
HETATM    5  C   UNL     1     -10.376   5.300  67.822  1.00  0.00    -0.196 C  
HETATM    6  O   UNL     1      -8.471   6.748  67.978  1.00  0.00    -0.119 OA 
HETATM    7  H   UNL     1     -11.476   7.513  67.315  1.00  0.00     0.000 HD 
HETATM    8  C   UNL     1      -9.667   6.626  67.744  1.00  0.00    -0.123 C  
ENDBRANCH   3   4
BRANCH   3   9
HETATM    9  C   UNL     1     -10.948  10.141  67.834  1.00  0.00    -0.277 C  
HETATM   10  H   UNL     1     -11.517  10.673  69.622  1.00  0.00     0.000 HD 
HETATM   11  O   UNL     1     -10.928  10.014  69.273  1.00  0.00    -0.223 OA 
BRANCH   9  12
HETATM   12  C   UNL     1     -10.573  11.595  67.429  1.00  0.00    -0.220 C  
HETATM   13  H   UNL     1      -9.470  13.087  68.144  1.00  0.00     0.000 HD 
HETATM   14  O   UNL     1      -9.700  12.198  68.392  1.00  0.00    -0.209 OA 
BRANCH  12  15
HETATM   15  C   UNL     1     -11.816  12.484  67.219  1.00  0.00    -0.311 C  
HETATM   16  H   UNL     1     -12.684  13.366  65.697  1.00  0.00     0.000 HD 
HETATM   17  O   UNL     1     -11.919  12.819  65.827  1.00  0.00    -0.409 OA 
BRANCH  15  18
HETATM   18  C   UNL     1     -11.769  13.773  68.064  1.00  0.00    -0.355 C  
HETATM   19  O   UNL     1     -10.806  14.706  67.571  1.00  0.00    -0.274 OA 
HETATM   20  H   UNL     1     -10.776  15.500  68.092  1.00  0.00     0.000 HD 
ENDBRANCH  15  18
ENDBRANCH  12  15
ENDBRANCH   9  12
ENDBRANCH   3   9
TORSDOF 5
ENDMDL
MODEL      273
REMARK 921   NORMALIZED FREE ENERGY PREDICTED BY IDOCK:   -2.46 KCAL/MOL
REMARK 922        TOTAL FREE ENERGY PREDICTED BY IDOCK:   -3.88 KCAL/MOL
REMARK 923 INTER-LIGAND FREE ENERGY PREDICTED BY IDOCK:   -3.16 KCAL/MOL
REMARK 924 INTRA-LIGAND FREE ENERGY PREDICTED BY IDOCK:   -0.72 KCAL/MOL
REMARK 927      BINDING AFFINITY PREDICTED BY RF-SCORE:    0.00 PKD
ROOT
HETATM    1  C   UNL     1      -9.351   9.180  65.851  1.00  0.00    -0.243 C  
HETATM    2  O   UNL     1      -8.545  10.062  65.550  1.00  0.00    -0.139 OA 
HETATM    3  CA  UNL     1      -9.274   8.428  67.169  1.00  0.00    -0.143 C  
ENDROOT
BRANCH   3   4
HETATM    4  N   UNL     1      -9.873   7.089  67.039  1.00  0.00    -0.170 N  
HETATM    5  C   UNL     1      -9.990   4.715  66.575  1.00  0.00    -0.265 C  
HETATM    6  O   UNL     1      -7.948   5.971  66.535  1.00  0.00    -0.103 OA 
HETATM    7  H   UNL     1     -10.873   6.990  67.214  1.00  0.00     0.000 HD 
HETATM    8  C   UNL     1      -9.162   5.967  66.694  1.00  0.00    -0.140 C  
ENDBRANCH   3   4
BRANCH   3   9
HETATM    9  C   UNL     1      -9.849   9.256  68.342  1.00  0.00    -0.155 C  
HETATM   10  H   UNL     1     -11.462  10.314  68.623  1.00  0.00     0.000 HD 
HETATM   11  O   UNL     1     -11.110   9.806  67.902  1.00  0.00    -0.236 OA 
BRANCH   9  12
HETATM   12  C   UNL     1     -10.059   8.434  69.646  1.00  0.00    -0.199 C  
HETATM   13  H   UNL     1     -11.441   7.237  70.427  1.00  0.00     0.000 HD 
HETATM   14  O   UNL     1     -11.313   7.739  69.630  1.00  0.00    -0.033 OA 
BRANCH  12  15
HETATM   15  C   UNL     1      -9.960   9.308  70.913  1.00  0.00    -0.297 C  
HETATM   16  H   UNL     1      -8.664   9.554  72.364  1.00  0.00     0.000 HD 
HETATM   17  O   UNL     1      -8.725   9.015  71.584  1.00  0.00    -0.331 OA 
BRANCH  15  18
HETATM   18  C   UNL     1     -11.144   9.088  71.876  1.00  0.00    -0.363 C  
HETATM   19  O   UNL     1     -10.904   8.015  72.787  1.00  0.00    -0.343 OA 
HETATM   20  H   UNL     1     -11.633   7.879  73.381  1.00  0.00     0.000 HD 
ENDBRANCH  15  18
ENDBRANCH  12  15
ENDBRANCH   9  12
ENDBRANCH   3   9
TORSDOF 5
ENDMDL
MODEL      274
REMARK 921   NORMALIZED FREE ENERGY PREDICTED BY IDOCK:   -2.43 KCAL/MOL
REMARK 922        TOTAL FREE ENERGY PREDICTED BY IDOCK:   -3.83 KCAL/MOL
REMARK 923 INTER-LIGAND FREE ENERGY PREDICTED BY IDOCK:   -3.20 KCAL/MOL
REMARK 924 INTRA-LIGAND FREE ENERGY PREDICTED BY IDOCK:   -0.63 KCAL/MOL
REMARK 927      BINDING AFFINITY PREDICTED BY RF-SCORE:    0.00 PKD
ROOT
HETATM    1  C   UNL     1     -10.933  11.254  67.021  1.00  0.00    -0.294 C  
HETATM    2  O   UNL     1     -12.029  11.814  67.078  1.00  0.00    -0.610 OA 
HETATM    3  CA  UNL     1     -10.262  10.663  68.250  1.00  0.00    -0.166 C  
ENDROOT
BRANCH   3   4
HETATM    4  N   UNL     1      -8.799  10.642  68.083  1.00  0.00    -0.130 N  
HETATM    5  C   UNL     1      -6.549  11.512  67.864  1.00  0.00    -0.064 C  
HETATM    6  O   UNL     1      -8.457  12.885  68.333  1.00  0.00    -0.163 OA 
HETATM    7  H   UNL     1      -8.343   9.740  67.944  1.00  0.00     0.000 HD 
HETATM    8  C   UNL     1      -8.013  11.768  68.102  1.00  0.00    -0.146 C  
ENDBRANCH   3   4
BRANCH   3   9
HETATM    9  C   UNL     1     -10.864   9.293  68.637  1.00  0.00    -0.078 C  
HETATM   10  H   UNL     1     -10.786   7.493  67.891  1.00  0.00     0.000 HD 
HETATM   11  O   UNL     1     -10.416   8.335  67.653  1.00  0.00    -0.239 OA 
BRANCH   9  12
HETATM   12  C   UNL     1     -10.465   8.812  70.061  1.00  0.00    -0.212 C  
HETATM   13  H   UNL     1      -8.820   8.230  71.013  1.00  0.00     0.000 HD 
HETATM   14  O   UNL     1      -9.064   8.524  70.143  1.00  0.00    -0.146 OA 
BRANCH  12  15
HETATM   15  C   UNL     1     -11.280   7.583  70.515  1.00  0.00    -0.269 C  
HETATM   16  H   UNL     1     -12.834   7.263  71.668  1.00  0.00     0.000 HD 
HETATM   17  O   UNL     1     -12.332   8.019  71.389  1.00  0.00    -0.305 OA 
BRANCH  15  18
HETATM   18  C   UNL     1     -10.410   6.529  71.229  1.00  0.00    -0.204 C  
HETATM   19  O   UNL     1      -9.875   5.566  70.320  1.00  0.00    -0.174 OA 
HETATM   20  H   UNL     1      -9.339   4.917  70.760  1.00  0.00     0.000 HD 
ENDBRANCH  15  18
ENDBRANCH  12  15
ENDBRANCH   9  12
ENDBRANCH   3   9
TORSDOF 5
ENDMDL
MODEL      275
REMARK 921   NORMALIZED FREE ENERGY PREDICTED BY IDOCK:   -2.41 KCAL/MOL
REMARK 922        TOTAL FREE ENERGY PREDICTED BY IDOCK:   -3.81 KCAL/MOL
REMARK 923 INTER-LIGAND FREE ENERGY PREDICTED BY IDOCK:   -3.87 KCAL/MOL
REMARK 924 INTRA-LIGAND FREE ENERGY PREDICTED BY IDOCK:    0.06 KCAL/MOL
REMARK 927      BINDING AFFINITY PREDICTED BY RF-SCORE:    0.00 PKD
ROOT
HETATM    1  C   UNL     1      -8.062  13.491  67.090  1.00  0.00    -0.082 C  
HETATM    2  O   UNL     1      -7.111  14.070  67.618  1.00  0.00    -0.158 OA 
HETATM    3  CA  UNL     1      -9.499  13.740  67.517  1.00  0.00    -0.220 C  
ENDROOT
BRANCH   3   4
HETATM    4  N   UNL     1     -10.335  12.560  67.241  1.00  0.00    -0.219 N  
HETATM    5  C   UNL     1     -11.130  10.279  67.415  1.00  0.00    -0.261 C  
HETATM    6  O   UNL     1      -9.411  11.190  68.815  1.00  0.00    -0.181 OA 
HETATM    7  H   UNL     1     -11.057  12.639  66.525  1.00  0.00     0.000 HD 
HETATM    8  C   UNL     1     -10.197  11.360  67.893  1.00  0.00    -0.182 C  
ENDBRANCH   3   4
BRANCH   3   9
HETATM    9  C   UNL     1     -10.060  15.053  66.922  1.00  0.00    -0.249 C  
HETATM   10  H   UNL     1     -11.717  16.060  67.124  1.00  0.00     0.000 HD 
HETATM   11  O   UNL     1     -11.373  15.254  67.490  1.00  0.00    -0.331 OA 
BRANCH   9  12
HETATM   12  C   UNL     1      -9.170  16.298  67.199  1.00  0.00    -0.213 C  
HETATM   13  H   UNL     1      -8.843  17.573  68.689  1.00  0.00     0.000 HD 
HETATM   14  O   UNL     1      -9.386  16.813  68.520  1.00  0.00    -0.229 OA 
BRANCH  12  15
HETATM   15  C   UNL     1      -9.386  17.417  66.159  1.00  0.00    -0.149 C  
HETATM   16  H   UNL     1      -8.244  18.661  65.162  1.00  0.00     0.000 HD 
HETATM   17  O   UNL     1      -8.112  17.973  65.803  1.00  0.00    -0.525 OA 
BRANCH  15  18
HETATM   18  C   UNL     1     -10.317  18.532  66.676  1.00  0.00    -0.408 C  
HETATM   19  O   UNL     1     -10.378  19.642  65.780  1.00  0.00    -0.460 OA 
HETATM   20  H   UNL     1     -10.952  20.328  66.098  1.00  0.00     0.000 HD 
ENDBRANCH  15  18
ENDBRANCH  12  15
ENDBRANCH   9  12
ENDBRANCH   3   9
TORSDOF 5
ENDMDL
MODEL      276
REMARK 921   NORMALIZED FREE ENERGY PREDICTED BY IDOCK:   -2.41 KCAL/MOL
REMARK 922        TOTAL FREE ENERGY PREDICTED BY IDOCK:   -3.80 KCAL/MOL
REMARK 923 INTER-LIGAND FREE ENERGY PREDICTED BY IDOCK:   -3.38 KCAL/MOL
REMARK 924 INTRA-LIGAND FREE ENERGY PREDICTED BY IDOCK:   -0.43 KCAL/MOL
REMARK 927      BINDING AFFINITY PREDICTED BY RF-SCORE:    0.00 PKD
ROOT
HETATM    1  C   UNL     1      -8.273   9.699  68.933  1.00  0.00    -0.110 C  
HETATM    2  O   UNL     1      -8.720   9.698  70.081  1.00  0.00    -0.211 OA 
HETATM    3  CA  UNL     1      -9.177   9.640  67.712  1.00  0.00    -0.124 C  
ENDROOT
BRANCH   3   4
HETATM    4  N   UNL     1      -8.471   9.032  66.572  1.00  0.00    -0.117 N  
HETATM    5  C   UNL     1      -7.925   7.377  64.890  1.00  0.00    -0.128 C  
HETATM    6  O   UNL     1      -9.790   7.180  66.383  1.00  0.00    -0.150 OA 
HETATM    7  H   UNL     1      -7.681   9.538  66.170  1.00  0.00     0.000 HD 
HETATM    8  C   UNL     1      -8.816   7.824  66.019  1.00  0.00    -0.157 C  
ENDBRANCH   3   4
BRANCH   3   9
HETATM    9  C   UNL     1      -9.809  11.015  67.392  1.00  0.00    -0.173 C  
HETATM   10  H   UNL     1     -10.764  11.773  65.871  1.00  0.00     0.000 HD 
HETATM   11  O   UNL     1     -10.376  10.928  66.067  1.00  0.00    -0.243 OA 
BRANCH   9  12
HETATM   12  C   UNL     1     -10.902  11.455  68.406  1.00  0.00    -0.207 C  
HETATM   13  H   UNL     1     -12.883  11.372  68.566  1.00  0.00     0.000 HD 
HETATM   14  O   UNL     1     -12.214  11.104  67.947  1.00  0.00    -0.521 OA 
BRANCH  12  15
HETATM   15  C   UNL     1     -10.842  12.965  68.717  1.00  0.00    -0.242 C  
HETATM   16  H   UNL     1     -11.874  14.227  69.807  1.00  0.00     0.000 HD 
HETATM   17  O   UNL     1     -11.911  13.298  69.615  1.00  0.00    -0.300 OA 
BRANCH  15  18
HETATM   18  C   UNL     1     -10.938  13.832  67.446  1.00  0.00    -0.284 C  
HETATM   19  O   UNL     1     -12.247  13.809  66.875  1.00  0.00    -0.410 OA 
HETATM   20  H   UNL     1     -12.306  14.344  66.092  1.00  0.00     0.000 HD 
ENDBRANCH  15  18
ENDBRANCH  12  15
ENDBRANCH   9  12
ENDBRANCH   3   9
TORSDOF 5
ENDMDL
MODEL      277
REMARK 921   NORMALIZED FREE ENERGY PREDICTED BY IDOCK:   -2.40 KCAL/MOL
REMARK 922        TOTAL FREE ENERGY PREDICTED BY IDOCK:   -3.80 KCAL/MOL
REMARK 923 INTER-LIGAND FREE ENERGY PREDICTED BY IDOCK:   -4.15 KCAL/MOL
REMARK 924 INTRA-LIGAND FREE ENERGY PREDICTED BY IDOCK:    0.36 KCAL/MOL
REMARK 927      BINDING AFFINITY PREDICTED BY RF-SCORE:    0.00 PKD
ROOT
HETATM    1  C   UNL     1     -11.169  10.707  69.693  1.00  0.00    -0.289 C  
HETATM    2  O   UNL     1     -12.079  11.174  70.382  1.00  0.00    -0.326 OA 
HETATM    3  CA  UNL     1     -11.260  10.633  68.177  1.00  0.00    -0.302 C  
ENDROOT
BRANCH   3   4
HETATM    4  N   UNL     1     -10.428   9.532  67.661  1.00  0.00    -0.248 N  
HETATM    5  C   UNL     1      -8.435   8.211  67.277  1.00  0.00    -0.125 C  
HETATM    6  O   UNL     1      -8.498  10.118  68.729  1.00  0.00    -0.117 OA 
HETATM    7  H   UNL     1     -10.868   8.841  67.053  1.00  0.00     0.000 HD 
HETATM    8  C   UNL     1      -9.095   9.384  67.953  1.00  0.00    -0.129 C  
ENDBRANCH   3   4
BRANCH   3   9
HETATM    9  C   UNL     1     -10.970  11.998  67.511  1.00  0.00    -0.253 C  
HETATM   10  H   UNL     1     -11.886  13.116  66.204  1.00  0.00     0.000 HD 
HETATM   11  O   UNL     1     -12.065  12.278  66.613  1.00  0.00    -0.612 OA 
BRANCH   9  12
HETATM   12  C   UNL     1     -10.805  13.167  68.523  1.00  0.00    -0.262 C  
HETATM   13  H   UNL     1     -11.908  14.654  69.250  1.00  0.00     0.000 HD 
HETATM   14  O   UNL     1     -12.008  13.939  68.631  1.00  0.00    -0.353 OA 
BRANCH  12  15
HETATM   15  C   UNL     1      -9.620  14.089  68.167  1.00  0.00    -0.220 C  
HETATM   16  H   UNL     1      -9.379  15.996  67.778  1.00  0.00     0.000 HD 
HETATM   17  O   UNL     1     -10.108  15.428  67.997  1.00  0.00    -0.223 OA 
BRANCH  15  18
HETATM   18  C   UNL     1      -8.883  13.635  66.891  1.00  0.00    -0.187 C  
HETATM   19  O   UNL     1      -9.449  14.204  65.710  1.00  0.00    -0.505 OA 
HETATM   20  H   UNL     1      -8.995  13.925  64.924  1.00  0.00     0.000 HD 
ENDBRANCH  15  18
ENDBRANCH  12  15
ENDBRANCH   9  12
ENDBRANCH   3   9
TORSDOF 5
ENDMDL
MODEL      278
REMARK 921   NORMALIZED FREE ENERGY PREDICTED BY IDOCK:   -2.36 KCAL/MOL
REMARK 922        TOTAL FREE ENERGY PREDICTED BY IDOCK:   -3.74 KCAL/MOL
REMARK 923 INTER-LIGAND FREE ENERGY PREDICTED BY IDOCK:   -3.36 KCAL/MOL
REMARK 924 INTRA-LIGAND FREE ENERGY PREDICTED BY IDOCK:   -0.39 KCAL/MOL
REMARK 927      BINDING AFFINITY PREDICTED BY RF-SCORE:    0.00 PKD
ROOT
HETATM    1  C   UNL     1     -11.733   6.758  70.585  1.00  0.00    -0.386 C  
HETATM    2  O   UNL     1     -11.364   5.960  71.450  1.00  0.00    -0.261 OA 
HETATM    3  CA  UNL     1     -10.770   7.355  69.572  1.00  0.00    -0.224 C  
ENDROOT
BRANCH   3   4
HETATM    4  N   UNL     1     -11.252   8.667  69.108  1.00  0.00    -0.391 N  
HETATM    5  C   UNL     1     -11.687  11.049  69.161  1.00  0.00    -0.403 C  
HETATM    6  O   UNL     1     -10.419   9.899  70.839  1.00  0.00    -0.286 OA 
HETATM    7  H   UNL     1     -11.752   8.708  68.219  1.00  0.00     0.000 HD 
HETATM    8  C   UNL     1     -11.068   9.836  69.803  1.00  0.00    -0.237 C  
ENDBRANCH   3   4
BRANCH   3   9
HETATM    9  C   UNL     1     -10.450   6.368  68.426  1.00  0.00    -0.222 C  
HETATM   10  H   UNL     1     -10.752   6.348  66.499  1.00  0.00     0.000 HD 
HETATM   11  O   UNL     1     -10.948   6.954  67.204  1.00  0.00    -0.361 OA 
BRANCH   9  12
HETATM   12  C   UNL     1      -8.935   6.049  68.277  1.00  0.00    -0.113 C  
HETATM   13  H   UNL     1      -7.558   6.069  66.843  1.00  0.00     0.000 HD 
HETATM   14  O   UNL     1      -8.484   6.264  66.934  1.00  0.00    -0.109 OA 
BRANCH  12  15
HETATM   15  C   UNL     1      -8.592   4.612  68.722  1.00  0.00    -0.085 C  
HETATM   16  H   UNL     1      -9.412   2.840  68.537  1.00  0.00     0.000 HD 
HETATM   17  O   UNL     1      -9.623   3.724  68.264  1.00  0.00    -0.164 OA 
BRANCH  15  18
HETATM   18  C   UNL     1      -8.437   4.489  70.251  1.00  0.00    -0.074 C  
HETATM   19  O   UNL     1      -7.905   3.221  70.639  1.00  0.00    -0.043 OA 
HETATM   20  H   UNL     1      -7.810   3.145  71.581  1.00  0.00     0.000 HD 
ENDBRANCH  15  18
ENDBRANCH  12  15
ENDBRANCH   9  12
ENDBRANCH   3   9
TORSDOF 5
ENDMDL
MODEL      279
REMARK 921   NORMALIZED FREE ENERGY PREDICTED BY IDOCK:   -2.35 KCAL/MOL
REMARK 922        TOTAL FREE ENERGY PREDICTED BY IDOCK:   -3.72 KCAL/MOL
REMARK 923 INTER-LIGAND FREE ENERGY PREDICTED BY IDOCK:   -3.38 KCAL/MOL
REMARK 924 INTRA-LIGAND FREE ENERGY PREDICTED BY IDOCK:   -0.34 KCAL/MOL
REMARK 927      BINDING AFFINITY PREDICTED BY RF-SCORE:    0.00 PKD
ROOT
HETATM    1  C   UNL     1     -10.320   7.955  67.953  1.00  0.00    -0.221 C  
HETATM    2  O   UNL     1     -10.809   7.673  66.857  1.00  0.00    -0.328 OA 
HETATM    3  CA  UNL     1      -9.082   8.826  68.086  1.00  0.00    -0.140 C  
ENDROOT
BRANCH   3   4
HETATM    4  N   UNL     1      -8.354   8.507  69.326  1.00  0.00    -0.118 N  
HETATM    5  C   UNL     1      -6.948   7.253  70.848  1.00  0.00    -0.056 C  
HETATM    6  O   UNL     1      -7.324   6.617  68.567  1.00  0.00    -0.083 OA 
HETATM    7  H   UNL     1      -8.448   9.146  70.116  1.00  0.00     0.000 HD 
HETATM    8  C   UNL     1      -7.556   7.401  69.478  1.00  0.00    -0.099 C  
ENDBRANCH   3   4
BRANCH   3   9
HETATM    9  C   UNL     1      -9.410  10.328  67.925  1.00  0.00    -0.138 C  
HETATM   10  H   UNL     1      -8.429  11.991  68.198  1.00  0.00     0.000 HD 
HETATM   11  O   UNL     1      -8.227  11.068  68.296  1.00  0.00    -0.118 OA 
BRANCH   9  12
HETATM   12  C   UNL     1      -9.850  10.724  66.487  1.00  0.00    -0.203 C  
HETATM   13  H   UNL     1      -8.990  11.102  64.734  1.00  0.00     0.000 HD 
HETATM   14  O   UNL     1      -8.722  10.860  65.613  1.00  0.00    -0.187 OA 
BRANCH  12  15
HETATM   15  C   UNL     1     -10.689  12.019  66.465  1.00  0.00    -0.258 C  
HETATM   16  H   UNL     1     -12.333  12.654  67.324  1.00  0.00     0.000 HD 
HETATM   17  O   UNL     1     -11.817  11.857  67.337  1.00  0.00    -0.571 OA 
BRANCH  15  18
HETATM   18  C   UNL     1     -11.172  12.384  65.047  1.00  0.00    -0.312 C  
HETATM   19  O   UNL     1     -10.246  13.229  64.363  1.00  0.00    -0.553 OA 
HETATM   20  H   UNL     1     -10.543  13.454  63.490  1.00  0.00     0.000 HD 
ENDBRANCH  15  18
ENDBRANCH  12  15
ENDBRANCH   9  12
ENDBRANCH   3   9
TORSDOF 5
ENDMDL
MODEL      280
REMARK 921   NORMALIZED FREE ENERGY PREDICTED BY IDOCK:   -2.34 KCAL/MOL
REMARK 922        TOTAL FREE ENERGY PREDICTED BY IDOCK:   -3.72 KCAL/MOL
REMARK 923 INTER-LIGAND FREE ENERGY PREDICTED BY IDOCK:   -3.44 KCAL/MOL
REMARK 924 INTRA-LIGAND FREE ENERGY PREDICTED BY IDOCK:   -0.29 KCAL/MOL
REMARK 927      BINDING AFFINITY PREDICTED BY RF-SCORE:    0.00 PKD
ROOT
HETATM    1  C   UNL     1      -9.859  16.961  67.397  1.00  0.00    -0.261 C  
HETATM    2  O   UNL     1     -10.843  17.607  67.761  1.00  0.00    -0.367 OA 
HETATM    3  CA  UNL     1      -9.425  15.685  68.098  1.00  0.00    -0.195 C  
ENDROOT
BRANCH   3   4
HETATM    4  N   UNL     1      -7.978  15.468  67.932  1.00  0.00    -0.132 N  
HETATM    5  C   UNL     1      -5.606  15.948  68.036  1.00  0.00    -0.133 C  
HETATM    6  O   UNL     1      -7.287  17.378  68.973  1.00  0.00    -0.250 OA 
HETATM    7  H   UNL     1      -7.670  14.608  67.477  1.00  0.00     0.000 HD 
HETATM    8  C   UNL     1      -7.020  16.357  68.353  1.00  0.00    -0.144 C  
ENDBRANCH   3   4
BRANCH   3   9
HETATM    9  C   UNL     1     -10.288  14.472  67.682  1.00  0.00    -0.237 C  
HETATM   10  H   UNL     1     -10.890  13.726  65.983  1.00  0.00     0.000 HD 
HETATM   11  O   UNL     1     -10.359  14.471  66.239  1.00  0.00    -0.279 OA 
BRANCH   9  12
HETATM   12  C   UNL     1      -9.736  13.107  68.182  1.00  0.00    -0.228 C  
HETATM   13  H   UNL     1      -8.188  11.916  67.808  1.00  0.00     0.000 HD 
HETATM   14  O   UNL     1      -8.526  12.750  67.502  1.00  0.00    -0.159 OA 
BRANCH  12  15
HETATM   15  C   UNL     1     -10.770  11.970  68.044  1.00  0.00    -0.212 C  
HETATM   16  H   UNL     1     -12.681  11.742  68.418  1.00  0.00     0.000 HD 
HETATM   17  O   UNL     1     -12.045  12.442  68.503  1.00  0.00    -0.271 OA 
BRANCH  15  18
HETATM   18  C   UNL     1     -10.365  10.707  68.832  1.00  0.00    -0.207 C  
HETATM   19  O   UNL     1     -10.427  10.909  70.244  1.00  0.00    -0.360 OA 
HETATM   20  H   UNL     1     -10.178  10.132  70.729  1.00  0.00     0.000 HD 
ENDBRANCH  15  18
ENDBRANCH  12  15
ENDBRANCH   9  12
ENDBRANCH   3   9
TORSDOF 5
ENDMDL
MODEL      281
REMARK 921   NORMALIZED FREE ENERGY PREDICTED BY IDOCK:   -2.34 KCAL/MOL
REMARK 922        TOTAL FREE ENERGY PREDICTED BY IDOCK:   -3.72 KCAL/MOL
REMARK 923 INTER-LIGAND FREE ENERGY PREDICTED BY IDOCK:   -3.67 KCAL/MOL
REMARK 924 INTRA-LIGAND FREE ENERGY PREDICTED BY IDOCK:   -0.05 KCAL/MOL
REMARK 927      BINDING AFFINITY PREDICTED BY RF-SCORE:    0.00 PKD
ROOT
HETATM    1  C   UNL     1      -8.428   9.819  69.595  1.00  0.00    -0.185 C  
HETATM    2  O   UNL     1      -7.712  10.773  69.902  1.00  0.00    -0.030 OA 
HETATM    3  CA  UNL     1      -9.915   9.978  69.322  1.00  0.00    -0.213 C  
ENDROOT
BRANCH   3   4
HETATM    4  N   UNL     1     -10.632   8.723  69.605  1.00  0.00    -0.221 N  
HETATM    5  C   UNL     1     -11.204   6.375  69.440  1.00  0.00    -0.459 C  
HETATM    6  O   UNL     1      -9.336   7.363  68.308  1.00  0.00    -0.140 OA 
HETATM    7  H   UNL     1     -11.417   8.753  70.255  1.00  0.00     0.000 HD 
HETATM    8  C   UNL     1     -10.304   7.515  69.042  1.00  0.00    -0.212 C  
ENDBRANCH   3   4
BRANCH   3   9
HETATM    9  C   UNL     1     -10.188  10.546  67.910  1.00  0.00    -0.183 C  
HETATM   10  H   UNL     1     -11.697  10.508  66.676  1.00  0.00     0.000 HD 
HETATM   11  O   UNL     1     -11.530  10.159  67.544  1.00  0.00    -0.249 OA 
BRANCH   9  12
HETATM   12  C   UNL     1     -10.040  12.091  67.816  1.00  0.00    -0.193 C  
HETATM   13  H   UNL     1     -10.384  13.677  68.966  1.00  0.00     0.000 HD 
HETATM   14  O   UNL     1     -10.474  12.733  69.023  1.00  0.00    -0.130 OA 
BRANCH  12  15
HETATM   15  C   UNL     1     -10.797  12.681  66.608  1.00  0.00    -0.258 C  
HETATM   16  H   UNL     1     -10.509  12.782  64.671  1.00  0.00     0.000 HD 
HETATM   17  O   UNL     1     -10.043  12.420  65.415  1.00  0.00    -0.271 OA 
BRANCH  15  18
HETATM   18  C   UNL     1     -11.044  14.196  66.749  1.00  0.00    -0.310 C  
HETATM   19  O   UNL     1     -12.308  14.482  67.350  1.00  0.00    -0.614 OA 
HETATM   20  H   UNL     1     -12.460  15.416  67.437  1.00  0.00     0.000 HD 
ENDBRANCH  15  18
ENDBRANCH  12  15
ENDBRANCH   9  12
ENDBRANCH   3   9
TORSDOF 5
ENDMDL
MODEL      282
REMARK 921   NORMALIZED FREE ENERGY PREDICTED BY IDOCK:   -2.32 KCAL/MOL
REMARK 922        TOTAL FREE ENERGY PREDICTED BY IDOCK:   -3.69 KCAL/MOL
REMARK 923 INTER-LIGAND FREE ENERGY PREDICTED BY IDOCK:   -3.02 KCAL/MOL
REMARK 924 INTRA-LIGAND FREE ENERGY PREDICTED BY IDOCK:   -0.68 KCAL/MOL
REMARK 927      BINDING AFFINITY PREDICTED BY RF-SCORE:    0.00 PKD
ROOT
HETATM    1  C   UNL     1     -10.079   9.678  66.436  1.00  0.00    -0.247 C  
HETATM    2  O   UNL     1     -10.156  10.134  65.294  1.00  0.00    -0.319 OA 
HETATM    3  CA  UNL     1      -9.590   8.265  66.711  1.00  0.00    -0.224 C  
ENDROOT
BRANCH   3   4
HETATM    4  N   UNL     1     -10.161   7.754  67.968  1.00  0.00    -0.193 N  
HETATM    5  C   UNL     1     -11.306   6.227  69.460  1.00  0.00    -0.475 C  
HETATM    6  O   UNL     1     -10.784   5.705  67.179  1.00  0.00    -0.264 OA 
HETATM    7  H   UNL     1     -10.118   8.352  68.795  1.00  0.00     0.000 HD 
HETATM    8  C   UNL     1     -10.749   6.520  68.092  1.00  0.00    -0.282 C  
ENDBRANCH   3   4
BRANCH   3   9
HETATM    9  C   UNL     1      -8.049   8.161  66.640  1.00  0.00    -0.103 C  
HETATM   10  H   UNL     1      -6.757   7.774  65.232  1.00  0.00     0.000 HD 
HETATM   11  O   UNL     1      -7.704   7.839  65.275  1.00  0.00    -0.089 OA 
BRANCH   9  12
HETATM   12  C   UNL     1      -7.311   9.458  67.078  1.00  0.00    -0.087 C  
HETATM   13  H   UNL     1      -5.559  10.340  66.750  1.00  0.00     0.000 HD 
HETATM   14  O   UNL     1      -6.010   9.547  66.483  1.00  0.00    -0.057 OA 
BRANCH  12  15
HETATM   15  C   UNL     1      -7.196   9.578  68.612  1.00  0.00    -0.074 C  
HETATM   16  H   UNL     1      -7.482   8.395  70.149  1.00  0.00     0.000 HD 
HETATM   17  O   UNL     1      -7.554   8.321  69.205  1.00  0.00    -0.084 OA 
BRANCH  15  18
HETATM   18  C   UNL     1      -8.087  10.699  69.184  1.00  0.00    -0.141 C  
HETATM   19  O   UNL     1      -9.128  10.188  70.017  1.00  0.00    -0.377 OA 
HETATM   20  H   UNL     1      -9.677  10.878  70.370  1.00  0.00     0.000 HD 
ENDBRANCH  15  18
ENDBRANCH  12  15
ENDBRANCH   9  12
ENDBRANCH   3   9
TORSDOF 5
ENDMDL
MODEL      283
REMARK 921   NORMALIZED FREE ENERGY PREDICTED BY IDOCK:   -2.31 KCAL/MOL
REMARK 922        TOTAL FREE ENERGY PREDICTED BY IDOCK:   -3.68 KCAL/MOL
REMARK 923 INTER-LIGAND FREE ENERGY PREDICTED BY IDOCK:   -2.92 KCAL/MOL
REMARK 924 INTRA-LIGAND FREE ENERGY PREDICTED BY IDOCK:   -0.76 KCAL/MOL
REMARK 927      BINDING AFFINITY PREDICTED BY RF-SCORE:    0.00 PKD
ROOT
HETATM    1  C   UNL     1     -10.519   7.296  67.315  1.00  0.00    -0.310 C  
HETATM    2  O   UNL     1     -11.313   6.485  66.836  1.00  0.00    -0.330 OA 
HETATM    3  CA  UNL     1     -10.886   8.193  68.486  1.00  0.00     0.093 C  
ENDROOT
BRANCH   3   4
HETATM    4  N   UNL     1     -10.089   9.432  68.460  1.00  0.00    -0.180 N  
HETATM    5  C   UNL     1      -9.610  11.791  68.194  1.00  0.00    -0.193 C  
HETATM    6  O   UNL     1     -11.820  10.868  68.073  1.00  0.00    -0.585 OA 
HETATM    7  H   UNL     1      -9.086   9.362  68.632  1.00  0.00     0.000 HD 
HETATM    8  C   UNL     1     -10.620  10.674  68.218  1.00  0.00    -0.194 C  
ENDBRANCH   3   4
BRANCH   3   9
HETATM    9  C   UNL     1     -10.823   7.440  69.835  1.00  0.00    -0.246 C  
HETATM   10  H   UNL     1     -12.087   6.398  70.893  1.00  0.00     0.000 HD 
HETATM   11  O   UNL     1     -12.125   6.861  70.063  1.00  0.00    -0.176 OA 
BRANCH   9  12
HETATM   12  C   UNL     1      -9.736   6.330  69.884  1.00  0.00    -0.166 C  
HETATM   13  H   UNL     1      -9.614   4.406  70.372  1.00  0.00     0.000 HD 
HETATM   14  O   UNL     1     -10.279   5.085  70.342  1.00  0.00    -0.251 OA 
BRANCH  12  15
HETATM   15  C   UNL     1      -8.528   6.728  70.757  1.00  0.00    -0.133 C  
HETATM   16  H   UNL     1      -6.976   7.913  70.570  1.00  0.00     0.000 HD 
HETATM   17  O   UNL     1      -7.720   7.667  70.033  1.00  0.00    -0.089 OA 
BRANCH  15  18
HETATM   18  C   UNL     1      -7.673   5.513  71.171  1.00  0.00    -0.104 C  
HETATM   19  O   UNL     1      -7.484   4.595  70.094  1.00  0.00    -0.052 OA 
HETATM   20  H   UNL     1      -6.957   3.847  70.349  1.00  0.00     0.000 HD 
ENDBRANCH  15  18
ENDBRANCH  12  15
ENDBRANCH   9  12
ENDBRANCH   3   9
TORSDOF 5
ENDMDL
MODEL      284
REMARK 921   NORMALIZED FREE ENERGY PREDICTED BY IDOCK:   -2.28 KCAL/MOL
REMARK 922        TOTAL FREE ENERGY PREDICTED BY IDOCK:   -3.64 KCAL/MOL
REMARK 923 INTER-LIGAND FREE ENERGY PREDICTED BY IDOCK:   -2.98 KCAL/MOL
REMARK 924 INTRA-LIGAND FREE ENERGY PREDICTED BY IDOCK:   -0.66 KCAL/MOL
REMARK 927      BINDING AFFINITY PREDICTED BY RF-SCORE:    0.00 PKD
ROOT
HETATM    1  C   UNL     1     -11.680   7.362  70.850  1.00  0.00    -0.296 C  
HETATM    2  O   UNL     1     -11.301   6.733  71.840  1.00  0.00    -0.248 OA 
HETATM    3  CA  UNL     1     -10.712   8.112  69.950  1.00  0.00    -0.241 C  
ENDROOT
BRANCH   3   4
HETATM    4  N   UNL     1     -11.390   9.235  69.281  1.00  0.00    -0.431 N  
HETATM    5  C   UNL     1     -11.721  11.484  68.446  1.00  0.00    -0.372 C  
HETATM    6  O   UNL     1      -9.678  10.735  69.450  1.00  0.00    -0.173 OA 
HETATM    7  H   UNL     1     -12.332   9.083  68.920  1.00  0.00     0.000 HD 
HETATM    8  C   UNL     1     -10.827  10.476  69.117  1.00  0.00    -0.237 C  
ENDBRANCH   3   4
BRANCH   3   9
HETATM    9  C   UNL     1      -9.971   7.165  68.978  1.00  0.00    -0.174 C  
HETATM   10  H   UNL     1     -10.119   6.746  67.079  1.00  0.00     0.000 HD 
HETATM   11  O   UNL     1     -10.574   7.329  67.676  1.00  0.00    -0.226 OA 
BRANCH   9  12
HETATM   12  C   UNL     1      -8.442   7.429  68.887  1.00  0.00    -0.129 C  
HETATM   13  H   UNL     1      -6.998   7.280  67.529  1.00  0.00     0.000 HD 
HETATM   14  O   UNL     1      -7.933   7.118  67.584  1.00  0.00    -0.111 OA 
BRANCH  12  15
HETATM   15  C   UNL     1      -7.648   6.654  69.960  1.00  0.00    -0.100 C  
HETATM   16  H   UNL     1      -7.956   5.078  71.085  1.00  0.00     0.000 HD 
HETATM   17  O   UNL     1      -8.445   5.556  70.425  1.00  0.00    -0.117 OA 
BRANCH  15  18
HETATM   18  C   UNL     1      -7.239   7.546  71.150  1.00  0.00    -0.063 C  
HETATM   19  O   UNL     1      -7.280   8.935  70.822  1.00  0.00    -0.062 OA 
HETATM   20  H   UNL     1      -7.029   9.484  71.555  1.00  0.00     0.000 HD 
ENDBRANCH  15  18
ENDBRANCH  12  15
ENDBRANCH   9  12
ENDBRANCH   3   9
TORSDOF 5
ENDMDL
MODEL      285
REMARK 921   NORMALIZED FREE ENERGY PREDICTED BY IDOCK:   -2.28 KCAL/MOL
REMARK 922        TOTAL FREE ENERGY PREDICTED BY IDOCK:   -3.64 KCAL/MOL
REMARK 923 INTER-LIGAND FREE ENERGY PREDICTED BY IDOCK:   -4.08 KCAL/MOL
REMARK 924 INTRA-LIGAND FREE ENERGY PREDICTED BY IDOCK:    0.44 KCAL/MOL
REMARK 927      BINDING AFFINITY PREDICTED BY RF-SCORE:    0.00 PKD
ROOT
HETATM    1  C   UNL     1     -12.332  14.528  69.037  1.00  0.00    -0.086 C  
HETATM    2  O   UNL     1     -12.754  14.094  70.111  1.00  0.00    -0.320 OA 
HETATM    3  CA  UNL     1     -10.849  14.564  68.706  1.00  0.00    -0.248 C  
ENDROOT
BRANCH   3   4
HETATM    4  N   UNL     1     -10.559  15.637  67.740  1.00  0.00    -0.275 N  
HETATM    5  C   UNL     1      -9.741  17.765  66.923  1.00  0.00    -0.300 C  
HETATM    6  O   UNL     1      -9.394  16.987  69.164  1.00  0.00    -0.208 OA 
HETATM    7  H   UNL     1     -10.881  15.518  66.779  1.00  0.00     0.000 HD 
HETATM    8  C   UNL     1      -9.881  16.787  68.059  1.00  0.00    -0.265 C  
ENDBRANCH   3   4
BRANCH   3   9
HETATM    9  C   UNL     1     -10.318  13.177  68.274  1.00  0.00    -0.252 C  
HETATM   10  H   UNL     1     -10.817  11.331  68.654  1.00  0.00     0.000 HD 
HETATM   11  O   UNL     1     -11.144  12.183  68.919  1.00  0.00    -0.222 OA 
BRANCH   9  12
HETATM   12  C   UNL     1     -10.327  12.953  66.736  1.00  0.00    -0.245 C  
HETATM   13  H   UNL     1     -10.419  14.058  65.085  1.00  0.00     0.000 HD 
HETATM   14  O   UNL     1     -10.414  14.195  66.026  1.00  0.00    -0.289 OA 
BRANCH  12  15
HETATM   15  C   UNL     1     -11.464  12.012  66.286  1.00  0.00    -0.345 C  
HETATM   16  H   UNL     1     -11.605  10.154  65.673  1.00  0.00     0.000 HD 
HETATM   17  O   UNL     1     -10.905  10.734  65.949  1.00  0.00    -0.138 OA 
BRANCH  15  18
HETATM   18  C   UNL     1     -12.252  12.571  65.085  1.00  0.00    -0.448 C  
HETATM   19  O   UNL     1     -13.363  13.371  65.493  1.00  0.00    -0.436 OA 
HETATM   20  H   UNL     1     -13.848  13.715  64.753  1.00  0.00     0.000 HD 
ENDBRANCH  15  18
ENDBRANCH  12  15
ENDBRANCH   9  12
ENDBRANCH   3   9
TORSDOF 5
ENDMDL
MODEL      286
REMARK 921   NORMALIZED FREE ENERGY PREDICTED BY IDOCK:   -2.27 KCAL/MOL
REMARK 922        TOTAL FREE ENERGY PREDICTED BY IDOCK:   -3.63 KCAL/MOL
REMARK 923 INTER-LIGAND FREE ENERGY PREDICTED BY IDOCK:   -3.41 KCAL/MOL
REMARK 924 INTRA-LIGAND FREE ENERGY PREDICTED BY IDOCK:   -0.22 KCAL/MOL
REMARK 927      BINDING AFFINITY PREDICTED BY RF-SCORE:    0.00 PKD
ROOT
HETATM    1  C   UNL     1      -8.468  12.640  68.123  1.00  0.00    -0.177 C  
HETATM    2  O   UNL     1      -7.918  13.741  68.044  1.00  0.00    -0.129 OA 
HETATM    3  CA  UNL     1      -9.915  12.489  68.563  1.00  0.00    -0.165 C  
ENDROOT
BRANCH   3   4
HETATM    4  N   UNL     1     -10.136  11.166  69.172  1.00  0.00    -0.383 N  
HETATM    5  C   UNL     1     -11.159   9.485  70.583  1.00  0.00    -0.364 C  
HETATM    6  O   UNL     1     -12.014  11.712  70.348  1.00  0.00    -0.357 OA 
HETATM    7  H   UNL     1      -9.496  10.411  68.927  1.00  0.00     0.000 HD 
HETATM    8  C   UNL     1     -11.154  10.893  70.051  1.00  0.00    -0.211 C  
ENDBRANCH   3   4
BRANCH   3   9
HETATM    9  C   UNL     1     -10.904  12.822  67.422  1.00  0.00    -0.240 C  
HETATM   10  H   UNL     1     -12.293  14.164  67.150  1.00  0.00     0.000 HD 
HETATM   11  O   UNL     1     -11.684  13.960  67.851  1.00  0.00    -0.321 OA 
BRANCH   9  12
HETATM   12  C   UNL     1     -10.215  13.137  66.065  1.00  0.00    -0.286 C  
HETATM   13  H   UNL     1     -10.093  14.659  64.791  1.00  0.00     0.000 HD 
HETATM   14  O   UNL     1     -10.515  14.467  65.621  1.00  0.00    -0.300 OA 
BRANCH  12  15
HETATM   15  C   UNL     1     -10.590  12.121  64.966  1.00  0.00    -0.291 C  
HETATM   16  H   UNL     1     -11.584  10.432  64.880  1.00  0.00     0.000 HD 
HETATM   17  O   UNL     1     -11.353  11.058  65.556  1.00  0.00     0.066 OA 
BRANCH  15  18
HETATM   18  C   UNL     1      -9.352  11.541  64.252  1.00  0.00    -0.001 C  
HETATM   19  O   UNL     1      -9.411  10.119  64.140  1.00  0.00    -0.250 OA 
HETATM   20  H   UNL     1      -8.649   9.762  63.700  1.00  0.00     0.000 HD 
ENDBRANCH  15  18
ENDBRANCH  12  15
ENDBRANCH   9  12
ENDBRANCH   3   9
TORSDOF 5
ENDMDL
MODEL      287
REMARK 921   NORMALIZED FREE ENERGY PREDICTED BY IDOCK:   -2.22 KCAL/MOL
REMARK 922        TOTAL FREE ENERGY PREDICTED BY IDOCK:   -3.56 KCAL/MOL
REMARK 923 INTER-LIGAND FREE ENERGY PREDICTED BY IDOCK:   -4.02 KCAL/MOL
REMARK 924 INTRA-LIGAND FREE ENERGY PREDICTED BY IDOCK:    0.46 KCAL/MOL
REMARK 927      BINDING AFFINITY PREDICTED BY RF-SCORE:    0.00 PKD
ROOT
HETATM    1  C   UNL     1     -11.850  15.653  68.721  1.00  0.00    -0.321 C  
HETATM    2  O   UNL     1     -12.632  15.011  69.425  1.00  0.00    -0.093 OA 
HETATM    3  CA  UNL     1     -10.393  15.252  68.559  1.00  0.00    -0.231 C  
ENDROOT
BRANCH   3   4
HETATM    4  N   UNL     1      -9.564  16.427  68.243  1.00  0.00    -0.216 N  
HETATM    5  C   UNL     1      -8.799  18.378  67.027  1.00  0.00    -0.271 C  
HETATM    6  O   UNL     1     -10.778  17.153  66.452  1.00  0.00    -0.214 OA 
HETATM    7  H   UNL     1      -8.764  16.628  68.845  1.00  0.00     0.000 HD 
HETATM    8  C   UNL     1      -9.804  17.268  67.185  1.00  0.00    -0.269 C  
ENDBRANCH   3   4
BRANCH   3   9
HETATM    9  C   UNL     1     -10.222  14.083  67.561  1.00  0.00    -0.244 C  
HETATM   10  H   UNL     1      -9.067  13.736  66.029  1.00  0.00     0.000 HD 
HETATM   11  O   UNL     1      -9.172  14.455  66.642  1.00  0.00    -0.256 OA 
BRANCH   9  12
HETATM   12  C   UNL     1      -9.874  12.727  68.238  1.00  0.00    -0.224 C  
HETATM   13  H   UNL     1      -8.290  11.541  68.435  1.00  0.00     0.000 HD 
HETATM   14  O   UNL     1      -8.503  12.370  68.022  1.00  0.00    -0.158 OA 
BRANCH  12  15
HETATM   15  C   UNL     1     -10.794  11.582  67.765  1.00  0.00    -0.221 C  
HETATM   16  H   UNL     1     -12.605  11.436  67.026  1.00  0.00     0.000 HD 
HETATM   17  O   UNL     1     -12.039  12.141  67.317  1.00  0.00    -0.565 OA 
BRANCH  15  18
HETATM   18  C   UNL     1     -11.056  10.541  68.872  1.00  0.00    -0.261 C  
HETATM   19  O   UNL     1     -11.266   9.232  68.341  1.00  0.00    -0.473 OA 
HETATM   20  H   UNL     1     -11.427   8.590  69.023  1.00  0.00     0.000 HD 
ENDBRANCH  15  18
ENDBRANCH  12  15
ENDBRANCH   9  12
ENDBRANCH   3   9
TORSDOF 5
ENDMDL
MODEL      288
REMARK 921   NORMALIZED FREE ENERGY PREDICTED BY IDOCK:   -2.20 KCAL/MOL
REMARK 922        TOTAL FREE ENERGY PREDICTED BY IDOCK:   -3.54 KCAL/MOL
REMARK 923 INTER-LIGAND FREE ENERGY PREDICTED BY IDOCK:   -3.59 KCAL/MOL
REMARK 924 INTRA-LIGAND FREE ENERGY PREDICTED BY IDOCK:    0.05 KCAL/MOL
REMARK 927      BINDING AFFINITY PREDICTED BY RF-SCORE:    0.00 PKD
ROOT
HETATM    1  C   UNL     1     -10.476   8.583  68.906  1.00  0.00    -0.188 C  
HETATM    2  O   UNL     1     -10.381   9.773  69.213  1.00  0.00    -0.192 OA 
HETATM    3  CA  UNL     1      -9.865   7.479  69.753  1.00  0.00    -0.180 C  
ENDROOT
BRANCH   3   4
HETATM    4  N   UNL     1      -9.553   6.302  68.924  1.00  0.00    -0.126 N  
HETATM    5  C   UNL     1      -9.812   4.664  67.159  1.00  0.00    -0.227 C  
HETATM    6  O   UNL     1     -11.226   6.584  67.398  1.00  0.00    -0.359 OA 
HETATM    7  H   UNL     1      -8.746   5.733  69.181  1.00  0.00     0.000 HD 
HETATM    8  C   UNL     1     -10.287   5.927  67.826  1.00  0.00    -0.210 C  
ENDBRANCH   3   4
BRANCH   3   9
HETATM    9  C   UNL     1     -10.729   7.155  70.994  1.00  0.00    -0.232 C  
HETATM   10  H   UNL     1     -12.582   6.623  71.283  1.00  0.00     0.000 HD 
HETATM   11  O   UNL     1     -12.052   6.821  70.520  1.00  0.00    -0.386 OA 
BRANCH   9  12
HETATM   12  C   UNL     1     -10.170   5.991  71.861  1.00  0.00    -0.200 C  
HETATM   13  H   UNL     1      -9.893   4.029  71.693  1.00  0.00     0.000 HD 
HETATM   14  O   UNL     1     -10.234   4.741  71.163  1.00  0.00    -0.202 OA 
BRANCH  12  15
HETATM   15  C   UNL     1     -10.893   5.872  73.219  1.00  0.00    -0.261 C  
HETATM   16  H   UNL     1     -11.104   6.994  74.813  1.00  0.00     0.000 HD 
HETATM   17  O   UNL     1     -10.659   7.067  73.977  1.00  0.00    -0.341 OA 
BRANCH  15  18
HETATM   18  C   UNL     1     -10.432   4.641  74.026  1.00  0.00    -0.267 C  
HETATM   19  O   UNL     1     -11.155   3.462  73.672  1.00  0.00    -0.224 OA 
HETATM   20  H   UNL     1     -10.871   2.705  74.169  1.00  0.00     0.000 HD 
ENDBRANCH  15  18
ENDBRANCH  12  15
ENDBRANCH   9  12
ENDBRANCH   3   9
TORSDOF 5
ENDMDL
MODEL      289
REMARK 921   NORMALIZED FREE ENERGY PREDICTED BY IDOCK:   -2.19 KCAL/MOL
REMARK 922        TOTAL FREE ENERGY PREDICTED BY IDOCK:   -3.52 KCAL/MOL
REMARK 923 INTER-LIGAND FREE ENERGY PREDICTED BY IDOCK:   -3.43 KCAL/MOL
REMARK 924 INTRA-LIGAND FREE ENERGY PREDICTED BY IDOCK:   -0.09 KCAL/MOL
REMARK 927      BINDING AFFINITY PREDICTED BY RF-SCORE:    0.00 PKD
ROOT
HETATM    1  C   UNL     1      -9.622   6.406  67.285  1.00  0.00    -0.125 C  
HETATM    2  O   UNL     1      -9.601   5.175  67.328  1.00  0.00    -0.128 OA 
HETATM    3  CA  UNL     1     -10.795   7.214  67.816  1.00  0.00    -0.178 C  
ENDROOT
BRANCH   3   4
HETATM    4  N   UNL     1     -10.892   8.507  67.118  1.00  0.00    -0.405 N  
HETATM    5  C   UNL     1     -10.149  10.592  66.134  1.00  0.00    -0.306 C  
HETATM    6  O   UNL     1      -8.654   8.940  67.018  1.00  0.00    -0.115 OA 
HETATM    7  H   UNL     1     -11.819   8.842  66.852  1.00  0.00     0.000 HD 
HETATM    8  C   UNL     1      -9.808   9.289  66.806  1.00  0.00    -0.225 C  
ENDBRANCH   3   4
BRANCH   3   9
HETATM    9  C   UNL     1     -10.762   7.339  69.357  1.00  0.00    -0.225 C  
HETATM   10  H   UNL     1     -11.481   6.297  70.839  1.00  0.00     0.000 HD 
HETATM   11  O   UNL     1     -11.501   6.220  69.893  1.00  0.00    -0.422 OA 
BRANCH   9  12
HETATM   12  C   UNL     1      -9.327   7.357  69.954  1.00  0.00    -0.154 C  
HETATM   13  H   UNL     1      -8.176   6.173  71.062  1.00  0.00     0.000 HD 
HETATM   14  O   UNL     1      -9.053   6.162  70.696  1.00  0.00    -0.148 OA 
BRANCH  12  15
HETATM   15  C   UNL     1      -9.077   8.594  70.842  1.00  0.00    -0.187 C  
HETATM   16  H   UNL     1     -10.126  10.137  71.446  1.00  0.00     0.000 HD 
HETATM   17  O   UNL     1     -10.279   9.376  70.899  1.00  0.00    -0.273 OA 
BRANCH  15  18
HETATM   18  C   UNL     1      -7.911   9.463  70.328  1.00  0.00    -0.161 C  
HETATM   19  O   UNL     1      -8.368  10.675  69.727  1.00  0.00    -0.381 OA 
HETATM   20  H   UNL     1      -7.650  11.211  69.410  1.00  0.00     0.000 HD 
ENDBRANCH  15  18
ENDBRANCH  12  15
ENDBRANCH   9  12
ENDBRANCH   3   9
TORSDOF 5
ENDMDL
MODEL      290
REMARK 921   NORMALIZED FREE ENERGY PREDICTED BY IDOCK:   -2.18 KCAL/MOL
REMARK 922        TOTAL FREE ENERGY PREDICTED BY IDOCK:   -3.51 KCAL/MOL
REMARK 923 INTER-LIGAND FREE ENERGY PREDICTED BY IDOCK:   -2.91 KCAL/MOL
REMARK 924 INTRA-LIGAND FREE ENERGY PREDICTED BY IDOCK:   -0.61 KCAL/MOL
REMARK 927      BINDING AFFINITY PREDICTED BY RF-SCORE:    0.00 PKD
ROOT
HETATM    1  C   UNL     1      -7.256  10.664  68.451  1.00  0.00    -0.084 C  
HETATM    2  O   UNL     1      -6.255  10.055  68.067  1.00  0.00    -0.053 OA 
HETATM    3  CA  UNL     1      -8.579  10.596  67.706  1.00  0.00    -0.123 C  
ENDROOT
BRANCH   3   4
HETATM    4  N   UNL     1      -9.371  11.815  67.943  1.00  0.00    -0.178 N  
HETATM    5  C   UNL     1     -10.637  13.810  67.413  1.00  0.00    -0.260 C  
HETATM    6  O   UNL     1      -9.827  12.280  65.755  1.00  0.00    -0.249 OA 
HETATM    7  H   UNL     1      -9.532  12.104  68.908  1.00  0.00     0.000 HD 
HETATM    8  C   UNL     1      -9.904  12.584  66.938  1.00  0.00    -0.227 C  
ENDBRANCH   3   4
BRANCH   3   9
HETATM    9  C   UNL     1      -9.346   9.287  68.007  1.00  0.00    -0.133 C  
HETATM   10  H   UNL     1      -9.243   7.450  67.362  1.00  0.00     0.000 HD 
HETATM   11  O   UNL     1      -8.771   8.254  67.178  1.00  0.00    -0.121 OA 
BRANCH   9  12
HETATM   12  C   UNL     1      -9.292   8.856  69.500  1.00  0.00    -0.155 C  
HETATM   13  H   UNL     1      -8.793   7.244  70.552  1.00  0.00     0.000 HD 
HETATM   14  O   UNL     1      -8.826   7.508  69.639  1.00  0.00    -0.140 OA 
BRANCH  12  15
HETATM   15  C   UNL     1     -10.654   9.017  70.207  1.00  0.00    -0.217 C  
HETATM   16  H   UNL     1     -12.091  10.351  70.223  1.00  0.00     0.000 HD 
HETATM   17  O   UNL     1     -11.252  10.252  69.788  1.00  0.00    -0.248 OA 
BRANCH  15  18
HETATM   18  C   UNL     1     -10.527   8.991  71.743  1.00  0.00    -0.348 C  
HETATM   19  O   UNL     1     -11.670   8.407  72.369  1.00  0.00    -0.370 OA 
HETATM   20  H   UNL     1     -11.592   8.392  73.315  1.00  0.00     0.000 HD 
ENDBRANCH  15  18
ENDBRANCH  12  15
ENDBRANCH   9  12
ENDBRANCH   3   9
TORSDOF 5
ENDMDL
MODEL      291
REMARK 921   NORMALIZED FREE ENERGY PREDICTED BY IDOCK:   -2.17 KCAL/MOL
REMARK 922        TOTAL FREE ENERGY PREDICTED BY IDOCK:   -3.50 KCAL/MOL
REMARK 923 INTER-LIGAND FREE ENERGY PREDICTED BY IDOCK:   -2.76 KCAL/MOL
REMARK 924 INTRA-LIGAND FREE ENERGY PREDICTED BY IDOCK:   -0.73 KCAL/MOL
REMARK 927      BINDING AFFINITY PREDICTED BY RF-SCORE:    0.00 PKD
ROOT
HETATM    1  C   UNL     1     -11.187   7.298  70.235  1.00  0.00    -0.262 C  
HETATM    2  O   UNL     1     -12.002   6.407  69.989  1.00  0.00    -0.333 OA 
HETATM    3  CA  UNL     1      -9.792   7.306  69.631  1.00  0.00    -0.163 C  
ENDROOT
BRANCH   3   4
HETATM    4  N   UNL     1      -8.853   8.030  70.505  1.00  0.00    -0.135 N  
HETATM    5  C   UNL     1      -7.184   8.356  72.230  1.00  0.00    -0.119 C  
HETATM    6  O   UNL     1      -7.945   6.197  71.518  1.00  0.00    -0.107 OA 
HETATM    7  H   UNL     1      -8.816   9.047  70.433  1.00  0.00     0.000 HD 
HETATM    8  C   UNL     1      -8.026   7.414  71.411  1.00  0.00    -0.096 C  
ENDBRANCH   3   4
BRANCH   3   9
HETATM    9  C   UNL     1      -9.796   7.810  68.169  1.00  0.00    -0.167 C  
HETATM   10  H   UNL     1      -8.681   9.021  67.125  1.00  0.00     0.000 HD 
HETATM   11  O   UNL     1      -8.678   8.712  68.024  1.00  0.00    -0.139 OA 
BRANCH   9  12
HETATM   12  C   UNL     1      -9.697   6.672  67.114  1.00  0.00    -0.142 C  
HETATM   13  H   UNL     1     -10.932   5.481  66.110  1.00  0.00     0.000 HD 
HETATM   14  O   UNL     1     -10.993   6.176  66.755  1.00  0.00    -0.333 OA 
BRANCH  12  15
HETATM   15  C   UNL     1      -8.802   5.508  67.588  1.00  0.00    -0.105 C  
HETATM   16  H   UNL     1      -7.170   4.627  66.950  1.00  0.00     0.000 HD 
HETATM   17  O   UNL     1      -7.721   5.344  66.658  1.00  0.00    -0.097 OA 
BRANCH  15  18
HETATM   18  C   UNL     1      -9.581   4.184  67.724  1.00  0.00    -0.155 C  
HETATM   19  O   UNL     1      -9.790   3.550  66.461  1.00  0.00    -0.408 OA 
HETATM   20  H   UNL     1     -10.269   2.734  66.545  1.00  0.00     0.000 HD 
ENDBRANCH  15  18
ENDBRANCH  12  15
ENDBRANCH   9  12
ENDBRANCH   3   9
TORSDOF 5
ENDMDL
MODEL      292
REMARK 921   NORMALIZED FREE ENERGY PREDICTED BY IDOCK:   -2.16 KCAL/MOL
REMARK 922        TOTAL FREE ENERGY PREDICTED BY IDOCK:   -3.48 KCAL/MOL
REMARK 923 INTER-LIGAND FREE ENERGY PREDICTED BY IDOCK:   -3.23 KCAL/MOL
REMARK 924 INTRA-LIGAND FREE ENERGY PREDICTED BY IDOCK:   -0.25 KCAL/MOL
REMARK 927      BINDING AFFINITY PREDICTED BY RF-SCORE:    0.00 PKD
ROOT
HETATM    1  C   UNL     1     -10.181  10.505  66.102  1.00  0.00    -0.236 C  
HETATM    2  O   UNL     1      -9.951  10.223  64.924  1.00  0.00    -0.317 OA 
HETATM    3  CA  UNL     1     -10.720   9.482  67.088  1.00  0.00    -0.182 C  
ENDROOT
BRANCH   3   4
HETATM    4  N   UNL     1     -11.480  10.146  68.160  1.00  0.00    -0.518 N  
HETATM    5  C   UNL     1     -11.926  11.678  69.983  1.00  0.00    -0.429 C  
HETATM    6  O   UNL     1      -9.900  11.701  68.701  1.00  0.00    -0.203 OA 
HETATM    7  H   UNL     1     -12.425   9.813  68.357  1.00  0.00     0.000 HD 
HETATM    8  C   UNL     1     -10.990  11.186  68.910  1.00  0.00    -0.225 C  
ENDBRANCH   3   4
BRANCH   3   9
HETATM    9  C   UNL     1      -9.612   8.535  67.604  1.00  0.00    -0.153 C  
HETATM   10  H   UNL     1      -9.129   6.674  67.282  1.00  0.00     0.000 HD 
HETATM   11  O   UNL     1      -9.810   7.255  66.964  1.00  0.00    -0.173 OA 
BRANCH   9  12
HETATM   12  C   UNL     1      -8.170   9.046  67.327  1.00  0.00    -0.103 C  
HETATM   13  H   UNL     1      -6.580   8.475  66.278  1.00  0.00     0.000 HD 
HETATM   14  O   UNL     1      -7.462   8.163  66.447  1.00  0.00    -0.084 OA 
BRANCH  12  15
HETATM   15  C   UNL     1      -7.361   9.254  68.624  1.00  0.00    -0.076 C  
HETATM   16  H   UNL     1      -5.646   8.627  69.337  1.00  0.00     0.000 HD 
HETATM   17  O   UNL     1      -6.144   8.499  68.539  1.00  0.00    -0.044 OA 
BRANCH  15  18
HETATM   18  C   UNL     1      -8.149   8.837  69.883  1.00  0.00    -0.109 C  
HETATM   19  O   UNL     1      -8.434   9.948  70.733  1.00  0.00    -0.379 OA 
HETATM   20  H   UNL     1      -8.919   9.692  71.508  1.00  0.00     0.000 HD 
ENDBRANCH  15  18
ENDBRANCH  12  15
ENDBRANCH   9  12
ENDBRANCH   3   9
TORSDOF 5
ENDMDL
MODEL      293
REMARK 921   NORMALIZED FREE ENERGY PREDICTED BY IDOCK:   -2.11 KCAL/MOL
REMARK 922        TOTAL FREE ENERGY PREDICTED BY IDOCK:   -3.42 KCAL/MOL
REMARK 923 INTER-LIGAND FREE ENERGY PREDICTED BY IDOCK:   -3.54 KCAL/MOL
REMARK 924 INTRA-LIGAND FREE ENERGY PREDICTED BY IDOCK:    0.12 KCAL/MOL
REMARK 927      BINDING AFFINITY PREDICTED BY RF-SCORE:    0.00 PKD
ROOT
HETATM    1  C   UNL     1      -8.245   8.161  68.486  1.00  0.00    -0.125 C  
HETATM    2  O   UNL     1      -7.686   8.841  69.349  1.00  0.00    -0.089 OA 
HETATM    3  CA  UNL     1      -9.497   8.636  67.768  1.00  0.00    -0.142 C  
ENDROOT
BRANCH   3   4
HETATM    4  N   UNL     1     -10.297   7.489  67.306  1.00  0.00    -0.265 N  
HETATM    5  C   UNL     1     -10.779   5.368  66.240  1.00  0.00    -0.234 C  
HETATM    6  O   UNL     1      -8.565   6.254  66.480  1.00  0.00    -0.119 OA 
HETATM    7  H   UNL     1     -11.303   7.506  67.475  1.00  0.00     0.000 HD 
HETATM    8  C   UNL     1      -9.766   6.399  66.662  1.00  0.00    -0.153 C  
ENDBRANCH   3   4
BRANCH   3   9
HETATM    9  C   UNL     1      -9.173   9.658  66.653  1.00  0.00    -0.151 C  
HETATM   10  H   UNL     1      -9.711   9.885  64.793  1.00  0.00     0.000 HD 
HETATM   11  O   UNL     1      -9.910   9.258  65.478  1.00  0.00    -0.265 OA 
BRANCH   9  12
HETATM   12  C   UNL     1      -9.529  11.125  67.024  1.00  0.00    -0.177 C  
HETATM   13  H   UNL     1      -9.527  12.277  68.645  1.00  0.00     0.000 HD 
HETATM   14  O   UNL     1      -9.310  11.380  68.418  1.00  0.00    -0.183 OA 
BRANCH  12  15
HETATM   15  C   UNL     1     -10.979  11.491  66.646  1.00  0.00    -0.296 C  
HETATM   16  H   UNL     1     -11.847  12.804  65.477  1.00  0.00     0.000 HD 
HETATM   17  O   UNL     1     -10.955  12.579  65.710  1.00  0.00    -0.277 OA 
BRANCH  15  18
HETATM   18  C   UNL     1     -11.829  11.876  67.873  1.00  0.00    -0.238 C  
HETATM   19  O   UNL     1     -12.312  10.730  68.576  1.00  0.00    -0.825 OA 
HETATM   20  H   UNL     1     -12.835  10.967  69.332  1.00  0.00     0.000 HD 
ENDBRANCH  15  18
ENDBRANCH  12  15
ENDBRANCH   9  12
ENDBRANCH   3   9
TORSDOF 5
ENDMDL
MODEL      294
REMARK 921   NORMALIZED FREE ENERGY PREDICTED BY IDOCK:   -2.10 KCAL/MOL
REMARK 922        TOTAL FREE ENERGY PREDICTED BY IDOCK:   -3.41 KCAL/MOL
REMARK 923 INTER-LIGAND FREE ENERGY PREDICTED BY IDOCK:   -3.45 KCAL/MOL
REMARK 924 INTRA-LIGAND FREE ENERGY PREDICTED BY IDOCK:    0.04 KCAL/MOL
REMARK 927      BINDING AFFINITY PREDICTED BY RF-SCORE:    0.00 PKD
ROOT
HETATM    1  C   UNL     1      -9.092   9.170  67.956  1.00  0.00    -0.131 C  
HETATM    2  O   UNL     1      -8.463   9.114  66.897  1.00  0.00    -0.121 OA 
HETATM    3  CA  UNL     1     -10.413   8.444  68.151  1.00  0.00    -0.174 C  
ENDROOT
BRANCH   3   4
HETATM    4  N   UNL     1     -11.237   9.130  69.161  1.00  0.00    -0.438 N  
HETATM    5  C   UNL     1     -11.799  10.166  71.276  1.00  0.00    -0.448 C  
HETATM    6  O   UNL     1      -9.595   9.405  70.722  1.00  0.00    -0.261 OA 
HETATM    7  H   UNL     1     -12.213   9.321  68.935  1.00  0.00     0.000 HD 
HETATM    8  C   UNL     1     -10.766   9.525  70.388  1.00  0.00    -0.284 C  
ENDBRANCH   3   4
BRANCH   3   9
HETATM    9  C   UNL     1     -10.210   6.937  68.433  1.00  0.00    -0.176 C  
HETATM   10  H   UNL     1     -11.348   5.488  69.070  1.00  0.00     0.000 HD 
HETATM   11  O   UNL     1     -11.473   6.414  68.897  1.00  0.00    -0.314 OA 
BRANCH   9  12
HETATM   12  C   UNL     1      -9.727   6.127  67.196  1.00  0.00    -0.135 C  
HETATM   13  H   UNL     1     -10.521   4.951  65.803  1.00  0.00     0.000 HD 
HETATM   14  O   UNL     1     -10.815   5.445  66.559  1.00  0.00    -0.287 OA 
BRANCH  12  15
HETATM   15  C   UNL     1      -8.614   5.120  67.551  1.00  0.00    -0.104 C  
HETATM   16  H   UNL     1      -6.675   5.198  67.840  1.00  0.00     0.000 HD 
HETATM   17  O   UNL     1      -7.361   5.818  67.620  1.00  0.00    -0.074 OA 
BRANCH  15  18
HETATM   18  C   UNL     1      -8.515   3.967  66.533  1.00  0.00    -0.105 C  
HETATM   19  O   UNL     1      -9.540   2.991  66.723  1.00  0.00    -0.393 OA 
HETATM   20  H   UNL     1      -9.479   2.280  66.096  1.00  0.00     0.000 HD 
ENDBRANCH  15  18
ENDBRANCH  12  15
ENDBRANCH   9  12
ENDBRANCH   3   9
TORSDOF 5
ENDMDL
MODEL      295
REMARK 921   NORMALIZED FREE ENERGY PREDICTED BY IDOCK:   -2.07 KCAL/MOL
REMARK 922        TOTAL FREE ENERGY PREDICTED BY IDOCK:   -3.37 KCAL/MOL
REMARK 923 INTER-LIGAND FREE ENERGY PREDICTED BY IDOCK:   -3.53 KCAL/MOL
REMARK 924 INTRA-LIGAND FREE ENERGY PREDICTED BY IDOCK:    0.16 KCAL/MOL
REMARK 927      BINDING AFFINITY PREDICTED BY RF-SCORE:    0.00 PKD
ROOT
HETATM    1  C   UNL     1     -10.258  10.863  67.125  1.00  0.00    -0.210 C  
HETATM    2  O   UNL     1      -9.998   9.799  66.559  1.00  0.00    -0.209 OA 
HETATM    3  CA  UNL     1     -11.311  10.961  68.217  1.00  0.00    -0.308 C  
ENDROOT
BRANCH   3   4
HETATM    4  N   UNL     1     -11.874  12.320  68.274  1.00  0.00    -0.341 N  
HETATM    5  C   UNL     1     -11.905  14.734  68.478  1.00  0.00    -0.340 C  
HETATM    6  O   UNL     1      -9.889  13.441  68.387  1.00  0.00    -0.229 OA 
HETATM    7  H   UNL     1     -12.888  12.424  68.223  1.00  0.00     0.000 HD 
HETATM    8  C   UNL     1     -11.112  13.456  68.392  1.00  0.00    -0.273 C  
ENDBRANCH   3   4
BRANCH   3   9
HETATM    9  C   UNL     1     -10.784  10.448  69.577  1.00  0.00    -0.251 C  
HETATM   10  H   UNL     1     -11.242  10.772  71.444  1.00  0.00     0.000 HD 
HETATM   11  O   UNL     1     -11.566  11.088  70.609  1.00  0.00    -0.312 OA 
BRANCH   9  12
HETATM   12  C   UNL     1     -10.862   8.903  69.738  1.00  0.00    -0.200 C  
HETATM   13  H   UNL     1     -11.873   7.584  70.830  1.00  0.00     0.000 HD 
HETATM   14  O   UNL     1     -11.825   8.528  70.732  1.00  0.00    -0.262 OA 
BRANCH  12  15
HETATM   15  C   UNL     1      -9.492   8.277  70.073  1.00  0.00    -0.167 C  
HETATM   16  H   UNL     1      -8.121   7.270  69.098  1.00  0.00     0.000 HD 
HETATM   17  O   UNL     1      -8.964   7.655  68.892  1.00  0.00    -0.138 OA 
BRANCH  15  18
HETATM   18  C   UNL     1      -9.579   7.244  71.214  1.00  0.00    -0.162 C  
HETATM   19  O   UNL     1      -8.684   6.148  71.018  1.00  0.00    -0.130 OA 
HETATM   20  H   UNL     1      -8.737   5.512  71.721  1.00  0.00     0.000 HD 
ENDBRANCH  15  18
ENDBRANCH  12  15
ENDBRANCH   9  12
ENDBRANCH   3   9
TORSDOF 5
ENDMDL
MODEL      296
REMARK 921   NORMALIZED FREE ENERGY PREDICTED BY IDOCK:   -2.07 KCAL/MOL
REMARK 922        TOTAL FREE ENERGY PREDICTED BY IDOCK:   -3.37 KCAL/MOL
REMARK 923 INTER-LIGAND FREE ENERGY PREDICTED BY IDOCK:   -2.91 KCAL/MOL
REMARK 924 INTRA-LIGAND FREE ENERGY PREDICTED BY IDOCK:   -0.46 KCAL/MOL
REMARK 927      BINDING AFFINITY PREDICTED BY RF-SCORE:    0.00 PKD
ROOT
HETATM    1  C   UNL     1      -7.854   9.315  69.561  1.00  0.00    -0.086 C  
HETATM    2  O   UNL     1      -6.692   8.912  69.637  1.00  0.00    -0.044 OA 
HETATM    3  CA  UNL     1      -8.860   8.705  68.599  1.00  0.00    -0.142 C  
ENDROOT
BRANCH   3   4
HETATM    4  N   UNL     1      -9.893   9.689  68.235  1.00  0.00    -0.146 N  
HETATM    5  C   UNL     1     -11.123  11.247  66.848  1.00  0.00    -0.339 C  
HETATM    6  O   UNL     1      -9.338   9.873  66.029  1.00  0.00    -0.165 OA 
HETATM    7  H   UNL     1     -10.547   9.990  68.958  1.00  0.00     0.000 HD 
HETATM    8  C   UNL     1     -10.026  10.225  66.978  1.00  0.00    -0.201 C  
ENDBRANCH   3   4
BRANCH   3   9
HETATM    9  C   UNL     1      -9.432   7.369  69.128  1.00  0.00    -0.149 C  
HETATM   10  H   UNL     1      -8.984   5.487  68.889  1.00  0.00     0.000 HD 
HETATM   11  O   UNL     1      -8.632   6.307  68.564  1.00  0.00    -0.114 OA 
BRANCH   9  12
HETATM   12  C   UNL     1      -9.435   7.259  70.679  1.00  0.00    -0.164 C  
HETATM   13  H   UNL     1      -8.692   6.051  72.073  1.00  0.00     0.000 HD 
HETATM   14  O   UNL     1      -8.690   6.118  71.125  1.00  0.00    -0.131 OA 
BRANCH  12  15
HETATM   15  C   UNL     1     -10.863   7.213  71.261  1.00  0.00    -0.233 C  
HETATM   16  H   UNL     1     -12.521   6.242  70.867  1.00  0.00     0.000 HD 
HETATM   17  O   UNL     1     -11.642   6.271  70.508  1.00  0.00    -0.363 OA 
BRANCH  15  18
HETATM   18  C   UNL     1     -11.552   8.593  71.244  1.00  0.00    -0.284 C  
HETATM   19  O   UNL     1     -12.680   8.643  72.119  1.00  0.00    -0.347 OA 
HETATM   20  H   UNL     1     -13.104   9.493  72.109  1.00  0.00     0.000 HD 
ENDBRANCH  15  18
ENDBRANCH  12  15
ENDBRANCH   9  12
ENDBRANCH   3   9
TORSDOF 5
ENDMDL
MODEL      297
REMARK 921   NORMALIZED FREE ENERGY PREDICTED BY IDOCK:   -2.04 KCAL/MOL
REMARK 922        TOTAL FREE ENERGY PREDICTED BY IDOCK:   -3.33 KCAL/MOL
REMARK 923 INTER-LIGAND FREE ENERGY PREDICTED BY IDOCK:   -2.89 KCAL/MOL
REMARK 924 INTRA-LIGAND FREE ENERGY PREDICTED BY IDOCK:   -0.44 KCAL/MOL
REMARK 927      BINDING AFFINITY PREDICTED BY RF-SCORE:    0.00 PKD
ROOT
HETATM    1  C   UNL     1     -11.441   6.398  70.058  1.00  0.00    -0.428 C  
HETATM    2  O   UNL     1     -10.614   5.487  70.122  1.00  0.00    -0.285 OA 
HETATM    3  CA  UNL     1     -11.033   7.862  70.055  1.00  0.00    -0.207 C  
ENDROOT
BRANCH   3   4
HETATM    4  N   UNL     1     -12.114   8.703  70.598  1.00  0.00    -0.482 N  
HETATM    5  C   UNL     1     -13.155  10.472  71.884  1.00  0.00    -0.567 C  
HETATM    6  O   UNL     1     -10.781  10.198  71.692  1.00  0.00     0.466 OA 
HETATM    7  H   UNL     1     -13.076   8.463  70.359  1.00  0.00     0.000 HD 
HETATM    8  C   UNL     1     -11.899   9.790  71.409  1.00  0.00    -0.408 C  
ENDBRANCH   3   4
BRANCH   3   9
HETATM    9  C   UNL     1     -10.526   8.320  68.668  1.00  0.00    -0.168 C  
HETATM   10  H   UNL     1     -10.960   9.784  67.456  1.00  0.00     0.000 HD 
HETATM   11  O   UNL     1     -11.271   9.504  68.309  1.00  0.00    -0.066 OA 
BRANCH   9  12
HETATM   12  C   UNL     1      -9.002   8.623  68.626  1.00  0.00    -0.142 C  
HETATM   13  H   UNL     1      -7.302   7.696  69.078  1.00  0.00     0.000 HD 
HETATM   14  O   UNL     1      -8.234   7.511  69.104  1.00  0.00    -0.127 OA 
BRANCH  12  15
HETATM   15  C   UNL     1      -8.634   9.894  69.418  1.00  0.00    -0.174 C  
HETATM   16  H   UNL     1      -7.906  11.665  68.994  1.00  0.00     0.000 HD 
HETATM   17  O   UNL     1      -8.132  10.882  68.506  1.00  0.00    -0.121 OA 
BRANCH  15  18
HETATM   18  C   UNL     1      -7.590   9.621  70.520  1.00  0.00    -0.132 C  
HETATM   19  O   UNL     1      -6.258   9.598  70.005  1.00  0.00    -0.046 OA 
HETATM   20  H   UNL     1      -5.614   9.430  70.684  1.00  0.00     0.000 HD 
ENDBRANCH  15  18
ENDBRANCH  12  15
ENDBRANCH   9  12
ENDBRANCH   3   9
TORSDOF 5
ENDMDL
MODEL      298
REMARK 921   NORMALIZED FREE ENERGY PREDICTED BY IDOCK:   -2.03 KCAL/MOL
REMARK 922        TOTAL FREE ENERGY PREDICTED BY IDOCK:   -3.32 KCAL/MOL
REMARK 923 INTER-LIGAND FREE ENERGY PREDICTED BY IDOCK:   -4.34 KCAL/MOL
REMARK 924 INTRA-LIGAND FREE ENERGY PREDICTED BY IDOCK:    1.02 KCAL/MOL
REMARK 927      BINDING AFFINITY PREDICTED BY RF-SCORE:    0.00 PKD
ROOT
HETATM    1  C   UNL     1      -9.813  18.486  68.223  1.00  0.00    -0.363 C  
HETATM    2  O   UNL     1     -10.030  19.192  69.209  1.00  0.00    -0.355 OA 
HETATM    3  CA  UNL     1      -9.802  19.049  66.811  1.00  0.00    -0.344 C  
ENDROOT
BRANCH   3   4
HETATM    4  N   UNL     1     -10.155  18.007  65.833  1.00  0.00    -0.233 N  
HETATM    5  C   UNL     1     -10.693  15.798  64.997  1.00  0.00    -0.443 C  
HETATM    6  O   UNL     1     -10.406  16.298  67.324  1.00  0.00    -0.276 OA 
HETATM    7  H   UNL     1     -10.225  18.273  64.850  1.00  0.00     0.000 HD 
HETATM    8  C   UNL     1     -10.394  16.698  66.168  1.00  0.00    -0.330 C  
ENDBRANCH   3   4
BRANCH   3   9
HETATM    9  C   UNL     1      -8.478  19.782  66.491  1.00  0.00    -0.345 C  
HETATM   10  H   UNL     1      -7.481  21.247  67.304  1.00  0.00     0.000 HD 
HETATM   11  O   UNL     1      -8.294  20.797  67.501  1.00  0.00    -0.265 OA 
BRANCH   9  12
HETATM   12  C   UNL     1      -7.237  18.846  66.451  1.00  0.00    -0.237 C  
HETATM   13  H   UNL     1      -6.481  17.450  65.254  1.00  0.00     0.000 HD 
HETATM   14  O   UNL     1      -7.239  18.022  65.278  1.00  0.00    -0.409 OA 
BRANCH  12  15
HETATM   15  C   UNL     1      -7.128  17.963  67.712  1.00  0.00    -0.204 C  
HETATM   16  H   UNL     1      -6.309  18.125  69.486  1.00  0.00     0.000 HD 
HETATM   17  O   UNL     1      -6.376  18.669  68.710  1.00  0.00    -0.209 OA 
BRANCH  15  18
HETATM   18  C   UNL     1      -6.463  16.602  67.422  1.00  0.00    -0.171 C  
HETATM   19  O   UNL     1      -7.356  15.692  66.778  1.00  0.00    -0.153 OA 
HETATM   20  H   UNL     1      -6.947  14.854  66.599  1.00  0.00     0.000 HD 
ENDBRANCH  15  18
ENDBRANCH  12  15
ENDBRANCH   9  12
ENDBRANCH   3   9
TORSDOF 5
ENDMDL
MODEL      299
REMARK 921   NORMALIZED FREE ENERGY PREDICTED BY IDOCK:   -2.03 KCAL/MOL
REMARK 922        TOTAL FREE ENERGY PREDICTED BY IDOCK:   -3.31 KCAL/MOL
REMARK 923 INTER-LIGAND FREE ENERGY PREDICTED BY IDOCK:   -2.95 KCAL/MOL
REMARK 924 INTRA-LIGAND FREE ENERGY PREDICTED BY IDOCK:   -0.36 KCAL/MOL
REMARK 927      BINDING AFFINITY PREDICTED BY RF-SCORE:    0.00 PKD
ROOT
HETATM    1  C   UNL     1     -10.147  10.597  66.320  1.00  0.00    -0.235 C  
HETATM    2  O   UNL     1     -11.147  11.088  66.847  1.00  0.00    -0.280 OA 
HETATM    3  CA  UNL     1      -9.091   9.854  67.122  1.00  0.00    -0.138 C  
ENDROOT
BRANCH   3   4
HETATM    4  N   UNL     1      -7.782   9.929  66.453  1.00  0.00    -0.102 N  
HETATM    5  C   UNL     1      -5.616  10.828  65.846  1.00  0.00    -0.141 C  
HETATM    6  O   UNL     1      -7.034  11.807  67.512  1.00  0.00    -0.094 OA 
HETATM    7  H   UNL     1      -7.541   9.198  65.784  1.00  0.00     0.000 HD 
HETATM    8  C   UNL     1      -6.868  10.928  66.677  1.00  0.00    -0.127 C  
ENDBRANCH   3   4
BRANCH   3   9
HETATM    9  C   UNL     1      -9.533   8.412  67.466  1.00  0.00    -0.149 C  
HETATM   10  H   UNL     1      -8.605   6.751  67.890  1.00  0.00     0.000 HD 
HETATM   11  O   UNL     1      -8.334   7.637  67.680  1.00  0.00    -0.116 OA 
BRANCH   9  12
HETATM   12  C   UNL     1     -10.451   8.319  68.717  1.00  0.00    -0.177 C  
HETATM   13  H   UNL     1     -10.501   9.048  70.567  1.00  0.00     0.000 HD 
HETATM   14  O   UNL     1      -9.940   9.105  69.802  1.00  0.00    -0.178 OA 
BRANCH  12  15
HETATM   15  C   UNL     1     -10.665   6.863  69.181  1.00  0.00    -0.234 C  
HETATM   16  H   UNL     1     -10.919   5.124  68.310  1.00  0.00     0.000 HD 
HETATM   17  O   UNL     1     -10.787   6.020  68.025  1.00  0.00    -0.283 OA 
BRANCH  15  18
HETATM   18  C   UNL     1     -11.911   6.706  70.076  1.00  0.00    -0.238 C  
HETATM   19  O   UNL     1     -12.170   7.879  70.848  1.00  0.00    -0.457 OA 
HETATM   20  H   UNL     1     -12.937   7.783  71.400  1.00  0.00     0.000 HD 
ENDBRANCH  15  18
ENDBRANCH  12  15
ENDBRANCH   9  12
ENDBRANCH   3   9
TORSDOF 5
ENDMDL
MODEL      300
REMARK 921   NORMALIZED FREE ENERGY PREDICTED BY IDOCK:   -2.01 KCAL/MOL
REMARK 922        TOTAL FREE ENERGY PREDICTED BY IDOCK:   -3.29 KCAL/MOL
REMARK 923 INTER-LIGAND FREE ENERGY PREDICTED BY IDOCK:   -3.26 KCAL/MOL
REMARK 924 INTRA-LIGAND FREE ENERGY PREDICTED BY IDOCK:   -0.03 KCAL/MOL
REMARK 927      BINDING AFFINITY PREDICTED BY RF-SCORE:    0.00 PKD
ROOT
HETATM    1  C   UNL     1     -10.742   4.459  73.091  1.00  0.00    -0.220 C  
HETATM    2  O   UNL     1     -11.780   4.000  73.571  1.00  0.00    -0.157 OA 
HETATM    3  CA  UNL     1     -10.705   5.801  72.379  1.00  0.00    -0.235 C  
ENDROOT
BRANCH   3   4
HETATM    4  N   UNL     1      -9.611   5.836  71.394  1.00  0.00    -0.157 N  
HETATM    5  C   UNL     1      -8.527   5.690  69.233  1.00  0.00    -0.106 C  
HETATM    6  O   UNL     1     -10.900   5.532  69.535  1.00  0.00    -0.311 OA 
HETATM    7  H   UNL     1      -8.663   6.000  71.733  1.00  0.00     0.000 HD 
HETATM    8  C   UNL     1      -9.795   5.661  70.045  1.00  0.00    -0.186 C  
ENDBRANCH   3   4
BRANCH   3   9
HETATM    9  C   UNL     1     -10.684   6.984  73.375  1.00  0.00    -0.345 C  
HETATM   10  H   UNL     1      -9.990   7.258  75.177  1.00  0.00     0.000 HD 
HETATM   11  O   UNL     1     -10.003   6.531  74.565  1.00  0.00    -0.315 OA 
BRANCH   9  12
HETATM   12  C   UNL     1      -9.985   8.258  72.821  1.00  0.00    -0.263 C  
HETATM   13  H   UNL     1     -10.059   9.387  71.185  1.00  0.00     0.000 HD 
HETATM   14  O   UNL     1     -10.486   8.608  71.524  1.00  0.00    -0.227 OA 
BRANCH  12  15
HETATM   15  C   UNL     1      -8.450   8.110  72.768  1.00  0.00    -0.188 C  
HETATM   16  H   UNL     1      -6.940   8.620  73.910  1.00  0.00     0.000 HD 
HETATM   17  O   UNL     1      -7.884   8.711  73.942  1.00  0.00    -0.406 OA 
BRANCH  15  18
HETATM   18  C   UNL     1      -7.839   8.751  71.506  1.00  0.00    -0.104 C  
HETATM   19  O   UNL     1      -6.493   8.328  71.284  1.00  0.00    -0.041 OA 
HETATM   20  H   UNL     1      -6.117   8.723  70.507  1.00  0.00     0.000 HD 
ENDBRANCH  15  18
ENDBRANCH  12  15
ENDBRANCH   9  12
ENDBRANCH   3   9
TORSDOF 5
ENDMDL
MODEL      301
REMARK 921   NORMALIZED FREE ENERGY PREDICTED BY IDOCK:   -2.01 KCAL/MOL
REMARK 922        TOTAL FREE ENERGY PREDICTED BY IDOCK:   -3.29 KCAL/MOL
REMARK 923 INTER-LIGAND FREE ENERGY PREDICTED BY IDOCK:   -3.48 KCAL/MOL
REMARK 924 INTRA-LIGAND FREE ENERGY PREDICTED BY IDOCK:    0.20 KCAL/MOL
REMARK 927      BINDING AFFINITY PREDICTED BY RF-SCORE:    0.00 PKD
ROOT
HETATM    1  C   UNL     1      -8.190   9.845  68.057  1.00  0.00    -0.113 C  
HETATM    2  O   UNL     1      -7.270   9.060  68.293  1.00  0.00    -0.076 OA 
HETATM    3  CA  UNL     1      -9.624   9.560  68.474  1.00  0.00    -0.142 C  
ENDROOT
BRANCH   3   4
HETATM    4  N   UNL     1     -10.571  10.251  67.583  1.00  0.00    -0.243 N  
HETATM    5  C   UNL     1     -11.521  12.058  66.280  1.00  0.00    -0.408 C  
HETATM    6  O   UNL     1      -9.408  12.206  67.403  1.00  0.00    -0.174 OA 
HETATM    7  H   UNL     1     -11.399   9.742  67.274  1.00  0.00     0.000 HD 
HETATM    8  C   UNL     1     -10.403  11.541  67.146  1.00  0.00    -0.216 C  
ENDBRANCH   3   4
BRANCH   3   9
HETATM    9  C   UNL     1      -9.858   9.847  69.976  1.00  0.00    -0.243 C  
HETATM   10  H   UNL     1     -11.201  10.821  71.000  1.00  0.00     0.000 HD 
HETATM   11  O   UNL     1     -11.058  10.644  70.077  1.00  0.00    -0.281 OA 
BRANCH   9  12
HETATM   12  C   UNL     1     -10.001   8.566  70.845  1.00  0.00    -0.191 C  
HETATM   13  H   UNL     1      -9.231   6.734  70.908  1.00  0.00     0.000 HD 
HETATM   14  O   UNL     1      -9.143   7.517  70.377  1.00  0.00    -0.152 OA 
BRANCH  12  15
HETATM   15  C   UNL     1     -11.458   8.061  70.911  1.00  0.00    -0.276 C  
HETATM   16  H   UNL     1     -12.764   7.690  72.326  1.00  0.00     0.000 HD 
HETATM   17  O   UNL     1     -11.867   8.000  72.285  1.00  0.00    -0.327 OA 
BRANCH  15  18
HETATM   18  C   UNL     1     -11.633   6.679  70.250  1.00  0.00    -0.395 C  
HETATM   19  O   UNL     1     -11.014   5.638  71.007  1.00  0.00    -0.248 OA 
HETATM   20  H   UNL     1     -11.122   4.786  70.600  1.00  0.00     0.000 HD 
ENDBRANCH  15  18
ENDBRANCH  12  15
ENDBRANCH   9  12
ENDBRANCH   3   9
TORSDOF 5
ENDMDL
MODEL      302
REMARK 921   NORMALIZED FREE ENERGY PREDICTED BY IDOCK:   -1.93 KCAL/MOL
REMARK 922        TOTAL FREE ENERGY PREDICTED BY IDOCK:   -3.19 KCAL/MOL
REMARK 923 INTER-LIGAND FREE ENERGY PREDICTED BY IDOCK:   -3.55 KCAL/MOL
REMARK 924 INTRA-LIGAND FREE ENERGY PREDICTED BY IDOCK:    0.36 KCAL/MOL
REMARK 927      BINDING AFFINITY PREDICTED BY RF-SCORE:    0.00 PKD
ROOT
HETATM    1  C   UNL     1      -7.981  13.411  67.412  1.00  0.00    -0.163 C  
HETATM    2  O   UNL     1      -6.888  13.938  67.629  1.00  0.00    -0.165 OA 
HETATM    3  CA  UNL     1      -9.119  13.464  68.418  1.00  0.00    -0.142 C  
ENDROOT
BRANCH   3   4
HETATM    4  N   UNL     1     -10.015  12.308  68.250  1.00  0.00    -0.214 N  
HETATM    5  C   UNL     1     -11.364  10.659  67.098  1.00  0.00    -0.046 C  
HETATM    6  O   UNL     1      -9.983  12.261  65.968  1.00  0.00    -0.243 OA 
HETATM    7  H   UNL     1     -10.365  11.845  69.089  1.00  0.00     0.000 HD 
HETATM    8  C   UNL     1     -10.407  11.819  67.029  1.00  0.00    -0.214 C  
ENDBRANCH   3   4
BRANCH   3   9
HETATM    9  C   UNL     1      -9.849  14.827  68.396  1.00  0.00    -0.220 C  
HETATM   10  H   UNL     1     -10.288  16.133  67.016  1.00  0.00     0.000 HD 
HETATM   11  O   UNL     1      -9.839  15.296  67.030  1.00  0.00    -0.225 OA 
BRANCH   9  12
HETATM   12  C   UNL     1     -11.311  14.764  68.921  1.00  0.00    -0.282 C  
HETATM   13  H   UNL     1     -12.910  15.944  68.975  1.00  0.00     0.000 HD 
HETATM   14  O   UNL     1     -12.017  15.983  68.654  1.00  0.00    -0.306 OA 
BRANCH  12  15
HETATM   15  C   UNL     1     -11.380  14.438  70.428  1.00  0.00    -0.094 C  
HETATM   16  H   UNL     1     -12.453  13.263  71.574  1.00  0.00     0.000 HD 
HETATM   17  O   UNL     1     -12.410  13.464  70.646  1.00  0.00    -0.350 OA 
BRANCH  15  18
HETATM   18  C   UNL     1     -11.651  15.688  71.289  1.00  0.00    -0.428 C  
HETATM   19  O   UNL     1     -11.657  15.389  72.686  1.00  0.00    -0.459 OA 
HETATM   20  H   UNL     1     -11.823  16.159  73.217  1.00  0.00     0.000 HD 
ENDBRANCH  15  18
ENDBRANCH  12  15
ENDBRANCH   9  12
ENDBRANCH   3   9
TORSDOF 5
ENDMDL
MODEL      303
REMARK 921   NORMALIZED FREE ENERGY PREDICTED BY IDOCK:   -1.92 KCAL/MOL
REMARK 922        TOTAL FREE ENERGY PREDICTED BY IDOCK:   -3.17 KCAL/MOL
REMARK 923 INTER-LIGAND FREE ENERGY PREDICTED BY IDOCK:   -3.71 KCAL/MOL
REMARK 924 INTRA-LIGAND FREE ENERGY PREDICTED BY IDOCK:    0.54 KCAL/MOL
REMARK 927      BINDING AFFINITY PREDICTED BY RF-SCORE:    0.00 PKD
ROOT
HETATM    1  C   UNL     1     -10.251  16.771  69.369  1.00  0.00    -0.225 C  
HETATM    2  O   UNL     1     -11.232  16.721  70.112  1.00  0.00    -0.160 OA 
HETATM    3  CA  UNL     1      -9.237  15.642  69.290  1.00  0.00    -0.269 C  
ENDROOT
BRANCH   3   4
HETATM    4  N   UNL     1      -7.919  16.155  68.879  1.00  0.00    -0.210 N  
HETATM    5  C   UNL     1      -6.267  17.757  68.123  1.00  0.00    -0.173 C  
HETATM    6  O   UNL     1      -8.527  18.344  68.662  1.00  0.00    -0.326 OA 
HETATM    7  H   UNL     1      -7.141  15.497  68.827  1.00  0.00     0.000 HD 
HETATM    8  C   UNL     1      -7.678  17.469  68.561  1.00  0.00    -0.272 C  
ENDBRANCH   3   4
BRANCH   3   9
HETATM    9  C   UNL     1      -9.745  14.466  68.424  1.00  0.00    -0.226 C  
HETATM   10  H   UNL     1     -10.528  12.719  68.794  1.00  0.00     0.000 HD 
HETATM   11  O   UNL     1     -10.216  13.442  69.327  1.00  0.00     0.095 OA 
BRANCH   9  12
HETATM   12  C   UNL     1     -10.878  14.859  67.435  1.00  0.00    -0.304 C  
HETATM   13  H   UNL     1     -12.759  14.331  67.063  1.00  0.00     0.000 HD 
HETATM   14  O   UNL     1     -12.066  14.091  67.667  1.00  0.00    -0.382 OA 
BRANCH  12  15
HETATM   15  C   UNL     1     -10.445  14.721  65.961  1.00  0.00    -0.303 C  
HETATM   16  H   UNL     1      -9.488  13.389  64.886  1.00  0.00     0.000 HD 
HETATM   17  O   UNL     1      -9.754  13.474  65.794  1.00  0.00    -0.235 OA 
BRANCH  15  18
HETATM   18  C   UNL     1      -9.542  15.884  65.500  1.00  0.00    -0.124 C  
HETATM   19  O   UNL     1     -10.216  17.142  65.552  1.00  0.00    -0.592 OA 
HETATM   20  H   UNL     1      -9.660  17.858  65.268  1.00  0.00     0.000 HD 
ENDBRANCH  15  18
ENDBRANCH  12  15
ENDBRANCH   9  12
ENDBRANCH   3   9
TORSDOF 5
ENDMDL
MODEL      304
REMARK 921   NORMALIZED FREE ENERGY PREDICTED BY IDOCK:   -1.90 KCAL/MOL
REMARK 922        TOTAL FREE ENERGY PREDICTED BY IDOCK:   -3.14 KCAL/MOL
REMARK 923 INTER-LIGAND FREE ENERGY PREDICTED BY IDOCK:   -3.10 KCAL/MOL
REMARK 924 INTRA-LIGAND FREE ENERGY PREDICTED BY IDOCK:   -0.04 KCAL/MOL
REMARK 927      BINDING AFFINITY PREDICTED BY RF-SCORE:    0.00 PKD
ROOT
HETATM    1  C   UNL     1      -9.783   9.087  69.083  1.00  0.00    -0.167 C  
HETATM    2  O   UNL     1      -9.077   9.042  68.075  1.00  0.00    -0.135 OA 
HETATM    3  CA  UNL     1     -10.702   7.943  69.478  1.00  0.00    -0.192 C  
ENDROOT
BRANCH   3   4
HETATM    4  N   UNL     1     -11.840   8.440  70.270  1.00  0.00    -0.461 N  
HETATM    5  C   UNL     1     -13.026   9.333  72.184  1.00  0.00    -0.503 C  
HETATM    6  O   UNL     1     -10.647   9.047  72.119  1.00  0.00    -0.324 OA 
HETATM    7  H   UNL     1     -12.766   8.426  69.844  1.00  0.00     0.000 HD 
HETATM    8  C   UNL     1     -11.724   8.922  71.550  1.00  0.00    -0.324 C  
ENDBRANCH   3   4
BRANCH   3   9
HETATM    9  C   UNL     1      -9.931   6.786  70.155  1.00  0.00    -0.177 C  
HETATM   10  H   UNL     1     -10.431   5.237  71.228  1.00  0.00     0.000 HD 
HETATM   11  O   UNL     1     -10.905   5.947  70.812  1.00  0.00    -0.267 OA 
BRANCH   9  12
HETATM   12  C   UNL     1      -9.084   5.935  69.167  1.00  0.00    -0.122 C  
HETATM   13  H   UNL     1      -9.232   4.191  68.222  1.00  0.00     0.000 HD 
HETATM   14  O   UNL     1      -9.749   4.712  68.826  1.00  0.00    -0.160 OA 
BRANCH  12  15
HETATM   15  C   UNL     1      -7.674   5.629  69.715  1.00  0.00    -0.079 C  
HETATM   16  H   UNL     1      -6.926   4.546  71.169  1.00  0.00     0.000 HD 
HETATM   17  O   UNL     1      -7.793   4.735  70.831  1.00  0.00    -0.077 OA 
BRANCH  15  18
HETATM   18  C   UNL     1      -6.919   6.903  70.144  1.00  0.00    -0.066 C  
HETATM   19  O   UNL     1      -6.723   7.806  69.055  1.00  0.00    -0.047 OA 
HETATM   20  H   UNL     1      -6.258   8.591  69.319  1.00  0.00     0.000 HD 
ENDBRANCH  15  18
ENDBRANCH  12  15
ENDBRANCH   9  12
ENDBRANCH   3   9
TORSDOF 5
ENDMDL
MODEL      305
REMARK 921   NORMALIZED FREE ENERGY PREDICTED BY IDOCK:   -1.86 KCAL/MOL
REMARK 922        TOTAL FREE ENERGY PREDICTED BY IDOCK:   -3.09 KCAL/MOL
REMARK 923 INTER-LIGAND FREE ENERGY PREDICTED BY IDOCK:   -3.90 KCAL/MOL
REMARK 924 INTRA-LIGAND FREE ENERGY PREDICTED BY IDOCK:    0.80 KCAL/MOL
REMARK 927      BINDING AFFINITY PREDICTED BY RF-SCORE:    0.00 PKD
ROOT
HETATM    1  C   UNL     1     -10.135  19.018  68.584  1.00  0.00    -0.382 C  
HETATM    2  O   UNL     1     -10.369  20.172  68.947  1.00  0.00    -0.382 OA 
HETATM    3  CA  UNL     1      -8.942  18.671  67.708  1.00  0.00    -0.282 C  
ENDROOT
BRANCH   3   4
HETATM    4  N   UNL     1      -9.212  17.456  66.921  1.00  0.00    -0.248 N  
HETATM    5  C   UNL     1     -10.380  15.463  66.192  1.00  0.00    -0.325 C  
HETATM    6  O   UNL     1     -11.253  16.983  67.828  1.00  0.00    -0.186 OA 
HETATM    7  H   UNL     1      -8.524  17.172  66.224  1.00  0.00     0.000 HD 
HETATM    8  C   UNL     1     -10.338  16.685  67.072  1.00  0.00    -0.301 C  
ENDBRANCH   3   4
BRANCH   3   9
HETATM    9  C   UNL     1      -7.627  18.607  68.520  1.00  0.00    -0.311 C  
HETATM   10  H   UNL     1      -6.464  17.175  69.150  1.00  0.00     0.000 HD 
HETATM   11  O   UNL     1      -7.272  17.214  68.652  1.00  0.00    -0.206 OA 
BRANCH   9  12
HETATM   12  C   UNL     1      -6.452  19.392  67.872  1.00  0.00    -0.227 C  
HETATM   13  H   UNL     1      -5.762  21.256  67.843  1.00  0.00     0.000 HD 
HETATM   14  O   UNL     1      -6.481  20.777  68.239  1.00  0.00    -0.304 OA 
BRANCH  12  15
HETATM   15  C   UNL     1      -6.433  19.257  66.335  1.00  0.00    -0.187 C  
HETATM   16  H   UNL     1      -5.171  18.594  64.987  1.00  0.00     0.000 HD 
HETATM   17  O   UNL     1      -5.183  18.678  65.934  1.00  0.00    -0.137 OA 
BRANCH  15  18
HETATM   18  C   UNL     1      -6.635  20.610  65.622  1.00  0.00    -0.201 C  
HETATM   19  O   UNL     1      -7.371  20.474  64.406  1.00  0.00    -0.215 OA 
HETATM   20  H   UNL     1      -7.496  21.307  63.967  1.00  0.00     0.000 HD 
ENDBRANCH  15  18
ENDBRANCH  12  15
ENDBRANCH   9  12
ENDBRANCH   3   9
TORSDOF 5
ENDMDL
MODEL      306
REMARK 921   NORMALIZED FREE ENERGY PREDICTED BY IDOCK:   -1.83 KCAL/MOL
REMARK 922        TOTAL FREE ENERGY PREDICTED BY IDOCK:   -3.06 KCAL/MOL
REMARK 923 INTER-LIGAND FREE ENERGY PREDICTED BY IDOCK:   -3.36 KCAL/MOL
REMARK 924 INTRA-LIGAND FREE ENERGY PREDICTED BY IDOCK:    0.31 KCAL/MOL
REMARK 927      BINDING AFFINITY PREDICTED BY RF-SCORE:    0.00 PKD
ROOT
HETATM    1  C   UNL     1     -10.229  17.003  68.242  1.00  0.00    -0.326 C  
HETATM    2  O   UNL     1     -11.392  17.097  68.640  1.00  0.00    -0.058 OA 
HETATM    3  CA  UNL     1      -9.492  15.675  68.205  1.00  0.00    -0.195 C  
ENDROOT
BRANCH   3   4
HETATM    4  N   UNL     1      -8.039  15.885  68.318  1.00  0.00    -0.141 N  
HETATM    5  C   UNL     1      -5.839  15.878  69.331  1.00  0.00    -0.127 C  
HETATM    6  O   UNL     1      -7.778  14.930  70.374  1.00  0.00     0.346 OA 
HETATM    7  H   UNL     1      -7.554  16.322  67.534  1.00  0.00     0.000 HD 
HETATM    8  C   UNL     1      -7.300  15.525  69.418  1.00  0.00    -0.215 C  
ENDBRANCH   3   4
BRANCH   3   9
HETATM    9  C   UNL     1      -9.904  14.817  66.986  1.00  0.00    -0.239 C  
HETATM   10  H   UNL     1      -8.943  13.858  65.587  1.00  0.00     0.000 HD 
HETATM   11  O   UNL     1      -8.689  14.385  66.336  1.00  0.00    -0.104 OA 
BRANCH   9  12
HETATM   12  C   UNL     1     -10.773  13.581  67.355  1.00  0.00    -0.263 C  
HETATM   13  H   UNL     1     -10.661  12.009  68.568  1.00  0.00     0.000 HD 
HETATM   14  O   UNL     1     -10.130  12.765  68.343  1.00  0.00    -0.232 OA 
BRANCH  12  15
HETATM   15  C   UNL     1     -11.130  12.726  66.121  1.00  0.00    -0.290 C  
HETATM   16  H   UNL     1     -10.147  11.905  64.636  1.00  0.00     0.000 HD 
HETATM   17  O   UNL     1      -9.928  12.431  65.395  1.00  0.00    -0.267 OA 
BRANCH  15  18
HETATM   18  C   UNL     1     -12.143  13.426  65.192  1.00  0.00    -0.409 C  
HETATM   19  O   UNL     1     -13.073  12.507  64.618  1.00  0.00    -0.845 OA 
HETATM   20  H   UNL     1     -13.696  12.938  64.046  1.00  0.00     0.000 HD 
ENDBRANCH  15  18
ENDBRANCH  12  15
ENDBRANCH   9  12
ENDBRANCH   3   9
TORSDOF 5
ENDMDL
MODEL      307
REMARK 921   NORMALIZED FREE ENERGY PREDICTED BY IDOCK:   -1.77 KCAL/MOL
REMARK 922        TOTAL FREE ENERGY PREDICTED BY IDOCK:   -2.97 KCAL/MOL
REMARK 923 INTER-LIGAND FREE ENERGY PREDICTED BY IDOCK:   -2.83 KCAL/MOL
REMARK 924 INTRA-LIGAND FREE ENERGY PREDICTED BY IDOCK:   -0.14 KCAL/MOL
REMARK 927      BINDING AFFINITY PREDICTED BY RF-SCORE:    0.00 PKD
ROOT
HETATM    1  C   UNL     1      -9.924  11.817  65.297  1.00  0.00    -0.253 C  
HETATM    2  O   UNL     1     -10.879  11.075  65.062  1.00  0.00    -0.233 OA 
HETATM    3  CA  UNL     1      -9.592  12.288  66.704  1.00  0.00    -0.223 C  
ENDROOT
BRANCH   3   4
HETATM    4  N   UNL     1      -8.886  13.579  66.666  1.00  0.00    -0.440 N  
HETATM    5  C   UNL     1      -8.547  15.945  66.271  1.00  0.00    -0.348 C  
HETATM    6  O   UNL     1     -10.660  14.848  65.994  1.00  0.00    -0.292 OA 
HETATM    7  H   UNL     1      -7.904  13.599  66.945  1.00  0.00     0.000 HD 
HETATM    8  C   UNL     1      -9.472  14.757  66.276  1.00  0.00    -0.303 C  
ENDBRANCH   3   4
BRANCH   3   9
HETATM    9  C   UNL     1      -8.856  11.199  67.519  1.00  0.00    -0.139 C  
HETATM   10  H   UNL     1      -8.848   9.250  67.525  1.00  0.00     0.000 HD 
HETATM   11  O   UNL     1      -9.300   9.918  67.023  1.00  0.00    -0.143 OA 
BRANCH   9  12
HETATM   12  C   UNL     1      -7.306  11.290  67.432  1.00  0.00    -0.115 C  
HETATM   13  H   UNL     1      -5.889  11.026  66.062  1.00  0.00     0.000 HD 
HETATM   14  O   UNL     1      -6.836  10.971  66.116  1.00  0.00    -0.124 OA 
BRANCH  12  15
HETATM   15  C   UNL     1      -6.606  10.391  68.471  1.00  0.00    -0.052 C  
HETATM   16  H   UNL     1      -5.099  10.572  69.713  1.00  0.00     0.000 HD 
HETATM   17  O   UNL     1      -5.530  11.126  69.073  1.00  0.00    -0.041 OA 
BRANCH  15  18
HETATM   18  C   UNL     1      -6.066   9.085  67.853  1.00  0.00    -0.051 C  
HETATM   19  O   UNL     1      -7.031   8.033  67.888  1.00  0.00    -0.074 OA 
HETATM   20  H   UNL     1      -6.698   7.229  67.507  1.00  0.00     0.000 HD 
ENDBRANCH  15  18
ENDBRANCH  12  15
ENDBRANCH   9  12
ENDBRANCH   3   9
TORSDOF 5
ENDMDL
MODEL      308
REMARK 921   NORMALIZED FREE ENERGY PREDICTED BY IDOCK:   -1.74 KCAL/MOL
REMARK 922        TOTAL FREE ENERGY PREDICTED BY IDOCK:   -2.95 KCAL/MOL
REMARK 923 INTER-LIGAND FREE ENERGY PREDICTED BY IDOCK:   -3.37 KCAL/MOL
REMARK 924 INTRA-LIGAND FREE ENERGY PREDICTED BY IDOCK:    0.42 KCAL/MOL
REMARK 927      BINDING AFFINITY PREDICTED BY RF-SCORE:    0.00 PKD
ROOT
HETATM    1  C   UNL     1     -11.154  10.863  67.304  1.00  0.00    -0.283 C  
HETATM    2  O   UNL     1     -12.036  11.705  67.483  1.00  0.00    -0.622 OA 
HETATM    3  CA  UNL     1      -9.976  10.711  68.252  1.00  0.00    -0.158 C  
ENDROOT
BRANCH   3   4
HETATM    4  N   UNL     1      -8.810  10.153  67.546  1.00  0.00    -0.125 N  
HETATM    5  C   UNL     1      -7.165   9.879  65.790  1.00  0.00    -0.110 C  
HETATM    6  O   UNL     1      -8.811  11.622  65.800  1.00  0.00    -0.133 OA 
HETATM    7  H   UNL     1      -8.324   9.363  67.971  1.00  0.00     0.000 HD 
HETATM    8  C   UNL     1      -8.341  10.635  66.350  1.00  0.00    -0.151 C  
ENDBRANCH   3   4
BRANCH   3   9
HETATM    9  C   UNL     1     -10.359   9.934  69.533  1.00  0.00    -0.229 C  
HETATM   10  H   UNL     1     -12.031   9.534  70.454  1.00  0.00     0.000 HD 
HETATM   11  O   UNL     1     -11.795  10.011  69.667  1.00  0.00    -0.115 OA 
BRANCH   9  12
HETATM   12  C   UNL     1      -9.911   8.445  69.521  1.00  0.00    -0.190 C  
HETATM   13  H   UNL     1     -10.290   6.800  68.470  1.00  0.00     0.000 HD 
HETATM   14  O   UNL     1     -10.564   7.710  68.478  1.00  0.00    -0.192 OA 
BRANCH  12  15
HETATM   15  C   UNL     1     -10.146   7.750  70.878  1.00  0.00    -0.187 C  
HETATM   16  H   UNL     1     -11.693   7.054  71.862  1.00  0.00     0.000 HD 
HETATM   17  O   UNL     1     -11.548   7.481  71.026  1.00  0.00    -0.274 OA 
BRANCH  15  18
HETATM   18  C   UNL     1      -9.647   8.596  72.067  1.00  0.00    -0.314 C  
HETATM   19  O   UNL     1      -8.222   8.648  72.131  1.00  0.00    -0.285 OA 
HETATM   20  H   UNL     1      -7.914   9.169  72.863  1.00  0.00     0.000 HD 
ENDBRANCH  15  18
ENDBRANCH  12  15
ENDBRANCH   9  12
ENDBRANCH   3   9
TORSDOF 5
ENDMDL
MODEL      309
REMARK 921   NORMALIZED FREE ENERGY PREDICTED BY IDOCK:   -1.65 KCAL/MOL
REMARK 922        TOTAL FREE ENERGY PREDICTED BY IDOCK:   -2.82 KCAL/MOL
REMARK 923 INTER-LIGAND FREE ENERGY PREDICTED BY IDOCK:   -3.15 KCAL/MOL
REMARK 924 INTRA-LIGAND FREE ENERGY PREDICTED BY IDOCK:    0.33 KCAL/MOL
REMARK 927      BINDING AFFINITY PREDICTED BY RF-SCORE:    0.00 PKD
ROOT
HETATM    1  C   UNL     1     -11.007  13.176  68.216  1.00  0.00    -0.253 C  
HETATM    2  O   UNL     1     -11.937  12.994  69.003  1.00  0.00    -0.303 OA 
HETATM    3  CA  UNL     1      -9.559  12.923  68.602  1.00  0.00    -0.019 C  
ENDROOT
BRANCH   3   4
HETATM    4  N   UNL     1      -8.654  13.767  67.803  1.00  0.00    -0.171 N  
HETATM    5  C   UNL     1      -7.355  15.717  67.190  1.00  0.00    -0.257 C  
HETATM    6  O   UNL     1      -8.539  15.515  69.265  1.00  0.00    -0.234 OA 
HETATM    7  H   UNL     1      -8.313  13.399  66.915  1.00  0.00     0.000 HD 
HETATM    8  C   UNL     1      -8.243  15.019  68.186  1.00  0.00    -0.140 C  
ENDBRANCH   3   4
BRANCH   3   9
HETATM    9  C   UNL     1      -9.204  11.419  68.564  1.00  0.00    -0.174 C  
HETATM   10  H   UNL     1     -10.029   9.790  69.246  1.00  0.00     0.000 HD 
HETATM   11  O   UNL     1     -10.248  10.714  69.269  1.00  0.00    -0.212 OA 
BRANCH   9  12
HETATM   12  C   UNL     1      -9.058  10.845  67.126  1.00  0.00    -0.145 C  
HETATM   13  H   UNL     1      -8.251  11.394  65.394  1.00  0.00     0.000 HD 
HETATM   14  O   UNL     1      -8.340  11.745  66.273  1.00  0.00    -0.106 OA 
BRANCH  12  15
HETATM   15  C   UNL     1     -10.421  10.496  66.493  1.00  0.00    -0.212 C  
HETATM   16  H   UNL     1     -11.248   8.904  65.701  1.00  0.00     0.000 HD 
HETATM   17  O   UNL     1     -10.409   9.118  66.091  1.00  0.00    -0.221 OA 
BRANCH  15  18
HETATM   18  C   UNL     1     -10.754  11.391  65.282  1.00  0.00    -0.265 C  
HETATM   19  O   UNL     1     -12.055  11.971  65.381  1.00  0.00    -0.444 OA 
HETATM   20  H   UNL     1     -12.260  12.522  64.635  1.00  0.00     0.000 HD 
ENDBRANCH  15  18
ENDBRANCH  12  15
ENDBRANCH   9  12
ENDBRANCH   3   9
TORSDOF 5
ENDMDL
MODEL      310
REMARK 921   NORMALIZED FREE ENERGY PREDICTED BY IDOCK:   -1.63 KCAL/MOL
REMARK 922        TOTAL FREE ENERGY PREDICTED BY IDOCK:   -2.80 KCAL/MOL
REMARK 923 INTER-LIGAND FREE ENERGY PREDICTED BY IDOCK:   -3.58 KCAL/MOL
REMARK 924 INTRA-LIGAND FREE ENERGY PREDICTED BY IDOCK:    0.78 KCAL/MOL
REMARK 927      BINDING AFFINITY PREDICTED BY RF-SCORE:    0.00 PKD
ROOT
HETATM    1  C   UNL     1     -10.358  19.336  69.638  1.00  0.00     0.553 C  
HETATM    2  O   UNL     1     -10.470  20.483  70.073  1.00  0.00     0.222 OA 
HETATM    3  CA  UNL     1      -9.879  19.050  68.224  1.00  0.00    -0.378 C  
ENDROOT
BRANCH   3   4
HETATM    4  N   UNL     1     -10.412  17.763  67.746  1.00  0.00    -0.384 N  
HETATM    5  C   UNL     1     -11.154  15.460  67.848  1.00  0.00    -0.323 C  
HETATM    6  O   UNL     1     -10.511  16.728  69.777  1.00  0.00    -0.250 OA 
HETATM    7  H   UNL     1     -10.615  17.667  66.750  1.00  0.00     0.000 HD 
HETATM    8  C   UNL     1     -10.652  16.686  68.562  1.00  0.00    -0.338 C  
ENDBRANCH   3   4
BRANCH   3   9
HETATM    9  C   UNL     1      -8.342  19.172  68.097  1.00  0.00    -0.316 C  
HETATM   10  H   UNL     1      -6.826  18.033  68.552  1.00  0.00     0.000 HD 
HETATM   11  O   UNL     1      -7.770  17.958  68.629  1.00  0.00    -0.284 OA 
BRANCH   9  12
HETATM   12  C   UNL     1      -7.849  19.393  66.640  1.00  0.00    -0.277 C  
HETATM   13  H   UNL     1      -8.643  19.561  64.824  1.00  0.00     0.000 HD 
HETATM   14  O   UNL     1      -8.944  19.426  65.715  1.00  0.00    -0.385 OA 
BRANCH  12  15
HETATM   15  C   UNL     1      -6.823  18.328  66.199  1.00  0.00    -0.256 C  
HETATM   16  H   UNL     1      -5.880  17.872  64.542  1.00  0.00     0.000 HD 
HETATM   17  O   UNL     1      -6.511  18.527  64.813  1.00  0.00    -0.434 OA 
BRANCH  15  18
HETATM   18  C   UNL     1      -7.336  16.890  66.419  1.00  0.00    -0.267 C  
HETATM   19  O   UNL     1      -8.567  16.647  65.736  1.00  0.00    -0.464 OA 
HETATM   20  H   UNL     1      -8.882  15.761  65.871  1.00  0.00     0.000 HD 
ENDBRANCH  15  18
ENDBRANCH  12  15
ENDBRANCH   9  12
ENDBRANCH   3   9
TORSDOF 5
ENDMDL
MODEL      311
REMARK 921   NORMALIZED FREE ENERGY PREDICTED BY IDOCK:   -1.49 KCAL/MOL
REMARK 922        TOTAL FREE ENERGY PREDICTED BY IDOCK:   -2.61 KCAL/MOL
REMARK 923 INTER-LIGAND FREE ENERGY PREDICTED BY IDOCK:   -2.25 KCAL/MOL
REMARK 924 INTRA-LIGAND FREE ENERGY PREDICTED BY IDOCK:   -0.36 KCAL/MOL
REMARK 927      BINDING AFFINITY PREDICTED BY RF-SCORE:    0.00 PKD
ROOT
HETATM    1  C   UNL     1      -9.069   9.956  68.371  1.00  0.00    -0.123 C  
HETATM    2  O   UNL     1      -8.660  10.632  69.316  1.00  0.00    -0.151 OA 
HETATM    3  CA  UNL     1      -8.184   8.954  67.650  1.00  0.00    -0.110 C  
ENDROOT
BRANCH   3   4
HETATM    4  N   UNL     1      -8.635   8.767  66.260  1.00  0.00    -0.125 N  
HETATM    5  C   UNL     1      -8.743   9.115  63.866  1.00  0.00    -0.154 C  
HETATM    6  O   UNL     1      -7.132  10.180  65.286  1.00  0.00    -0.127 OA 
HETATM    7  H   UNL     1      -9.395   8.109  66.086  1.00  0.00     0.000 HD 
HETATM    8  C   UNL     1      -8.092   9.428  65.187  1.00  0.00    -0.126 C  
ENDBRANCH   3   4
BRANCH   3   9
HETATM    9  C   UNL     1      -8.041   7.633  68.441  1.00  0.00    -0.124 C  
HETATM   10  H   UNL     1      -6.703   6.885  69.646  1.00  0.00     0.000 HD 
HETATM   11  O   UNL     1      -6.790   7.697  69.160  1.00  0.00    -0.050 OA 
BRANCH   9  12
HETATM   12  C   UNL     1      -9.207   7.367  69.435  1.00  0.00    -0.145 C  
HETATM   13  H   UNL     1      -9.474   7.274  71.403  1.00  0.00     0.000 HD 
HETATM   14  O   UNL     1      -8.762   7.436  70.795  1.00  0.00    -0.142 OA 
BRANCH  12  15
HETATM   15  C   UNL     1      -9.901   6.013  69.178  1.00  0.00    -0.148 C  
HETATM   16  H   UNL     1     -11.730   5.315  69.296  1.00  0.00     0.000 HD 
HETATM   17  O   UNL     1     -11.302   6.149  69.455  1.00  0.00    -0.420 OA 
BRANCH  15  18
HETATM   18  C   UNL     1      -9.307   4.875  70.033  1.00  0.00    -0.144 C  
HETATM   19  O   UNL     1     -10.247   4.364  70.978  1.00  0.00    -0.161 OA 
HETATM   20  H   UNL     1      -9.882   3.663  71.504  1.00  0.00     0.000 HD 
ENDBRANCH  15  18
ENDBRANCH  12  15
ENDBRANCH   9  12
ENDBRANCH   3   9
TORSDOF 5
ENDMDL
MODEL      312
REMARK 921   NORMALIZED FREE ENERGY PREDICTED BY IDOCK:   -1.23 KCAL/MOL
REMARK 922        TOTAL FREE ENERGY PREDICTED BY IDOCK:   -2.29 KCAL/MOL
REMARK 923 INTER-LIGAND FREE ENERGY PREDICTED BY IDOCK:   -2.03 KCAL/MOL
REMARK 924 INTRA-LIGAND FREE ENERGY PREDICTED BY IDOCK:   -0.25 KCAL/MOL
REMARK 927      BINDING AFFINITY PREDICTED BY RF-SCORE:    0.00 PKD
ROOT
HETATM    1  C   UNL     1      -8.889   9.828  68.322  1.00  0.00    -0.119 C  
HETATM    2  O   UNL     1      -8.591  10.249  69.442  1.00  0.00    -0.158 OA 
HETATM    3  CA  UNL     1      -7.907   9.047  67.464  1.00  0.00    -0.100 C  
ENDROOT
BRANCH   3   4
HETATM    4  N   UNL     1      -8.223   9.211  66.035  1.00  0.00    -0.113 N  
HETATM    5  C   UNL     1      -8.074  10.103  63.788  1.00  0.00    -0.160 C  
HETATM    6  O   UNL     1      -6.575  10.716  65.556  1.00  0.00    -0.116 OA 
HETATM    7  H   UNL     1      -8.986   8.658  65.644  1.00  0.00     0.000 HD 
HETATM    8  C   UNL     1      -7.549  10.066  65.199  1.00  0.00    -0.138 C  
ENDBRANCH   3   4
BRANCH   3   9
HETATM    9  C   UNL     1      -7.793   7.571  67.911  1.00  0.00    -0.117 C  
HETATM   10  H   UNL     1      -7.880   6.639  69.621  1.00  0.00     0.000 HD 
HETATM   11  O   UNL     1      -7.951   7.545  69.347  1.00  0.00    -0.118 OA 
BRANCH   9  12
HETATM   12  C   UNL     1      -8.841   6.632  67.249  1.00  0.00    -0.116 C  
HETATM   13  H   UNL     1     -10.592   5.814  67.717  1.00  0.00     0.000 HD 
HETATM   14  O   UNL     1      -9.951   6.388  68.122  1.00  0.00    -0.127 OA 
BRANCH  12  15
HETATM   15  C   UNL     1      -8.224   5.292  66.797  1.00  0.00    -0.108 C  
HETATM   16  H   UNL     1      -8.244   4.205  65.165  1.00  0.00     0.000 HD 
HETATM   17  O   UNL     1      -8.623   5.030  65.443  1.00  0.00    -0.131 OA 
BRANCH  15  18
HETATM   18  C   UNL     1      -8.642   4.116  67.703  1.00  0.00    -0.100 C  
HETATM   19  O   UNL     1      -9.881   3.534  67.293  1.00  0.00    -0.309 OA 
HETATM   20  H   UNL     1     -10.138   2.810  67.851  1.00  0.00     0.000 HD 
ENDBRANCH  15  18
ENDBRANCH  12  15
ENDBRANCH   9  12
ENDBRANCH   3   9
TORSDOF 5
ENDMDL
MODEL      313
REMARK 921   NORMALIZED FREE ENERGY PREDICTED BY IDOCK:   -0.84 KCAL/MOL
REMARK 922        TOTAL FREE ENERGY PREDICTED BY IDOCK:   -1.77 KCAL/MOL
REMARK 923 INTER-LIGAND FREE ENERGY PREDICTED BY IDOCK:   -1.90 KCAL/MOL
REMARK 924 INTRA-LIGAND FREE ENERGY PREDICTED BY IDOCK:    0.13 KCAL/MOL
REMARK 927      BINDING AFFINITY PREDICTED BY RF-SCORE:    0.00 PKD
ROOT
HETATM    1  C   UNL     1      -8.614   9.669  68.332  1.00  0.00    -0.119 C  
HETATM    2  O   UNL     1      -8.653  10.279  69.402  1.00  0.00    -0.158 OA 
HETATM    3  CA  UNL     1      -7.322   9.091  67.778  1.00  0.00    -0.084 C  
ENDROOT
BRANCH   3   4
HETATM    4  N   UNL     1      -7.383   8.999  66.309  1.00  0.00    -0.090 N  
HETATM    5  C   UNL     1      -6.988   9.615  64.000  1.00  0.00    -0.113 C  
HETATM    6  O   UNL     1      -6.015  10.770  65.862  1.00  0.00    -0.120 OA 
HETATM    7  H   UNL     1      -7.927   8.241  65.897  1.00  0.00     0.000 HD 
HETATM    8  C   UNL     1      -6.749   9.875  65.464  1.00  0.00    -0.094 C  
ENDBRANCH   3   4
BRANCH   3   9
HETATM    9  C   UNL     1      -6.938   7.762  68.469  1.00  0.00    -0.071 C  
HETATM   10  H   UNL     1      -6.774   7.168  70.319  1.00  0.00     0.000 HD 
HETATM   11  O   UNL     1      -7.011   7.984  69.894  1.00  0.00    -0.044 OA 
BRANCH   9  12
HETATM   12  C   UNL     1      -7.848   6.564  68.076  1.00  0.00    -0.105 C  
HETATM   13  H   UNL     1      -9.017   6.038  66.556  1.00  0.00     0.000 HD 
HETATM   14  O   UNL     1      -8.461   6.770  66.797  1.00  0.00    -0.113 OA 
BRANCH  12  15
HETATM   15  C   UNL     1      -8.930   6.276  69.136  1.00  0.00    -0.127 C  
HETATM   16  H   UNL     1      -9.481   4.732  70.212  1.00  0.00     0.000 HD 
HETATM   17  O   UNL     1      -8.815   4.909  69.559  1.00  0.00    -0.088 OA 
BRANCH  15  18
HETATM   18  C   UNL     1     -10.356   6.542  68.611  1.00  0.00    -0.191 C  
HETATM   19  O   UNL     1     -11.033   7.542  69.374  1.00  0.00    -0.384 OA 
HETATM   20  H   UNL     1     -11.911   7.706  69.051  1.00  0.00     0.000 HD 
ENDBRANCH  15  18
ENDBRANCH  12  15
ENDBRANCH   9  12
ENDBRANCH   3   9
TORSDOF 5
ENDMDL
MODEL      314
REMARK 921   NORMALIZED FREE ENERGY PREDICTED BY IDOCK:    0.60 KCAL/MOL
REMARK 922        TOTAL FREE ENERGY PREDICTED BY IDOCK:    0.08 KCAL/MOL
REMARK 923 INTER-LIGAND FREE ENERGY PREDICTED BY IDOCK:   -0.57 KCAL/MOL
REMARK 924 INTRA-LIGAND FREE ENERGY PREDICTED BY IDOCK:    0.65 KCAL/MOL
REMARK 927      BINDING AFFINITY PREDICTED BY RF-SCORE:    0.00 PKD
ROOT
HETATM    1  C   UNL     1     -10.574  15.655  70.939  1.00  0.00     0.085 C  
HETATM    2  O   UNL     1     -10.527  16.744  70.362  1.00  0.00     0.134 OA 
HETATM    3  CA  UNL     1     -10.981  14.378  70.223  1.00  0.00     0.117 C  
ENDROOT
BRANCH   3   4
HETATM    4  N   UNL     1     -11.559  13.413  71.174  1.00  0.00     0.107 N  
HETATM    5  C   UNL     1     -12.837  11.503  71.940  1.00  0.00    -0.372 C  
HETATM    6  O   UNL     1     -12.502  12.027  69.625  1.00  0.00    -0.068 OA 
HETATM    7  H   UNL     1     -11.393  13.560  72.170  1.00  0.00     0.000 HD 
HETATM    8  C   UNL     1     -12.309  12.327  70.796  1.00  0.00    -0.290 C  
ENDBRANCH   3   4
BRANCH   3   9
HETATM    9  C   UNL     1      -9.828  13.798  69.371  1.00  0.00     0.540 C  
HETATM   10  H   UNL     1      -9.222  12.003  68.910  1.00  0.00     0.000 HD 
HETATM   11  O   UNL     1      -9.931  12.359  69.433  1.00  0.00     0.412 OA 
BRANCH   9  12
HETATM   12  C   UNL     1      -9.848  14.265  67.888  1.00  0.00    -0.226 C  
HETATM   13  H   UNL     1      -8.871  15.558  66.737  1.00  0.00     0.000 HD 
HETATM   14  O   UNL     1      -8.859  15.273  67.643  1.00  0.00    -0.169 OA 
BRANCH  12  15
HETATM   15  C   UNL     1     -11.237  14.776  67.452  1.00  0.00    -0.339 C  
HETATM   16  H   UNL     1     -12.485  14.405  65.986  1.00  0.00     0.000 HD 
HETATM   17  O   UNL     1     -11.629  14.091  66.254  1.00  0.00    -0.341 OA 
BRANCH  15  18
HETATM   18  C   UNL     1     -11.256  16.300  67.214  1.00  0.00     0.052 C  
HETATM   19  O   UNL     1     -10.905  16.640  65.872  1.00  0.00    -0.208 OA 
HETATM   20  H   UNL     1     -10.917  17.578  65.725  1.00  0.00     0.000 HD 
ENDBRANCH  15  18
ENDBRANCH  12  15
ENDBRANCH   9  12
ENDBRANCH   3   9
TORSDOF 5
ENDMDL
