MODEL        1
REMARK 921   NORMALIZED FREE ENERGY PREDICTED BY IDOCK:   -6.15 KCAL/MOL
REMARK 922        TOTAL FREE ENERGY PREDICTED BY IDOCK:   -7.66 KCAL/MOL
REMARK 923 INTER-LIGAND FREE ENERGY PREDICTED BY IDOCK:   -7.23 KCAL/MOL
REMARK 924 INTRA-LIGAND FREE ENERGY PREDICTED BY IDOCK:   -0.43 KCAL/MOL
REMARK 927      BINDING AFFINITY PREDICTED BY RF-SCORE:    0.00 PKD
ROOT
HETATM    1  C   UNK A   0     -12.022  12.329  63.739  1.00  0.00    -0.609 C  
HETATM    2  C   UNK A   0     -12.159  13.424  64.755  1.00  0.00    -0.406 C  
ATOM      3  N   TYR A   1     -10.986  14.001  65.170  1.00  0.00    -0.334 N  
HETATM    4  O   UNK A   0     -13.249  13.832  65.152  1.00  0.00    -0.757 OA 
ATOM      5  H   TYR A   1     -10.094  13.629  64.844  1.00  0.00     0.000 HD 
ENDROOT
BRANCH   3   6
ATOM      6  CA  TYR A   1     -11.009  15.153  66.082  1.00  0.00    -0.331 C  
ATOM      7  C   TYR A   1     -10.423  16.387  65.364  1.00  0.00    -0.311 C  
ATOM      8  O   TYR A   1     -11.217  16.846  64.361  1.00  0.00    -1.159 OA 
ATOM      9  OXT TYR A   1      -9.348  16.909  65.620  1.00  0.00    -0.519 OA 
BRANCH   6  10
ATOM     10  CB  TYR A   1     -10.269  14.845  67.397  1.00  0.00    -0.234 C  
BRANCH  10  11
ATOM     11  CG  TYR A   1     -11.159  14.564  68.588  1.00  0.00    -0.272 A  
ATOM     12  CD1 TYR A   1     -11.745  15.593  69.343  1.00  0.00    -0.395 A  
ATOM     13  CE1 TYR A   1     -12.452  15.306  70.514  1.00  0.00    -0.454 A  
ATOM     14  CZ  TYR A   1     -12.615  13.985  70.908  1.00  0.00    -0.361 A  
ATOM     15  CE2 TYR A   1     -12.123  12.947  70.129  1.00  0.00    -0.373 A  
ATOM     16  OH  TYR A   1     -13.246  13.670  72.074  1.00  0.00    -0.377 OA 
ATOM     17  HH  TYR A   1     -13.358  12.766  72.344  1.00  0.00     0.000 HD 
ATOM     18  CD2 TYR A   1     -11.398  13.236  68.971  1.00  0.00    -0.334 A  
ENDBRANCH  10  11
ENDBRANCH   6  10
ENDBRANCH   3   6
TORSDOF 3
ENDMDL
MODEL        2
REMARK 921   NORMALIZED FREE ENERGY PREDICTED BY IDOCK:   -6.08 KCAL/MOL
REMARK 922        TOTAL FREE ENERGY PREDICTED BY IDOCK:   -7.58 KCAL/MOL
REMARK 923 INTER-LIGAND FREE ENERGY PREDICTED BY IDOCK:   -7.15 KCAL/MOL
REMARK 924 INTRA-LIGAND FREE ENERGY PREDICTED BY IDOCK:   -0.43 KCAL/MOL
REMARK 927      BINDING AFFINITY PREDICTED BY RF-SCORE:    0.00 PKD
ROOT
HETATM    1  C   UNK A   0     -12.166  12.545  63.475  1.00  0.00    -0.652 C  
HETATM    2  C   UNK A   0     -12.223  13.539  64.597  1.00  0.00    -0.406 C  
ATOM      3  N   TYR A   1     -11.020  14.082  64.973  1.00  0.00    -0.353 N  
HETATM    4  O   UNK A   0     -13.278  13.902  65.114  1.00  0.00    -0.768 OA 
ATOM      5  H   TYR A   1     -10.156  13.747  64.545  1.00  0.00     0.000 HD 
ENDROOT
BRANCH   3   6
ATOM      6  CA  TYR A   1     -10.971  15.143  65.987  1.00  0.00    -0.332 C  
ATOM      7  C   TYR A   1     -10.414  16.434  65.353  1.00  0.00    -0.311 C  
ATOM      8  O   TYR A   1     -11.262  16.992  64.450  1.00  0.00    -1.167 OA 
ATOM      9  OXT TYR A   1      -9.318  16.922  65.588  1.00  0.00    -0.519 OA 
BRANCH   6  10
ATOM     10  CB  TYR A   1     -10.154  14.707  67.219  1.00  0.00    -0.236 C  
BRANCH  10  11
ATOM     11  CG  TYR A   1     -10.955  14.514  68.489  1.00  0.00    -0.261 A  
ATOM     12  CD1 TYR A   1     -11.325  13.241  68.952  1.00  0.00    -0.333 A  
ATOM     13  CE1 TYR A   1     -12.176  13.102  70.052  1.00  0.00    -0.323 A  
ATOM     14  CZ  TYR A   1     -12.622  14.234  70.720  1.00  0.00    -0.356 A  
ATOM     15  CE2 TYR A   1     -12.196  15.498  70.335  1.00  0.00    -0.443 A  
ATOM     16  OH  TYR A   1     -13.500  14.141  71.758  1.00  0.00    -0.343 OA 
ATOM     17  HH  TYR A   1     -13.805  14.916  72.215  1.00  0.00     0.000 HD 
ATOM     18  CD2 TYR A   1     -11.363  15.637  69.223  1.00  0.00    -0.348 A  
ENDBRANCH  10  11
ENDBRANCH   6  10
ENDBRANCH   3   6
TORSDOF 3
ENDMDL
MODEL        3
REMARK 921   NORMALIZED FREE ENERGY PREDICTED BY IDOCK:   -5.92 KCAL/MOL
REMARK 922        TOTAL FREE ENERGY PREDICTED BY IDOCK:   -7.40 KCAL/MOL
REMARK 923 INTER-LIGAND FREE ENERGY PREDICTED BY IDOCK:   -6.89 KCAL/MOL
REMARK 924 INTRA-LIGAND FREE ENERGY PREDICTED BY IDOCK:   -0.51 KCAL/MOL
REMARK 927      BINDING AFFINITY PREDICTED BY RF-SCORE:    0.00 PKD
ROOT
HETATM    1  C   UNK A   0     -12.183  11.985  63.494  1.00  0.00    -0.653 C  
HETATM    2  C   UNK A   0     -12.222  12.971  64.625  1.00  0.00    -0.421 C  
ATOM      3  N   TYR A   1     -11.056  13.654  64.859  1.00  0.00    -0.334 N  
HETATM    4  O   UNK A   0     -13.244  13.208  65.267  1.00  0.00    -0.643 OA 
ATOM      5  H   TYR A   1     -10.216  13.421  64.329  1.00  0.00     0.000 HD 
ENDROOT
BRANCH   3   6
ATOM      6  CA  TYR A   1     -11.012  14.718  65.871  1.00  0.00    -0.335 C  
ATOM      7  C   TYR A   1     -10.452  16.007  65.235  1.00  0.00    -0.358 C  
ATOM      8  O   TYR A   1     -11.296  16.562  64.326  1.00  0.00    -1.020 OA 
ATOM      9  OXT TYR A   1      -9.357  16.496  65.474  1.00  0.00    -0.453 OA 
BRANCH   6  10
ATOM     10  CB  TYR A   1     -10.200  14.286  67.108  1.00  0.00    -0.254 C  
BRANCH  10  11
ATOM     11  CG  TYR A   1     -10.985  13.539  68.165  1.00  0.00    -0.275 A  
ATOM     12  CD1 TYR A   1     -11.637  14.200  69.218  1.00  0.00    -0.350 A  
ATOM     13  CE1 TYR A   1     -12.240  13.477  70.251  1.00  0.00    -0.417 A  
ATOM     14  CZ  TYR A   1     -12.233  12.090  70.210  1.00  0.00    -0.266 A  
ATOM     15  CE2 TYR A   1     -11.674  11.416  69.133  1.00  0.00    -0.410 A  
ATOM     16  OH  TYR A   1     -12.758  11.351  71.227  1.00  0.00    -0.405 OA 
ATOM     17  HH  TYR A   1     -12.753  10.401  71.199  1.00  0.00     0.000 HD 
ATOM     18  CD2 TYR A   1     -11.053  12.139  68.112  1.00  0.00    -0.295 A  
ENDBRANCH  10  11
ENDBRANCH   6  10
ENDBRANCH   3   6
TORSDOF 3
ENDMDL
MODEL        4
REMARK 921   NORMALIZED FREE ENERGY PREDICTED BY IDOCK:   -5.90 KCAL/MOL
REMARK 922        TOTAL FREE ENERGY PREDICTED BY IDOCK:   -7.37 KCAL/MOL
REMARK 923 INTER-LIGAND FREE ENERGY PREDICTED BY IDOCK:   -6.95 KCAL/MOL
REMARK 924 INTRA-LIGAND FREE ENERGY PREDICTED BY IDOCK:   -0.43 KCAL/MOL
REMARK 927      BINDING AFFINITY PREDICTED BY RF-SCORE:    0.00 PKD
ROOT
HETATM    1  C   UNK A   0      -9.705  11.341  63.023  1.00  0.00    -0.389 C  
HETATM    2  C   UNK A   0     -10.417  12.121  64.088  1.00  0.00    -0.362 C  
ATOM      3  N   TYR A   1     -10.068  13.444  64.192  1.00  0.00    -0.607 N  
HETATM    4  O   UNK A   0     -11.305  11.637  64.788  1.00  0.00    -0.284 OA 
ATOM      5  H   TYR A   1      -9.312  13.816  63.616  1.00  0.00     0.000 HD 
ENDROOT
BRANCH   3   6
ATOM      6  CA  TYR A   1     -10.776  14.326  65.128  1.00  0.00    -0.394 C  
ATOM      7  C   TYR A   1     -11.692  15.284  64.337  1.00  0.00    -0.285 C  
ATOM      8  O   TYR A   1     -12.740  14.652  63.747  1.00  0.00    -0.778 OA 
ATOM      9  OXT TYR A   1     -11.513  16.486  64.205  1.00  0.00    -1.059 OA 
BRANCH   6  10
ATOM     10  CB  TYR A   1      -9.794  15.089  66.038  1.00  0.00    -0.347 C  
BRANCH  10  11
ATOM     11  CG  TYR A   1     -10.365  15.548  67.362  1.00  0.00    -0.266 A  
ATOM     12  CD1 TYR A   1     -10.063  16.805  67.911  1.00  0.00    -0.284 A  
ATOM     13  CE1 TYR A   1     -10.498  17.147  69.194  1.00  0.00    -0.296 A  
ATOM     14  CZ  TYR A   1     -11.275  16.250  69.915  1.00  0.00    -0.317 A  
ATOM     15  CE2 TYR A   1     -11.661  15.040  69.356  1.00  0.00    -0.351 A  
ATOM     16  OH  TYR A   1     -11.666  16.523  71.191  1.00  0.00    -0.626 OA 
ATOM     17  HH  TYR A   1     -12.198  15.909  71.684  1.00  0.00     0.000 HD 
ATOM     18  CD2 TYR A   1     -11.209  14.690  68.083  1.00  0.00    -0.304 A  
ENDBRANCH  10  11
ENDBRANCH   6  10
ENDBRANCH   3   6
TORSDOF 3
ENDMDL
MODEL        5
REMARK 921   NORMALIZED FREE ENERGY PREDICTED BY IDOCK:   -5.85 KCAL/MOL
REMARK 922        TOTAL FREE ENERGY PREDICTED BY IDOCK:   -7.32 KCAL/MOL
REMARK 923 INTER-LIGAND FREE ENERGY PREDICTED BY IDOCK:   -6.94 KCAL/MOL
REMARK 924 INTRA-LIGAND FREE ENERGY PREDICTED BY IDOCK:   -0.37 KCAL/MOL
REMARK 927      BINDING AFFINITY PREDICTED BY RF-SCORE:    0.00 PKD
ROOT
HETATM    1  C   UNK A   0     -11.960  16.132  72.500  1.00  0.00    -0.660 C  
HETATM    2  C   UNK A   0     -12.307  15.430  71.221  1.00  0.00    -0.385 C  
ATOM      3  N   TYR A   1     -11.390  14.509  70.779  1.00  0.00    -0.506 N  
HETATM    4  O   UNK A   0     -13.370  15.610  70.628  1.00  0.00    -0.494 OA 
ATOM      5  H   TYR A   1     -10.506  14.396  71.276  1.00  0.00     0.000 HD 
ENDROOT
BRANCH   3   6
ATOM      6  CA  TYR A   1     -11.676  13.688  69.596  1.00  0.00    -0.320 C  
ATOM      7  C   TYR A   1     -11.705  12.199  70.001  1.00  0.00    -0.252 C  
ATOM      8  O   TYR A   1     -12.767  11.882  70.787  1.00  0.00    -0.255 OA 
ATOM      9  OXT TYR A   1     -10.866  11.366  69.692  1.00  0.00    -0.173 OA 
BRANCH   6  10
ATOM     10  CB  TYR A   1     -10.666  13.958  68.464  1.00  0.00    -0.268 C  
BRANCH  10  11
ATOM     11  CG  TYR A   1     -11.255  14.001  67.071  1.00  0.00    -0.325 A  
ATOM     12  CD1 TYR A   1     -12.007  12.939  66.544  1.00  0.00    -0.447 A  
ATOM     13  CE1 TYR A   1     -12.424  12.952  65.210  1.00  0.00    -0.552 A  
ATOM     14  CZ  TYR A   1     -12.129  14.049  64.412  1.00  0.00    -0.458 A  
ATOM     15  CE2 TYR A   1     -11.466  15.149  64.937  1.00  0.00    -0.374 A  
ATOM     16  OH  TYR A   1     -12.466  14.071  63.092  1.00  0.00    -1.137 OA 
ATOM     17  HH  TYR A   1     -12.265  14.822  62.545  1.00  0.00     0.000 HD 
ATOM     18  CD2 TYR A   1     -11.032  15.126  66.263  1.00  0.00    -0.335 A  
ENDBRANCH  10  11
ENDBRANCH   6  10
ENDBRANCH   3   6
TORSDOF 3
ENDMDL
MODEL        6
REMARK 921   NORMALIZED FREE ENERGY PREDICTED BY IDOCK:   -5.84 KCAL/MOL
REMARK 922        TOTAL FREE ENERGY PREDICTED BY IDOCK:   -7.30 KCAL/MOL
REMARK 923 INTER-LIGAND FREE ENERGY PREDICTED BY IDOCK:   -6.93 KCAL/MOL
REMARK 924 INTRA-LIGAND FREE ENERGY PREDICTED BY IDOCK:   -0.36 KCAL/MOL
REMARK 927      BINDING AFFINITY PREDICTED BY RF-SCORE:    0.00 PKD
ROOT
HETATM    1  C   UNK A   0     -10.673  10.255  70.095  1.00  0.00    -0.334 C  
HETATM    2  C   UNK A   0     -11.667  11.239  69.552  1.00  0.00    -0.345 C  
ATOM      3  N   TYR A   1     -11.142  12.417  69.084  1.00  0.00    -0.372 N  
HETATM    4  O   UNK A   0     -12.869  10.994  69.466  1.00  0.00    -0.188 OA 
ATOM      5  H   TYR A   1     -10.145  12.606  69.188  1.00  0.00     0.000 HD 
ENDROOT
BRANCH   3   6
ATOM      6  CA  TYR A   1     -12.011  13.408  68.434  1.00  0.00    -0.324 C  
ATOM      7  C   TYR A   1     -11.809  13.342  66.906  1.00  0.00    -0.403 C  
ATOM      8  O   TYR A   1     -12.284  12.195  66.355  1.00  0.00    -0.592 OA 
ATOM      9  OXT TYR A   1     -11.258  14.198  66.228  1.00  0.00    -0.317 OA 
BRANCH   6  10
ATOM     10  CB  TYR A   1     -11.763  14.824  68.988  1.00  0.00    -0.343 C  
BRANCH  10  11
ATOM     11  CG  TYR A   1     -12.150  15.026  70.437  1.00  0.00    -0.384 A  
ATOM     12  CD1 TYR A   1     -13.136  14.247  71.063  1.00  0.00    -0.394 A  
ATOM     13  CE1 TYR A   1     -13.565  14.544  72.360  1.00  0.00    -0.566 A  
ATOM     14  CZ  TYR A   1     -12.977  15.594  73.051  1.00  0.00    -0.510 A  
ATOM     15  CE2 TYR A   1     -11.938  16.321  72.486  1.00  0.00    -0.648 A  
ATOM     16  OH  TYR A   1     -13.410  15.951  74.293  1.00  0.00    -0.742 OA 
ATOM     17  HH  TYR A   1     -13.007  16.670  74.766  1.00  0.00     0.000 HD 
ATOM     18  CD2 TYR A   1     -11.525  16.036  71.183  1.00  0.00    -0.470 A  
ENDBRANCH  10  11
ENDBRANCH   6  10
ENDBRANCH   3   6
TORSDOF 3
ENDMDL
MODEL        7
REMARK 921   NORMALIZED FREE ENERGY PREDICTED BY IDOCK:   -5.84 KCAL/MOL
REMARK 922        TOTAL FREE ENERGY PREDICTED BY IDOCK:   -7.29 KCAL/MOL
REMARK 923 INTER-LIGAND FREE ENERGY PREDICTED BY IDOCK:   -6.91 KCAL/MOL
REMARK 924 INTRA-LIGAND FREE ENERGY PREDICTED BY IDOCK:   -0.38 KCAL/MOL
REMARK 927      BINDING AFFINITY PREDICTED BY RF-SCORE:    0.00 PKD
ROOT
HETATM    1  C   UNK A   0     -12.188  12.580  63.388  1.00  0.00    -0.613 C  
HETATM    2  C   UNK A   0     -12.231  13.552  64.530  1.00  0.00    -0.398 C  
ATOM      3  N   TYR A   1     -11.027  14.100  64.891  1.00  0.00    -0.376 N  
HETATM    4  O   UNK A   0     -13.279  13.893  65.075  1.00  0.00    -0.729 OA 
ATOM      5  H   TYR A   1     -10.169  13.783  64.439  1.00  0.00     0.000 HD 
ENDROOT
BRANCH   3   6
ATOM      6  CA  TYR A   1     -10.967  15.142  65.925  1.00  0.00    -0.339 C  
ATOM      7  C   TYR A   1     -10.441  16.452  65.303  1.00  0.00    -0.261 C  
ATOM      8  O   TYR A   1     -11.317  17.016  64.431  1.00  0.00    -1.140 OA 
ATOM      9  OXT TYR A   1      -9.347  16.950  65.522  1.00  0.00    -0.472 OA 
BRANCH   6  10
ATOM     10  CB  TYR A   1     -10.116  14.693  67.128  1.00  0.00    -0.244 C  
BRANCH  10  11
ATOM     11  CG  TYR A   1     -10.678  13.530  67.917  1.00  0.00    -0.258 A  
ATOM     12  CD1 TYR A   1     -10.479  12.196  67.528  1.00  0.00    -0.229 A  
ATOM     13  CE1 TYR A   1     -11.121  11.152  68.199  1.00  0.00    -0.324 A  
ATOM     14  CZ  TYR A   1     -11.928  11.435  69.292  1.00  0.00    -0.332 A  
ATOM     15  CE2 TYR A   1     -12.067  12.738  69.751  1.00  0.00    -0.305 A  
ATOM     16  OH  TYR A   1     -12.617  10.451  69.935  1.00  0.00    -0.547 OA 
ATOM     17  HH  TYR A   1     -13.169  10.645  70.683  1.00  0.00     0.000 HD 
ATOM     18  CD2 TYR A   1     -11.442  13.782  69.066  1.00  0.00    -0.349 A  
ENDBRANCH  10  11
ENDBRANCH   6  10
ENDBRANCH   3   6
TORSDOF 3
ENDMDL
MODEL        8
REMARK 921   NORMALIZED FREE ENERGY PREDICTED BY IDOCK:   -5.73 KCAL/MOL
REMARK 922        TOTAL FREE ENERGY PREDICTED BY IDOCK:   -7.16 KCAL/MOL
REMARK 923 INTER-LIGAND FREE ENERGY PREDICTED BY IDOCK:   -6.80 KCAL/MOL
REMARK 924 INTRA-LIGAND FREE ENERGY PREDICTED BY IDOCK:   -0.37 KCAL/MOL
REMARK 927      BINDING AFFINITY PREDICTED BY RF-SCORE:    0.00 PKD
ROOT
HETATM    1  C   UNK A   0     -10.289  11.109  64.383  1.00  0.00    -0.407 C  
HETATM    2  C   UNK A   0     -10.728  12.328  65.139  1.00  0.00    -0.293 C  
ATOM      3  N   TYR A   1     -10.204  13.519  64.703  1.00  0.00    -0.592 N  
HETATM    4  O   UNK A   0     -11.554  12.287  66.049  1.00  0.00    -0.368 OA 
ATOM      5  H   TYR A   1      -9.504  13.524  63.961  1.00  0.00     0.000 HD 
ENDROOT
BRANCH   3   6
ATOM      6  CA  TYR A   1     -10.647  14.786  65.301  1.00  0.00    -0.395 C  
ATOM      7  C   TYR A   1     -11.658  15.471  64.358  1.00  0.00    -0.258 C  
ATOM      8  O   TYR A   1     -12.841  14.808  64.274  1.00  0.00    -0.622 OA 
ATOM      9  OXT TYR A   1     -11.448  16.488  63.714  1.00  0.00    -1.065 OA 
BRANCH   6  10
ATOM     10  CB  TYR A   1      -9.453  15.702  65.629  1.00  0.00    -0.272 C  
BRANCH  10  11
ATOM     11  CG  TYR A   1      -9.751  16.829  66.595  1.00  0.00    -0.281 A  
ATOM     12  CD1 TYR A   1      -9.441  18.166  66.301  1.00  0.00    -0.231 A  
ATOM     13  CE1 TYR A   1      -9.606  19.165  67.265  1.00  0.00    -0.375 A  
ATOM     14  CZ  TYR A   1     -10.124  18.837  68.509  1.00  0.00    -0.392 A  
ATOM     15  CE2 TYR A   1     -10.522  17.537  68.790  1.00  0.00    -0.318 A  
ATOM     16  OH  TYR A   1     -10.243  19.772  69.494  1.00  0.00    -0.633 OA 
ATOM     17  HH  TYR A   1     -10.598  19.547  70.346  1.00  0.00     0.000 HD 
ATOM     18  CD2 TYR A   1     -10.337  16.536  67.835  1.00  0.00    -0.294 A  
ENDBRANCH  10  11
ENDBRANCH   6  10
ENDBRANCH   3   6
TORSDOF 3
ENDMDL
MODEL        9
REMARK 921   NORMALIZED FREE ENERGY PREDICTED BY IDOCK:   -5.69 KCAL/MOL
REMARK 922        TOTAL FREE ENERGY PREDICTED BY IDOCK:   -7.12 KCAL/MOL
REMARK 923 INTER-LIGAND FREE ENERGY PREDICTED BY IDOCK:   -6.85 KCAL/MOL
REMARK 924 INTRA-LIGAND FREE ENERGY PREDICTED BY IDOCK:   -0.27 KCAL/MOL
REMARK 927      BINDING AFFINITY PREDICTED BY RF-SCORE:    0.00 PKD
ROOT
HETATM    1  C   UNK A   0      -9.997  19.630  66.205  1.00  0.00    -0.554 C  
HETATM    2  C   UNK A   0     -10.430  18.213  65.968  1.00  0.00    -0.335 C  
ATOM      3  N   TYR A   1     -10.287  17.361  67.033  1.00  0.00    -0.324 N  
HETATM    4  O   UNK A   0     -10.940  17.839  64.913  1.00  0.00    -0.866 OA 
ATOM      5  H   TYR A   1      -9.839  17.689  67.889  1.00  0.00     0.000 HD 
ENDROOT
BRANCH   3   6
ATOM      6  CA  TYR A   1     -10.776  15.978  66.947  1.00  0.00    -0.262 C  
ATOM      7  C   TYR A   1     -10.891  15.386  68.367  1.00  0.00    -0.268 C  
ATOM      8  O   TYR A   1     -11.881  15.955  69.103  1.00  0.00    -0.389 OA 
ATOM      9  OXT TYR A   1     -10.169  14.515  68.830  1.00  0.00    -0.231 OA 
BRANCH   6  10
ATOM     10  CB  TYR A   1      -9.880  15.119  66.034  1.00  0.00    -0.349 C  
BRANCH  10  11
ATOM     11  CG  TYR A   1     -10.602  14.049  65.245  1.00  0.00    -0.376 A  
ATOM     12  CD1 TYR A   1     -10.148  12.721  65.197  1.00  0.00    -0.246 A  
ATOM     13  CE1 TYR A   1     -10.758  11.787  64.355  1.00  0.00    -0.381 A  
ATOM     14  CZ  TYR A   1     -11.853  12.167  63.591  1.00  0.00    -0.516 A  
ATOM     15  CE2 TYR A   1     -12.374  13.450  63.690  1.00  0.00    -0.422 A  
ATOM     16  OH  TYR A   1     -12.435  11.302  62.714  1.00  0.00    -0.905 OA 
ATOM     17  HH  TYR A   1     -13.185  11.563  62.191  1.00  0.00     0.000 HD 
ATOM     18  CD2 TYR A   1     -11.751  14.387  64.516  1.00  0.00    -0.430 A  
ENDBRANCH  10  11
ENDBRANCH   6  10
ENDBRANCH   3   6
TORSDOF 3
ENDMDL
MODEL       10
REMARK 921   NORMALIZED FREE ENERGY PREDICTED BY IDOCK:   -5.67 KCAL/MOL
REMARK 922        TOTAL FREE ENERGY PREDICTED BY IDOCK:   -7.10 KCAL/MOL
REMARK 923 INTER-LIGAND FREE ENERGY PREDICTED BY IDOCK:   -6.75 KCAL/MOL
REMARK 924 INTRA-LIGAND FREE ENERGY PREDICTED BY IDOCK:   -0.35 KCAL/MOL
REMARK 927      BINDING AFFINITY PREDICTED BY RF-SCORE:    0.00 PKD
ROOT
HETATM    1  C   UNK A   0     -12.535  12.178  63.502  1.00  0.00    -0.666 C  
HETATM    2  C   UNK A   0     -12.424  12.742  64.888  1.00  0.00    -0.497 C  
ATOM      3  N   TYR A   1     -11.467  12.171  65.688  1.00  0.00    -0.359 N  
HETATM    4  O   UNK A   0     -13.097  13.695  65.276  1.00  0.00    -0.735 OA 
ATOM      5  H   TYR A   1     -10.939  11.366  65.352  1.00  0.00     0.000 HD 
ENDROOT
BRANCH   3   6
ATOM      6  CA  TYR A   1     -11.200  12.714  67.027  1.00  0.00    -0.300 C  
ATOM      7  C   TYR A   1      -9.827  13.417  67.030  1.00  0.00    -0.250 C  
ATOM      8  O   TYR A   1      -9.810  14.557  66.290  1.00  0.00    -0.276 OA 
ATOM      9  OXT TYR A   1      -8.825  13.010  67.601  1.00  0.00    -0.169 OA 
BRANCH   6  10
ATOM     10  CB  TYR A   1     -11.290  11.619  68.107  1.00  0.00    -0.358 C  
BRANCH  10  11
ATOM     11  CG  TYR A   1     -11.900  12.059  69.421  1.00  0.00    -0.384 A  
ATOM     12  CD1 TYR A   1     -12.307  11.140  70.401  1.00  0.00    -0.430 A  
ATOM     13  CE1 TYR A   1     -12.987  11.569  71.545  1.00  0.00    -0.485 A  
ATOM     14  CZ  TYR A   1     -13.221  12.924  71.733  1.00  0.00    -0.384 A  
ATOM     15  CE2 TYR A   1     -12.747  13.858  70.822  1.00  0.00    -0.383 A  
ATOM     16  OH  TYR A   1     -13.932  13.375  72.804  1.00  0.00    -0.724 OA 
ATOM     17  HH  TYR A   1     -14.092  14.303  72.933  1.00  0.00     0.000 HD 
ATOM     18  CD2 TYR A   1     -12.087  13.427  69.670  1.00  0.00    -0.349 A  
ENDBRANCH  10  11
ENDBRANCH   6  10
ENDBRANCH   3   6
TORSDOF 3
ENDMDL
MODEL       11
REMARK 921   NORMALIZED FREE ENERGY PREDICTED BY IDOCK:   -5.64 KCAL/MOL
REMARK 922        TOTAL FREE ENERGY PREDICTED BY IDOCK:   -7.07 KCAL/MOL
REMARK 923 INTER-LIGAND FREE ENERGY PREDICTED BY IDOCK:   -6.57 KCAL/MOL
REMARK 924 INTRA-LIGAND FREE ENERGY PREDICTED BY IDOCK:   -0.50 KCAL/MOL
REMARK 927      BINDING AFFINITY PREDICTED BY RF-SCORE:    0.00 PKD
ROOT
HETATM    1  C   UNK A   0     -10.574  19.330  66.866  1.00  0.00    -0.557 C  
HETATM    2  C   UNK A   0     -10.427  18.306  67.952  1.00  0.00    -0.388 C  
ATOM      3  N   TYR A   1     -10.718  17.014  67.595  1.00  0.00    -0.328 N  
HETATM    4  O   UNK A   0     -10.011  18.582  69.076  1.00  0.00    -0.378 OA 
ATOM      5  H   TYR A   1     -11.083  16.815  66.664  1.00  0.00     0.000 HD 
ENDROOT
BRANCH   3   6
ATOM      6  CA  TYR A   1     -10.507  15.917  68.549  1.00  0.00    -0.241 C  
ATOM      7  C   TYR A   1      -9.473  14.927  67.971  1.00  0.00    -0.198 C  
ATOM      8  O   TYR A   1      -8.219  15.446  67.905  1.00  0.00    -0.137 OA 
ATOM      9  OXT TYR A   1      -9.721  13.797  67.575  1.00  0.00    -0.221 OA 
BRANCH   6  10
ATOM     10  CB  TYR A   1     -11.833  15.220  68.909  1.00  0.00    -0.344 C  
BRANCH  10  11
ATOM     11  CG  TYR A   1     -12.276  15.383  70.347  1.00  0.00    -0.430 A  
ATOM     12  CD1 TYR A   1     -13.532  14.945  70.796  1.00  0.00    -0.279 A  
ATOM     13  CE1 TYR A   1     -13.966  15.229  72.095  1.00  0.00    -0.650 A  
ATOM     14  CZ  TYR A   1     -13.124  15.911  72.963  1.00  0.00    -0.541 A  
ATOM     15  CE2 TYR A   1     -11.843  16.273  72.569  1.00  0.00    -0.608 A  
ATOM     16  OH  TYR A   1     -13.534  16.257  74.215  1.00  0.00    -0.796 OA 
ATOM     17  HH  TYR A   1     -12.958  16.724  74.810  1.00  0.00     0.000 HD 
ATOM     18  CD2 TYR A   1     -11.420  16.008  71.265  1.00  0.00    -0.475 A  
ENDBRANCH  10  11
ENDBRANCH   6  10
ENDBRANCH   3   6
TORSDOF 3
ENDMDL
MODEL       12
REMARK 921   NORMALIZED FREE ENERGY PREDICTED BY IDOCK:   -5.63 KCAL/MOL
REMARK 922        TOTAL FREE ENERGY PREDICTED BY IDOCK:   -7.06 KCAL/MOL
REMARK 923 INTER-LIGAND FREE ENERGY PREDICTED BY IDOCK:   -6.69 KCAL/MOL
REMARK 924 INTRA-LIGAND FREE ENERGY PREDICTED BY IDOCK:   -0.37 KCAL/MOL
REMARK 927      BINDING AFFINITY PREDICTED BY RF-SCORE:    0.00 PKD
ROOT
HETATM    1  C   UNK A   0      -8.996  10.879  62.439  1.00  0.00    -0.353 C  
HETATM    2  C   UNK A   0      -9.809  11.388  63.593  1.00  0.00    -0.348 C  
ATOM      3  N   TYR A   1     -10.029  12.742  63.615  1.00  0.00    -0.466 N  
HETATM    4  O   UNK A   0     -10.305  10.645  64.438  1.00  0.00    -0.363 OA 
ATOM      5  H   TYR A   1      -9.586  13.339  62.916  1.00  0.00     0.000 HD 
ENDROOT
BRANCH   3   6
ATOM      6  CA  TYR A   1     -10.899  13.335  64.639  1.00  0.00    -0.382 C  
ATOM      7  C   TYR A   1     -12.267  13.678  64.014  1.00  0.00    -0.390 C  
ATOM      8  O   TYR A   1     -12.990  12.577  63.679  1.00  0.00    -0.730 OA 
ATOM      9  OXT TYR A   1     -12.683  14.807  63.799  1.00  0.00    -0.767 OA 
BRANCH   6  10
ATOM     10  CB  TYR A   1     -10.241  14.563  65.296  1.00  0.00    -0.431 C  
BRANCH  10  11
ATOM     11  CG  TYR A   1     -10.713  14.875  66.699  1.00  0.00    -0.312 A  
ATOM     12  CD1 TYR A   1     -11.360  13.920  67.500  1.00  0.00    -0.342 A  
ATOM     13  CE1 TYR A   1     -11.903  14.275  68.738  1.00  0.00    -0.377 A  
ATOM     14  CZ  TYR A   1     -11.759  15.576  69.200  1.00  0.00    -0.365 A  
ATOM     15  CE2 TYR A   1     -11.045  16.513  68.467  1.00  0.00    -0.335 A  
ATOM     16  OH  TYR A   1     -12.326  15.974  70.373  1.00  0.00    -0.420 OA 
ATOM     17  HH  TYR A   1     -12.228  16.865  70.690  1.00  0.00     0.000 HD 
ATOM     18  CD2 TYR A   1     -10.522  16.163  67.220  1.00  0.00    -0.309 A  
ENDBRANCH  10  11
ENDBRANCH   6  10
ENDBRANCH   3   6
TORSDOF 3
ENDMDL
MODEL       13
REMARK 921   NORMALIZED FREE ENERGY PREDICTED BY IDOCK:   -5.63 KCAL/MOL
REMARK 922        TOTAL FREE ENERGY PREDICTED BY IDOCK:   -7.05 KCAL/MOL
REMARK 923 INTER-LIGAND FREE ENERGY PREDICTED BY IDOCK:   -6.60 KCAL/MOL
REMARK 924 INTRA-LIGAND FREE ENERGY PREDICTED BY IDOCK:   -0.45 KCAL/MOL
REMARK 927      BINDING AFFINITY PREDICTED BY RF-SCORE:    0.00 PKD
ROOT
HETATM    1  C   UNK A   0      -9.385  10.441  66.628  1.00  0.00    -0.185 C  
HETATM    2  C   UNK A   0     -10.652  11.169  66.969  1.00  0.00    -0.252 C  
ATOM      3  N   TYR A   1     -10.711  12.480  66.568  1.00  0.00    -0.237 N  
HETATM    4  O   UNK A   0     -11.609  10.622  67.514  1.00  0.00    -0.482 OA 
ATOM      5  H   TYR A   1      -9.895  12.917  66.139  1.00  0.00     0.000 HD 
ENDROOT
BRANCH   3   6
ATOM      6  CA  TYR A   1     -11.944  13.256  66.755  1.00  0.00    -0.382 C  
ATOM      7  C   TYR A   1     -12.605  13.506  65.384  1.00  0.00    -0.483 C  
ATOM      8  O   TYR A   1     -13.106  12.375  64.820  1.00  0.00    -0.806 OA 
ATOM      9  OXT TYR A   1     -12.668  14.586  64.815  1.00  0.00    -0.606 OA 
BRANCH   6  10
ATOM     10  CB  TYR A   1     -11.673  14.571  67.512  1.00  0.00    -0.413 C  
BRANCH  10  11
ATOM     11  CG  TYR A   1     -11.913  14.516  69.005  1.00  0.00    -0.334 A  
ATOM     12  CD1 TYR A   1     -12.131  13.306  69.684  1.00  0.00    -0.331 A  
ATOM     13  CE1 TYR A   1     -12.483  13.298  71.036  1.00  0.00    -0.422 A  
ATOM     14  CZ  TYR A   1     -12.571  14.499  71.727  1.00  0.00    -0.346 A  
ATOM     15  CE2 TYR A   1     -12.271  15.701  71.100  1.00  0.00    -0.466 A  
ATOM     16  OH  TYR A   1     -12.969  14.536  73.030  1.00  0.00    -0.481 OA 
ATOM     17  HH  TYR A   1     -13.030  15.358  73.502  1.00  0.00     0.000 HD 
ATOM     18  CD2 TYR A   1     -11.942  15.709  69.743  1.00  0.00    -0.371 A  
ENDBRANCH  10  11
ENDBRANCH   6  10
ENDBRANCH   3   6
TORSDOF 3
ENDMDL
MODEL       14
REMARK 921   NORMALIZED FREE ENERGY PREDICTED BY IDOCK:   -5.52 KCAL/MOL
REMARK 922        TOTAL FREE ENERGY PREDICTED BY IDOCK:   -6.93 KCAL/MOL
REMARK 923 INTER-LIGAND FREE ENERGY PREDICTED BY IDOCK:   -6.50 KCAL/MOL
REMARK 924 INTRA-LIGAND FREE ENERGY PREDICTED BY IDOCK:   -0.43 KCAL/MOL
REMARK 927      BINDING AFFINITY PREDICTED BY RF-SCORE:    0.00 PKD
ROOT
HETATM    1  C   UNK A   0     -12.820  13.843  65.371  1.00  0.00    -0.466 C  
HETATM    2  C   UNK A   0     -11.988  14.034  66.606  1.00  0.00    -0.445 C  
ATOM      3  N   TYR A   1     -11.893  12.945  67.434  1.00  0.00    -0.374 N  
HETATM    4  O   UNK A   0     -11.374  15.073  66.841  1.00  0.00    -0.341 OA 
ATOM      5  H   TYR A   1     -12.432  12.103  67.229  1.00  0.00     0.000 HD 
ENDROOT
BRANCH   3   6
ATOM      6  CA  TYR A   1     -11.020  12.987  68.615  1.00  0.00    -0.265 C  
ATOM      7  C   TYR A   1      -9.732  12.188  68.328  1.00  0.00    -0.216 C  
ATOM      8  O   TYR A   1      -8.931  12.782  67.405  1.00  0.00    -0.177 OA 
ATOM      9  OXT TYR A   1      -9.438  11.115  68.834  1.00  0.00    -0.188 OA 
BRANCH   6  10
ATOM     10  CB  TYR A   1     -11.748  12.474  69.873  1.00  0.00    -0.327 C  
BRANCH  10  11
ATOM     11  CG  TYR A   1     -12.334  13.550  70.761  1.00  0.00    -0.440 A  
ATOM     12  CD1 TYR A   1     -11.876  14.877  70.731  1.00  0.00    -0.368 A  
ATOM     13  CE1 TYR A   1     -12.343  15.816  71.655  1.00  0.00    -0.521 A  
ATOM     14  CZ  TYR A   1     -13.304  15.442  72.583  1.00  0.00    -0.504 A  
ATOM     15  CE2 TYR A   1     -13.838  14.161  72.573  1.00  0.00    -0.590 A  
ATOM     16  OH  TYR A   1     -13.740  16.312  73.537  1.00  0.00    -0.873 OA 
ATOM     17  HH  TYR A   1     -14.398  16.056  74.172  1.00  0.00     0.000 HD 
ATOM     18  CD2 TYR A   1     -13.355  13.218  71.663  1.00  0.00    -0.406 A  
ENDBRANCH  10  11
ENDBRANCH   6  10
ENDBRANCH   3   6
TORSDOF 3
ENDMDL
MODEL       15
REMARK 921   NORMALIZED FREE ENERGY PREDICTED BY IDOCK:   -5.52 KCAL/MOL
REMARK 922        TOTAL FREE ENERGY PREDICTED BY IDOCK:   -6.92 KCAL/MOL
REMARK 923 INTER-LIGAND FREE ENERGY PREDICTED BY IDOCK:   -6.49 KCAL/MOL
REMARK 924 INTRA-LIGAND FREE ENERGY PREDICTED BY IDOCK:   -0.44 KCAL/MOL
REMARK 927      BINDING AFFINITY PREDICTED BY RF-SCORE:    0.00 PKD
ROOT
HETATM    1  C   UNK A   0      -8.881   8.679  65.490  1.00  0.00    -0.220 C  
HETATM    2  C   UNK A   0      -9.918   9.026  66.518  1.00  0.00    -0.285 C  
ATOM      3  N   TYR A   1      -9.976  10.347  66.884  1.00  0.00    -0.198 N  
HETATM    4  O   UNK A   0     -10.715   8.202  66.964  1.00  0.00    -0.321 OA 
ATOM      5  H   TYR A   1      -9.288  11.005  66.516  1.00  0.00     0.000 HD 
ENDROOT
BRANCH   3   6
ATOM      6  CA  TYR A   1     -11.022  10.816  67.802  1.00  0.00    -0.297 C  
ATOM      7  C   TYR A   1     -11.492  12.220  67.368  1.00  0.00    -0.352 C  
ATOM      8  O   TYR A   1     -12.175  12.214  66.194  1.00  0.00    -0.611 OA 
ATOM      9  OXT TYR A   1     -11.269  13.259  67.973  1.00  0.00    -0.252 OA 
BRANCH   6  10
ATOM     10  CB  TYR A   1     -10.538  10.797  69.265  1.00  0.00    -0.261 C  
BRANCH  10  11
ATOM     11  CG  TYR A   1     -11.554  10.307  70.273  1.00  0.00    -0.396 A  
ATOM     12  CD1 TYR A   1     -12.513  11.160  70.843  1.00  0.00    -0.509 A  
ATOM     13  CE1 TYR A   1     -13.350  10.711  71.868  1.00  0.00    -0.454 A  
ATOM     14  CZ  TYR A   1     -13.262   9.394  72.295  1.00  0.00    -0.446 A  
ATOM     15  CE2 TYR A   1     -12.385   8.508  71.684  1.00  0.00    -0.371 A  
ATOM     16  OH  TYR A   1     -14.019   8.936  73.332  1.00  0.00    -1.236 OA 
ATOM     17  HH  TYR A   1     -13.959   8.034  73.624  1.00  0.00     0.000 HD 
ATOM     18  CD2 TYR A   1     -11.534   8.964  70.675  1.00  0.00    -0.280 A  
ENDBRANCH  10  11
ENDBRANCH   6  10
ENDBRANCH   3   6
TORSDOF 3
ENDMDL
MODEL       16
REMARK 921   NORMALIZED FREE ENERGY PREDICTED BY IDOCK:   -5.51 KCAL/MOL
REMARK 922        TOTAL FREE ENERGY PREDICTED BY IDOCK:   -6.91 KCAL/MOL
REMARK 923 INTER-LIGAND FREE ENERGY PREDICTED BY IDOCK:   -6.44 KCAL/MOL
REMARK 924 INTRA-LIGAND FREE ENERGY PREDICTED BY IDOCK:   -0.47 KCAL/MOL
REMARK 927      BINDING AFFINITY PREDICTED BY RF-SCORE:    0.00 PKD
ROOT
HETATM    1  C   UNK A   0     -11.824  14.543  69.243  1.00  0.00    -0.361 C  
HETATM    2  C   UNK A   0     -11.035  14.373  67.978  1.00  0.00    -0.258 C  
ATOM      3  N   TYR A   1     -11.692  14.698  66.818  1.00  0.00    -0.367 N  
HETATM    4  O   UNK A   0      -9.855  14.027  67.970  1.00  0.00    -0.216 OA 
ATOM      5  H   TYR A   1     -12.678  14.960  66.849  1.00  0.00     0.000 HD 
ENDROOT
BRANCH   3   6
ATOM      6  CA  TYR A   1     -10.982  14.671  65.533  1.00  0.00    -0.340 C  
ATOM      7  C   TYR A   1     -10.948  16.093  64.936  1.00  0.00    -0.349 C  
ATOM      8  O   TYR A   1     -10.159  16.947  65.638  1.00  0.00    -0.546 OA 
ATOM      9  OXT TYR A   1     -11.574  16.463  63.952  1.00  0.00    -1.100 OA 
BRANCH   6  10
ATOM     10  CB  TYR A   1     -11.612  13.653  64.562  1.00  0.00    -0.415 C  
BRANCH  10  11
ATOM     11  CG  TYR A   1     -10.943  12.296  64.528  1.00  0.00    -0.358 A  
ATOM     12  CD1 TYR A   1     -10.867  11.471  65.661  1.00  0.00    -0.310 A  
ATOM     13  CE1 TYR A   1     -10.129  10.285  65.633  1.00  0.00    -0.341 A  
ATOM     14  CZ  TYR A   1      -9.501   9.897  64.457  1.00  0.00    -0.264 A  
ATOM     15  CE2 TYR A   1      -9.638  10.651  63.300  1.00  0.00    -0.382 A  
ATOM     16  OH  TYR A   1      -8.724   8.780  64.408  1.00  0.00    -0.353 OA 
ATOM     17  HH  TYR A   1      -8.294   8.514  63.603  1.00  0.00     0.000 HD 
ATOM     18  CD2 TYR A   1     -10.358  11.847  63.335  1.00  0.00    -0.481 A  
ENDBRANCH  10  11
ENDBRANCH   6  10
ENDBRANCH   3   6
TORSDOF 3
ENDMDL
MODEL       17
REMARK 921   NORMALIZED FREE ENERGY PREDICTED BY IDOCK:   -5.48 KCAL/MOL
REMARK 922        TOTAL FREE ENERGY PREDICTED BY IDOCK:   -6.88 KCAL/MOL
REMARK 923 INTER-LIGAND FREE ENERGY PREDICTED BY IDOCK:   -6.39 KCAL/MOL
REMARK 924 INTRA-LIGAND FREE ENERGY PREDICTED BY IDOCK:   -0.48 KCAL/MOL
REMARK 927      BINDING AFFINITY PREDICTED BY RF-SCORE:    0.00 PKD
ROOT
HETATM    1  C   UNK A   0      -8.763  11.241  66.294  1.00  0.00    -0.184 C  
HETATM    2  C   UNK A   0      -9.792  12.319  66.464  1.00  0.00    -0.229 C  
ATOM      3  N   TYR A   1     -10.030  13.095  65.359  1.00  0.00    -0.456 N  
HETATM    4  O   UNK A   0     -10.435  12.469  67.502  1.00  0.00    -0.216 OA 
ATOM      5  H   TYR A   1      -9.467  12.967  64.517  1.00  0.00     0.000 HD 
ENDROOT
BRANCH   3   6
ATOM      6  CA  TYR A   1     -11.092  14.110  65.381  1.00  0.00    -0.321 C  
ATOM      7  C   TYR A   1     -12.240  13.671  64.449  1.00  0.00    -0.390 C  
ATOM      8  O   TYR A   1     -12.919  12.590  64.914  1.00  0.00    -0.821 OA 
ATOM      9  OXT TYR A   1     -12.525  14.195  63.382  1.00  0.00    -0.797 OA 
BRANCH   6  10
ATOM     10  CB  TYR A   1     -10.548  15.503  65.009  1.00  0.00    -0.435 C  
BRANCH  10  11
ATOM     11  CG  TYR A   1     -10.371  16.457  66.170  1.00  0.00    -0.354 A  
ATOM     12  CD1 TYR A   1     -10.301  16.012  67.499  1.00  0.00    -0.287 A  
ATOM     13  CE1 TYR A   1     -10.271  16.924  68.558  1.00  0.00    -0.310 A  
ATOM     14  CZ  TYR A   1     -10.265  18.285  68.288  1.00  0.00    -0.385 A  
ATOM     15  CE2 TYR A   1     -10.242  18.748  66.979  1.00  0.00    -0.426 A  
ATOM     16  OH  TYR A   1     -10.297  19.204  69.293  1.00  0.00    -0.527 OA 
ATOM     17  HH  TYR A   1     -10.293  20.136  69.108  1.00  0.00     0.000 HD 
ATOM     18  CD2 TYR A   1     -10.293  17.836  65.923  1.00  0.00    -0.257 A  
ENDBRANCH  10  11
ENDBRANCH   6  10
ENDBRANCH   3   6
TORSDOF 3
ENDMDL
MODEL       18
REMARK 921   NORMALIZED FREE ENERGY PREDICTED BY IDOCK:   -5.46 KCAL/MOL
REMARK 922        TOTAL FREE ENERGY PREDICTED BY IDOCK:   -6.85 KCAL/MOL
REMARK 923 INTER-LIGAND FREE ENERGY PREDICTED BY IDOCK:   -6.47 KCAL/MOL
REMARK 924 INTRA-LIGAND FREE ENERGY PREDICTED BY IDOCK:   -0.38 KCAL/MOL
REMARK 927      BINDING AFFINITY PREDICTED BY RF-SCORE:    0.00 PKD
ROOT
HETATM    1  C   UNK A   0     -13.130  15.246  71.041  1.00  0.00    -0.544 C  
HETATM    2  C   UNK A   0     -12.450  14.444  69.971  1.00  0.00    -0.301 C  
ATOM      3  N   TYR A   1     -12.300  15.073  68.761  1.00  0.00    -0.598 N  
HETATM    4  O   UNK A   0     -11.993  13.320  70.169  1.00  0.00    -0.330 OA 
ATOM      5  H   TYR A   1     -12.709  15.997  68.615  1.00  0.00     0.000 HD 
ENDROOT
BRANCH   3   6
ATOM      6  CA  TYR A   1     -11.555  14.423  67.675  1.00  0.00    -0.370 C  
ATOM      7  C   TYR A   1     -10.389  15.333  67.236  1.00  0.00    -0.264 C  
ATOM      8  O   TYR A   1      -9.415  15.441  68.177  1.00  0.00    -0.199 OA 
ATOM      9  OXT TYR A   1     -10.323  15.935  66.174  1.00  0.00    -0.297 OA 
BRANCH   6  10
ATOM     10  CB  TYR A   1     -12.479  14.060  66.496  1.00  0.00    -0.351 C  
BRANCH  10  11
ATOM     11  CG  TYR A   1     -11.913  13.051  65.520  1.00  0.00    -0.470 A  
ATOM     12  CD1 TYR A   1     -11.087  11.994  65.933  1.00  0.00    -0.369 A  
ATOM     13  CE1 TYR A   1     -10.472  11.159  64.996  1.00  0.00    -0.357 A  
ATOM     14  CZ  TYR A   1     -10.719  11.351  63.643  1.00  0.00    -0.401 A  
ATOM     15  CE2 TYR A   1     -11.603  12.333  63.217  1.00  0.00    -0.434 A  
ATOM     16  OH  TYR A   1     -10.091  10.597  62.698  1.00  0.00    -0.720 OA 
ATOM     17  HH  TYR A   1     -10.260  10.728  61.772  1.00  0.00     0.000 HD 
ATOM     18  CD2 TYR A   1     -12.199  13.179  64.153  1.00  0.00    -0.465 A  
ENDBRANCH  10  11
ENDBRANCH   6  10
ENDBRANCH   3   6
TORSDOF 3
ENDMDL
MODEL       19
REMARK 921   NORMALIZED FREE ENERGY PREDICTED BY IDOCK:   -5.46 KCAL/MOL
REMARK 922        TOTAL FREE ENERGY PREDICTED BY IDOCK:   -6.85 KCAL/MOL
REMARK 923 INTER-LIGAND FREE ENERGY PREDICTED BY IDOCK:   -6.38 KCAL/MOL
REMARK 924 INTRA-LIGAND FREE ENERGY PREDICTED BY IDOCK:   -0.47 KCAL/MOL
REMARK 927      BINDING AFFINITY PREDICTED BY RF-SCORE:    0.00 PKD
ROOT
HETATM    1  C   UNK A   0      -8.821  10.369  64.051  1.00  0.00    -0.225 C  
HETATM    2  C   UNK A   0      -9.852  10.641  65.106  1.00  0.00    -0.284 C  
ATOM      3  N   TYR A   1     -10.437  11.881  65.061  1.00  0.00    -0.277 N  
HETATM    4  O   UNK A   0     -10.207   9.795  65.926  1.00  0.00    -0.259 OA 
ATOM      5  H   TYR A   1     -10.108  12.573  64.388  1.00  0.00     0.000 HD 
ENDROOT
BRANCH   3   6
ATOM      6  CA  TYR A   1     -11.533  12.216  65.980  1.00  0.00    -0.370 C  
ATOM      7  C   TYR A   1     -12.645  12.952  65.203  1.00  0.00    -0.471 C  
ATOM      8  O   TYR A   1     -13.296  12.151  64.319  1.00  0.00    -0.761 OA 
ATOM      9  OXT TYR A   1     -12.924  14.137  65.319  1.00  0.00    -0.725 OA 
BRANCH   6  10
ATOM     10  CB  TYR A   1     -11.030  13.038  67.182  1.00  0.00    -0.293 C  
BRANCH  10  11
ATOM     11  CG  TYR A   1     -11.529  12.574  68.534  1.00  0.00    -0.346 A  
ATOM     12  CD1 TYR A   1     -11.840  11.230  68.795  1.00  0.00    -0.396 A  
ATOM     13  CE1 TYR A   1     -12.424  10.854  70.008  1.00  0.00    -0.332 A  
ATOM     14  CZ  TYR A   1     -12.657  11.816  70.982  1.00  0.00    -0.310 A  
ATOM     15  CE2 TYR A   1     -12.274  13.135  70.780  1.00  0.00    -0.375 A  
ATOM     16  OH  TYR A   1     -13.279  11.498  72.152  1.00  0.00    -0.576 OA 
ATOM     17  HH  TYR A   1     -13.438  12.156  72.818  1.00  0.00     0.000 HD 
ATOM     18  CD2 TYR A   1     -11.711  13.512  69.560  1.00  0.00    -0.382 A  
ENDBRANCH  10  11
ENDBRANCH   6  10
ENDBRANCH   3   6
TORSDOF 3
ENDMDL
MODEL       20
REMARK 921   NORMALIZED FREE ENERGY PREDICTED BY IDOCK:   -5.45 KCAL/MOL
REMARK 922        TOTAL FREE ENERGY PREDICTED BY IDOCK:   -6.84 KCAL/MOL
REMARK 923 INTER-LIGAND FREE ENERGY PREDICTED BY IDOCK:   -6.39 KCAL/MOL
REMARK 924 INTRA-LIGAND FREE ENERGY PREDICTED BY IDOCK:   -0.45 KCAL/MOL
REMARK 927      BINDING AFFINITY PREDICTED BY RF-SCORE:    0.00 PKD
ROOT
HETATM    1  C   UNK A   0     -10.516   8.695  67.483  1.00  0.00    -0.335 C  
HETATM    2  C   UNK A   0     -10.476   9.471  68.766  1.00  0.00    -0.219 C  
ATOM      3  N   TYR A   1     -11.397   9.101  69.714  1.00  0.00    -0.435 N  
HETATM    4  O   UNK A   0      -9.638  10.342  68.993  1.00  0.00    -0.182 OA 
ATOM      5  H   TYR A   1     -12.096   8.392  69.492  1.00  0.00     0.000 HD 
ENDROOT
BRANCH   3   6
ATOM      6  CA  TYR A   1     -11.379   9.720  71.045  1.00  0.00    -0.387 C  
ATOM      7  C   TYR A   1     -10.920   8.680  72.089  1.00  0.00    -0.364 C  
ATOM      8  O   TYR A   1      -9.613   8.335  71.957  1.00  0.00    -0.197 OA 
ATOM      9  OXT TYR A   1     -11.633   8.174  72.943  1.00  0.00    -0.386 OA 
BRANCH   6  10
ATOM     10  CB  TYR A   1     -12.748  10.330  71.402  1.00  0.00    -0.547 C  
BRANCH  10  11
ATOM     11  CG  TYR A   1     -12.831  11.837  71.294  1.00  0.00    -0.409 A  
ATOM     12  CD1 TYR A   1     -13.597  12.609  72.181  1.00  0.00    -0.510 A  
ATOM     13  CE1 TYR A   1     -13.761  13.982  71.976  1.00  0.00    -0.569 A  
ATOM     14  CZ  TYR A   1     -13.122  14.595  70.907  1.00  0.00    -0.358 A  
ATOM     15  CE2 TYR A   1     -12.287  13.868  70.070  1.00  0.00    -0.378 A  
ATOM     16  OH  TYR A   1     -13.306  15.918  70.640  1.00  0.00    -0.736 OA 
ATOM     17  HH  TYR A   1     -12.868  16.337  69.908  1.00  0.00     0.000 HD 
ATOM     18  CD2 TYR A   1     -12.141  12.492  70.263  1.00  0.00    -0.373 A  
ENDBRANCH  10  11
ENDBRANCH   6  10
ENDBRANCH   3   6
TORSDOF 3
ENDMDL
MODEL       21
REMARK 921   NORMALIZED FREE ENERGY PREDICTED BY IDOCK:   -5.44 KCAL/MOL
REMARK 922        TOTAL FREE ENERGY PREDICTED BY IDOCK:   -6.83 KCAL/MOL
REMARK 923 INTER-LIGAND FREE ENERGY PREDICTED BY IDOCK:   -6.37 KCAL/MOL
REMARK 924 INTRA-LIGAND FREE ENERGY PREDICTED BY IDOCK:   -0.46 KCAL/MOL
REMARK 927      BINDING AFFINITY PREDICTED BY RF-SCORE:    0.00 PKD
ROOT
HETATM    1  C   UNK A   0      -9.012  16.432  66.435  1.00  0.00    -0.340 C  
HETATM    2  C   UNK A   0      -9.422  15.644  67.644  1.00  0.00    -0.211 C  
ATOM      3  N   TYR A   1     -10.569  14.903  67.511  1.00  0.00    -0.262 N  
HETATM    4  O   UNK A   0      -8.750  15.604  68.673  1.00  0.00    -0.172 OA 
ATOM      5  H   TYR A   1     -11.121  14.971  66.656  1.00  0.00     0.000 HD 
ENDROOT
BRANCH   3   6
ATOM      6  CA  TYR A   1     -11.005  14.012  68.594  1.00  0.00    -0.263 C  
ATOM      7  C   TYR A   1     -10.950  12.548  68.108  1.00  0.00    -0.228 C  
ATOM      8  O   TYR A   1      -9.683  12.100  67.910  1.00  0.00    -0.188 OA 
ATOM      9  OXT TYR A   1     -11.921  11.841  67.883  1.00  0.00    -0.575 OA 
BRANCH   6  10
ATOM     10  CB  TYR A   1     -12.405  14.395  69.111  1.00  0.00    -0.156 C  
BRANCH  10  11
ATOM     11  CG  TYR A   1     -12.476  14.741  70.583  1.00  0.00    -0.407 A  
ATOM     12  CD1 TYR A   1     -13.235  13.986  71.492  1.00  0.00    -0.431 A  
ATOM     13  CE1 TYR A   1     -13.389  14.406  72.816  1.00  0.00    -0.606 A  
ATOM     14  CZ  TYR A   1     -12.746  15.558  73.247  1.00  0.00    -0.509 A  
ATOM     15  CE2 TYR A   1     -11.917  16.270  72.390  1.00  0.00    -0.630 A  
ATOM     16  OH  TYR A   1     -12.920  16.032  74.513  1.00  0.00    -0.920 OA 
ATOM     17  HH  TYR A   1     -12.480  16.820  74.808  1.00  0.00     0.000 HD 
ATOM     18  CD2 TYR A   1     -11.782  15.861  71.062  1.00  0.00    -0.473 A  
ENDBRANCH  10  11
ENDBRANCH   6  10
ENDBRANCH   3   6
TORSDOF 3
ENDMDL
MODEL       22
REMARK 921   NORMALIZED FREE ENERGY PREDICTED BY IDOCK:   -5.43 KCAL/MOL
REMARK 922        TOTAL FREE ENERGY PREDICTED BY IDOCK:   -6.82 KCAL/MOL
REMARK 923 INTER-LIGAND FREE ENERGY PREDICTED BY IDOCK:   -6.45 KCAL/MOL
REMARK 924 INTRA-LIGAND FREE ENERGY PREDICTED BY IDOCK:   -0.37 KCAL/MOL
REMARK 927      BINDING AFFINITY PREDICTED BY RF-SCORE:    0.00 PKD
ROOT
HETATM    1  C   UNK A   0     -11.562  10.028  71.126  1.00  0.00    -0.460 C  
HETATM    2  C   UNK A   0     -11.628  10.190  69.636  1.00  0.00    -0.153 C  
ATOM      3  N   TYR A   1     -10.706   9.470  68.918  1.00  0.00    -0.296 N  
HETATM    4  O   UNK A   0     -12.488  10.868  69.076  1.00  0.00    -0.425 OA 
ATOM      5  H   TYR A   1      -9.989   8.934  69.406  1.00  0.00     0.000 HD 
ENDROOT
BRANCH   3   6
ATOM      6  CA  TYR A   1     -10.748   9.470  67.449  1.00  0.00    -0.227 C  
ATOM      7  C   TYR A   1     -10.222   8.119  66.922  1.00  0.00    -0.316 C  
ATOM      8  O   TYR A   1     -11.055   7.080  67.195  1.00  0.00    -0.350 OA 
ATOM      9  OXT TYR A   1      -9.160   7.952  66.340  1.00  0.00    -0.162 OA 
BRANCH   6  10
ATOM     10  CB  TYR A   1      -9.966  10.661  66.863  1.00  0.00    -0.245 C  
BRANCH  10  11
ATOM     11  CG  TYR A   1     -10.704  11.461  65.811  1.00  0.00    -0.309 A  
ATOM     12  CD1 TYR A   1     -10.440  11.316  64.440  1.00  0.00    -0.407 A  
ATOM     13  CE1 TYR A   1     -11.040  12.162  63.503  1.00  0.00    -0.525 A  
ATOM     14  CZ  TYR A   1     -11.942  13.126  63.931  1.00  0.00    -0.488 A  
ATOM     15  CE2 TYR A   1     -12.287  13.228  65.272  1.00  0.00    -0.525 A  
ATOM     16  OH  TYR A   1     -12.502  14.007  63.055  1.00  0.00    -1.101 OA 
ATOM     17  HH  TYR A   1     -13.119  14.667  63.349  1.00  0.00     0.000 HD 
ATOM     18  CD2 TYR A   1     -11.671  12.396  66.209  1.00  0.00    -0.457 A  
ENDBRANCH  10  11
ENDBRANCH   6  10
ENDBRANCH   3   6
TORSDOF 3
ENDMDL
MODEL       23
REMARK 921   NORMALIZED FREE ENERGY PREDICTED BY IDOCK:   -5.40 KCAL/MOL
REMARK 922        TOTAL FREE ENERGY PREDICTED BY IDOCK:   -6.78 KCAL/MOL
REMARK 923 INTER-LIGAND FREE ENERGY PREDICTED BY IDOCK:   -6.32 KCAL/MOL
REMARK 924 INTRA-LIGAND FREE ENERGY PREDICTED BY IDOCK:   -0.46 KCAL/MOL
REMARK 927      BINDING AFFINITY PREDICTED BY RF-SCORE:    0.00 PKD
ROOT
HETATM    1  C   UNK A   0     -10.653   9.513  67.353  1.00  0.00    -0.337 C  
HETATM    2  C   UNK A   0     -10.635  10.077  68.743  1.00  0.00    -0.217 C  
ATOM      3  N   TYR A   1     -11.702   9.738  69.537  1.00  0.00    -0.450 N  
HETATM    4  O   UNK A   0      -9.702  10.749  69.178  1.00  0.00    -0.207 OA 
ATOM      5  H   TYR A   1     -12.475   9.199  69.146  1.00  0.00     0.000 HD 
ENDROOT
BRANCH   3   6
ATOM      6  CA  TYR A   1     -11.735  10.146  70.947  1.00  0.00    -0.378 C  
ATOM      7  C   TYR A   1     -11.538   8.907  71.845  1.00  0.00    -0.371 C  
ATOM      8  O   TYR A   1     -10.286   8.385  71.766  1.00  0.00    -0.218 OA 
ATOM      9  OXT TYR A   1     -12.400   8.398  72.547  1.00  0.00    -0.376 OA 
BRANCH   6  10
ATOM     10  CB  TYR A   1     -13.034  10.903  71.285  1.00  0.00    -0.492 C  
BRANCH  10  11
ATOM     11  CG  TYR A   1     -12.903  12.409  71.357  1.00  0.00    -0.360 A  
ATOM     12  CD1 TYR A   1     -12.175  13.142  70.406  1.00  0.00    -0.389 A  
ATOM     13  CE1 TYR A   1     -11.961  14.513  70.573  1.00  0.00    -0.387 A  
ATOM     14  CZ  TYR A   1     -12.514  15.164  71.667  1.00  0.00    -0.350 A  
ATOM     15  CE2 TYR A   1     -13.313  14.477  72.570  1.00  0.00    -0.565 A  
ATOM     16  OH  TYR A   1     -12.277  16.486  71.895  1.00  0.00    -0.577 OA 
ATOM     17  HH  TYR A   1     -12.656  16.932  72.644  1.00  0.00     0.000 HD 
ATOM     18  CD2 TYR A   1     -13.508  13.103  72.415  1.00  0.00    -0.643 A  
ENDBRANCH  10  11
ENDBRANCH   6  10
ENDBRANCH   3   6
TORSDOF 3
ENDMDL
MODEL       24
REMARK 921   NORMALIZED FREE ENERGY PREDICTED BY IDOCK:   -5.39 KCAL/MOL
REMARK 922        TOTAL FREE ENERGY PREDICTED BY IDOCK:   -6.77 KCAL/MOL
REMARK 923 INTER-LIGAND FREE ENERGY PREDICTED BY IDOCK:   -6.36 KCAL/MOL
REMARK 924 INTRA-LIGAND FREE ENERGY PREDICTED BY IDOCK:   -0.41 KCAL/MOL
REMARK 927      BINDING AFFINITY PREDICTED BY RF-SCORE:    0.00 PKD
ROOT
HETATM    1  C   UNK A   0     -10.873  12.009  63.501  1.00  0.00    -0.509 C  
HETATM    2  C   UNK A   0     -11.557  13.014  64.379  1.00  0.00    -0.369 C  
ATOM      3  N   TYR A   1     -10.751  13.991  64.906  1.00  0.00    -0.396 N  
HETATM    4  O   UNK A   0     -12.772  13.014  64.572  1.00  0.00    -0.656 OA 
ATOM      5  H   TYR A   1      -9.743  13.956  64.751  1.00  0.00     0.000 HD 
ENDROOT
BRANCH   3   6
ATOM      6  CA  TYR A   1     -11.333  15.087  65.693  1.00  0.00    -0.297 C  
ATOM      7  C   TYR A   1     -10.976  16.436  65.035  1.00  0.00    -0.252 C  
ATOM      8  O   TYR A   1     -11.599  16.628  63.843  1.00  0.00    -1.204 OA 
ATOM      9  OXT TYR A   1     -10.198  17.262  65.491  1.00  0.00    -0.602 OA 
BRANCH   6  10
ATOM     10  CB  TYR A   1     -10.880  15.026  67.165  1.00  0.00    -0.314 C  
BRANCH  10  11
ATOM     11  CG  TYR A   1     -10.694  13.632  67.725  1.00  0.00    -0.255 A  
ATOM     12  CD1 TYR A   1     -11.780  12.833  68.118  1.00  0.00    -0.392 A  
ATOM     13  CE1 TYR A   1     -11.571  11.606  68.754  1.00  0.00    -0.374 A  
ATOM     14  CZ  TYR A   1     -10.274  11.153  68.957  1.00  0.00    -0.176 A  
ATOM     15  CE2 TYR A   1      -9.188  11.884  68.495  1.00  0.00    -0.136 A  
ATOM     16  OH  TYR A   1     -10.030   9.992  69.626  1.00  0.00    -0.212 OA 
ATOM     17  HH  TYR A   1      -9.143   9.682  69.765  1.00  0.00     0.000 HD 
ATOM     18  CD2 TYR A   1      -9.398  13.119  67.879  1.00  0.00    -0.215 A  
ENDBRANCH  10  11
ENDBRANCH   6  10
ENDBRANCH   3   6
TORSDOF 3
ENDMDL
MODEL       25
REMARK 921   NORMALIZED FREE ENERGY PREDICTED BY IDOCK:   -5.39 KCAL/MOL
REMARK 922        TOTAL FREE ENERGY PREDICTED BY IDOCK:   -6.77 KCAL/MOL
REMARK 923 INTER-LIGAND FREE ENERGY PREDICTED BY IDOCK:   -6.27 KCAL/MOL
REMARK 924 INTRA-LIGAND FREE ENERGY PREDICTED BY IDOCK:   -0.49 KCAL/MOL
REMARK 927      BINDING AFFINITY PREDICTED BY RF-SCORE:    0.00 PKD
ROOT
HETATM    1  C   UNK A   0     -12.045  13.483  69.877  1.00  0.00    -0.408 C  
HETATM    2  C   UNK A   0     -11.757  14.451  68.767  1.00  0.00    -0.337 C  
ATOM      3  N   TYR A   1     -11.447  13.890  67.554  1.00  0.00    -0.321 N  
HETATM    4  O   UNK A   0     -11.852  15.669  68.904  1.00  0.00    -0.379 OA 
ATOM      5  H   TYR A   1     -11.352  12.877  67.472  1.00  0.00     0.000 HD 
ENDROOT
BRANCH   3   6
ATOM      6  CA  TYR A   1     -11.252  14.741  66.373  1.00  0.00    -0.342 C  
ATOM      7  C   TYR A   1     -11.918  14.079  65.148  1.00  0.00    -0.387 C  
ATOM      8  O   TYR A   1     -13.275  14.065  65.224  1.00  0.00    -0.782 OA 
ATOM      9  OXT TYR A   1     -11.325  13.582  64.202  1.00  0.00    -0.382 OA 
BRANCH   6  10
ATOM     10  CB  TYR A   1      -9.759  15.033  66.129  1.00  0.00    -0.334 C  
BRANCH  10  11
ATOM     11  CG  TYR A   1      -9.369  16.494  66.189  1.00  0.00    -0.339 A  
ATOM     12  CD1 TYR A   1      -8.029  16.909  66.225  1.00  0.00    -0.350 A  
ATOM     13  CE1 TYR A   1      -7.702  18.255  66.415  1.00  0.00    -0.289 A  
ATOM     14  CZ  TYR A   1      -8.717  19.196  66.523  1.00  0.00    -0.337 A  
ATOM     15  CE2 TYR A   1     -10.048  18.820  66.400  1.00  0.00    -0.443 A  
ATOM     16  OH  TYR A   1      -8.439  20.507  66.769  1.00  0.00    -0.511 OA 
ATOM     17  HH  TYR A   1      -9.134  21.151  66.843  1.00  0.00     0.000 HD 
ATOM     18  CD2 TYR A   1     -10.373  17.473  66.232  1.00  0.00    -0.335 A  
ENDBRANCH  10  11
ENDBRANCH   6  10
ENDBRANCH   3   6
TORSDOF 3
ENDMDL
MODEL       26
REMARK 921   NORMALIZED FREE ENERGY PREDICTED BY IDOCK:   -5.28 KCAL/MOL
REMARK 922        TOTAL FREE ENERGY PREDICTED BY IDOCK:   -6.64 KCAL/MOL
REMARK 923 INTER-LIGAND FREE ENERGY PREDICTED BY IDOCK:   -6.14 KCAL/MOL
REMARK 924 INTRA-LIGAND FREE ENERGY PREDICTED BY IDOCK:   -0.50 KCAL/MOL
REMARK 927      BINDING AFFINITY PREDICTED BY RF-SCORE:    0.00 PKD
ROOT
HETATM    1  C   UNK A   0     -12.347  11.260  70.892  1.00  0.00    -0.490 C  
HETATM    2  C   UNK A   0     -11.661  11.836  69.688  1.00  0.00    -0.344 C  
ATOM      3  N   TYR A   1     -12.050  13.101  69.329  1.00  0.00    -0.265 N  
HETATM    4  O   UNK A   0     -10.761  11.248  69.090  1.00  0.00    -0.215 OA 
ATOM      5  H   TYR A   1     -12.815  13.557  69.827  1.00  0.00     0.000 HD 
ENDROOT
BRANCH   3   6
ATOM      6  CA  TYR A   1     -11.370  13.802  68.232  1.00  0.00    -0.285 C  
ATOM      7  C   TYR A   1     -10.924  15.198  68.714  1.00  0.00    -0.255 C  
ATOM      8  O   TYR A   1      -9.926  15.149  69.635  1.00  0.00    -0.227 OA 
ATOM      9  OXT TYR A   1     -11.409  16.260  68.353  1.00  0.00    -0.367 OA 
BRANCH   6  10
ATOM     10  CB  TYR A   1     -12.261  13.883  66.977  1.00  0.00    -0.392 C  
BRANCH  10  11
ATOM     11  CG  TYR A   1     -11.750  13.122  65.773  1.00  0.00    -0.415 A  
ATOM     12  CD1 TYR A   1     -12.523  12.949  64.614  1.00  0.00    -0.499 A  
ATOM     13  CE1 TYR A   1     -12.077  12.130  63.573  1.00  0.00    -0.649 A  
ATOM     14  CZ  TYR A   1     -10.835  11.518  63.669  1.00  0.00    -0.415 A  
ATOM     15  CE2 TYR A   1     -10.015  11.747  64.764  1.00  0.00    -0.275 A  
ATOM     16  OH  TYR A   1     -10.393  10.666  62.702  1.00  0.00    -0.752 OA 
ATOM     17  HH  TYR A   1      -9.542  10.247  62.767  1.00  0.00     0.000 HD 
ATOM     18  CD2 TYR A   1     -10.471  12.548  65.813  1.00  0.00    -0.296 A  
ENDBRANCH  10  11
ENDBRANCH   6  10
ENDBRANCH   3   6
TORSDOF 3
ENDMDL
MODEL       27
REMARK 921   NORMALIZED FREE ENERGY PREDICTED BY IDOCK:   -5.26 KCAL/MOL
REMARK 922        TOTAL FREE ENERGY PREDICTED BY IDOCK:   -6.62 KCAL/MOL
REMARK 923 INTER-LIGAND FREE ENERGY PREDICTED BY IDOCK:   -6.31 KCAL/MOL
REMARK 924 INTRA-LIGAND FREE ENERGY PREDICTED BY IDOCK:   -0.31 KCAL/MOL
REMARK 927      BINDING AFFINITY PREDICTED BY RF-SCORE:    0.00 PKD
ROOT
HETATM    1  C   UNK A   0     -14.398  15.386  71.914  1.00  0.00    -0.649 C  
HETATM    2  C   UNK A   0     -13.073  14.808  71.510  1.00  0.00    -0.354 C  
ATOM      3  N   TYR A   1     -12.993  14.348  70.220  1.00  0.00    -0.484 N  
HETATM    4  O   UNK A   0     -12.095  14.800  72.255  1.00  0.00    -0.332 OA 
ATOM      5  H   TYR A   1     -13.825  14.345  69.630  1.00  0.00     0.000 HD 
ENDROOT
BRANCH   3   6
ATOM      6  CA  TYR A   1     -11.714  13.861  69.686  1.00  0.00    -0.311 C  
ATOM      7  C   TYR A   1     -11.184  14.858  68.635  1.00  0.00    -0.275 C  
ATOM      8  O   TYR A   1     -10.793  16.043  69.174  1.00  0.00    -0.242 OA 
ATOM      9  OXT TYR A   1     -11.131  14.655  67.431  1.00  0.00    -0.304 OA 
BRANCH   6  10
ATOM     10  CB  TYR A   1     -11.849  12.437  69.113  1.00  0.00    -0.352 C  
BRANCH  10  11
ATOM     11  CG  TYR A   1     -11.770  11.321  70.133  1.00  0.00    -0.429 A  
ATOM     12  CD1 TYR A   1     -10.734  10.375  70.127  1.00  0.00    -0.292 A  
ATOM     13  CE1 TYR A   1     -10.760   9.281  70.997  1.00  0.00    -0.387 A  
ATOM     14  CZ  TYR A   1     -11.801   9.155  71.907  1.00  0.00    -0.369 A  
ATOM     15  CE2 TYR A   1     -12.788  10.127  71.992  1.00  0.00    -0.472 A  
ATOM     16  OH  TYR A   1     -11.892   8.072  72.728  1.00  0.00    -0.551 OA 
ATOM     17  HH  TYR A   1     -12.605   7.986  73.351  1.00  0.00     0.000 HD 
ATOM     18  CD2 TYR A   1     -12.772  11.208  71.108  1.00  0.00    -0.510 A  
ENDBRANCH  10  11
ENDBRANCH   6  10
ENDBRANCH   3   6
TORSDOF 3
ENDMDL
MODEL       28
REMARK 921   NORMALIZED FREE ENERGY PREDICTED BY IDOCK:   -5.25 KCAL/MOL
REMARK 922        TOTAL FREE ENERGY PREDICTED BY IDOCK:   -6.61 KCAL/MOL
REMARK 923 INTER-LIGAND FREE ENERGY PREDICTED BY IDOCK:   -6.98 KCAL/MOL
REMARK 924 INTRA-LIGAND FREE ENERGY PREDICTED BY IDOCK:    0.38 KCAL/MOL
REMARK 927      BINDING AFFINITY PREDICTED BY RF-SCORE:    0.00 PKD
ROOT
HETATM    1  C   UNK A   0     -12.532  12.676  65.157  1.00  0.00    -0.531 C  
HETATM    2  C   UNK A   0     -11.764  13.268  66.302  1.00  0.00    -0.369 C  
ATOM      3  N   TYR A   1     -12.295  14.408  66.850  1.00  0.00    -0.547 N  
HETATM    4  O   UNK A   0     -10.757  12.740  66.772  1.00  0.00    -0.256 OA 
ATOM      5  H   TYR A   1     -13.117  14.838  66.427  1.00  0.00     0.000 HD 
ENDROOT
BRANCH   3   6
ATOM      6  CA  TYR A   1     -11.683  15.011  68.042  1.00  0.00    -0.298 C  
ATOM      7  C   TYR A   1     -10.329  15.643  67.659  1.00  0.00    -0.275 C  
ATOM      8  O   TYR A   1     -10.458  16.737  66.863  1.00  0.00    -0.306 OA 
ATOM      9  OXT TYR A   1      -9.232  15.219  67.990  1.00  0.00    -0.185 OA 
BRANCH   6  10
ATOM     10  CB  TYR A   1     -11.539  13.985  69.182  1.00  0.00    -0.356 C  
BRANCH  10  11
ATOM     11  CG  TYR A   1     -11.993  14.466  70.543  1.00  0.00    -0.395 A  
ATOM     12  CD1 TYR A   1     -12.951  13.772  71.300  1.00  0.00    -0.409 A  
ATOM     13  CE1 TYR A   1     -13.447  14.310  72.490  1.00  0.00    -0.613 A  
ATOM     14  CZ  TYR A   1     -12.952  15.522  72.952  1.00  0.00    -0.477 A  
ATOM     15  CE2 TYR A   1     -11.940  16.181  72.268  1.00  0.00    -0.637 A  
ATOM     16  OH  TYR A   1     -13.454  16.107  74.076  1.00  0.00    -0.889 OA 
ATOM     17  HH  TYR A   1     -13.114  16.937  74.392  1.00  0.00     0.000 HD 
ATOM     18  CD2 TYR A   1     -11.460  15.653  71.067  1.00  0.00    -0.439 A  
ENDBRANCH  10  11
ENDBRANCH   6  10
ENDBRANCH   3   6
TORSDOF 3
ENDMDL
MODEL       29
REMARK 921   NORMALIZED FREE ENERGY PREDICTED BY IDOCK:   -5.17 KCAL/MOL
REMARK 922        TOTAL FREE ENERGY PREDICTED BY IDOCK:   -6.51 KCAL/MOL
REMARK 923 INTER-LIGAND FREE ENERGY PREDICTED BY IDOCK:   -6.85 KCAL/MOL
REMARK 924 INTRA-LIGAND FREE ENERGY PREDICTED BY IDOCK:    0.35 KCAL/MOL
REMARK 927      BINDING AFFINITY PREDICTED BY RF-SCORE:    0.00 PKD
ROOT
HETATM    1  C   UNK A   0     -10.737  15.104  65.177  1.00  0.00    -0.442 C  
HETATM    2  C   UNK A   0     -11.298  14.312  66.322  1.00  0.00    -0.346 C  
ATOM      3  N   TYR A   1     -10.461  14.144  67.396  1.00  0.00    -0.269 N  
HETATM    4  O   UNK A   0     -12.453  13.889  66.337  1.00  0.00    -0.441 OA 
ATOM      5  H   TYR A   1      -9.500  14.483  67.348  1.00  0.00     0.000 HD 
ENDROOT
BRANCH   3   6
ATOM      6  CA  TYR A   1     -10.943  13.477  68.613  1.00  0.00    -0.263 C  
ATOM      7  C   TYR A   1     -11.037  11.958  68.361  1.00  0.00    -0.244 C  
ATOM      8  O   TYR A   1      -9.822  11.366  68.217  1.00  0.00    -0.186 OA 
ATOM      9  OXT TYR A   1     -12.075  11.319  68.266  1.00  0.00    -0.619 OA 
BRANCH   6  10
ATOM     10  CB  TYR A   1     -12.285  14.067  69.085  1.00  0.00    -0.299 C  
BRANCH  10  11
ATOM     11  CG  TYR A   1     -12.355  14.413  70.557  1.00  0.00    -0.413 A  
ATOM     12  CD1 TYR A   1     -13.040  13.609  71.482  1.00  0.00    -0.431 A  
ATOM     13  CE1 TYR A   1     -13.200  14.022  72.807  1.00  0.00    -0.580 A  
ATOM     14  CZ  TYR A   1     -12.635  15.220  73.223  1.00  0.00    -0.499 A  
ATOM     15  CE2 TYR A   1     -11.877  15.987  72.349  1.00  0.00    -0.639 A  
ATOM     16  OH  TYR A   1     -12.821  15.685  74.491  1.00  0.00    -0.760 OA 
ATOM     17  HH  TYR A   1     -12.434  16.505  74.775  1.00  0.00     0.000 HD 
ATOM     18  CD2 TYR A   1     -11.736  15.583  71.020  1.00  0.00    -0.423 A  
ENDBRANCH  10  11
ENDBRANCH   6  10
ENDBRANCH   3   6
TORSDOF 3
ENDMDL
MODEL       30
REMARK 921   NORMALIZED FREE ENERGY PREDICTED BY IDOCK:   -5.16 KCAL/MOL
REMARK 922        TOTAL FREE ENERGY PREDICTED BY IDOCK:   -6.50 KCAL/MOL
REMARK 923 INTER-LIGAND FREE ENERGY PREDICTED BY IDOCK:   -5.99 KCAL/MOL
REMARK 924 INTRA-LIGAND FREE ENERGY PREDICTED BY IDOCK:   -0.51 KCAL/MOL
REMARK 927      BINDING AFFINITY PREDICTED BY RF-SCORE:    0.00 PKD
ROOT
HETATM    1  C   UNK A   0      -8.128  15.479  69.327  1.00  0.00    -0.248 C  
HETATM    2  C   UNK A   0      -9.564  15.377  68.905  1.00  0.00    -0.220 C  
ATOM      3  N   TYR A   1     -10.319  14.453  69.583  1.00  0.00    -0.435 N  
HETATM    4  O   UNK A   0     -10.063  16.111  68.053  1.00  0.00    -0.234 OA 
ATOM      5  H   TYR A   1      -9.877  13.841  70.268  1.00  0.00     0.000 HD 
ENDROOT
BRANCH   3   6
ATOM      6  CA  TYR A   1     -11.761  14.343  69.326  1.00  0.00    -0.317 C  
ATOM      7  C   TYR A   1     -12.531  14.474  70.657  1.00  0.00    -0.343 C  
ATOM      8  O   TYR A   1     -12.466  15.723  71.188  1.00  0.00    -0.423 OA 
ATOM      9  OXT TYR A   1     -13.124  13.568  71.222  1.00  0.00    -0.321 OA 
BRANCH   6  10
ATOM     10  CB  TYR A   1     -12.104  13.035  68.588  1.00  0.00    -0.189 C  
BRANCH  10  11
ATOM     11  CG  TYR A   1     -11.906  13.070  67.088  1.00  0.00    -0.431 A  
ATOM     12  CD1 TYR A   1     -12.338  14.150  66.301  1.00  0.00    -0.451 A  
ATOM     13  CE1 TYR A   1     -12.261  14.094  64.907  1.00  0.00    -0.451 A  
ATOM     14  CZ  TYR A   1     -11.709  12.976  64.297  1.00  0.00    -0.389 A  
ATOM     15  CE2 TYR A   1     -11.192  11.936  65.057  1.00  0.00    -0.350 A  
ATOM     16  OH  TYR A   1     -11.672  12.860  62.939  1.00  0.00    -0.776 OA 
ATOM     17  HH  TYR A   1     -11.294  12.095  62.522  1.00  0.00     0.000 HD 
ATOM     18  CD2 TYR A   1     -11.289  11.984  66.449  1.00  0.00    -0.411 A  
ENDBRANCH  10  11
ENDBRANCH   6  10
ENDBRANCH   3   6
TORSDOF 3
ENDMDL
MODEL       31
REMARK 921   NORMALIZED FREE ENERGY PREDICTED BY IDOCK:   -5.15 KCAL/MOL
REMARK 922        TOTAL FREE ENERGY PREDICTED BY IDOCK:   -6.49 KCAL/MOL
REMARK 923 INTER-LIGAND FREE ENERGY PREDICTED BY IDOCK:   -6.07 KCAL/MOL
REMARK 924 INTRA-LIGAND FREE ENERGY PREDICTED BY IDOCK:   -0.42 KCAL/MOL
REMARK 927      BINDING AFFINITY PREDICTED BY RF-SCORE:    0.00 PKD
ROOT
HETATM    1  C   UNK A   0     -11.436  10.112  70.781  1.00  0.00    -0.442 C  
HETATM    2  C   UNK A   0     -11.473  10.718  69.409  1.00  0.00    -0.295 C  
ATOM      3  N   TYR A   1     -10.287  10.700  68.718  1.00  0.00    -0.182 N  
HETATM    4  O   UNK A   0     -12.505  11.148  68.898  1.00  0.00    -0.460 OA 
ATOM      5  H   TYR A   1      -9.440  10.359  69.173  1.00  0.00     0.000 HD 
ENDROOT
BRANCH   3   6
ATOM      6  CA  TYR A   1     -10.233  11.170  67.328  1.00  0.00    -0.193 C  
ATOM      7  C   TYR A   1      -9.602  10.076  66.441  1.00  0.00    -0.196 C  
ATOM      8  O   TYR A   1     -10.394   8.980  66.304  1.00  0.00    -0.247 OA 
ATOM      9  OXT TYR A   1      -8.497  10.136  65.922  1.00  0.00    -0.132 OA 
BRANCH   6  10
ATOM     10  CB  TYR A   1      -9.480  12.509  67.214  1.00  0.00    -0.193 C  
BRANCH  10  11
ATOM     11  CG  TYR A   1     -10.154  13.557  66.356  1.00  0.00    -0.294 A  
ATOM     12  CD1 TYR A   1     -11.253  13.257  65.535  1.00  0.00    -0.307 A  
ATOM     13  CE1 TYR A   1     -11.769  14.212  64.654  1.00  0.00    -0.427 A  
ATOM     14  CZ  TYR A   1     -11.216  15.485  64.626  1.00  0.00    -0.371 A  
ATOM     15  CE2 TYR A   1     -10.189  15.831  65.493  1.00  0.00    -0.407 A  
ATOM     16  OH  TYR A   1     -11.653  16.424  63.739  1.00  0.00    -1.605 OA 
ATOM     17  HH  TYR A   1     -11.274  17.295  63.720  1.00  0.00     0.000 HD 
ATOM     18  CD2 TYR A   1      -9.660  14.870  66.356  1.00  0.00    -0.317 A  
ENDBRANCH  10  11
ENDBRANCH   6  10
ENDBRANCH   3   6
TORSDOF 3
ENDMDL
MODEL       32
REMARK 921   NORMALIZED FREE ENERGY PREDICTED BY IDOCK:   -5.15 KCAL/MOL
REMARK 922        TOTAL FREE ENERGY PREDICTED BY IDOCK:   -6.49 KCAL/MOL
REMARK 923 INTER-LIGAND FREE ENERGY PREDICTED BY IDOCK:   -6.16 KCAL/MOL
REMARK 924 INTRA-LIGAND FREE ENERGY PREDICTED BY IDOCK:   -0.32 KCAL/MOL
REMARK 927      BINDING AFFINITY PREDICTED BY RF-SCORE:    0.00 PKD
ROOT
HETATM    1  C   UNK A   0      -9.756  16.624  68.021  1.00  0.00    -0.241 C  
HETATM    2  C   UNK A   0      -9.614  16.122  66.614  1.00  0.00    -0.244 C  
ATOM      3  N   TYR A   1     -10.534  15.183  66.221  1.00  0.00    -0.296 N  
HETATM    4  O   UNK A   0      -8.773  16.561  65.832  1.00  0.00    -0.456 OA 
ATOM      5  H   TYR A   1     -11.207  14.818  66.896  1.00  0.00     0.000 HD 
ENDROOT
BRANCH   3   6
ATOM      6  CA  TYR A   1     -10.555  14.701  64.834  1.00  0.00    -0.422 C  
ATOM      7  C   TYR A   1     -11.803  15.257  64.117  1.00  0.00    -0.124 C  
ATOM      8  O   TYR A   1     -11.748  16.599  63.914  1.00  0.00    -1.153 OA 
ATOM      9  OXT TYR A   1     -12.775  14.598  63.776  1.00  0.00    -0.778 OA 
BRANCH   6  10
ATOM     10  CB  TYR A   1     -10.490  13.163  64.770  1.00  0.00    -0.390 C  
BRANCH  10  11
ATOM     11  CG  TYR A   1     -10.454  12.463  66.112  1.00  0.00    -0.274 A  
ATOM     12  CD1 TYR A   1     -11.624  12.129  66.811  1.00  0.00    -0.412 A  
ATOM     13  CE1 TYR A   1     -11.558  11.605  68.106  1.00  0.00    -0.389 A  
ATOM     14  CZ  TYR A   1     -10.319  11.371  68.686  1.00  0.00    -0.203 A  
ATOM     15  CE2 TYR A   1      -9.149  11.610  67.978  1.00  0.00    -0.177 A  
ATOM     16  OH  TYR A   1     -10.214  10.918  69.967  1.00  0.00    -0.396 OA 
ATOM     17  HH  TYR A   1      -9.366  10.758  70.364  1.00  0.00     0.000 HD 
ATOM     18  CD2 TYR A   1      -9.217  12.153  66.694  1.00  0.00    -0.206 A  
ENDBRANCH  10  11
ENDBRANCH   6  10
ENDBRANCH   3   6
TORSDOF 3
ENDMDL
MODEL       33
REMARK 921   NORMALIZED FREE ENERGY PREDICTED BY IDOCK:   -5.14 KCAL/MOL
REMARK 922        TOTAL FREE ENERGY PREDICTED BY IDOCK:   -6.47 KCAL/MOL
REMARK 923 INTER-LIGAND FREE ENERGY PREDICTED BY IDOCK:   -6.15 KCAL/MOL
REMARK 924 INTRA-LIGAND FREE ENERGY PREDICTED BY IDOCK:   -0.32 KCAL/MOL
REMARK 927      BINDING AFFINITY PREDICTED BY RF-SCORE:    0.00 PKD
ROOT
HETATM    1  C   UNK A   0     -11.632  16.042  71.011  1.00  0.00    -0.472 C  
HETATM    2  C   UNK A   0     -11.752  15.129  69.826  1.00  0.00    -0.319 C  
ATOM      3  N   TYR A   1     -11.340  13.836  70.026  1.00  0.00    -0.481 N  
HETATM    4  O   UNK A   0     -12.246  15.486  68.757  1.00  0.00    -0.218 OA 
ATOM      5  H   TYR A   1     -10.913  13.572  70.914  1.00  0.00     0.000 HD 
ENDROOT
BRANCH   3   6
ATOM      6  CA  TYR A   1     -11.512  12.832  68.968  1.00  0.00    -0.309 C  
ATOM      7  C   TYR A   1     -11.492  11.421  69.592  1.00  0.00    -0.309 C  
ATOM      8  O   TYR A   1     -12.582  11.163  70.361  1.00  0.00    -0.293 OA 
ATOM      9  OXT TYR A   1     -10.595  10.602  69.459  1.00  0.00    -0.227 OA 
BRANCH   6  10
ATOM     10  CB  TYR A   1     -10.449  12.989  67.864  1.00  0.00    -0.234 C  
BRANCH  10  11
ATOM     11  CG  TYR A   1     -10.923  12.670  66.462  1.00  0.00    -0.302 A  
ATOM     12  CD1 TYR A   1     -12.143  13.149  65.959  1.00  0.00    -0.495 A  
ATOM     13  CE1 TYR A   1     -12.615  12.729  64.712  1.00  0.00    -0.518 A  
ATOM     14  CZ  TYR A   1     -11.847  11.865  63.945  1.00  0.00    -0.411 A  
ATOM     15  CE2 TYR A   1     -10.596  11.450  64.383  1.00  0.00    -0.403 A  
ATOM     16  OH  TYR A   1     -12.301  11.387  62.753  1.00  0.00    -0.888 OA 
ATOM     17  HH  TYR A   1     -11.774  10.795  62.227  1.00  0.00     0.000 HD 
ATOM     18  CD2 TYR A   1     -10.135  11.853  65.638  1.00  0.00    -0.274 A  
ENDBRANCH  10  11
ENDBRANCH   6  10
ENDBRANCH   3   6
TORSDOF 3
ENDMDL
MODEL       34
REMARK 921   NORMALIZED FREE ENERGY PREDICTED BY IDOCK:   -5.02 KCAL/MOL
REMARK 922        TOTAL FREE ENERGY PREDICTED BY IDOCK:   -6.34 KCAL/MOL
REMARK 923 INTER-LIGAND FREE ENERGY PREDICTED BY IDOCK:   -5.89 KCAL/MOL
REMARK 924 INTRA-LIGAND FREE ENERGY PREDICTED BY IDOCK:   -0.45 KCAL/MOL
REMARK 927      BINDING AFFINITY PREDICTED BY RF-SCORE:    0.00 PKD
ROOT
HETATM    1  C   UNK A   0     -12.357  10.332  71.428  1.00  0.00    -0.502 C  
HETATM    2  C   UNK A   0     -11.950  10.745  70.044  1.00  0.00    -0.347 C  
ATOM      3  N   TYR A   1     -10.606  10.938  69.851  1.00  0.00    -0.451 N  
HETATM    4  O   UNK A   0     -12.751  10.846  69.116  1.00  0.00    -0.262 OA 
ATOM      5  H   TYR A   1      -9.965  10.871  70.642  1.00  0.00     0.000 HD 
ENDROOT
BRANCH   3   6
ATOM      6  CA  TYR A   1     -10.085  11.241  68.512  1.00  0.00    -0.204 C  
ATOM      7  C   TYR A   1      -8.686  10.611  68.350  1.00  0.00    -0.141 C  
ATOM      8  O   TYR A   1      -8.716   9.253  68.306  1.00  0.00    -0.128 OA 
ATOM      9  OXT TYR A   1      -7.634  11.230  68.294  1.00  0.00    -0.101 OA 
BRANCH   6  10
ATOM     10  CB  TYR A   1     -10.069  12.758  68.243  1.00  0.00    -0.237 C  
BRANCH  10  11
ATOM     11  CG  TYR A   1     -10.686  13.187  66.929  1.00  0.00    -0.270 A  
ATOM     12  CD1 TYR A   1     -12.020  13.613  66.834  1.00  0.00    -0.454 A  
ATOM     13  CE1 TYR A   1     -12.600  13.874  65.589  1.00  0.00    -0.553 A  
ATOM     14  CZ  TYR A   1     -11.832  13.755  64.439  1.00  0.00    -0.427 A  
ATOM     15  CE2 TYR A   1     -10.486  13.424  64.516  1.00  0.00    -0.431 A  
ATOM     16  OH  TYR A   1     -12.377  13.943  63.204  1.00  0.00    -1.122 OA 
ATOM     17  HH  TYR A   1     -11.852  13.862  62.417  1.00  0.00     0.000 HD 
ATOM     18  CD2 TYR A   1      -9.914  13.142  65.758  1.00  0.00    -0.260 A  
ENDBRANCH  10  11
ENDBRANCH   6  10
ENDBRANCH   3   6
TORSDOF 3
ENDMDL
MODEL       35
REMARK 921   NORMALIZED FREE ENERGY PREDICTED BY IDOCK:   -4.97 KCAL/MOL
REMARK 922        TOTAL FREE ENERGY PREDICTED BY IDOCK:   -6.28 KCAL/MOL
REMARK 923 INTER-LIGAND FREE ENERGY PREDICTED BY IDOCK:   -5.81 KCAL/MOL
REMARK 924 INTRA-LIGAND FREE ENERGY PREDICTED BY IDOCK:   -0.47 KCAL/MOL
REMARK 927      BINDING AFFINITY PREDICTED BY RF-SCORE:    0.00 PKD
ROOT
HETATM    1  C   UNK A   0     -12.701  14.889  72.761  1.00  0.00    -0.500 C  
HETATM    2  C   UNK A   0     -12.338  15.266  71.355  1.00  0.00    -0.359 C  
ATOM      3  N   TYR A   1     -11.129  14.797  70.907  1.00  0.00    -0.525 N  
HETATM    4  O   UNK A   0     -13.092  15.898  70.618  1.00  0.00    -0.467 OA 
ATOM      5  H   TYR A   1     -10.511  14.295  71.546  1.00  0.00     0.000 HD 
ENDROOT
BRANCH   3   6
ATOM      6  CA  TYR A   1     -10.720  15.016  69.514  1.00  0.00    -0.256 C  
ATOM      7  C   TYR A   1     -10.765  13.676  68.750  1.00  0.00    -0.244 C  
ATOM      8  O   TYR A   1     -12.028  13.208  68.570  1.00  0.00    -0.337 OA 
ATOM      9  OXT TYR A   1      -9.790  13.052  68.357  1.00  0.00    -0.228 OA 
BRANCH   6  10
ATOM     10  CB  TYR A   1      -9.332  15.679  69.431  1.00  0.00    -0.279 C  
BRANCH  10  11
ATOM     11  CG  TYR A   1      -9.289  16.993  68.681  1.00  0.00    -0.270 A  
ATOM     12  CD1 TYR A   1      -8.081  17.619  68.335  1.00  0.00    -0.285 A  
ATOM     13  CE1 TYR A   1      -8.074  18.893  67.763  1.00  0.00    -0.284 A  
ATOM     14  CZ  TYR A   1      -9.278  19.528  67.491  1.00  0.00    -0.315 A  
ATOM     15  CE2 TYR A   1     -10.486  18.891  67.740  1.00  0.00    -0.487 A  
ATOM     16  OH  TYR A   1      -9.311  20.794  66.989  1.00  0.00    -0.615 OA 
ATOM     17  HH  TYR A   1     -10.135  21.228  66.803  1.00  0.00     0.000 HD 
ATOM     18  CD2 TYR A   1     -10.492  17.627  68.332  1.00  0.00    -0.360 A  
ENDBRANCH  10  11
ENDBRANCH   6  10
ENDBRANCH   3   6
TORSDOF 3
ENDMDL
MODEL       36
REMARK 921   NORMALIZED FREE ENERGY PREDICTED BY IDOCK:   -4.96 KCAL/MOL
REMARK 922        TOTAL FREE ENERGY PREDICTED BY IDOCK:   -6.26 KCAL/MOL
REMARK 923 INTER-LIGAND FREE ENERGY PREDICTED BY IDOCK:   -5.81 KCAL/MOL
REMARK 924 INTRA-LIGAND FREE ENERGY PREDICTED BY IDOCK:   -0.45 KCAL/MOL
REMARK 927      BINDING AFFINITY PREDICTED BY RF-SCORE:    0.00 PKD
ROOT
HETATM    1  C   UNK A   0      -9.578  10.667  66.001  1.00  0.00    -0.244 C  
HETATM    2  C   UNK A   0     -10.614  11.672  66.410  1.00  0.00    -0.258 C  
ATOM      3  N   TYR A   1     -10.215  12.985  66.379  1.00  0.00    -0.273 N  
HETATM    4  O   UNK A   0     -11.769  11.361  66.695  1.00  0.00    -0.434 OA 
ATOM      5  H   TYR A   1      -9.245  13.215  66.162  1.00  0.00     0.000 HD 
ENDROOT
BRANCH   3   6
ATOM      6  CA  TYR A   1     -11.178  14.058  66.657  1.00  0.00    -0.323 C  
ATOM      7  C   TYR A   1     -11.316  14.958  65.411  1.00  0.00    -0.346 C  
ATOM      8  O   TYR A   1     -11.929  14.336  64.370  1.00  0.00    -0.438 OA 
ATOM      9  OXT TYR A   1     -10.904  16.106  65.318  1.00  0.00    -0.383 OA 
BRANCH   6  10
ATOM     10  CB  TYR A   1     -10.778  14.864  67.908  1.00  0.00    -0.265 C  
BRANCH  10  11
ATOM     11  CG  TYR A   1     -11.577  14.554  69.156  1.00  0.00    -0.331 A  
ATOM     12  CD1 TYR A   1     -12.212  15.558  69.905  1.00  0.00    -0.351 A  
ATOM     13  CE1 TYR A   1     -12.829  15.258  71.123  1.00  0.00    -0.494 A  
ATOM     14  CZ  TYR A   1     -12.853  13.945  71.572  1.00  0.00    -0.361 A  
ATOM     15  CE2 TYR A   1     -12.311  12.924  70.805  1.00  0.00    -0.385 A  
ATOM     16  OH  TYR A   1     -13.392  13.624  72.782  1.00  0.00    -0.557 OA 
ATOM     17  HH  TYR A   1     -13.408  12.725  73.090  1.00  0.00     0.000 HD 
ATOM     18  CD2 TYR A   1     -11.676  13.227  69.599  1.00  0.00    -0.369 A  
ENDBRANCH  10  11
ENDBRANCH   6  10
ENDBRANCH   3   6
TORSDOF 3
ENDMDL
MODEL       37
REMARK 921   NORMALIZED FREE ENERGY PREDICTED BY IDOCK:   -4.95 KCAL/MOL
REMARK 922        TOTAL FREE ENERGY PREDICTED BY IDOCK:   -6.25 KCAL/MOL
REMARK 923 INTER-LIGAND FREE ENERGY PREDICTED BY IDOCK:   -5.82 KCAL/MOL
REMARK 924 INTRA-LIGAND FREE ENERGY PREDICTED BY IDOCK:   -0.44 KCAL/MOL
REMARK 927      BINDING AFFINITY PREDICTED BY RF-SCORE:    0.00 PKD
ROOT
HETATM    1  C   UNK A   0     -12.098  12.502  65.232  1.00  0.00    -0.500 C  
HETATM    2  C   UNK A   0     -11.713  12.665  66.673  1.00  0.00    -0.398 C  
ATOM      3  N   TYR A   1     -10.694  11.858  67.111  1.00  0.00    -0.230 N  
HETATM    4  O   UNK A   0     -12.224  13.508  67.408  1.00  0.00    -0.339 OA 
ATOM      5  H   TYR A   1     -10.303  11.151  66.488  1.00  0.00     0.000 HD 
ENDROOT
BRANCH   3   6
ATOM      6  CA  TYR A   1     -10.164  12.007  68.473  1.00  0.00    -0.212 C  
ATOM      7  C   TYR A   1      -8.817  12.757  68.420  1.00  0.00    -0.117 C  
ATOM      8  O   TYR A   1      -8.947  14.060  68.058  1.00  0.00    -0.167 OA 
ATOM      9  OXT TYR A   1      -7.722  12.261  68.643  1.00  0.00    -0.121 OA 
BRANCH   6  10
ATOM     10  CB  TYR A   1     -10.038  10.645  69.182  1.00  0.00    -0.234 C  
BRANCH  10  11
ATOM     11  CG  TYR A   1     -11.171  10.301  70.124  1.00  0.00    -0.387 A  
ATOM     12  CD1 TYR A   1     -12.118  11.254  70.534  1.00  0.00    -0.481 A  
ATOM     13  CE1 TYR A   1     -13.071  10.941  71.507  1.00  0.00    -0.503 A  
ATOM     14  CZ  TYR A   1     -13.110   9.661  72.040  1.00  0.00    -0.445 A  
ATOM     15  CE2 TYR A   1     -12.242   8.677  71.585  1.00  0.00    -0.388 A  
ATOM     16  OH  TYR A   1     -13.985   9.336  73.033  1.00  0.00    -0.978 OA 
ATOM     17  HH  TYR A   1     -14.011   8.459  73.398  1.00  0.00     0.000 HD 
ATOM     18  CD2 TYR A   1     -11.276   8.997  70.629  1.00  0.00    -0.318 A  
ENDBRANCH  10  11
ENDBRANCH   6  10
ENDBRANCH   3   6
TORSDOF 3
ENDMDL
MODEL       38
REMARK 921   NORMALIZED FREE ENERGY PREDICTED BY IDOCK:   -4.90 KCAL/MOL
REMARK 922        TOTAL FREE ENERGY PREDICTED BY IDOCK:   -6.19 KCAL/MOL
REMARK 923 INTER-LIGAND FREE ENERGY PREDICTED BY IDOCK:   -5.72 KCAL/MOL
REMARK 924 INTRA-LIGAND FREE ENERGY PREDICTED BY IDOCK:   -0.47 KCAL/MOL
REMARK 927      BINDING AFFINITY PREDICTED BY RF-SCORE:    0.00 PKD
ROOT
HETATM    1  C   UNK A   0      -8.646  10.572  62.336  1.00  0.00    -0.267 C  
HETATM    2  C   UNK A   0      -9.560  11.034  63.432  1.00  0.00    -0.333 C  
ATOM      3  N   TYR A   1      -9.924  12.356  63.385  1.00  0.00    -0.426 N  
HETATM    4  O   UNK A   0     -10.013  10.275  64.287  1.00  0.00    -0.328 OA 
ATOM      5  H   TYR A   1      -9.516  12.970  62.680  1.00  0.00     0.000 HD 
ENDROOT
BRANCH   3   6
ATOM      6  CA  TYR A   1     -10.898  12.891  64.346  1.00  0.00    -0.380 C  
ATOM      7  C   TYR A   1     -12.257  13.087  63.642  1.00  0.00    -0.491 C  
ATOM      8  O   TYR A   1     -12.856  11.915  63.305  1.00  0.00    -0.702 OA 
ATOM      9  OXT TYR A   1     -12.764  14.166  63.371  1.00  0.00    -0.767 OA 
BRANCH   6  10
ATOM     10  CB  TYR A   1     -10.393  14.193  64.996  1.00  0.00    -0.443 C  
BRANCH  10  11
ATOM     11  CG  TYR A   1      -9.608  14.012  66.277  1.00  0.00    -0.284 A  
ATOM     12  CD1 TYR A   1      -8.753  15.006  66.778  1.00  0.00    -0.293 A  
ATOM     13  CE1 TYR A   1      -7.942  14.759  67.888  1.00  0.00    -0.147 A  
ATOM     14  CZ  TYR A   1      -8.018  13.530  68.530  1.00  0.00    -0.119 A  
ATOM     15  CE2 TYR A   1      -8.921  12.565  68.108  1.00  0.00    -0.199 A  
ATOM     16  OH  TYR A   1      -7.200  13.231  69.579  1.00  0.00    -0.320 OA 
ATOM     17  HH  TYR A   1      -7.252  12.390  70.018  1.00  0.00     0.000 HD 
ATOM     18  CD2 TYR A   1      -9.715  12.806  66.985  1.00  0.00    -0.224 A  
ENDBRANCH  10  11
ENDBRANCH   6  10
ENDBRANCH   3   6
TORSDOF 3
ENDMDL
MODEL       39
REMARK 921   NORMALIZED FREE ENERGY PREDICTED BY IDOCK:   -4.89 KCAL/MOL
REMARK 922        TOTAL FREE ENERGY PREDICTED BY IDOCK:   -6.19 KCAL/MOL
REMARK 923 INTER-LIGAND FREE ENERGY PREDICTED BY IDOCK:   -5.80 KCAL/MOL
REMARK 924 INTRA-LIGAND FREE ENERGY PREDICTED BY IDOCK:   -0.38 KCAL/MOL
REMARK 927      BINDING AFFINITY PREDICTED BY RF-SCORE:    0.00 PKD
ROOT
HETATM    1  C   UNK A   0      -5.676  19.649  66.660  1.00  0.00    -0.168 C  
HETATM    2  C   UNK A   0      -6.919  18.991  66.136  1.00  0.00    -0.246 C  
ATOM      3  N   TYR A   1      -7.877  18.698  67.073  1.00  0.00    -0.229 N  
HETATM    4  O   UNK A   0      -7.107  18.780  64.939  1.00  0.00    -0.244 OA 
ATOM      5  H   TYR A   1      -7.687  18.861  68.062  1.00  0.00     0.000 HD 
ENDROOT
BRANCH   3   6
ATOM      6  CA  TYR A   1      -9.176  18.151  66.658  1.00  0.00    -0.290 C  
ATOM      7  C   TYR A   1     -10.234  19.273  66.675  1.00  0.00    -0.421 C  
ATOM      8  O   TYR A   1     -10.037  20.207  65.708  1.00  0.00    -0.444 OA 
ATOM      9  OXT TYR A   1     -11.154  19.365  67.476  1.00  0.00    -0.417 OA 
BRANCH   6  10
ATOM     10  CB  TYR A   1      -9.589  16.954  67.535  1.00  0.00    -0.245 C  
BRANCH  10  11
ATOM     11  CG  TYR A   1     -10.429  15.904  66.840  1.00  0.00    -0.309 A  
ATOM     12  CD1 TYR A   1     -10.448  15.767  65.443  1.00  0.00    -0.438 A  
ATOM     13  CE1 TYR A   1     -11.332  14.879  64.823  1.00  0.00    -0.400 A  
ATOM     14  CZ  TYR A   1     -12.169  14.093  65.603  1.00  0.00    -0.435 A  
ATOM     15  CE2 TYR A   1     -12.104  14.146  66.988  1.00  0.00    -0.449 A  
ATOM     16  OH  TYR A   1     -13.086  13.260  65.034  1.00  0.00    -0.737 OA 
ATOM     17  HH  TYR A   1     -13.659  12.722  65.568  1.00  0.00     0.000 HD 
ATOM     18  CD2 TYR A   1     -11.235  15.048  67.605  1.00  0.00    -0.331 A  
ENDBRANCH  10  11
ENDBRANCH   6  10
ENDBRANCH   3   6
TORSDOF 3
ENDMDL
MODEL       40
REMARK 921   NORMALIZED FREE ENERGY PREDICTED BY IDOCK:   -4.86 KCAL/MOL
REMARK 922        TOTAL FREE ENERGY PREDICTED BY IDOCK:   -6.15 KCAL/MOL
REMARK 923 INTER-LIGAND FREE ENERGY PREDICTED BY IDOCK:   -5.75 KCAL/MOL
REMARK 924 INTRA-LIGAND FREE ENERGY PREDICTED BY IDOCK:   -0.40 KCAL/MOL
REMARK 927      BINDING AFFINITY PREDICTED BY RF-SCORE:    0.00 PKD
ROOT
HETATM    1  C   UNK A   0     -14.238  15.557  72.110  1.00  0.00    -0.617 C  
HETATM    2  C   UNK A   0     -12.975  15.106  71.439  1.00  0.00    -0.403 C  
ATOM      3  N   TYR A   1     -12.995  15.109  70.068  1.00  0.00    -0.632 N  
HETATM    4  O   UNK A   0     -11.957  14.811  72.064  1.00  0.00    -0.347 OA 
ATOM      5  H   TYR A   1     -13.859  15.335  69.574  1.00  0.00     0.000 HD 
ENDROOT
BRANCH   3   6
ATOM      6  CA  TYR A   1     -11.780  14.788  69.308  1.00  0.00    -0.316 C  
ATOM      7  C   TYR A   1     -11.154  16.091  68.768  1.00  0.00    -0.338 C  
ATOM      8  O   TYR A   1     -10.636  16.878  69.747  1.00  0.00    -0.265 OA 
ATOM      9  OXT TYR A   1     -11.131  16.431  67.594  1.00  0.00    -0.266 OA 
BRANCH   6  10
ATOM     10  CB  TYR A   1     -12.070  13.778  68.181  1.00  0.00    -0.316 C  
BRANCH  10  11
ATOM     11  CG  TYR A   1     -11.666  12.349  68.476  1.00  0.00    -0.373 A  
ATOM     12  CD1 TYR A   1     -11.009  11.547  67.529  1.00  0.00    -0.308 A  
ATOM     13  CE1 TYR A   1     -10.768  10.194  67.783  1.00  0.00    -0.328 A  
ATOM     14  CZ  TYR A   1     -11.143   9.650  69.003  1.00  0.00    -0.070 A  
ATOM     15  CE2 TYR A   1     -11.711  10.445  69.989  1.00  0.00    -0.366 A  
ATOM     16  OH  TYR A   1     -10.979   8.322  69.263  1.00  0.00    -0.416 OA 
ATOM     17  HH  TYR A   1     -11.236   7.950  70.099  1.00  0.00     0.000 HD 
ATOM     18  CD2 TYR A   1     -11.971  11.791  69.726  1.00  0.00    -0.392 A  
ENDBRANCH  10  11
ENDBRANCH   6  10
ENDBRANCH   3   6
TORSDOF 3
ENDMDL
MODEL       41
REMARK 921   NORMALIZED FREE ENERGY PREDICTED BY IDOCK:   -4.85 KCAL/MOL
REMARK 922        TOTAL FREE ENERGY PREDICTED BY IDOCK:   -6.13 KCAL/MOL
REMARK 923 INTER-LIGAND FREE ENERGY PREDICTED BY IDOCK:   -5.80 KCAL/MOL
REMARK 924 INTRA-LIGAND FREE ENERGY PREDICTED BY IDOCK:   -0.33 KCAL/MOL
REMARK 927      BINDING AFFINITY PREDICTED BY RF-SCORE:    0.00 PKD
ROOT
HETATM    1  C   UNK A   0      -9.620  10.583  66.813  1.00  0.00    -0.205 C  
HETATM    2  C   UNK A   0     -10.914  11.342  66.804  1.00  0.00    -0.281 C  
ATOM      3  N   TYR A   1     -11.060  12.257  65.793  1.00  0.00    -0.310 N  
HETATM    4  O   UNK A   0     -11.821  11.123  67.606  1.00  0.00    -0.612 OA 
ATOM      5  H   TYR A   1     -10.284  12.437  65.155  1.00  0.00     0.000 HD 
ENDROOT
BRANCH   3   6
ATOM      6  CA  TYR A   1     -12.328  12.980  65.625  1.00  0.00    -0.446 C  
ATOM      7  C   TYR A   1     -12.590  13.213  64.122  1.00  0.00    -0.184 C  
ATOM      8  O   TYR A   1     -12.864  12.068  63.446  1.00  0.00    -0.760 OA 
ATOM      9  OXT TYR A   1     -12.537  14.295  63.555  1.00  0.00    -0.814 OA 
BRANCH   6  10
ATOM     10  CB  TYR A   1     -12.335  14.298  66.423  1.00  0.00    -0.378 C  
BRANCH  10  11
ATOM     11  CG  TYR A   1     -10.971  14.890  66.703  1.00  0.00    -0.325 A  
ATOM     12  CD1 TYR A   1     -10.227  15.555  65.716  1.00  0.00    -0.390 A  
ATOM     13  CE1 TYR A   1      -8.917  15.973  65.968  1.00  0.00    -0.345 A  
ATOM     14  CZ  TYR A   1      -8.363  15.766  67.223  1.00  0.00    -0.188 A  
ATOM     15  CE2 TYR A   1      -9.111  15.192  68.242  1.00  0.00    -0.183 A  
ATOM     16  OH  TYR A   1      -7.070  16.105  67.488  1.00  0.00    -0.133 OA 
ATOM     17  HH  TYR A   1      -6.691  15.963  68.348  1.00  0.00     0.000 HD 
ATOM     18  CD2 TYR A   1     -10.412  14.756  67.983  1.00  0.00    -0.246 A  
ENDBRANCH  10  11
ENDBRANCH   6  10
ENDBRANCH   3   6
TORSDOF 3
ENDMDL
MODEL       42
REMARK 921   NORMALIZED FREE ENERGY PREDICTED BY IDOCK:   -4.85 KCAL/MOL
REMARK 922        TOTAL FREE ENERGY PREDICTED BY IDOCK:   -6.13 KCAL/MOL
REMARK 923 INTER-LIGAND FREE ENERGY PREDICTED BY IDOCK:   -5.66 KCAL/MOL
REMARK 924 INTRA-LIGAND FREE ENERGY PREDICTED BY IDOCK:   -0.47 KCAL/MOL
REMARK 927      BINDING AFFINITY PREDICTED BY RF-SCORE:    0.00 PKD
ROOT
HETATM    1  C   UNK A   0     -12.634  12.876  64.939  1.00  0.00    -0.525 C  
HETATM    2  C   UNK A   0     -11.684  13.311  66.016  1.00  0.00    -0.368 C  
ATOM      3  N   TYR A   1     -12.234  14.053  67.030  1.00  0.00    -0.520 N  
HETATM    4  O   UNK A   0     -10.501  12.977  66.035  1.00  0.00    -0.270 OA 
ATOM      5  H   TYR A   1     -13.213  14.336  66.978  1.00  0.00     0.000 HD 
ENDROOT
BRANCH   3   6
ATOM      6  CA  TYR A   1     -11.420  14.442  68.189  1.00  0.00    -0.310 C  
ATOM      7  C   TYR A   1     -11.887  13.656  69.431  1.00  0.00    -0.339 C  
ATOM      8  O   TYR A   1     -11.602  12.329  69.360  1.00  0.00    -0.284 OA 
ATOM      9  OXT TYR A   1     -12.481  14.132  70.388  1.00  0.00    -0.333 OA 
BRANCH   6  10
ATOM     10  CB  TYR A   1     -11.461  15.965  68.421  1.00  0.00    -0.348 C  
BRANCH  10  11
ATOM     11  CG  TYR A   1     -10.345  16.748  67.764  1.00  0.00    -0.318 A  
ATOM     12  CD1 TYR A   1     -10.317  18.151  67.762  1.00  0.00    -0.413 A  
ATOM     13  CE1 TYR A   1      -9.347  18.846  67.033  1.00  0.00    -0.329 A  
ATOM     14  CZ  TYR A   1      -8.374  18.138  66.342  1.00  0.00    -0.245 A  
ATOM     15  CE2 TYR A   1      -8.328  16.752  66.404  1.00  0.00    -0.344 A  
ATOM     16  OH  TYR A   1      -7.449  18.778  65.573  1.00  0.00    -0.493 OA 
ATOM     17  HH  TYR A   1      -6.782  18.293  65.100  1.00  0.00     0.000 HD 
ATOM     18  CD2 TYR A   1      -9.310  16.059  67.114  1.00  0.00    -0.222 A  
ENDBRANCH  10  11
ENDBRANCH   6  10
ENDBRANCH   3   6
TORSDOF 3
ENDMDL
MODEL       43
REMARK 921   NORMALIZED FREE ENERGY PREDICTED BY IDOCK:   -4.84 KCAL/MOL
REMARK 922        TOTAL FREE ENERGY PREDICTED BY IDOCK:   -6.13 KCAL/MOL
REMARK 923 INTER-LIGAND FREE ENERGY PREDICTED BY IDOCK:   -6.46 KCAL/MOL
REMARK 924 INTRA-LIGAND FREE ENERGY PREDICTED BY IDOCK:    0.33 KCAL/MOL
REMARK 927      BINDING AFFINITY PREDICTED BY RF-SCORE:    0.00 PKD
ROOT
HETATM    1  C   UNK A   0      -7.503  13.226  68.139  1.00  0.00    -0.128 C  
HETATM    2  C   UNK A   0      -8.993  13.317  67.983  1.00  0.00    -0.191 C  
ATOM      3  N   TYR A   1      -9.730  12.566  68.864  1.00  0.00    -0.408 N  
HETATM    4  O   UNK A   0      -9.534  14.060  67.166  1.00  0.00    -0.224 OA 
ATOM      5  H   TYR A   1      -9.258  11.940  69.516  1.00  0.00     0.000 HD 
ENDROOT
BRANCH   3   6
ATOM      6  CA  TYR A   1     -11.196  12.661  68.871  1.00  0.00    -0.280 C  
ATOM      7  C   TYR A   1     -11.761  11.962  67.617  1.00  0.00    -0.275 C  
ATOM      8  O   TYR A   1     -11.598  10.614  67.640  1.00  0.00    -0.492 OA 
ATOM      9  OXT TYR A   1     -12.282  12.528  66.667  1.00  0.00    -0.552 OA 
BRANCH   6  10
ATOM     10  CB  TYR A   1     -11.666  14.125  68.977  1.00  0.00    -0.361 C  
BRANCH  10  11
ATOM     11  CG  TYR A   1     -12.032  14.585  70.371  1.00  0.00    -0.386 A  
ATOM     12  CD1 TYR A   1     -11.594  15.814  70.892  1.00  0.00    -0.440 A  
ATOM     13  CE1 TYR A   1     -11.837  16.151  72.226  1.00  0.00    -0.631 A  
ATOM     14  CZ  TYR A   1     -12.557  15.281  73.032  1.00  0.00    -0.430 A  
ATOM     15  CE2 TYR A   1     -13.077  14.102  72.514  1.00  0.00    -0.554 A  
ATOM     16  OH  TYR A   1     -12.762  15.547  74.353  1.00  0.00    -0.698 OA 
ATOM     17  HH  TYR A   1     -13.255  14.951  74.904  1.00  0.00     0.000 HD 
ATOM     18  CD2 TYR A   1     -12.816  13.757  71.187  1.00  0.00    -0.409 A  
ENDBRANCH  10  11
ENDBRANCH   6  10
ENDBRANCH   3   6
TORSDOF 3
ENDMDL
MODEL       44
REMARK 921   NORMALIZED FREE ENERGY PREDICTED BY IDOCK:   -4.84 KCAL/MOL
REMARK 922        TOTAL FREE ENERGY PREDICTED BY IDOCK:   -6.13 KCAL/MOL
REMARK 923 INTER-LIGAND FREE ENERGY PREDICTED BY IDOCK:   -5.68 KCAL/MOL
REMARK 924 INTRA-LIGAND FREE ENERGY PREDICTED BY IDOCK:   -0.45 KCAL/MOL
REMARK 927      BINDING AFFINITY PREDICTED BY RF-SCORE:    0.00 PKD
ROOT
HETATM    1  C   UNK A   0      -9.154  11.278  62.609  1.00  0.00    -0.327 C  
HETATM    2  C   UNK A   0      -9.984  11.609  63.814  1.00  0.00    -0.349 C  
ATOM      3  N   TYR A   1     -10.106  12.945  64.103  1.00  0.00    -0.603 N  
HETATM    4  O   UNK A   0     -10.576  10.755  64.471  1.00  0.00    -0.336 OA 
ATOM      5  H   TYR A   1      -9.586  13.632  63.557  1.00  0.00     0.000 HD 
ENDROOT
BRANCH   3   6
ATOM      6  CA  TYR A   1     -10.981  13.389  65.196  1.00  0.00    -0.303 C  
ATOM      7  C   TYR A   1     -11.649  14.724  64.808  1.00  0.00    -0.418 C  
ATOM      8  O   TYR A   1     -12.553  14.594  63.802  1.00  0.00    -0.820 OA 
ATOM      9  OXT TYR A   1     -11.400  15.812  65.308  1.00  0.00    -0.219 OA 
BRANCH   6  10
ATOM     10  CB  TYR A   1     -10.211  13.495  66.527  1.00  0.00    -0.283 C  
BRANCH  10  11
ATOM     11  CG  TYR A   1     -10.472  12.377  67.513  1.00  0.00    -0.229 A  
ATOM     12  CD1 TYR A   1      -9.504  11.405  67.814  1.00  0.00    -0.167 A  
ATOM     13  CE1 TYR A   1      -9.819  10.311  68.625  1.00  0.00    -0.180 A  
ATOM     14  CZ  TYR A   1     -11.089  10.210  69.176  1.00  0.00    -0.212 A  
ATOM     15  CE2 TYR A   1     -12.033  11.206  68.966  1.00  0.00    -0.389 A  
ATOM     16  OH  TYR A   1     -11.451   9.129  69.922  1.00  0.00    -0.434 OA 
ATOM     17  HH  TYR A   1     -12.320   9.060  70.299  1.00  0.00     0.000 HD 
ATOM     18  CD2 TYR A   1     -11.724  12.287  68.138  1.00  0.00    -0.408 A  
ENDBRANCH  10  11
ENDBRANCH   6  10
ENDBRANCH   3   6
TORSDOF 3
ENDMDL
MODEL       45
REMARK 921   NORMALIZED FREE ENERGY PREDICTED BY IDOCK:   -4.84 KCAL/MOL
REMARK 922        TOTAL FREE ENERGY PREDICTED BY IDOCK:   -6.12 KCAL/MOL
REMARK 923 INTER-LIGAND FREE ENERGY PREDICTED BY IDOCK:   -5.88 KCAL/MOL
REMARK 924 INTRA-LIGAND FREE ENERGY PREDICTED BY IDOCK:   -0.25 KCAL/MOL
REMARK 927      BINDING AFFINITY PREDICTED BY RF-SCORE:    0.00 PKD
ROOT
HETATM    1  C   UNK A   0      -8.269  17.996  68.654  1.00  0.00    -0.287 C  
HETATM    2  C   UNK A   0      -8.805  16.622  68.929  1.00  0.00    -0.238 C  
ATOM      3  N   TYR A   1     -10.124  16.423  68.610  1.00  0.00    -0.232 N  
HETATM    4  O   UNK A   0      -8.103  15.705  69.352  1.00  0.00    -0.230 OA 
ATOM      5  H   TYR A   1     -10.691  17.206  68.282  1.00  0.00     0.000 HD 
ENDROOT
BRANCH   3   6
ATOM      6  CA  TYR A   1     -10.724  15.088  68.738  1.00  0.00    -0.241 C  
ATOM      7  C   TYR A   1     -11.009  14.518  67.333  1.00  0.00    -0.303 C  
ATOM      8  O   TYR A   1      -9.879  14.218  66.640  1.00  0.00    -0.262 OA 
ATOM      9  OXT TYR A   1     -12.119  14.362  66.844  1.00  0.00    -0.425 OA 
BRANCH   6  10
ATOM     10  CB  TYR A   1     -11.991  15.121  69.615  1.00  0.00    -0.359 C  
BRANCH  10  11
ATOM     11  CG  TYR A   1     -12.277  13.848  70.381  1.00  0.00    -0.438 A  
ATOM     12  CD1 TYR A   1     -11.854  12.589  69.925  1.00  0.00    -0.373 A  
ATOM     13  CE1 TYR A   1     -12.247  11.421  70.583  1.00  0.00    -0.484 A  
ATOM     14  CZ  TYR A   1     -13.028  11.511  71.727  1.00  0.00    -0.394 A  
ATOM     15  CE2 TYR A   1     -13.383  12.748  72.247  1.00  0.00    -0.563 A  
ATOM     16  OH  TYR A   1     -13.481  10.393  72.361  1.00  0.00    -0.612 OA 
ATOM     17  HH  TYR A   1     -14.016  10.455  73.144  1.00  0.00     0.000 HD 
ATOM     18  CD2 TYR A   1     -13.007  13.913  71.577  1.00  0.00    -0.436 A  
ENDBRANCH  10  11
ENDBRANCH   6  10
ENDBRANCH   3   6
TORSDOF 3
ENDMDL
MODEL       46
REMARK 921   NORMALIZED FREE ENERGY PREDICTED BY IDOCK:   -4.84 KCAL/MOL
REMARK 922        TOTAL FREE ENERGY PREDICTED BY IDOCK:   -6.12 KCAL/MOL
REMARK 923 INTER-LIGAND FREE ENERGY PREDICTED BY IDOCK:   -5.86 KCAL/MOL
REMARK 924 INTRA-LIGAND FREE ENERGY PREDICTED BY IDOCK:   -0.26 KCAL/MOL
REMARK 927      BINDING AFFINITY PREDICTED BY RF-SCORE:    0.00 PKD
ROOT
HETATM    1  C   UNK A   0     -14.392   7.546  71.606  1.00  0.00    -0.621 C  
HETATM    2  C   UNK A   0     -13.221   8.430  71.919  1.00  0.00    -0.357 C  
ATOM      3  N   TYR A   1     -12.483   8.844  70.839  1.00  0.00    -0.493 N  
HETATM    4  O   UNK A   0     -12.964   8.819  73.057  1.00  0.00    -0.286 OA 
ATOM      5  H   TYR A   1     -12.703   8.489  69.908  1.00  0.00     0.000 HD 
ENDROOT
BRANCH   3   6
ATOM      6  CA  TYR A   1     -11.380   9.797  71.017  1.00  0.00    -0.387 C  
ATOM      7  C   TYR A   1     -11.749  11.140  70.354  1.00  0.00    -0.320 C  
ATOM      8  O   TYR A   1     -12.750  11.795  70.999  1.00  0.00    -0.348 OA 
ATOM      9  OXT TYR A   1     -11.240  11.591  69.338  1.00  0.00    -0.248 OA 
BRANCH   6  10
ATOM     10  CB  TYR A   1     -10.053   9.231  70.474  1.00  0.00    -0.313 C  
BRANCH  10  11
ATOM     11  CG  TYR A   1     -10.192   8.247  69.332  1.00  0.00    -0.204 A  
ATOM     12  CD1 TYR A   1     -10.120   8.646  67.988  1.00  0.00    -0.241 A  
ATOM     13  CE1 TYR A   1     -10.385   7.738  66.958  1.00  0.00    -0.405 A  
ATOM     14  CZ  TYR A   1     -10.677   6.417  67.269  1.00  0.00    -0.353 A  
ATOM     15  CE2 TYR A   1     -10.665   5.980  68.586  1.00  0.00    -0.363 A  
ATOM     16  OH  TYR A   1     -10.999   5.519  66.296  1.00  0.00    -0.678 OA 
ATOM     17  HH  TYR A   1     -11.199   4.615  66.509  1.00  0.00     0.000 HD 
ATOM     18  CD2 TYR A   1     -10.421   6.892  69.615  1.00  0.00    -0.240 A  
ENDBRANCH  10  11
ENDBRANCH   6  10
ENDBRANCH   3   6
TORSDOF 3
ENDMDL
MODEL       47
REMARK 921   NORMALIZED FREE ENERGY PREDICTED BY IDOCK:   -4.82 KCAL/MOL
REMARK 922        TOTAL FREE ENERGY PREDICTED BY IDOCK:   -6.11 KCAL/MOL
REMARK 923 INTER-LIGAND FREE ENERGY PREDICTED BY IDOCK:   -6.06 KCAL/MOL
REMARK 924 INTRA-LIGAND FREE ENERGY PREDICTED BY IDOCK:   -0.04 KCAL/MOL
REMARK 927      BINDING AFFINITY PREDICTED BY RF-SCORE:    0.00 PKD
ROOT
HETATM    1  C   UNK A   0     -10.673  19.384  66.019  1.00  0.00    -0.512 C  
HETATM    2  C   UNK A   0     -10.420  18.631  67.292  1.00  0.00    -0.423 C  
ATOM      3  N   TYR A   1     -10.135  17.297  67.148  1.00  0.00    -0.289 N  
HETATM    4  O   UNK A   0     -10.403  19.174  68.396  1.00  0.00    -0.390 OA 
ATOM      5  H   TYR A   1     -10.178  16.865  66.224  1.00  0.00     0.000 HD 
ENDROOT
BRANCH   3   6
ATOM      6  CA  TYR A   1      -9.767  16.487  68.317  1.00  0.00    -0.231 C  
ATOM      7  C   TYR A   1      -8.234  16.316  68.360  1.00  0.00    -0.185 C  
ATOM      8  O   TYR A   1      -7.577  17.472  68.641  1.00  0.00    -0.255 OA 
ATOM      9  OXT TYR A   1      -7.632  15.275  68.143  1.00  0.00    -0.108 OA 
BRANCH   6  10
ATOM     10  CB  TYR A   1     -10.498  15.131  68.316  1.00  0.00    -0.241 C  
BRANCH  10  11
ATOM     11  CG  TYR A   1     -10.936  14.635  66.955  1.00  0.00    -0.324 A  
ATOM     12  CD1 TYR A   1     -10.043  14.528  65.876  1.00  0.00    -0.346 A  
ATOM     13  CE1 TYR A   1     -10.503  14.195  64.599  1.00  0.00    -0.366 A  
ATOM     14  CZ  TYR A   1     -11.851  13.923  64.406  1.00  0.00    -0.429 A  
ATOM     15  CE2 TYR A   1     -12.736  13.935  65.476  1.00  0.00    -0.536 A  
ATOM     16  OH  TYR A   1     -12.345  13.654  63.166  1.00  0.00    -1.045 OA 
ATOM     17  HH  TYR A   1     -13.268  13.469  63.034  1.00  0.00     0.000 HD 
ATOM     18  CD2 TYR A   1     -12.279  14.288  66.747  1.00  0.00    -0.384 A  
ENDBRANCH  10  11
ENDBRANCH   6  10
ENDBRANCH   3   6
TORSDOF 3
ENDMDL
MODEL       48
REMARK 921   NORMALIZED FREE ENERGY PREDICTED BY IDOCK:   -4.82 KCAL/MOL
REMARK 922        TOTAL FREE ENERGY PREDICTED BY IDOCK:   -6.10 KCAL/MOL
REMARK 923 INTER-LIGAND FREE ENERGY PREDICTED BY IDOCK:   -5.73 KCAL/MOL
REMARK 924 INTRA-LIGAND FREE ENERGY PREDICTED BY IDOCK:   -0.37 KCAL/MOL
REMARK 927      BINDING AFFINITY PREDICTED BY RF-SCORE:    0.00 PKD
ROOT
HETATM    1  C   UNK A   0     -12.441  12.136  63.368  1.00  0.00    -0.625 C  
HETATM    2  C   UNK A   0     -11.509  12.293  64.533  1.00  0.00    -0.341 C  
ATOM      3  N   TYR A   1     -12.108  12.430  65.760  1.00  0.00    -0.388 N  
HETATM    4  O   UNK A   0     -10.286  12.238  64.420  1.00  0.00    -0.304 OA 
ATOM      5  H   TYR A   1     -13.125  12.496  65.824  1.00  0.00     0.000 HD 
ENDROOT
BRANCH   3   6
ATOM      6  CA  TYR A   1     -11.293  12.484  66.980  1.00  0.00    -0.328 C  
ATOM      7  C   TYR A   1     -11.466  11.170  67.770  1.00  0.00    -0.272 C  
ATOM      8  O   TYR A   1     -10.913  10.097  67.147  1.00  0.00    -0.235 OA 
ATOM      9  OXT TYR A   1     -12.058  11.057  68.834  1.00  0.00    -0.479 OA 
BRANCH   6  10
ATOM     10  CB  TYR A   1     -11.637  13.719  67.834  1.00  0.00    -0.376 C  
BRANCH  10  11
ATOM     11  CG  TYR A   1     -10.874  14.978  67.482  1.00  0.00    -0.297 A  
ATOM     12  CD1 TYR A   1     -11.115  16.203  68.126  1.00  0.00    -0.332 A  
ATOM     13  CE1 TYR A   1     -10.491  17.375  67.689  1.00  0.00    -0.368 A  
ATOM     14  CZ  TYR A   1      -9.590  17.317  66.635  1.00  0.00    -0.276 A  
ATOM     15  CE2 TYR A   1      -9.268  16.104  66.043  1.00  0.00    -0.363 A  
ATOM     16  OH  TYR A   1      -9.008  18.447  66.143  1.00  0.00    -0.465 OA 
ATOM     17  HH  TYR A   1      -8.391  18.408  65.421  1.00  0.00     0.000 HD 
ATOM     18  CD2 TYR A   1      -9.908  14.937  66.467  1.00  0.00    -0.281 A  
ENDBRANCH  10  11
ENDBRANCH   6  10
ENDBRANCH   3   6
TORSDOF 3
ENDMDL
MODEL       49
REMARK 921   NORMALIZED FREE ENERGY PREDICTED BY IDOCK:   -4.80 KCAL/MOL
REMARK 922        TOTAL FREE ENERGY PREDICTED BY IDOCK:   -6.07 KCAL/MOL
REMARK 923 INTER-LIGAND FREE ENERGY PREDICTED BY IDOCK:   -5.59 KCAL/MOL
REMARK 924 INTRA-LIGAND FREE ENERGY PREDICTED BY IDOCK:   -0.48 KCAL/MOL
REMARK 927      BINDING AFFINITY PREDICTED BY RF-SCORE:    0.00 PKD
ROOT
HETATM    1  C   UNK A   0      -8.991   7.925  73.471  1.00  0.00    -0.343 C  
HETATM    2  C   UNK A   0     -10.168   8.095  72.556  1.00  0.00    -0.313 C  
ATOM      3  N   TYR A   1      -9.872   8.452  71.265  1.00  0.00    -0.185 N  
HETATM    4  O   UNK A   0     -11.324   7.870  72.910  1.00  0.00    -0.406 OA 
ATOM      5  H   TYR A   1      -8.907   8.655  71.003  1.00  0.00     0.000 HD 
ENDROOT
BRANCH   3   6
ATOM      6  CA  TYR A   1     -10.938   8.542  70.259  1.00  0.00    -0.235 C  
ATOM      7  C   TYR A   1     -10.759   7.416  69.220  1.00  0.00    -0.185 C  
ATOM      8  O   TYR A   1     -11.000   6.179  69.728  1.00  0.00    -0.317 OA 
ATOM      9  OXT TYR A   1     -10.411   7.573  68.059  1.00  0.00    -0.190 OA 
BRANCH   6  10
ATOM     10  CB  TYR A   1     -10.975   9.934  69.600  1.00  0.00    -0.285 C  
BRANCH  10  11
ATOM     11  CG  TYR A   1     -11.828  10.962  70.311  1.00  0.00    -0.450 A  
ATOM     12  CD1 TYR A   1     -11.704  12.338  70.062  1.00  0.00    -0.319 A  
ATOM     13  CE1 TYR A   1     -12.410  13.270  70.829  1.00  0.00    -0.425 A  
ATOM     14  CZ  TYR A   1     -13.277  12.825  71.817  1.00  0.00    -0.374 A  
ATOM     15  CE2 TYR A   1     -13.484  11.468  72.020  1.00  0.00    -0.298 A  
ATOM     16  OH  TYR A   1     -13.936  13.703  72.624  1.00  0.00    -0.733 OA 
ATOM     17  HH  TYR A   1     -14.530  13.399  73.301  1.00  0.00     0.000 HD 
ATOM     18  CD2 TYR A   1     -12.763  10.539  71.268  1.00  0.00    -0.532 A  
ENDBRANCH  10  11
ENDBRANCH   6  10
ENDBRANCH   3   6
TORSDOF 3
ENDMDL
MODEL       50
REMARK 921   NORMALIZED FREE ENERGY PREDICTED BY IDOCK:   -4.76 KCAL/MOL
REMARK 922        TOTAL FREE ENERGY PREDICTED BY IDOCK:   -6.03 KCAL/MOL
REMARK 923 INTER-LIGAND FREE ENERGY PREDICTED BY IDOCK:   -5.67 KCAL/MOL
REMARK 924 INTRA-LIGAND FREE ENERGY PREDICTED BY IDOCK:   -0.36 KCAL/MOL
REMARK 927      BINDING AFFINITY PREDICTED BY RF-SCORE:    0.00 PKD
ROOT
HETATM    1  C   UNK A   0     -10.288   8.397  66.632  1.00  0.00    -0.298 C  
HETATM    2  C   UNK A   0      -9.842   9.435  67.620  1.00  0.00    -0.174 C  
ATOM      3  N   TYR A   1     -10.696  10.495  67.794  1.00  0.00    -0.250 N  
HETATM    4  O   UNK A   0      -8.814   9.325  68.284  1.00  0.00    -0.128 OA 
ATOM      5  H   TYR A   1     -11.531  10.575  67.213  1.00  0.00     0.000 HD 
ENDROOT
BRANCH   3   6
ATOM      6  CA  TYR A   1     -10.411  11.515  68.812  1.00  0.00    -0.204 C  
ATOM      7  C   TYR A   1     -11.571  11.561  69.829  1.00  0.00    -0.326 C  
ATOM      8  O   TYR A   1     -11.643  10.448  70.604  1.00  0.00    -0.305 OA 
ATOM      9  OXT TYR A   1     -12.379  12.472  69.939  1.00  0.00    -0.178 OA 
BRANCH   6  10
ATOM     10  CB  TYR A   1     -10.150  12.892  68.172  1.00  0.00    -0.240 C  
BRANCH  10  11
ATOM     11  CG  TYR A   1     -10.768  13.096  66.806  1.00  0.00    -0.274 A  
ATOM     12  CD1 TYR A   1     -10.086  12.777  65.621  1.00  0.00    -0.281 A  
ATOM     13  CE1 TYR A   1     -10.629  13.100  64.375  1.00  0.00    -0.441 A  
ATOM     14  CZ  TYR A   1     -11.878  13.702  64.308  1.00  0.00    -0.425 A  
ATOM     15  CE2 TYR A   1     -12.610  13.945  65.462  1.00  0.00    -0.560 A  
ATOM     16  OH  TYR A   1     -12.412  14.086  63.115  1.00  0.00    -1.137 OA 
ATOM     17  HH  TYR A   1     -13.267  14.499  63.070  1.00  0.00     0.000 HD 
ATOM     18  CD2 TYR A   1     -12.057  13.641  66.708  1.00  0.00    -0.445 A  
ENDBRANCH  10  11
ENDBRANCH   6  10
ENDBRANCH   3   6
TORSDOF 3
ENDMDL
MODEL       51
REMARK 921   NORMALIZED FREE ENERGY PREDICTED BY IDOCK:   -4.73 KCAL/MOL
REMARK 922        TOTAL FREE ENERGY PREDICTED BY IDOCK:   -6.00 KCAL/MOL
REMARK 923 INTER-LIGAND FREE ENERGY PREDICTED BY IDOCK:   -5.51 KCAL/MOL
REMARK 924 INTRA-LIGAND FREE ENERGY PREDICTED BY IDOCK:   -0.48 KCAL/MOL
REMARK 927      BINDING AFFINITY PREDICTED BY RF-SCORE:    0.00 PKD
ROOT
HETATM    1  C   UNK A   0      -7.186  13.764  67.884  1.00  0.00    -0.156 C  
HETATM    2  C   UNK A   0      -8.213  12.679  68.025  1.00  0.00    -0.167 C  
ATOM      3  N   TYR A   1      -9.507  13.047  67.753  1.00  0.00    -0.201 N  
HETATM    4  O   UNK A   0      -7.922  11.517  68.302  1.00  0.00    -0.126 OA 
ATOM      5  H   TYR A   1      -9.726  14.022  67.549  1.00  0.00     0.000 HD 
ENDROOT
BRANCH   3   6
ATOM      6  CA  TYR A   1     -10.578  12.042  67.756  1.00  0.00    -0.207 C  
ATOM      7  C   TYR A   1     -11.215  11.967  66.353  1.00  0.00    -0.337 C  
ATOM      8  O   TYR A   1     -10.382  11.441  65.417  1.00  0.00    -0.258 OA 
ATOM      9  OXT TYR A   1     -12.337  12.356  66.063  1.00  0.00    -0.627 OA 
BRANCH   6  10
ATOM     10  CB  TYR A   1     -11.624  12.336  68.849  1.00  0.00    -0.367 C  
BRANCH  10  11
ATOM     11  CG  TYR A   1     -11.771  11.263  69.906  1.00  0.00    -0.430 A  
ATOM     12  CD1 TYR A   1     -10.935  10.136  69.949  1.00  0.00    -0.344 A  
ATOM     13  CE1 TYR A   1     -11.179   9.099  70.853  1.00  0.00    -0.359 A  
ATOM     14  CZ  TYR A   1     -12.233   9.207  71.750  1.00  0.00    -0.372 A  
ATOM     15  CE2 TYR A   1     -13.017  10.352  71.786  1.00  0.00    -0.580 A  
ATOM     16  OH  TYR A   1     -12.539   8.191  72.605  1.00  0.00    -0.582 OA 
ATOM     17  HH  TYR A   1     -13.261   8.266  73.218  1.00  0.00     0.000 HD 
ATOM     18  CD2 TYR A   1     -12.786  11.378  70.868  1.00  0.00    -0.397 A  
ENDBRANCH  10  11
ENDBRANCH   6  10
ENDBRANCH   3   6
TORSDOF 3
ENDMDL
MODEL       52
REMARK 921   NORMALIZED FREE ENERGY PREDICTED BY IDOCK:   -4.71 KCAL/MOL
REMARK 922        TOTAL FREE ENERGY PREDICTED BY IDOCK:   -5.97 KCAL/MOL
REMARK 923 INTER-LIGAND FREE ENERGY PREDICTED BY IDOCK:   -5.60 KCAL/MOL
REMARK 924 INTRA-LIGAND FREE ENERGY PREDICTED BY IDOCK:   -0.37 KCAL/MOL
REMARK 927      BINDING AFFINITY PREDICTED BY RF-SCORE:    0.00 PKD
ROOT
HETATM    1  C   UNK A   0      -8.123  10.527  66.666  1.00  0.00    -0.127 C  
HETATM    2  C   UNK A   0      -9.579  10.546  67.027  1.00  0.00    -0.173 C  
ATOM      3  N   TYR A   1     -10.043  11.718  67.569  1.00  0.00    -0.190 N  
HETATM    4  O   UNK A   0     -10.334   9.602  66.800  1.00  0.00    -0.239 OA 
ATOM      5  H   TYR A   1      -9.392  12.477  67.770  1.00  0.00     0.000 HD 
ENDROOT
BRANCH   3   6
ATOM      6  CA  TYR A   1     -11.473  11.883  67.862  1.00  0.00    -0.316 C  
ATOM      7  C   TYR A   1     -12.080  12.911  66.885  1.00  0.00    -0.244 C  
ATOM      8  O   TYR A   1     -12.138  12.460  65.605  1.00  0.00    -0.529 OA 
ATOM      9  OXT TYR A   1     -12.455  14.036  67.185  1.00  0.00    -0.293 OA 
BRANCH   6  10
ATOM     10  CB  TYR A   1     -11.705  12.278  69.333  1.00  0.00    -0.392 C  
BRANCH  10  11
ATOM     11  CG  TYR A   1     -11.866  11.120  70.294  1.00  0.00    -0.455 A  
ATOM     12  CD1 TYR A   1     -10.937  10.069  70.361  1.00  0.00    -0.384 A  
ATOM     13  CE1 TYR A   1     -11.181   8.950  71.161  1.00  0.00    -0.352 A  
ATOM     14  CZ  TYR A   1     -12.334   8.899  71.933  1.00  0.00    -0.376 A  
ATOM     15  CE2 TYR A   1     -13.221   9.966  71.952  1.00  0.00    -0.558 A  
ATOM     16  OH  TYR A   1     -12.635   7.799  72.679  1.00  0.00    -0.546 OA 
ATOM     17  HH  TYR A   1     -13.424   7.764  73.207  1.00  0.00     0.000 HD 
ATOM     18  CD2 TYR A   1     -12.987  11.074  71.136  1.00  0.00    -0.421 A  
ENDBRANCH  10  11
ENDBRANCH   6  10
ENDBRANCH   3   6
TORSDOF 3
ENDMDL
MODEL       53
REMARK 921   NORMALIZED FREE ENERGY PREDICTED BY IDOCK:   -4.68 KCAL/MOL
REMARK 922        TOTAL FREE ENERGY PREDICTED BY IDOCK:   -5.94 KCAL/MOL
REMARK 923 INTER-LIGAND FREE ENERGY PREDICTED BY IDOCK:   -5.48 KCAL/MOL
REMARK 924 INTRA-LIGAND FREE ENERGY PREDICTED BY IDOCK:   -0.46 KCAL/MOL
REMARK 927      BINDING AFFINITY PREDICTED BY RF-SCORE:    0.00 PKD
ROOT
HETATM    1  C   UNK A   0      -9.092   8.270  65.687  1.00  0.00    -0.122 C  
HETATM    2  C   UNK A   0      -9.285   9.654  66.232  1.00  0.00    -0.168 C  
ATOM      3  N   TYR A   1     -10.367   9.822  67.060  1.00  0.00    -0.238 N  
HETATM    4  O   UNK A   0      -8.498  10.573  66.013  1.00  0.00    -0.144 OA 
ATOM      5  H   TYR A   1     -11.017   9.050  67.207  1.00  0.00     0.000 HD 
ENDROOT
BRANCH   3   6
ATOM      6  CA  TYR A   1     -10.591  11.108  67.734  1.00  0.00    -0.209 C  
ATOM      7  C   TYR A   1     -10.631  10.886  69.260  1.00  0.00    -0.217 C  
ATOM      8  O   TYR A   1      -9.425  10.539  69.780  1.00  0.00    -0.102 OA 
ATOM      9  OXT TYR A   1     -11.629  10.975  69.962  1.00  0.00    -0.291 OA 
BRANCH   6  10
ATOM     10  CB  TYR A   1     -11.867  11.800  67.218  1.00  0.00    -0.186 C  
BRANCH  10  11
ATOM     11  CG  TYR A   1     -11.634  12.997  66.322  1.00  0.00    -0.408 A  
ATOM     12  CD1 TYR A   1     -10.512  13.829  66.464  1.00  0.00    -0.282 A  
ATOM     13  CE1 TYR A   1     -10.392  15.001  65.711  1.00  0.00    -0.354 A  
ATOM     14  CZ  TYR A   1     -11.372  15.321  64.782  1.00  0.00    -0.391 A  
ATOM     15  CE2 TYR A   1     -12.443  14.467  64.561  1.00  0.00    -0.362 A  
ATOM     16  OH  TYR A   1     -11.320  16.484  64.074  1.00  0.00    -1.475 OA 
ATOM     17  HH  TYR A   1     -11.991  16.702  63.437  1.00  0.00     0.000 HD 
ATOM     18  CD2 TYR A   1     -12.573  13.307  65.328  1.00  0.00    -0.528 A  
ENDBRANCH  10  11
ENDBRANCH   6  10
ENDBRANCH   3   6
TORSDOF 3
ENDMDL
MODEL       54
REMARK 921   NORMALIZED FREE ENERGY PREDICTED BY IDOCK:   -4.67 KCAL/MOL
REMARK 922        TOTAL FREE ENERGY PREDICTED BY IDOCK:   -5.92 KCAL/MOL
REMARK 923 INTER-LIGAND FREE ENERGY PREDICTED BY IDOCK:   -5.52 KCAL/MOL
REMARK 924 INTRA-LIGAND FREE ENERGY PREDICTED BY IDOCK:   -0.39 KCAL/MOL
REMARK 927      BINDING AFFINITY PREDICTED BY RF-SCORE:    0.00 PKD
ROOT
HETATM    1  C   UNK A   0     -11.019   6.474  68.793  1.00  0.00    -0.371 C  
HETATM    2  C   UNK A   0     -10.781   7.637  67.875  1.00  0.00    -0.108 C  
ATOM      3  N   TYR A   1     -10.890   8.879  68.447  1.00  0.00    -0.451 N  
HETATM    4  O   UNK A   0     -10.445   7.500  66.700  1.00  0.00    -0.269 OA 
ATOM      5  H   TYR A   1     -11.192   8.966  69.418  1.00  0.00     0.000 HD 
ENDROOT
BRANCH   3   6
ATOM      6  CA  TYR A   1     -10.573  10.083  67.668  1.00  0.00    -0.270 C  
ATOM      7  C   TYR A   1      -9.173  10.597  68.064  1.00  0.00    -0.148 C  
ATOM      8  O   TYR A   1      -8.171   9.771  67.665  1.00  0.00    -0.113 OA 
ATOM      9  OXT TYR A   1      -8.947  11.618  68.696  1.00  0.00    -0.159 OA 
BRANCH   6  10
ATOM     10  CB  TYR A   1     -11.655  11.167  67.842  1.00  0.00    -0.328 C  
BRANCH  10  11
ATOM     11  CG  TYR A   1     -11.753  12.166  66.710  1.00  0.00    -0.377 A  
ATOM     12  CD1 TYR A   1     -12.018  13.527  66.934  1.00  0.00    -0.447 A  
ATOM     13  CE1 TYR A   1     -12.235  14.399  65.864  1.00  0.00    -0.354 A  
ATOM     14  CZ  TYR A   1     -12.142  13.922  64.563  1.00  0.00    -0.443 A  
ATOM     15  CE2 TYR A   1     -11.791  12.602  64.316  1.00  0.00    -0.462 A  
ATOM     16  OH  TYR A   1     -12.405  14.727  63.496  1.00  0.00    -1.037 OA 
ATOM     17  HH  TYR A   1     -12.341  14.401  62.606  1.00  0.00     0.000 HD 
ATOM     18  CD2 TYR A   1     -11.596  11.727  65.387  1.00  0.00    -0.190 A  
ENDBRANCH  10  11
ENDBRANCH   6  10
ENDBRANCH   3   6
TORSDOF 3
ENDMDL
MODEL       55
REMARK 921   NORMALIZED FREE ENERGY PREDICTED BY IDOCK:   -4.65 KCAL/MOL
REMARK 922        TOTAL FREE ENERGY PREDICTED BY IDOCK:   -5.90 KCAL/MOL
REMARK 923 INTER-LIGAND FREE ENERGY PREDICTED BY IDOCK:   -5.74 KCAL/MOL
REMARK 924 INTRA-LIGAND FREE ENERGY PREDICTED BY IDOCK:   -0.15 KCAL/MOL
REMARK 927      BINDING AFFINITY PREDICTED BY RF-SCORE:    0.00 PKD
ROOT
HETATM    1  C   UNK A   0      -9.656  15.144  69.098  1.00  0.00    -0.232 C  
HETATM    2  C   UNK A   0     -11.032  14.561  69.236  1.00  0.00    -0.260 C  
ATOM      3  N   TYR A   1     -11.300  13.944  70.432  1.00  0.00    -0.495 N  
HETATM    4  O   UNK A   0     -11.895  14.677  68.368  1.00  0.00    -0.315 OA 
ATOM      5  H   TYR A   1     -10.560  13.840  71.126  1.00  0.00     0.000 HD 
ENDROOT
BRANCH   3   6
ATOM      6  CA  TYR A   1     -12.647  13.432  70.715  1.00  0.00    -0.294 C  
ATOM      7  C   TYR A   1     -13.344  14.358  71.734  1.00  0.00    -0.366 C  
ATOM      8  O   TYR A   1     -13.644  15.581  71.222  1.00  0.00    -0.505 OA 
ATOM      9  OXT TYR A   1     -13.592  14.072  72.896  1.00  0.00    -0.676 OA 
BRANCH   6  10
ATOM     10  CB  TYR A   1     -12.604  11.970  71.202  1.00  0.00    -0.372 C  
BRANCH  10  11
ATOM     11  CG  TYR A   1     -11.806  11.024  70.330  1.00  0.00    -0.460 A  
ATOM     12  CD1 TYR A   1     -11.706  11.193  68.940  1.00  0.00    -0.406 A  
ATOM     13  CE1 TYR A   1     -11.075  10.231  68.147  1.00  0.00    -0.324 A  
ATOM     14  CZ  TYR A   1     -10.501   9.119  68.747  1.00  0.00    -0.212 A  
ATOM     15  CE2 TYR A   1     -10.509   8.976  70.128  1.00  0.00    -0.240 A  
ATOM     16  OH  TYR A   1      -9.930   8.131  68.002  1.00  0.00    -0.169 OA 
ATOM     17  HH  TYR A   1      -9.538   7.370  68.413  1.00  0.00     0.000 HD 
ATOM     18  CD2 TYR A   1     -11.158   9.927  70.917  1.00  0.00    -0.418 A  
ENDBRANCH  10  11
ENDBRANCH   6  10
ENDBRANCH   3   6
TORSDOF 3
ENDMDL
MODEL       56
REMARK 921   NORMALIZED FREE ENERGY PREDICTED BY IDOCK:   -4.64 KCAL/MOL
REMARK 922        TOTAL FREE ENERGY PREDICTED BY IDOCK:   -5.89 KCAL/MOL
REMARK 923 INTER-LIGAND FREE ENERGY PREDICTED BY IDOCK:   -5.40 KCAL/MOL
REMARK 924 INTRA-LIGAND FREE ENERGY PREDICTED BY IDOCK:   -0.49 KCAL/MOL
REMARK 927      BINDING AFFINITY PREDICTED BY RF-SCORE:    0.00 PKD
ROOT
HETATM    1  C   UNK A   0      -7.317  12.634  67.478  1.00  0.00    -0.151 C  
HETATM    2  C   UNK A   0      -8.326  13.736  67.614  1.00  0.00    -0.182 C  
ATOM      3  N   TYR A   1      -9.241  13.835  66.597  1.00  0.00    -0.361 N  
HETATM    4  O   UNK A   0      -8.381  14.471  68.599  1.00  0.00    -0.157 OA 
ATOM      5  H   TYR A   1      -9.160  13.228  65.781  1.00  0.00     0.000 HD 
ENDROOT
BRANCH   3   6
ATOM      6  CA  TYR A   1     -10.338  14.809  66.680  1.00  0.00    -0.273 C  
ATOM      7  C   TYR A   1     -11.689  14.065  66.633  1.00  0.00    -0.399 C  
ATOM      8  O   TYR A   1     -11.928  13.325  67.747  1.00  0.00    -0.349 OA 
ATOM      9  OXT TYR A   1     -12.477  14.088  65.698  1.00  0.00    -0.459 OA 
BRANCH   6  10
ATOM     10  CB  TYR A   1     -10.228  15.875  65.573  1.00  0.00    -0.394 C  
BRANCH  10  11
ATOM     11  CG  TYR A   1      -9.678  17.213  66.020  1.00  0.00    -0.213 A  
ATOM     12  CD1 TYR A   1     -10.481  18.363  66.098  1.00  0.00    -0.422 A  
ATOM     13  CE1 TYR A   1      -9.917  19.609  66.384  1.00  0.00    -0.556 A  
ATOM     14  CZ  TYR A   1      -8.556  19.702  66.639  1.00  0.00    -0.343 A  
ATOM     15  CE2 TYR A   1      -7.759  18.565  66.657  1.00  0.00    -0.265 A  
ATOM     16  OH  TYR A   1      -7.961  20.907  66.863  1.00  0.00    -0.562 OA 
ATOM     17  HH  TYR A   1      -7.028  20.971  67.037  1.00  0.00     0.000 HD 
ATOM     18  CD2 TYR A   1      -8.320  17.324  66.349  1.00  0.00    -0.315 A  
ENDBRANCH  10  11
ENDBRANCH   6  10
ENDBRANCH   3   6
TORSDOF 3
ENDMDL
MODEL       57
REMARK 921   NORMALIZED FREE ENERGY PREDICTED BY IDOCK:   -4.64 KCAL/MOL
REMARK 922        TOTAL FREE ENERGY PREDICTED BY IDOCK:   -5.89 KCAL/MOL
REMARK 923 INTER-LIGAND FREE ENERGY PREDICTED BY IDOCK:   -5.62 KCAL/MOL
REMARK 924 INTRA-LIGAND FREE ENERGY PREDICTED BY IDOCK:   -0.27 KCAL/MOL
REMARK 927      BINDING AFFINITY PREDICTED BY RF-SCORE:    0.00 PKD
ROOT
HETATM    1  C   UNK A   0     -13.484  10.124  71.841  1.00  0.00    -0.426 C  
HETATM    2  C   UNK A   0     -12.794  11.387  71.418  1.00  0.00    -0.397 C  
ATOM      3  N   TYR A   1     -13.293  12.547  71.956  1.00  0.00    -0.492 N  
HETATM    4  O   UNK A   0     -11.804  11.394  70.688  1.00  0.00    -0.338 OA 
ATOM      5  H   TYR A   1     -14.129  12.516  72.540  1.00  0.00     0.000 HD 
ENDROOT
BRANCH   3   6
ATOM      6  CA  TYR A   1     -12.629  13.830  71.695  1.00  0.00    -0.279 C  
ATOM      7  C   TYR A   1     -12.975  14.825  72.822  1.00  0.00    -0.459 C  
ATOM      8  O   TYR A   1     -12.416  14.493  74.015  1.00  0.00    -0.403 OA 
ATOM      9  OXT TYR A   1     -13.696  15.805  72.704  1.00  0.00    -0.546 OA 
BRANCH   6  10
ATOM     10  CB  TYR A   1     -12.998  14.383  70.305  1.00  0.00    -0.120 C  
BRANCH  10  11
ATOM     11  CG  TYR A   1     -11.878  14.365  69.286  1.00  0.00    -0.365 A  
ATOM     12  CD1 TYR A   1     -11.992  13.687  68.062  1.00  0.00    -0.385 A  
ATOM     13  CE1 TYR A   1     -10.896  13.576  67.202  1.00  0.00    -0.291 A  
ATOM     14  CZ  TYR A   1      -9.696  14.184  67.542  1.00  0.00    -0.234 A  
ATOM     15  CE2 TYR A   1      -9.587  14.936  68.703  1.00  0.00    -0.222 A  
ATOM     16  OH  TYR A   1      -8.589  14.048  66.758  1.00  0.00    -0.396 OA 
ATOM     17  HH  TYR A   1      -7.767  14.464  66.991  1.00  0.00     0.000 HD 
ATOM     18  CD2 TYR A   1     -10.676  15.028  69.572  1.00  0.00    -0.266 A  
ENDBRANCH  10  11
ENDBRANCH   6  10
ENDBRANCH   3   6
TORSDOF 3
ENDMDL
MODEL       58
REMARK 921   NORMALIZED FREE ENERGY PREDICTED BY IDOCK:   -4.61 KCAL/MOL
REMARK 922        TOTAL FREE ENERGY PREDICTED BY IDOCK:   -5.85 KCAL/MOL
REMARK 923 INTER-LIGAND FREE ENERGY PREDICTED BY IDOCK:   -5.53 KCAL/MOL
REMARK 924 INTRA-LIGAND FREE ENERGY PREDICTED BY IDOCK:   -0.32 KCAL/MOL
REMARK 927      BINDING AFFINITY PREDICTED BY RF-SCORE:    0.00 PKD
ROOT
HETATM    1  C   UNK A   0      -9.544  11.025  62.971  1.00  0.00    -0.386 C  
HETATM    2  C   UNK A   0      -9.724  11.812  64.236  1.00  0.00    -0.146 C  
ATOM      3  N   TYR A   1     -10.390  13.004  64.106  1.00  0.00    -0.531 N  
HETATM    4  O   UNK A   0      -9.359  11.398  65.335  1.00  0.00    -0.215 OA 
ATOM      5  H   TYR A   1     -10.661  13.336  63.180  1.00  0.00     0.000 HD 
ENDROOT
BRANCH   3   6
ATOM      6  CA  TYR A   1     -10.715  13.804  65.294  1.00  0.00    -0.339 C  
ATOM      7  C   TYR A   1     -12.171  13.523  65.719  1.00  0.00    -0.461 C  
ATOM      8  O   TYR A   1     -12.351  12.268  66.207  1.00  0.00    -0.556 OA 
ATOM      9  OXT TYR A   1     -13.102  14.309  65.617  1.00  0.00    -0.561 OA 
BRANCH   6  10
ATOM     10  CB  TYR A   1     -10.465  15.304  65.049  1.00  0.00    -0.411 C  
BRANCH  10  11
ATOM     11  CG  TYR A   1      -9.730  16.026  66.158  1.00  0.00    -0.353 A  
ATOM     12  CD1 TYR A   1     -10.404  16.618  67.238  1.00  0.00    -0.298 A  
ATOM     13  CE1 TYR A   1      -9.711  17.390  68.175  1.00  0.00    -0.291 A  
ATOM     14  CZ  TYR A   1      -8.335  17.533  68.060  1.00  0.00    -0.241 A  
ATOM     15  CE2 TYR A   1      -7.637  16.882  67.053  1.00  0.00    -0.230 A  
ATOM     16  OH  TYR A   1      -7.635  18.327  68.919  1.00  0.00    -0.285 OA 
ATOM     17  HH  TYR A   1      -6.693  18.425  68.840  1.00  0.00     0.000 HD 
ATOM     18  CD2 TYR A   1      -8.333  16.129  66.105  1.00  0.00    -0.222 A  
ENDBRANCH  10  11
ENDBRANCH   6  10
ENDBRANCH   3   6
TORSDOF 3
ENDMDL
MODEL       59
REMARK 921   NORMALIZED FREE ENERGY PREDICTED BY IDOCK:   -4.59 KCAL/MOL
REMARK 922        TOTAL FREE ENERGY PREDICTED BY IDOCK:   -5.83 KCAL/MOL
REMARK 923 INTER-LIGAND FREE ENERGY PREDICTED BY IDOCK:   -6.39 KCAL/MOL
REMARK 924 INTRA-LIGAND FREE ENERGY PREDICTED BY IDOCK:    0.56 KCAL/MOL
REMARK 927      BINDING AFFINITY PREDICTED BY RF-SCORE:    0.00 PKD
ROOT
HETATM    1  C   UNK A   0     -13.771  15.381  71.220  1.00  0.00    -0.558 C  
HETATM    2  C   UNK A   0     -12.311  15.266  70.895  1.00  0.00    -0.377 C  
ATOM      3  N   TYR A   1     -11.991  15.335  69.563  1.00  0.00    -0.396 N  
HETATM    4  O   UNK A   0     -11.441  15.179  71.759  1.00  0.00    -0.390 OA 
ATOM      5  H   TYR A   1     -12.733  15.383  68.864  1.00  0.00     0.000 HD 
ENDROOT
BRANCH   3   6
ATOM      6  CA  TYR A   1     -10.585  15.340  69.138  1.00  0.00    -0.250 C  
ATOM      7  C   TYR A   1     -10.278  16.656  68.395  1.00  0.00    -0.284 C  
ATOM      8  O   TYR A   1     -10.297  17.744  69.209  1.00  0.00    -0.318 OA 
ATOM      9  OXT TYR A   1     -10.064  16.758  67.196  1.00  0.00    -0.268 OA 
BRANCH   6  10
ATOM     10  CB  TYR A   1     -10.251  14.103  68.282  1.00  0.00    -0.243 C  
BRANCH  10  11
ATOM     11  CG  TYR A   1     -10.889  14.077  66.910  1.00  0.00    -0.290 A  
ATOM     12  CD1 TYR A   1     -12.281  14.119  66.732  1.00  0.00    -0.429 A  
ATOM     13  CE1 TYR A   1     -12.844  13.959  65.463  1.00  0.00    -0.471 A  
ATOM     14  CZ  TYR A   1     -12.014  13.803  64.361  1.00  0.00    -0.445 A  
ATOM     15  CE2 TYR A   1     -10.634  13.849  64.502  1.00  0.00    -0.375 A  
ATOM     16  OH  TYR A   1     -12.526  13.585  63.118  1.00  0.00    -0.948 OA 
ATOM     17  HH  TYR A   1     -11.958  13.478  62.363  1.00  0.00     0.000 HD 
ATOM     18  CD2 TYR A   1     -10.073  13.987  65.773  1.00  0.00    -0.345 A  
ENDBRANCH  10  11
ENDBRANCH   6  10
ENDBRANCH   3   6
TORSDOF 3
ENDMDL
MODEL       60
REMARK 921   NORMALIZED FREE ENERGY PREDICTED BY IDOCK:   -4.58 KCAL/MOL
REMARK 922        TOTAL FREE ENERGY PREDICTED BY IDOCK:   -5.82 KCAL/MOL
REMARK 923 INTER-LIGAND FREE ENERGY PREDICTED BY IDOCK:   -6.16 KCAL/MOL
REMARK 924 INTRA-LIGAND FREE ENERGY PREDICTED BY IDOCK:    0.34 KCAL/MOL
REMARK 927      BINDING AFFINITY PREDICTED BY RF-SCORE:    0.00 PKD
ROOT
HETATM    1  C   UNK A   0      -9.862  15.705  69.197  1.00  0.00    -0.247 C  
HETATM    2  C   UNK A   0     -10.662  14.493  68.821  1.00  0.00    -0.253 C  
ATOM      3  N   TYR A   1      -9.962  13.314  68.761  1.00  0.00    -0.423 N  
HETATM    4  O   UNK A   0     -11.877  14.526  68.638  1.00  0.00    -0.319 OA 
ATOM      5  H   TYR A   1      -8.951  13.317  68.893  1.00  0.00     0.000 HD 
ENDROOT
BRANCH   3   6
ATOM      6  CA  TYR A   1     -10.663  12.049  68.506  1.00  0.00    -0.234 C  
ATOM      7  C   TYR A   1     -11.005  11.945  67.005  1.00  0.00    -0.278 C  
ATOM      8  O   TYR A   1      -9.908  11.785  66.219  1.00  0.00    -0.210 OA 
ATOM      9  OXT TYR A   1     -12.128  12.023  66.528  1.00  0.00    -0.617 OA 
BRANCH   6  10
ATOM     10  CB  TYR A   1     -11.916  11.910  69.393  1.00  0.00    -0.350 C  
BRANCH  10  11
ATOM     11  CG  TYR A   1     -11.907  10.731  70.341  1.00  0.00    -0.450 A  
ATOM     12  CD1 TYR A   1     -13.026  10.384  71.115  1.00  0.00    -0.506 A  
ATOM     13  CE1 TYR A   1     -12.945   9.374  72.078  1.00  0.00    -0.508 A  
ATOM     14  CZ  TYR A   1     -11.756   8.676  72.237  1.00  0.00    -0.358 A  
ATOM     15  CE2 TYR A   1     -10.664   8.940  71.422  1.00  0.00    -0.382 A  
ATOM     16  OH  TYR A   1     -11.620   7.726  73.205  1.00  0.00    -0.644 OA 
ATOM     17  HH  TYR A   1     -10.806   7.248  73.315  1.00  0.00     0.000 HD 
ATOM     18  CD2 TYR A   1     -10.740   9.963  70.475  1.00  0.00    -0.382 A  
ENDBRANCH  10  11
ENDBRANCH   6  10
ENDBRANCH   3   6
TORSDOF 3
ENDMDL
MODEL       61
REMARK 921   NORMALIZED FREE ENERGY PREDICTED BY IDOCK:   -4.58 KCAL/MOL
REMARK 922        TOTAL FREE ENERGY PREDICTED BY IDOCK:   -5.82 KCAL/MOL
REMARK 923 INTER-LIGAND FREE ENERGY PREDICTED BY IDOCK:   -5.52 KCAL/MOL
REMARK 924 INTRA-LIGAND FREE ENERGY PREDICTED BY IDOCK:   -0.30 KCAL/MOL
REMARK 927      BINDING AFFINITY PREDICTED BY RF-SCORE:    0.00 PKD
ROOT
HETATM    1  C   UNK A   0     -10.716   6.191  69.102  1.00  0.00    -0.381 C  
HETATM    2  C   UNK A   0     -10.683   6.993  67.835  1.00  0.00    -0.210 C  
ATOM      3  N   TYR A   1      -9.867   8.095  67.848  1.00  0.00    -0.161 N  
HETATM    4  O   UNK A   0     -11.293   6.660  66.820  1.00  0.00    -0.270 OA 
ATOM      5  H   TYR A   1      -9.391   8.363  68.710  1.00  0.00     0.000 HD 
ENDROOT
BRANCH   3   6
ATOM      6  CA  TYR A   1      -9.677   8.891  66.629  1.00  0.00    -0.237 C  
ATOM      7  C   TYR A   1      -8.351   8.486  65.953  1.00  0.00    -0.138 C  
ATOM      8  O   TYR A   1      -8.381   7.232  65.430  1.00  0.00    -0.139 OA 
ATOM      9  OXT TYR A   1      -7.345   9.178  65.897  1.00  0.00    -0.091 OA 
BRANCH   6  10
ATOM     10  CB  TYR A   1      -9.734  10.402  66.927  1.00  0.00    -0.223 C  
BRANCH  10  11
ATOM     11  CG  TYR A   1     -10.501  11.230  65.919  1.00  0.00    -0.314 A  
ATOM     12  CD1 TYR A   1     -10.273  11.125  64.537  1.00  0.00    -0.383 A  
ATOM     13  CE1 TYR A   1     -10.900  11.996  63.641  1.00  0.00    -0.510 A  
ATOM     14  CZ  TYR A   1     -11.792  12.945  64.121  1.00  0.00    -0.414 A  
ATOM     15  CE2 TYR A   1     -12.101  13.007  65.473  1.00  0.00    -0.501 A  
ATOM     16  OH  TYR A   1     -12.376  13.849  63.286  1.00  0.00    -1.115 OA 
ATOM     17  HH  TYR A   1     -12.987  14.499  63.614  1.00  0.00     0.000 HD 
ATOM     18  CD2 TYR A   1     -11.458  12.151  66.369  1.00  0.00    -0.430 A  
ENDBRANCH  10  11
ENDBRANCH   6  10
ENDBRANCH   3   6
TORSDOF 3
ENDMDL
MODEL       62
REMARK 921   NORMALIZED FREE ENERGY PREDICTED BY IDOCK:   -4.54 KCAL/MOL
REMARK 922        TOTAL FREE ENERGY PREDICTED BY IDOCK:   -5.77 KCAL/MOL
REMARK 923 INTER-LIGAND FREE ENERGY PREDICTED BY IDOCK:   -5.69 KCAL/MOL
REMARK 924 INTRA-LIGAND FREE ENERGY PREDICTED BY IDOCK:   -0.08 KCAL/MOL
REMARK 927      BINDING AFFINITY PREDICTED BY RF-SCORE:    0.00 PKD
ROOT
HETATM    1  C   UNK A   0      -7.632   7.606  70.845  1.00  0.00    -0.080 C  
HETATM    2  C   UNK A   0      -8.694   8.477  71.448  1.00  0.00    -0.185 C  
ATOM      3  N   TYR A   1      -9.824   8.650  70.689  1.00  0.00    -0.175 N  
HETATM    4  O   UNK A   0      -8.600   8.959  72.576  1.00  0.00    -0.396 OA 
ATOM      5  H   TYR A   1      -9.868   8.259  69.748  1.00  0.00     0.000 HD 
ENDROOT
BRANCH   3   6
ATOM      6  CA  TYR A   1     -10.970   9.396  71.227  1.00  0.00    -0.370 C  
ATOM      7  C   TYR A   1     -11.956   8.412  71.890  1.00  0.00    -0.338 C  
ATOM      8  O   TYR A   1     -11.466   7.853  73.028  1.00  0.00    -0.383 OA 
ATOM      9  OXT TYR A   1     -13.060   8.116  71.456  1.00  0.00    -0.319 OA 
BRANCH   6  10
ATOM     10  CB  TYR A   1     -11.650  10.247  70.137  1.00  0.00    -0.376 C  
BRANCH  10  11
ATOM     11  CG  TYR A   1     -12.190  11.581  70.604  1.00  0.00    -0.473 A  
ATOM     12  CD1 TYR A   1     -11.869  12.785  69.959  1.00  0.00    -0.352 A  
ATOM     13  CE1 TYR A   1     -12.274  14.012  70.492  1.00  0.00    -0.435 A  
ATOM     14  CZ  TYR A   1     -13.042  14.035  71.648  1.00  0.00    -0.359 A  
ATOM     15  CE2 TYR A   1     -13.448  12.853  72.252  1.00  0.00    -0.631 A  
ATOM     16  OH  TYR A   1     -13.405  15.212  72.230  1.00  0.00    -0.343 OA 
ATOM     17  HH  TYR A   1     -13.931  15.228  73.022  1.00  0.00     0.000 HD 
ATOM     18  CD2 TYR A   1     -13.025  11.629  71.731  1.00  0.00    -0.483 A  
ENDBRANCH  10  11
ENDBRANCH   6  10
ENDBRANCH   3   6
TORSDOF 3
ENDMDL
MODEL       63
REMARK 921   NORMALIZED FREE ENERGY PREDICTED BY IDOCK:   -4.53 KCAL/MOL
REMARK 922        TOTAL FREE ENERGY PREDICTED BY IDOCK:   -5.76 KCAL/MOL
REMARK 923 INTER-LIGAND FREE ENERGY PREDICTED BY IDOCK:   -5.42 KCAL/MOL
REMARK 924 INTRA-LIGAND FREE ENERGY PREDICTED BY IDOCK:   -0.33 KCAL/MOL
REMARK 927      BINDING AFFINITY PREDICTED BY RF-SCORE:    0.00 PKD
ROOT
HETATM    1  C   UNK A   0      -9.927  17.145  66.127  1.00  0.00    -0.296 C  
HETATM    2  C   UNK A   0      -9.899  15.649  66.243  1.00  0.00    -0.295 C  
ATOM      3  N   TYR A   1     -11.123  15.030  66.247  1.00  0.00    -0.343 N  
HETATM    4  O   UNK A   0      -8.853  15.003  66.268  1.00  0.00    -0.255 OA 
ATOM      5  H   TYR A   1     -11.976  15.590  66.249  1.00  0.00     0.000 HD 
ENDROOT
BRANCH   3   6
ATOM      6  CA  TYR A   1     -11.211  13.564  66.250  1.00  0.00    -0.297 C  
ATOM      7  C   TYR A   1     -11.846  13.086  64.927  1.00  0.00    -0.361 C  
ATOM      8  O   TYR A   1     -11.044  13.286  63.849  1.00  0.00    -0.365 OA 
ATOM      9  OXT TYR A   1     -12.961  12.600  64.813  1.00  0.00    -0.816 OA 
BRANCH   6  10
ATOM     10  CB  TYR A   1     -11.982  13.047  67.479  1.00  0.00    -0.360 C  
BRANCH  10  11
ATOM     11  CG  TYR A   1     -11.470  11.748  68.063  1.00  0.00    -0.388 A  
ATOM     12  CD1 TYR A   1     -11.833  11.311  69.347  1.00  0.00    -0.424 A  
ATOM     13  CE1 TYR A   1     -11.240  10.178  69.910  1.00  0.00    -0.343 A  
ATOM     14  CZ  TYR A   1     -10.316   9.451  69.172  1.00  0.00    -0.211 A  
ATOM     15  CE2 TYR A   1     -10.009   9.813  67.868  1.00  0.00    -0.196 A  
ATOM     16  OH  TYR A   1      -9.673   8.376  69.709  1.00  0.00    -0.177 OA 
ATOM     17  HH  TYR A   1      -9.040   7.879  69.204  1.00  0.00     0.000 HD 
ATOM     18  CD2 TYR A   1     -10.586  10.958  67.314  1.00  0.00    -0.296 A  
ENDBRANCH  10  11
ENDBRANCH   6  10
ENDBRANCH   3   6
TORSDOF 3
ENDMDL
MODEL       64
REMARK 921   NORMALIZED FREE ENERGY PREDICTED BY IDOCK:   -4.51 KCAL/MOL
REMARK 922        TOTAL FREE ENERGY PREDICTED BY IDOCK:   -5.74 KCAL/MOL
REMARK 923 INTER-LIGAND FREE ENERGY PREDICTED BY IDOCK:   -5.32 KCAL/MOL
REMARK 924 INTRA-LIGAND FREE ENERGY PREDICTED BY IDOCK:   -0.42 KCAL/MOL
REMARK 927      BINDING AFFINITY PREDICTED BY RF-SCORE:    0.00 PKD
ROOT
HETATM    1  C   UNK A   0     -12.106  15.673  69.832  1.00  0.00    -0.360 C  
HETATM    2  C   UNK A   0     -11.350  14.978  68.738  1.00  0.00    -0.291 C  
ATOM      3  N   TYR A   1     -12.103  14.551  67.673  1.00  0.00    -0.588 N  
HETATM    4  O   UNK A   0     -10.127  14.848  68.752  1.00  0.00    -0.226 OA 
ATOM      5  H   TYR A   1     -13.118  14.649  67.697  1.00  0.00     0.000 HD 
ENDROOT
BRANCH   3   6
ATOM      6  CA  TYR A   1     -11.452  13.953  66.500  1.00  0.00    -0.348 C  
ATOM      7  C   TYR A   1     -11.604  14.901  65.292  1.00  0.00    -0.300 C  
ATOM      8  O   TYR A   1     -10.883  16.046  65.420  1.00  0.00    -0.361 OA 
ATOM      9  OXT TYR A   1     -12.310  14.696  64.315  1.00  0.00    -0.582 OA 
BRANCH   6  10
ATOM     10  CB  TYR A   1     -12.008  12.547  66.202  1.00  0.00    -0.432 C  
BRANCH  10  11
ATOM     11  CG  TYR A   1     -11.041  11.408  66.443  1.00  0.00    -0.301 A  
ATOM     12  CD1 TYR A   1     -10.144  10.967  65.457  1.00  0.00    -0.316 A  
ATOM     13  CE1 TYR A   1      -9.359   9.829  65.663  1.00  0.00    -0.285 A  
ATOM     14  CZ  TYR A   1      -9.435   9.156  66.874  1.00  0.00    -0.171 A  
ATOM     15  CE2 TYR A   1     -10.248   9.626  67.896  1.00  0.00    -0.242 A  
ATOM     16  OH  TYR A   1      -8.730   8.009  67.089  1.00  0.00    -0.128 OA 
ATOM     17  HH  TYR A   1      -8.783   7.548  67.918  1.00  0.00     0.000 HD 
ATOM     18  CD2 TYR A   1     -11.047  10.750  67.682  1.00  0.00    -0.384 A  
ENDBRANCH  10  11
ENDBRANCH   6  10
ENDBRANCH   3   6
TORSDOF 3
ENDMDL
MODEL       65
REMARK 921   NORMALIZED FREE ENERGY PREDICTED BY IDOCK:   -4.49 KCAL/MOL
REMARK 922        TOTAL FREE ENERGY PREDICTED BY IDOCK:   -5.71 KCAL/MOL
REMARK 923 INTER-LIGAND FREE ENERGY PREDICTED BY IDOCK:   -5.18 KCAL/MOL
REMARK 924 INTRA-LIGAND FREE ENERGY PREDICTED BY IDOCK:   -0.53 KCAL/MOL
REMARK 927      BINDING AFFINITY PREDICTED BY RF-SCORE:    0.00 PKD
ROOT
HETATM    1  C   UNK A   0     -11.854  16.070  69.279  1.00  0.00    -0.264 C  
HETATM    2  C   UNK A   0     -11.201  15.180  68.263  1.00  0.00    -0.308 C  
ATOM      3  N   TYR A   1     -12.017  14.722  67.260  1.00  0.00    -0.464 N  
HETATM    4  O   UNK A   0      -9.999  14.921  68.279  1.00  0.00    -0.214 OA 
ATOM      5  H   TYR A   1     -13.015  14.932  67.283  1.00  0.00     0.000 HD 
ENDROOT
BRANCH   3   6
ATOM      6  CA  TYR A   1     -11.460  13.931  66.155  1.00  0.00    -0.345 C  
ATOM      7  C   TYR A   1     -11.855  14.579  64.812  1.00  0.00    -0.441 C  
ATOM      8  O   TYR A   1     -11.245  15.773  64.596  1.00  0.00    -0.445 OA 
ATOM      9  OXT TYR A   1     -12.652  14.114  64.010  1.00  0.00    -0.691 OA 
BRANCH   6  10
ATOM     10  CB  TYR A   1     -11.903  12.458  66.237  1.00  0.00    -0.431 C  
BRANCH  10  11
ATOM     11  CG  TYR A   1     -11.073  11.585  67.154  1.00  0.00    -0.355 A  
ATOM     12  CD1 TYR A   1     -11.654  10.773  68.141  1.00  0.00    -0.276 A  
ATOM     13  CE1 TYR A   1     -10.857  10.082  69.058  1.00  0.00    -0.253 A  
ATOM     14  CZ  TYR A   1      -9.475  10.166  68.963  1.00  0.00    -0.190 A  
ATOM     15  CE2 TYR A   1      -8.878  10.891  67.941  1.00  0.00    -0.134 A  
ATOM     16  OH  TYR A   1      -8.667   9.556  69.875  1.00  0.00    -0.172 OA 
ATOM     17  HH  TYR A   1      -7.720   9.614  69.810  1.00  0.00     0.000 HD 
ATOM     18  CD2 TYR A   1      -9.675  11.597  67.038  1.00  0.00    -0.201 A  
ENDBRANCH  10  11
ENDBRANCH   6  10
ENDBRANCH   3   6
TORSDOF 3
ENDMDL
MODEL       66
REMARK 921   NORMALIZED FREE ENERGY PREDICTED BY IDOCK:   -4.48 KCAL/MOL
REMARK 922        TOTAL FREE ENERGY PREDICTED BY IDOCK:   -5.70 KCAL/MOL
REMARK 923 INTER-LIGAND FREE ENERGY PREDICTED BY IDOCK:   -5.21 KCAL/MOL
REMARK 924 INTRA-LIGAND FREE ENERGY PREDICTED BY IDOCK:   -0.48 KCAL/MOL
REMARK 927      BINDING AFFINITY PREDICTED BY RF-SCORE:    0.00 PKD
ROOT
HETATM    1  C   UNK A   0     -14.283   8.716  72.065  1.00  0.00    -0.524 C  
HETATM    2  C   UNK A   0     -13.043   7.994  71.629  1.00  0.00    -0.329 C  
ATOM      3  N   TYR A   1     -11.856   8.546  72.040  1.00  0.00    -0.336 N  
HETATM    4  O   UNK A   0     -13.073   6.939  70.998  1.00  0.00    -0.270 OA 
ATOM      5  H   TYR A   1     -11.857   9.434  72.543  1.00  0.00     0.000 HD 
ENDROOT
BRANCH   3   6
ATOM      6  CA  TYR A   1     -10.585   7.865  71.761  1.00  0.00    -0.226 C  
ATOM      7  C   TYR A   1      -9.676   7.945  73.005  1.00  0.00    -0.283 C  
ATOM      8  O   TYR A   1     -10.133   7.203  74.047  1.00  0.00    -0.329 OA 
ATOM      9  OXT TYR A   1      -8.659   8.616  73.095  1.00  0.00    -0.393 OA 
BRANCH   6  10
ATOM     10  CB  TYR A   1      -9.900   8.442  70.508  1.00  0.00    -0.204 C  
BRANCH  10  11
ATOM     11  CG  TYR A   1     -10.137   7.668  69.229  1.00  0.00    -0.190 A  
ATOM     12  CD1 TYR A   1     -10.377   8.306  68.002  1.00  0.00    -0.268 A  
ATOM     13  CE1 TYR A   1     -10.724   7.567  66.868  1.00  0.00    -0.299 A  
ATOM     14  CZ  TYR A   1     -10.786   6.183  66.946  1.00  0.00    -0.340 A  
ATOM     15  CE2 TYR A   1     -10.464   5.525  68.125  1.00  0.00    -0.231 A  
ATOM     16  OH  TYR A   1     -11.179   5.433  65.878  1.00  0.00    -0.779 OA 
ATOM     17  HH  TYR A   1     -11.221   4.485  65.932  1.00  0.00     0.000 HD 
ATOM     18  CD2 TYR A   1     -10.139   6.265  69.263  1.00  0.00    -0.213 A  
ENDBRANCH  10  11
ENDBRANCH   6  10
ENDBRANCH   3   6
TORSDOF 3
ENDMDL
MODEL       67
REMARK 921   NORMALIZED FREE ENERGY PREDICTED BY IDOCK:   -4.48 KCAL/MOL
REMARK 922        TOTAL FREE ENERGY PREDICTED BY IDOCK:   -5.70 KCAL/MOL
REMARK 923 INTER-LIGAND FREE ENERGY PREDICTED BY IDOCK:   -5.22 KCAL/MOL
REMARK 924 INTRA-LIGAND FREE ENERGY PREDICTED BY IDOCK:   -0.48 KCAL/MOL
REMARK 927      BINDING AFFINITY PREDICTED BY RF-SCORE:    0.00 PKD
ROOT
HETATM    1  C   UNK A   0     -11.257  15.623  70.463  1.00  0.00    -0.382 C  
HETATM    2  C   UNK A   0     -10.741  14.930  69.236  1.00  0.00    -0.249 C  
ATOM      3  N   TYR A   1     -11.270  15.358  68.045  1.00  0.00    -0.315 N  
HETATM    4  O   UNK A   0      -9.855  14.078  69.275  1.00  0.00     0.038 OA 
ATOM      5  H   TYR A   1     -12.020  16.049  68.042  1.00  0.00     0.000 HD 
ENDROOT
BRANCH   3   6
ATOM      6  CA  TYR A   1     -10.760  14.824  66.775  1.00  0.00    -0.309 C  
ATOM      7  C   TYR A   1     -10.431  15.993  65.823  1.00  0.00    -0.374 C  
ATOM      8  O   TYR A   1      -9.363  16.727  66.232  1.00  0.00    -0.265 OA 
ATOM      9  OXT TYR A   1     -11.057  16.281  64.813  1.00  0.00    -0.561 OA 
BRANCH   6  10
ATOM     10  CB  TYR A   1     -11.753  13.829  66.143  1.00  0.00    -0.392 C  
BRANCH  10  11
ATOM     11  CG  TYR A   1     -11.241  12.412  66.000  1.00  0.00    -0.374 A  
ATOM     12  CD1 TYR A   1     -11.279  11.492  67.060  1.00  0.00    -0.365 A  
ATOM     13  CE1 TYR A   1     -10.679  10.236  66.938  1.00  0.00    -0.252 A  
ATOM     14  CZ  TYR A   1     -10.078   9.878  65.739  1.00  0.00    -0.247 A  
ATOM     15  CE2 TYR A   1     -10.108  10.736  64.648  1.00  0.00    -0.410 A  
ATOM     16  OH  TYR A   1      -9.431   8.687  65.602  1.00  0.00    -0.410 OA 
ATOM     17  HH  TYR A   1      -9.020   8.442  64.781  1.00  0.00     0.000 HD 
ATOM     18  CD2 TYR A   1     -10.689  11.999  64.778  1.00  0.00    -0.352 A  
ENDBRANCH  10  11
ENDBRANCH   6  10
ENDBRANCH   3   6
TORSDOF 3
ENDMDL
MODEL       68
REMARK 921   NORMALIZED FREE ENERGY PREDICTED BY IDOCK:   -4.47 KCAL/MOL
REMARK 922        TOTAL FREE ENERGY PREDICTED BY IDOCK:   -5.69 KCAL/MOL
REMARK 923 INTER-LIGAND FREE ENERGY PREDICTED BY IDOCK:   -5.21 KCAL/MOL
REMARK 924 INTRA-LIGAND FREE ENERGY PREDICTED BY IDOCK:   -0.48 KCAL/MOL
REMARK 927      BINDING AFFINITY PREDICTED BY RF-SCORE:    0.00 PKD
ROOT
HETATM    1  C   UNK A   0      -7.547   6.068  67.881  1.00  0.00    -0.097 C  
HETATM    2  C   UNK A   0      -8.699   6.892  68.376  1.00  0.00    -0.124 C  
ATOM      3  N   TYR A   1      -8.613   8.240  68.135  1.00  0.00    -0.132 N  
HETATM    4  O   UNK A   0      -9.692   6.398  68.907  1.00  0.00    -0.126 OA 
ATOM      5  H   TYR A   1      -7.769   8.628  67.714  1.00  0.00     0.000 HD 
ENDROOT
BRANCH   3   6
ATOM      6  CA  TYR A   1      -9.732   9.127  68.481  1.00  0.00    -0.155 C  
ATOM      7  C   TYR A   1      -9.919  10.176  67.365  1.00  0.00    -0.195 C  
ATOM      8  O   TYR A   1     -10.375   9.641  66.203  1.00  0.00    -0.230 OA 
ATOM      9  OXT TYR A   1      -9.667  11.368  67.465  1.00  0.00    -0.176 OA 
BRANCH   6  10
ATOM     10  CB  TYR A   1      -9.525   9.783  69.860  1.00  0.00    -0.264 C  
BRANCH  10  11
ATOM     11  CG  TYR A   1     -10.637   9.546  70.859  1.00  0.00    -0.395 A  
ATOM     12  CD1 TYR A   1     -10.630   8.454  71.741  1.00  0.00    -0.352 A  
ATOM     13  CE1 TYR A   1     -11.732   8.188  72.559  1.00  0.00    -0.457 A  
ATOM     14  CZ  TYR A   1     -12.827   9.040  72.529  1.00  0.00    -0.338 A  
ATOM     15  CE2 TYR A   1     -12.819  10.177  71.732  1.00  0.00    -0.554 A  
ATOM     16  OH  TYR A   1     -13.943   8.781  73.266  1.00  0.00    -1.160 OA 
ATOM     17  HH  TYR A   1     -14.693   9.364  73.246  1.00  0.00     0.000 HD 
ATOM     18  CD2 TYR A   1     -11.726  10.429  70.900  1.00  0.00    -0.455 A  
ENDBRANCH  10  11
ENDBRANCH   6  10
ENDBRANCH   3   6
TORSDOF 3
ENDMDL
MODEL       69
REMARK 921   NORMALIZED FREE ENERGY PREDICTED BY IDOCK:   -4.46 KCAL/MOL
REMARK 922        TOTAL FREE ENERGY PREDICTED BY IDOCK:   -5.68 KCAL/MOL
REMARK 923 INTER-LIGAND FREE ENERGY PREDICTED BY IDOCK:   -5.53 KCAL/MOL
REMARK 924 INTRA-LIGAND FREE ENERGY PREDICTED BY IDOCK:   -0.14 KCAL/MOL
REMARK 927      BINDING AFFINITY PREDICTED BY RF-SCORE:    0.00 PKD
ROOT
HETATM    1  C   UNK A   0     -10.455  16.875  66.951  1.00  0.00    -0.271 C  
HETATM    2  C   UNK A   0     -10.198  15.537  66.323  1.00  0.00    -0.294 C  
ATOM      3  N   TYR A   1     -11.314  14.793  66.031  1.00  0.00    -0.343 N  
HETATM    4  O   UNK A   0      -9.071  15.145  66.025  1.00  0.00    -0.289 OA 
ATOM      5  H   TYR A   1     -12.236  15.130  66.310  1.00  0.00     0.000 HD 
ENDROOT
BRANCH   3   6
ATOM      6  CA  TYR A   1     -11.186  13.515  65.319  1.00  0.00    -0.292 C  
ATOM      7  C   TYR A   1     -12.440  13.285  64.449  1.00  0.00    -0.290 C  
ATOM      8  O   TYR A   1     -12.526  14.146  63.402  1.00  0.00    -0.797 OA 
ATOM      9  OXT TYR A   1     -13.304  12.447  64.662  1.00  0.00    -0.778 OA 
BRANCH   6  10
ATOM     10  CB  TYR A   1     -10.940  12.348  66.295  1.00  0.00    -0.323 C  
BRANCH  10  11
ATOM     11  CG  TYR A   1     -10.287  11.126  65.687  1.00  0.00    -0.311 A  
ATOM     12  CD1 TYR A   1     -10.002   9.976  66.442  1.00  0.00    -0.300 A  
ATOM     13  CE1 TYR A   1      -9.280   8.917  65.885  1.00  0.00    -0.290 A  
ATOM     14  CZ  TYR A   1      -8.881   8.984  64.558  1.00  0.00    -0.081 A  
ATOM     15  CE2 TYR A   1      -9.229  10.071  63.767  1.00  0.00    -0.314 A  
ATOM     16  OH  TYR A   1      -8.124   7.999  63.998  1.00  0.00    -0.202 OA 
ATOM     17  HH  TYR A   1      -7.850   8.045  63.089  1.00  0.00     0.000 HD 
ATOM     18  CD2 TYR A   1      -9.932  11.138  64.330  1.00  0.00    -0.359 A  
ENDBRANCH  10  11
ENDBRANCH   6  10
ENDBRANCH   3   6
TORSDOF 3
ENDMDL
MODEL       70
REMARK 921   NORMALIZED FREE ENERGY PREDICTED BY IDOCK:   -4.45 KCAL/MOL
REMARK 922        TOTAL FREE ENERGY PREDICTED BY IDOCK:   -5.67 KCAL/MOL
REMARK 923 INTER-LIGAND FREE ENERGY PREDICTED BY IDOCK:   -5.32 KCAL/MOL
REMARK 924 INTRA-LIGAND FREE ENERGY PREDICTED BY IDOCK:   -0.35 KCAL/MOL
REMARK 927      BINDING AFFINITY PREDICTED BY RF-SCORE:    0.00 PKD
ROOT
HETATM    1  C   UNK A   0      -7.264  14.177  67.496  1.00  0.00    -0.188 C  
HETATM    2  C   UNK A   0      -8.731  14.483  67.443  1.00  0.00    -0.199 C  
ATOM      3  N   TYR A   1      -9.083  15.585  66.705  1.00  0.00    -0.255 N  
HETATM    4  O   UNK A   0      -9.581  13.767  67.969  1.00  0.00    -0.201 OA 
ATOM      5  H   TYR A   1      -8.357  16.176  66.298  1.00  0.00     0.000 HD 
ENDROOT
BRANCH   3   6
ATOM      6  CA  TYR A   1     -10.498  15.917  66.497  1.00  0.00    -0.304 C  
ATOM      7  C   TYR A   1     -10.819  15.872  64.989  1.00  0.00    -0.426 C  
ATOM      8  O   TYR A   1     -10.779  14.616  64.472  1.00  0.00    -0.334 OA 
ATOM      9  OXT TYR A   1     -11.062  16.845  64.288  1.00  0.00    -1.135 OA 
BRANCH   6  10
ATOM     10  CB  TYR A   1     -10.856  17.278  67.123  1.00  0.00    -0.085 C  
BRANCH  10  11
ATOM     11  CG  TYR A   1      -9.694  18.232  67.300  1.00  0.00    -0.301 A  
ATOM     12  CD1 TYR A   1      -9.337  19.167  66.315  1.00  0.00    -0.342 A  
ATOM     13  CE1 TYR A   1      -8.181  19.940  66.449  1.00  0.00    -0.365 A  
ATOM     14  CZ  TYR A   1      -7.402  19.814  67.591  1.00  0.00    -0.271 A  
ATOM     15  CE2 TYR A   1      -7.784  18.962  68.618  1.00  0.00    -0.375 A  
ATOM     16  OH  TYR A   1      -6.237  20.506  67.730  1.00  0.00    -0.229 OA 
ATOM     17  HH  TYR A   1      -5.704  20.419  68.512  1.00  0.00     0.000 HD 
ATOM     18  CD2 TYR A   1      -8.928  18.174  68.473  1.00  0.00    -0.309 A  
ENDBRANCH  10  11
ENDBRANCH   6  10
ENDBRANCH   3   6
TORSDOF 3
ENDMDL
MODEL       71
REMARK 921   NORMALIZED FREE ENERGY PREDICTED BY IDOCK:   -4.44 KCAL/MOL
REMARK 922        TOTAL FREE ENERGY PREDICTED BY IDOCK:   -5.65 KCAL/MOL
REMARK 923 INTER-LIGAND FREE ENERGY PREDICTED BY IDOCK:   -5.28 KCAL/MOL
REMARK 924 INTRA-LIGAND FREE ENERGY PREDICTED BY IDOCK:   -0.38 KCAL/MOL
REMARK 927      BINDING AFFINITY PREDICTED BY RF-SCORE:    0.00 PKD
ROOT
HETATM    1  C   UNK A   0      -7.454  13.868  67.380  1.00  0.00    -0.147 C  
HETATM    2  C   UNK A   0      -7.881  12.434  67.487  1.00  0.00    -0.169 C  
ATOM      3  N   TYR A   1      -8.215  11.823  66.305  1.00  0.00    -0.382 N  
HETATM    4  O   UNK A   0      -7.876  11.815  68.550  1.00  0.00    -0.137 OA 
ATOM      5  H   TYR A   1      -8.234  12.365  65.441  1.00  0.00     0.000 HD 
ENDROOT
BRANCH   3   6
ATOM      6  CA  TYR A   1      -8.545  10.392  66.279  1.00  0.00    -0.142 C  
ATOM      7  C   TYR A   1      -7.734   9.698  65.165  1.00  0.00    -0.117 C  
ATOM      8  O   TYR A   1      -6.403   9.642  65.432  1.00  0.00    -0.068 OA 
ATOM      9  OXT TYR A   1      -8.196   9.258  64.123  1.00  0.00    -0.140 OA 
BRANCH   6  10
ATOM     10  CB  TYR A   1     -10.061  10.166  66.115  1.00  0.00    -0.314 C  
BRANCH  10  11
ATOM     11  CG  TYR A   1     -10.803  11.273  65.399  1.00  0.00    -0.255 A  
ATOM     12  CD1 TYR A   1     -10.833  11.369  63.998  1.00  0.00    -0.450 A  
ATOM     13  CE1 TYR A   1     -11.413  12.475  63.370  1.00  0.00    -0.523 A  
ATOM     14  CZ  TYR A   1     -12.006  13.465  64.140  1.00  0.00    -0.450 A  
ATOM     15  CE2 TYR A   1     -12.069  13.347  65.521  1.00  0.00    -0.467 A  
ATOM     16  OH  TYR A   1     -12.528  14.586  63.567  1.00  0.00    -1.089 OA 
ATOM     17  HH  TYR A   1     -12.935  15.264  64.094  1.00  0.00     0.000 HD 
ATOM     18  CD2 TYR A   1     -11.470  12.253  66.149  1.00  0.00    -0.429 A  
ENDBRANCH  10  11
ENDBRANCH   6  10
ENDBRANCH   3   6
TORSDOF 3
ENDMDL
MODEL       72
REMARK 921   NORMALIZED FREE ENERGY PREDICTED BY IDOCK:   -4.41 KCAL/MOL
REMARK 922        TOTAL FREE ENERGY PREDICTED BY IDOCK:   -5.62 KCAL/MOL
REMARK 923 INTER-LIGAND FREE ENERGY PREDICTED BY IDOCK:   -5.23 KCAL/MOL
REMARK 924 INTRA-LIGAND FREE ENERGY PREDICTED BY IDOCK:   -0.39 KCAL/MOL
REMARK 927      BINDING AFFINITY PREDICTED BY RF-SCORE:    0.00 PKD
ROOT
HETATM    1  C   UNK A   0      -9.513  18.170  68.355  1.00  0.00    -0.327 C  
HETATM    2  C   UNK A   0      -9.635  16.693  68.121  1.00  0.00    -0.228 C  
ATOM      3  N   TYR A   1     -10.812  16.276  67.552  1.00  0.00    -0.303 N  
HETATM    4  O   UNK A   0      -8.723  15.903  68.358  1.00  0.00    -0.173 OA 
ATOM      5  H   TYR A   1     -11.562  16.948  67.387  1.00  0.00     0.000 HD 
ENDROOT
BRANCH   3   6
ATOM      6  CA  TYR A   1     -10.996  14.867  67.181  1.00  0.00    -0.323 C  
ATOM      7  C   TYR A   1     -11.269  14.767  65.666  1.00  0.00    -0.343 C  
ATOM      8  O   TYR A   1     -10.186  15.085  64.908  1.00  0.00    -0.357 OA 
ATOM      9  OXT TYR A   1     -12.339  14.466  65.157  1.00  0.00    -0.407 OA 
BRANCH   6  10
ATOM     10  CB  TYR A   1     -12.114  14.207  68.012  1.00  0.00    -0.303 C  
BRANCH  10  11
ATOM     11  CG  TYR A   1     -11.791  12.828  68.546  1.00  0.00    -0.345 A  
ATOM     12  CD1 TYR A   1     -11.303  11.802  67.722  1.00  0.00    -0.358 A  
ATOM     13  CE1 TYR A   1     -11.142  10.504  68.215  1.00  0.00    -0.340 A  
ATOM     14  CZ  TYR A   1     -11.423  10.240  69.548  1.00  0.00    -0.210 A  
ATOM     15  CE2 TYR A   1     -11.820  11.258  70.404  1.00  0.00    -0.443 A  
ATOM     16  OH  TYR A   1     -11.335   8.976  70.050  1.00  0.00    -0.393 OA 
ATOM     17  HH  TYR A   1     -11.528   8.795  70.963  1.00  0.00     0.000 HD 
ATOM     18  CD2 TYR A   1     -12.002  12.549  69.905  1.00  0.00    -0.371 A  
ENDBRANCH  10  11
ENDBRANCH   6  10
ENDBRANCH   3   6
TORSDOF 3
ENDMDL
MODEL       73
REMARK 921   NORMALIZED FREE ENERGY PREDICTED BY IDOCK:   -4.40 KCAL/MOL
REMARK 922        TOTAL FREE ENERGY PREDICTED BY IDOCK:   -5.61 KCAL/MOL
REMARK 923 INTER-LIGAND FREE ENERGY PREDICTED BY IDOCK:   -5.16 KCAL/MOL
REMARK 924 INTRA-LIGAND FREE ENERGY PREDICTED BY IDOCK:   -0.45 KCAL/MOL
REMARK 927      BINDING AFFINITY PREDICTED BY RF-SCORE:    0.00 PKD
ROOT
HETATM    1  C   UNK A   0      -7.317  13.944  69.046  1.00  0.00    -0.055 C  
HETATM    2  C   UNK A   0      -8.192  15.146  69.245  1.00  0.00    -0.216 C  
ATOM      3  N   TYR A   1      -9.543  14.905  69.250  1.00  0.00    -0.361 N  
HETATM    4  O   UNK A   0      -7.742  16.271  69.454  1.00  0.00    -0.231 OA 
ATOM      5  H   TYR A   1      -9.891  13.967  69.050  1.00  0.00     0.000 HD 
ENDROOT
BRANCH   3   6
ATOM      6  CA  TYR A   1     -10.488  15.990  69.541  1.00  0.00    -0.286 C  
ATOM      7  C   TYR A   1     -11.570  15.480  70.516  1.00  0.00    -0.346 C  
ATOM      8  O   TYR A   1     -11.088  15.228  71.761  1.00  0.00    -0.362 OA 
ATOM      9  OXT TYR A   1     -12.742  15.282  70.231  1.00  0.00    -0.366 OA 
BRANCH   6  10
ATOM     10  CB  TYR A   1     -11.101  16.566  68.250  1.00  0.00    -0.321 C  
BRANCH  10  11
ATOM     11  CG  TYR A   1     -10.301  17.670  67.593  1.00  0.00    -0.368 A  
ATOM     12  CD1 TYR A   1      -9.320  17.407  66.623  1.00  0.00    -0.279 A  
ATOM     13  CE1 TYR A   1      -8.507  18.432  66.133  1.00  0.00    -0.145 A  
ATOM     14  CZ  TYR A   1      -8.704  19.733  66.577  1.00  0.00    -0.360 A  
ATOM     15  CE2 TYR A   1      -9.727  20.030  67.467  1.00  0.00    -0.539 A  
ATOM     16  OH  TYR A   1      -7.892  20.748  66.168  1.00  0.00    -0.486 OA 
ATOM     17  HH  TYR A   1      -8.027  21.638  66.473  1.00  0.00     0.000 HD 
ATOM     18  CD2 TYR A   1     -10.524  19.001  67.972  1.00  0.00    -0.436 A  
ENDBRANCH  10  11
ENDBRANCH   6  10
ENDBRANCH   3   6
TORSDOF 3
ENDMDL
MODEL       74
REMARK 921   NORMALIZED FREE ENERGY PREDICTED BY IDOCK:   -4.40 KCAL/MOL
REMARK 922        TOTAL FREE ENERGY PREDICTED BY IDOCK:   -5.60 KCAL/MOL
REMARK 923 INTER-LIGAND FREE ENERGY PREDICTED BY IDOCK:   -5.17 KCAL/MOL
REMARK 924 INTRA-LIGAND FREE ENERGY PREDICTED BY IDOCK:   -0.44 KCAL/MOL
REMARK 927      BINDING AFFINITY PREDICTED BY RF-SCORE:    0.00 PKD
ROOT
HETATM    1  C   UNK A   0      -8.504   8.766  62.352  1.00  0.00    -0.204 C  
HETATM    2  C   UNK A   0      -8.643   9.965  63.243  1.00  0.00    -0.204 C  
ATOM      3  N   TYR A   1      -8.959   9.700  64.552  1.00  0.00    -0.228 N  
HETATM    4  O   UNK A   0      -8.427  11.112  62.855  1.00  0.00    -0.115 OA 
ATOM      5  H   TYR A   1      -9.156   8.743  64.843  1.00  0.00     0.000 HD 
ENDROOT
BRANCH   3   6
ATOM      6  CA  TYR A   1      -9.015  10.791  65.535  1.00  0.00    -0.193 C  
ATOM      7  C   TYR A   1      -8.159  10.417  66.763  1.00  0.00    -0.120 C  
ATOM      8  O   TYR A   1      -6.827  10.391  66.496  1.00  0.00    -0.094 OA 
ATOM      9  OXT TYR A   1      -8.595  10.140  67.871  1.00  0.00    -0.118 OA 
BRANCH   6  10
ATOM     10  CB  TYR A   1     -10.468  11.124  65.924  1.00  0.00    -0.310 C  
BRANCH  10  11
ATOM     11  CG  TYR A   1     -10.974  12.465  65.439  1.00  0.00    -0.335 A  
ATOM     12  CD1 TYR A   1     -12.145  12.590  64.674  1.00  0.00    -0.496 A  
ATOM     13  CE1 TYR A   1     -12.513  13.823  64.128  1.00  0.00    -0.293 A  
ATOM     14  CZ  TYR A   1     -11.736  14.944  64.384  1.00  0.00    -0.328 A  
ATOM     15  CE2 TYR A   1     -10.625  14.862  65.211  1.00  0.00    -0.421 A  
ATOM     16  OH  TYR A   1     -12.030  16.150  63.821  1.00  0.00    -1.394 OA 
ATOM     17  HH  TYR A   1     -11.498  16.917  63.996  1.00  0.00     0.000 HD 
ATOM     18  CD2 TYR A   1     -10.245  13.626  65.738  1.00  0.00    -0.317 A  
ENDBRANCH  10  11
ENDBRANCH   6  10
ENDBRANCH   3   6
TORSDOF 3
ENDMDL
MODEL       75
REMARK 921   NORMALIZED FREE ENERGY PREDICTED BY IDOCK:   -4.40 KCAL/MOL
REMARK 922        TOTAL FREE ENERGY PREDICTED BY IDOCK:   -5.60 KCAL/MOL
REMARK 923 INTER-LIGAND FREE ENERGY PREDICTED BY IDOCK:   -5.18 KCAL/MOL
REMARK 924 INTRA-LIGAND FREE ENERGY PREDICTED BY IDOCK:   -0.42 KCAL/MOL
REMARK 927      BINDING AFFINITY PREDICTED BY RF-SCORE:    0.00 PKD
ROOT
HETATM    1  C   UNK A   0     -10.615   5.845  67.341  1.00  0.00    -0.356 C  
HETATM    2  C   UNK A   0     -10.476   6.596  68.633  1.00  0.00    -0.211 C  
ATOM      3  N   TYR A   1     -11.397   6.290  69.602  1.00  0.00    -0.442 N  
HETATM    4  O   UNK A   0      -9.562   7.391  68.846  1.00  0.00    -0.148 OA 
ATOM      5  H   TYR A   1     -12.159   5.644  69.392  1.00  0.00     0.000 HD 
ENDROOT
BRANCH   3   6
ATOM      6  CA  TYR A   1     -11.291   6.887  70.940  1.00  0.00    -0.304 C  
ATOM      7  C   TYR A   1     -10.967   5.784  71.969  1.00  0.00    -0.260 C  
ATOM      8  O   TYR A   1      -9.717   5.271  71.824  1.00  0.00    -0.150 OA 
ATOM      9  OXT TYR A   1     -11.735   5.365  72.822  1.00  0.00    -0.295 OA 
BRANCH   6  10
ATOM     10  CB  TYR A   1     -12.567   7.666  71.312  1.00  0.00    -0.316 C  
BRANCH  10  11
ATOM     11  CG  TYR A   1     -12.458   9.171  71.200  1.00  0.00    -0.315 A  
ATOM     12  CD1 TYR A   1     -13.195  10.037  72.023  1.00  0.00    -0.545 A  
ATOM     13  CE1 TYR A   1     -13.175  11.418  71.808  1.00  0.00    -0.472 A  
ATOM     14  CZ  TYR A   1     -12.381  11.941  70.796  1.00  0.00    -0.320 A  
ATOM     15  CE2 TYR A   1     -11.575  11.112  70.029  1.00  0.00    -0.421 A  
ATOM     16  OH  TYR A   1     -12.382  13.275  70.517  1.00  0.00    -0.342 OA 
ATOM     17  HH  TYR A   1     -11.838  13.632  69.824  1.00  0.00     0.000 HD 
ATOM     18  CD2 TYR A   1     -11.612   9.731  70.231  1.00  0.00    -0.283 A  
ENDBRANCH  10  11
ENDBRANCH   6  10
ENDBRANCH   3   6
TORSDOF 3
ENDMDL
MODEL       76
REMARK 921   NORMALIZED FREE ENERGY PREDICTED BY IDOCK:   -4.39 KCAL/MOL
REMARK 922        TOTAL FREE ENERGY PREDICTED BY IDOCK:   -5.60 KCAL/MOL
REMARK 923 INTER-LIGAND FREE ENERGY PREDICTED BY IDOCK:   -5.25 KCAL/MOL
REMARK 924 INTRA-LIGAND FREE ENERGY PREDICTED BY IDOCK:   -0.35 KCAL/MOL
REMARK 927      BINDING AFFINITY PREDICTED BY RF-SCORE:    0.00 PKD
ROOT
HETATM    1  C   UNK A   0     -14.408   8.819  71.867  1.00  0.00    -0.441 C  
HETATM    2  C   UNK A   0     -13.213   9.695  71.632  1.00  0.00    -0.411 C  
ATOM      3  N   TYR A   1     -12.289   9.214  70.739  1.00  0.00    -0.488 N  
HETATM    4  O   UNK A   0     -13.086  10.803  72.150  1.00  0.00    -0.460 OA 
ATOM      5  H   TYR A   1     -12.405   8.282  70.341  1.00  0.00     0.000 HD 
ENDROOT
BRANCH   3   6
ATOM      6  CA  TYR A   1     -11.134  10.035  70.354  1.00  0.00    -0.327 C  
ATOM      7  C   TYR A   1     -11.118  10.211  68.821  1.00  0.00    -0.203 C  
ATOM      8  O   TYR A   1     -12.137  10.984  68.363  1.00  0.00    -0.594 OA 
ATOM      9  OXT TYR A   1     -10.308   9.702  68.060  1.00  0.00    -0.193 OA 
BRANCH   6  10
ATOM     10  CB  TYR A   1      -9.815   9.435  70.880  1.00  0.00    -0.338 C  
BRANCH  10  11
ATOM     11  CG  TYR A   1      -9.946   8.090  71.561  1.00  0.00    -0.225 A  
ATOM     12  CD1 TYR A   1      -9.991   6.887  70.838  1.00  0.00    -0.200 A  
ATOM     13  CE1 TYR A   1     -10.246   5.674  71.484  1.00  0.00    -0.263 A  
ATOM     14  CZ  TYR A   1     -10.410   5.655  72.862  1.00  0.00    -0.195 A  
ATOM     15  CE2 TYR A   1     -10.279   6.819  73.608  1.00  0.00    -0.354 A  
ATOM     16  OH  TYR A   1     -10.719   4.502  73.520  1.00  0.00    -0.204 OA 
ATOM     17  HH  TYR A   1     -10.832   4.489  74.463  1.00  0.00     0.000 HD 
ATOM     18  CD2 TYR A   1     -10.046   8.033  72.959  1.00  0.00    -0.351 A  
ENDBRANCH  10  11
ENDBRANCH   6  10
ENDBRANCH   3   6
TORSDOF 3
ENDMDL
MODEL       77
REMARK 921   NORMALIZED FREE ENERGY PREDICTED BY IDOCK:   -4.35 KCAL/MOL
REMARK 922        TOTAL FREE ENERGY PREDICTED BY IDOCK:   -5.54 KCAL/MOL
REMARK 923 INTER-LIGAND FREE ENERGY PREDICTED BY IDOCK:   -5.12 KCAL/MOL
REMARK 924 INTRA-LIGAND FREE ENERGY PREDICTED BY IDOCK:   -0.42 KCAL/MOL
REMARK 927      BINDING AFFINITY PREDICTED BY RF-SCORE:    0.00 PKD
ROOT
HETATM    1  C   UNK A   0      -9.951  11.568  63.123  1.00  0.00    -0.404 C  
HETATM    2  C   UNK A   0     -10.615  12.225  64.297  1.00  0.00    -0.354 C  
ATOM      3  N   TYR A   1      -9.795  12.973  65.104  1.00  0.00    -0.509 N  
HETATM    4  O   UNK A   0     -11.826  12.161  64.500  1.00  0.00    -0.362 OA 
ATOM      5  H   TYR A   1      -8.790  12.991  64.928  1.00  0.00     0.000 HD 
ENDROOT
BRANCH   3   6
ATOM      6  CA  TYR A   1     -10.357  13.746  66.219  1.00  0.00    -0.294 C  
ATOM      7  C   TYR A   1     -10.244  15.252  65.906  1.00  0.00    -0.332 C  
ATOM      8  O   TYR A   1     -11.059  15.648  64.893  1.00  0.00    -0.411 OA 
ATOM      9  OXT TYR A   1      -9.494  16.037  66.467  1.00  0.00    -0.235 OA 
BRANCH   6  10
ATOM     10  CB  TYR A   1      -9.680  13.382  67.555  1.00  0.00    -0.224 C  
BRANCH  10  11
ATOM     11  CG  TYR A   1     -10.393  12.327  68.372  1.00  0.00    -0.231 A  
ATOM     12  CD1 TYR A   1     -11.587  12.595  69.060  1.00  0.00    -0.367 A  
ATOM     13  CE1 TYR A   1     -12.150  11.642  69.913  1.00  0.00    -0.373 A  
ATOM     14  CZ  TYR A   1     -11.545  10.399  70.045  1.00  0.00    -0.301 A  
ATOM     15  CE2 TYR A   1     -10.415  10.080  69.305  1.00  0.00    -0.245 A  
ATOM     16  OH  TYR A   1     -12.030   9.467  70.911  1.00  0.00    -0.288 OA 
ATOM     17  HH  TYR A   1     -11.616   8.616  71.001  1.00  0.00     0.000 HD 
ATOM     18  CD2 TYR A   1      -9.841  11.041  68.470  1.00  0.00    -0.194 A  
ENDBRANCH  10  11
ENDBRANCH   6  10
ENDBRANCH   3   6
TORSDOF 3
ENDMDL
MODEL       78
REMARK 921   NORMALIZED FREE ENERGY PREDICTED BY IDOCK:   -4.34 KCAL/MOL
REMARK 922        TOTAL FREE ENERGY PREDICTED BY IDOCK:   -5.54 KCAL/MOL
REMARK 923 INTER-LIGAND FREE ENERGY PREDICTED BY IDOCK:   -5.05 KCAL/MOL
REMARK 924 INTRA-LIGAND FREE ENERGY PREDICTED BY IDOCK:   -0.48 KCAL/MOL
REMARK 927      BINDING AFFINITY PREDICTED BY RF-SCORE:    0.00 PKD
ROOT
HETATM    1  C   UNK A   0      -6.985  14.455  68.959  1.00  0.00    -0.114 C  
HETATM    2  C   UNK A   0      -7.962  15.218  68.114  1.00  0.00    -0.128 C  
ATOM      3  N   TYR A   1      -8.791  16.077  68.791  1.00  0.00    -0.213 N  
HETATM    4  O   UNK A   0      -7.988  15.138  66.887  1.00  0.00    -0.211 OA 
ATOM      5  H   TYR A   1      -8.766  16.107  69.811  1.00  0.00     0.000 HD 
ENDROOT
BRANCH   3   6
ATOM      6  CA  TYR A   1      -9.713  16.951  68.055  1.00  0.00    -0.256 C  
ATOM      7  C   TYR A   1      -9.366  18.426  68.349  1.00  0.00    -0.329 C  
ATOM      8  O   TYR A   1      -8.177  18.810  67.814  1.00  0.00    -0.257 OA 
ATOM      9  OXT TYR A   1     -10.047  19.194  69.013  1.00  0.00    -0.414 OA 
BRANCH   6  10
ATOM     10  CB  TYR A   1     -11.183  16.628  68.387  1.00  0.00    -0.239 C  
BRANCH  10  11
ATOM     11  CG  TYR A   1     -11.542  15.158  68.355  1.00  0.00    -0.356 A  
ATOM     12  CD1 TYR A   1     -11.684  14.398  69.527  1.00  0.00    -0.362 A  
ATOM     13  CE1 TYR A   1     -11.885  13.016  69.463  1.00  0.00    -0.385 A  
ATOM     14  CZ  TYR A   1     -11.989  12.397  68.225  1.00  0.00    -0.214 A  
ATOM     15  CE2 TYR A   1     -11.942  13.142  67.054  1.00  0.00    -0.412 A  
ATOM     16  OH  TYR A   1     -12.125  11.045  68.122  1.00  0.00    -0.743 OA 
ATOM     17  HH  TYR A   1     -12.196  10.622  67.274  1.00  0.00     0.000 HD 
ATOM     18  CD2 TYR A   1     -11.721  14.519  67.120  1.00  0.00    -0.420 A  
ENDBRANCH  10  11
ENDBRANCH   6  10
ENDBRANCH   3   6
TORSDOF 3
ENDMDL
MODEL       79
REMARK 921   NORMALIZED FREE ENERGY PREDICTED BY IDOCK:   -4.29 KCAL/MOL
REMARK 922        TOTAL FREE ENERGY PREDICTED BY IDOCK:   -5.48 KCAL/MOL
REMARK 923 INTER-LIGAND FREE ENERGY PREDICTED BY IDOCK:   -5.34 KCAL/MOL
REMARK 924 INTRA-LIGAND FREE ENERGY PREDICTED BY IDOCK:   -0.14 KCAL/MOL
REMARK 927      BINDING AFFINITY PREDICTED BY RF-SCORE:    0.00 PKD
ROOT
HETATM    1  C   UNK A   0     -12.143  13.331  63.334  1.00  0.00    -0.508 C  
HETATM    2  C   UNK A   0     -11.081  12.912  64.307  1.00  0.00    -0.378 C  
ATOM      3  N   TYR A   1     -11.312  13.240  65.619  1.00  0.00    -0.300 N  
HETATM    4  O   UNK A   0     -10.092  12.260  63.974  1.00  0.00    -0.340 OA 
ATOM      5  H   TYR A   1     -12.128  13.802  65.865  1.00  0.00     0.000 HD 
ENDROOT
BRANCH   3   6
ATOM      6  CA  TYR A   1     -10.391  12.787  66.669  1.00  0.00    -0.242 C  
ATOM      7  C   TYR A   1     -11.201  12.331  67.900  1.00  0.00    -0.274 C  
ATOM      8  O   TYR A   1     -11.908  11.192  67.680  1.00  0.00    -0.612 OA 
ATOM      9  OXT TYR A   1     -11.253  12.920  68.970  1.00  0.00    -0.257 OA 
BRANCH   6  10
ATOM     10  CB  TYR A   1      -9.364  13.879  67.027  1.00  0.00    -0.255 C  
BRANCH  10  11
ATOM     11  CG  TYR A   1      -9.886  15.298  66.971  1.00  0.00    -0.233 A  
ATOM     12  CD1 TYR A   1      -9.872  16.054  65.789  1.00  0.00    -0.357 A  
ATOM     13  CE1 TYR A   1     -10.236  17.404  65.799  1.00  0.00    -0.204 A  
ATOM     14  CZ  TYR A   1     -10.660  17.989  66.984  1.00  0.00    -0.308 A  
ATOM     15  CE2 TYR A   1     -10.768  17.238  68.146  1.00  0.00    -0.363 A  
ATOM     16  OH  TYR A   1     -10.965  19.316  67.046  1.00  0.00    -0.454 OA 
ATOM     17  HH  TYR A   1     -11.255  19.716  67.857  1.00  0.00     0.000 HD 
ATOM     18  CD2 TYR A   1     -10.383  15.895  68.139  1.00  0.00    -0.256 A  
ENDBRANCH  10  11
ENDBRANCH   6  10
ENDBRANCH   3   6
TORSDOF 3
ENDMDL
MODEL       80
REMARK 921   NORMALIZED FREE ENERGY PREDICTED BY IDOCK:   -4.28 KCAL/MOL
REMARK 922        TOTAL FREE ENERGY PREDICTED BY IDOCK:   -5.46 KCAL/MOL
REMARK 923 INTER-LIGAND FREE ENERGY PREDICTED BY IDOCK:   -4.99 KCAL/MOL
REMARK 924 INTRA-LIGAND FREE ENERGY PREDICTED BY IDOCK:   -0.48 KCAL/MOL
REMARK 927      BINDING AFFINITY PREDICTED BY RF-SCORE:    0.00 PKD
ROOT
HETATM    1  C   UNK A   0     -12.076  10.474  70.359  1.00  0.00    -0.418 C  
HETATM    2  C   UNK A   0     -11.210  11.062  69.283  1.00  0.00    -0.257 C  
ATOM      3  N   TYR A   1     -11.818  11.982  68.467  1.00  0.00    -0.330 N  
HETATM    4  O   UNK A   0     -10.016  10.794  69.168  1.00  0.00    -0.208 OA 
ATOM      5  H   TYR A   1     -12.816  12.170  68.569  1.00  0.00     0.000 HD 
ENDROOT
BRANCH   3   6
ATOM      6  CA  TYR A   1     -11.038  12.699  67.449  1.00  0.00    -0.273 C  
ATOM      7  C   TYR A   1     -11.005  14.202  67.794  1.00  0.00    -0.262 C  
ATOM      8  O   TYR A   1     -10.275  14.478  68.906  1.00  0.00    -0.231 OA 
ATOM      9  OXT TYR A   1     -11.584  15.083  67.174  1.00  0.00    -0.342 OA 
BRANCH   6  10
ATOM     10  CB  TYR A   1     -11.591  12.443  66.034  1.00  0.00    -0.455 C  
BRANCH  10  11
ATOM     11  CG  TYR A   1     -10.748  11.532  65.168  1.00  0.00    -0.348 A  
ATOM     12  CD1 TYR A   1      -9.954  10.509  65.711  1.00  0.00    -0.318 A  
ATOM     13  CE1 TYR A   1      -9.086   9.772  64.901  1.00  0.00    -0.278 A  
ATOM     14  CZ  TYR A   1      -9.044  10.024  63.536  1.00  0.00    -0.272 A  
ATOM     15  CE2 TYR A   1      -9.886  10.968  62.964  1.00  0.00    -0.370 A  
ATOM     16  OH  TYR A   1      -8.168   9.368  62.724  1.00  0.00    -0.142 OA 
ATOM     17  HH  TYR A   1      -8.140   9.541  61.790  1.00  0.00     0.000 HD 
ATOM     18  CD2 TYR A   1     -10.737  11.718  63.778  1.00  0.00    -0.480 A  
ENDBRANCH  10  11
ENDBRANCH   6  10
ENDBRANCH   3   6
TORSDOF 3
ENDMDL
MODEL       81
REMARK 921   NORMALIZED FREE ENERGY PREDICTED BY IDOCK:   -4.27 KCAL/MOL
REMARK 922        TOTAL FREE ENERGY PREDICTED BY IDOCK:   -5.46 KCAL/MOL
REMARK 923 INTER-LIGAND FREE ENERGY PREDICTED BY IDOCK:   -5.02 KCAL/MOL
REMARK 924 INTRA-LIGAND FREE ENERGY PREDICTED BY IDOCK:   -0.44 KCAL/MOL
REMARK 927      BINDING AFFINITY PREDICTED BY RF-SCORE:    0.00 PKD
ROOT
HETATM    1  C   UNK A   0      -8.095   6.514  65.790  1.00  0.00    -0.128 C  
HETATM    2  C   UNK A   0      -8.416   7.936  65.433  1.00  0.00    -0.119 C  
ATOM      3  N   TYR A   1      -8.802   8.739  66.476  1.00  0.00    -0.126 N  
HETATM    4  O   UNK A   0      -8.284   8.383  64.295  1.00  0.00    -0.159 OA 
ATOM      5  H   TYR A   1      -8.927   8.337  67.406  1.00  0.00     0.000 HD 
ENDROOT
BRANCH   3   6
ATOM      6  CA  TYR A   1      -9.038  10.172  66.260  1.00  0.00    -0.154 C  
ATOM      7  C   TYR A   1      -7.958  10.987  67.002  1.00  0.00    -0.137 C  
ATOM      8  O   TYR A   1      -6.720  10.852  66.456  1.00  0.00    -0.115 OA 
ATOM      9  OXT TYR A   1      -8.147  11.671  67.997  1.00  0.00    -0.124 OA 
BRANCH   6  10
ATOM     10  CB  TYR A   1     -10.461  10.580  66.685  1.00  0.00    -0.290 C  
BRANCH  10  11
ATOM     11  CG  TYR A   1     -11.123  11.620  65.807  1.00  0.00    -0.313 A  
ATOM     12  CD1 TYR A   1     -10.987  11.615  64.410  1.00  0.00    -0.399 A  
ATOM     13  CE1 TYR A   1     -11.498  12.662  63.638  1.00  0.00    -0.563 A  
ATOM     14  CZ  TYR A   1     -12.188  13.695  64.258  1.00  0.00    -0.396 A  
ATOM     15  CE2 TYR A   1     -12.414  13.674  65.628  1.00  0.00    -0.540 A  
ATOM     16  OH  TYR A   1     -12.649  14.762  63.547  1.00  0.00    -0.990 OA 
ATOM     17  HH  TYR A   1     -13.121  15.469  63.972  1.00  0.00     0.000 HD 
ATOM     18  CD2 TYR A   1     -11.884  12.638  66.400  1.00  0.00    -0.466 A  
ENDBRANCH  10  11
ENDBRANCH   6  10
ENDBRANCH   3   6
TORSDOF 3
ENDMDL
MODEL       82
REMARK 921   NORMALIZED FREE ENERGY PREDICTED BY IDOCK:   -4.27 KCAL/MOL
REMARK 922        TOTAL FREE ENERGY PREDICTED BY IDOCK:   -5.45 KCAL/MOL
REMARK 923 INTER-LIGAND FREE ENERGY PREDICTED BY IDOCK:   -5.17 KCAL/MOL
REMARK 924 INTRA-LIGAND FREE ENERGY PREDICTED BY IDOCK:   -0.28 KCAL/MOL
REMARK 927      BINDING AFFINITY PREDICTED BY RF-SCORE:    0.00 PKD
ROOT
HETATM    1  C   UNK A   0      -8.084   9.439  70.622  1.00  0.00    -0.197 C  
HETATM    2  C   UNK A   0      -9.463   9.783  70.140  1.00  0.00    -0.229 C  
ATOM      3  N   TYR A   1      -9.549  10.870  69.308  1.00  0.00    -0.407 N  
HETATM    4  O   UNK A   0     -10.453   9.105  70.413  1.00  0.00    -0.196 OA 
ATOM      5  H   TYR A   1      -8.717  11.429  69.116  1.00  0.00     0.000 HD 
ENDROOT
BRANCH   3   6
ATOM      6  CA  TYR A   1     -10.832  11.232  68.692  1.00  0.00    -0.204 C  
ATOM      7  C   TYR A   1     -10.925  10.596  67.289  1.00  0.00    -0.284 C  
ATOM      8  O   TYR A   1     -11.039   9.242  67.325  1.00  0.00    -0.054 OA 
ATOM      9  OXT TYR A   1     -10.877  11.206  66.231  1.00  0.00    -0.263 OA 
BRANCH   6  10
ATOM     10  CB  TYR A   1     -11.024  12.760  68.646  1.00  0.00    -0.295 C  
BRANCH  10  11
ATOM     11  CG  TYR A   1     -11.867  13.338  69.762  1.00  0.00    -0.394 A  
ATOM     12  CD1 TYR A   1     -12.127  14.714  69.866  1.00  0.00    -0.385 A  
ATOM     13  CE1 TYR A   1     -12.796  15.232  70.979  1.00  0.00    -0.505 A  
ATOM     14  CZ  TYR A   1     -13.246  14.370  71.969  1.00  0.00    -0.369 A  
ATOM     15  CE2 TYR A   1     -13.080  12.997  71.843  1.00  0.00    -0.483 A  
ATOM     16  OH  TYR A   1     -13.848  14.843  73.096  1.00  0.00    -0.532 OA 
ATOM     17  HH  TYR A   1     -14.156  14.252  73.774  1.00  0.00     0.000 HD 
ATOM     18  CD2 TYR A   1     -12.393  12.483  70.741  1.00  0.00    -0.376 A  
ENDBRANCH  10  11
ENDBRANCH   6  10
ENDBRANCH   3   6
TORSDOF 3
ENDMDL
MODEL       83
REMARK 921   NORMALIZED FREE ENERGY PREDICTED BY IDOCK:   -4.26 KCAL/MOL
REMARK 922        TOTAL FREE ENERGY PREDICTED BY IDOCK:   -5.45 KCAL/MOL
REMARK 923 INTER-LIGAND FREE ENERGY PREDICTED BY IDOCK:   -5.22 KCAL/MOL
REMARK 924 INTRA-LIGAND FREE ENERGY PREDICTED BY IDOCK:   -0.23 KCAL/MOL
REMARK 927      BINDING AFFINITY PREDICTED BY RF-SCORE:    0.00 PKD
ROOT
HETATM    1  C   UNK A   0     -10.480  19.663  66.041  1.00  0.00    -0.622 C  
HETATM    2  C   UNK A   0     -10.620  18.171  65.963  1.00  0.00    -0.264 C  
ATOM      3  N   TYR A   1     -10.394  17.491  67.133  1.00  0.00    -0.329 N  
HETATM    4  O   UNK A   0     -10.976  17.587  64.941  1.00  0.00    -0.887 OA 
ATOM      5  H   TYR A   1     -10.077  17.996  67.961  1.00  0.00     0.000 HD 
ENDROOT
BRANCH   3   6
ATOM      6  CA  TYR A   1     -10.607  16.039  67.198  1.00  0.00    -0.305 C  
ATOM      7  C   TYR A   1     -10.965  15.638  68.644  1.00  0.00    -0.294 C  
ATOM      8  O   TYR A   1     -12.187  16.087  69.034  1.00  0.00    -0.205 OA 
ATOM      9  OXT TYR A   1     -10.243  15.008  69.403  1.00  0.00    -0.234 OA 
BRANCH   6  10
ATOM     10  CB  TYR A   1      -9.382  15.266  66.672  1.00  0.00    -0.285 C  
BRANCH  10  11
ATOM     11  CG  TYR A   1      -9.594  13.780  66.475  1.00  0.00    -0.295 A  
ATOM     12  CD1 TYR A   1     -10.710  13.268  65.794  1.00  0.00    -0.286 A  
ATOM     13  CE1 TYR A   1     -10.947  11.891  65.744  1.00  0.00    -0.359 A  
ATOM     14  CZ  TYR A   1     -10.042  11.020  66.335  1.00  0.00    -0.229 A  
ATOM     15  CE2 TYR A   1      -8.886  11.499  66.934  1.00  0.00    -0.182 A  
ATOM     16  OH  TYR A   1     -10.270   9.677  66.358  1.00  0.00    -0.247 OA 
ATOM     17  HH  TYR A   1      -9.651   9.080  66.763  1.00  0.00     0.000 HD 
ATOM     18  CD2 TYR A   1      -8.661  12.875  67.003  1.00  0.00    -0.195 A  
ENDBRANCH  10  11
ENDBRANCH   6  10
ENDBRANCH   3   6
TORSDOF 3
ENDMDL
MODEL       84
REMARK 921   NORMALIZED FREE ENERGY PREDICTED BY IDOCK:   -4.26 KCAL/MOL
REMARK 922        TOTAL FREE ENERGY PREDICTED BY IDOCK:   -5.44 KCAL/MOL
REMARK 923 INTER-LIGAND FREE ENERGY PREDICTED BY IDOCK:   -4.97 KCAL/MOL
REMARK 924 INTRA-LIGAND FREE ENERGY PREDICTED BY IDOCK:   -0.48 KCAL/MOL
REMARK 927      BINDING AFFINITY PREDICTED BY RF-SCORE:    0.00 PKD
ROOT
HETATM    1  C   UNK A   0     -11.960  13.358  69.842  1.00  0.00    -0.408 C  
HETATM    2  C   UNK A   0     -12.011  11.870  69.658  1.00  0.00    -0.298 C  
ATOM      3  N   TYR A   1     -11.531  11.124  70.705  1.00  0.00    -0.398 N  
HETATM    4  O   UNK A   0     -12.507  11.337  68.667  1.00  0.00    -0.442 OA 
ATOM      5  H   TYR A   1     -11.103  11.590  71.505  1.00  0.00     0.000 HD 
ENDROOT
BRANCH   3   6
ATOM      6  CA  TYR A   1     -11.630   9.659  70.677  1.00  0.00    -0.299 C  
ATOM      7  C   TYR A   1     -12.052   9.147  72.070  1.00  0.00    -0.361 C  
ATOM      8  O   TYR A   1     -13.330   9.477  72.393  1.00  0.00    -0.446 OA 
ATOM      9  OXT TYR A   1     -11.335   8.531  72.845  1.00  0.00    -0.178 OA 
BRANCH   6  10
ATOM     10  CB  TYR A   1     -10.314   9.014  70.201  1.00  0.00    -0.237 C  
BRANCH  10  11
ATOM     11  CG  TYR A   1     -10.445   8.078  69.019  1.00  0.00    -0.212 A  
ATOM     12  CD1 TYR A   1     -10.593   8.549  67.705  1.00  0.00    -0.268 A  
ATOM     13  CE1 TYR A   1     -10.846   7.665  66.653  1.00  0.00     0.247 A  
ATOM     14  CZ  TYR A   1     -10.905   6.301  66.905  1.00  0.00    -0.354 A  
ATOM     15  CE2 TYR A   1     -10.672   5.806  68.180  1.00  0.00    -0.288 A  
ATOM     16  OH  TYR A   1     -11.208   5.414  65.916  1.00  0.00    -0.779 OA 
ATOM     17  HH  TYR A   1     -11.249   4.480  66.089  1.00  0.00     0.000 HD 
ATOM     18  CD2 TYR A   1     -10.441   6.692  69.234  1.00  0.00    -0.247 A  
ENDBRANCH  10  11
ENDBRANCH   6  10
ENDBRANCH   3   6
TORSDOF 3
ENDMDL
MODEL       85
REMARK 921   NORMALIZED FREE ENERGY PREDICTED BY IDOCK:   -4.25 KCAL/MOL
REMARK 922        TOTAL FREE ENERGY PREDICTED BY IDOCK:   -5.43 KCAL/MOL
REMARK 923 INTER-LIGAND FREE ENERGY PREDICTED BY IDOCK:   -5.19 KCAL/MOL
REMARK 924 INTRA-LIGAND FREE ENERGY PREDICTED BY IDOCK:   -0.25 KCAL/MOL
REMARK 927      BINDING AFFINITY PREDICTED BY RF-SCORE:    0.00 PKD
ROOT
HETATM    1  C   UNK A   0     -12.502  12.156  63.589  1.00  0.00    -0.658 C  
HETATM    2  C   UNK A   0     -11.110  11.852  64.061  1.00  0.00    -0.391 C  
ATOM      3  N   TYR A   1     -10.945  11.783  65.421  1.00  0.00    -0.305 N  
HETATM    4  O   UNK A   0     -10.182  11.613  63.289  1.00  0.00    -0.386 OA 
ATOM      5  H   TYR A   1     -11.724  12.008  66.039  1.00  0.00     0.000 HD 
ENDROOT
BRANCH   3   6
ATOM      6  CA  TYR A   1      -9.650  11.387  65.990  1.00  0.00    -0.221 C  
ATOM      7  C   TYR A   1      -9.756   9.958  66.562  1.00  0.00    -0.204 C  
ATOM      8  O   TYR A   1      -9.907   9.010  65.601  1.00  0.00    -0.227 OA 
ATOM      9  OXT TYR A   1      -9.741   9.669  67.750  1.00  0.00    -0.141 OA 
BRANCH   6  10
ATOM     10  CB  TYR A   1      -9.167  12.398  67.048  1.00  0.00    -0.208 C  
BRANCH  10  11
ATOM     11  CG  TYR A   1     -10.265  13.133  67.786  1.00  0.00    -0.231 A  
ATOM     12  CD1 TYR A   1     -10.613  14.458  67.481  1.00  0.00    -0.265 A  
ATOM     13  CE1 TYR A   1     -11.537  15.153  68.266  1.00  0.00    -0.357 A  
ATOM     14  CZ  TYR A   1     -12.151  14.509  69.331  1.00  0.00    -0.290 A  
ATOM     15  CE2 TYR A   1     -11.890  13.172  69.596  1.00  0.00    -0.390 A  
ATOM     16  OH  TYR A   1     -13.011  15.171  70.155  1.00  0.00    -0.618 OA 
ATOM     17  HH  TYR A   1     -13.431  14.730  70.885  1.00  0.00     0.000 HD 
ATOM     18  CD2 TYR A   1     -10.950  12.485  68.824  1.00  0.00    -0.294 A  
ENDBRANCH  10  11
ENDBRANCH   6  10
ENDBRANCH   3   6
TORSDOF 3
ENDMDL
MODEL       86
REMARK 921   NORMALIZED FREE ENERGY PREDICTED BY IDOCK:   -4.24 KCAL/MOL
REMARK 922        TOTAL FREE ENERGY PREDICTED BY IDOCK:   -5.41 KCAL/MOL
REMARK 923 INTER-LIGAND FREE ENERGY PREDICTED BY IDOCK:   -4.99 KCAL/MOL
REMARK 924 INTRA-LIGAND FREE ENERGY PREDICTED BY IDOCK:   -0.42 KCAL/MOL
REMARK 927      BINDING AFFINITY PREDICTED BY RF-SCORE:    0.00 PKD
ROOT
HETATM    1  C   UNK A   0     -13.073  15.435  70.736  1.00  0.00    -0.479 C  
HETATM    2  C   UNK A   0     -11.804  15.414  69.935  1.00  0.00    -0.350 C  
ATOM      3  N   TYR A   1     -11.927  15.770  68.616  1.00  0.00    -0.518 N  
HETATM    4  O   UNK A   0     -10.708  15.160  70.431  1.00  0.00    -0.256 OA 
ATOM      5  H   TYR A   1     -12.851  15.953  68.224  1.00  0.00     0.000 HD 
ENDROOT
BRANCH   3   6
ATOM      6  CA  TYR A   1     -10.735  15.887  67.767  1.00  0.00    -0.320 C  
ATOM      7  C   TYR A   1     -10.380  17.377  67.584  1.00  0.00    -0.355 C  
ATOM      8  O   TYR A   1      -9.932  17.962  68.725  1.00  0.00    -0.359 OA 
ATOM      9  OXT TYR A   1     -10.502  18.011  66.546  1.00  0.00    -0.368 OA 
BRANCH   6  10
ATOM     10  CB  TYR A   1     -10.932  15.171  66.416  1.00  0.00    -0.329 C  
BRANCH  10  11
ATOM     11  CG  TYR A   1     -10.255  13.823  66.296  1.00  0.00    -0.298 A  
ATOM     12  CD1 TYR A   1     -10.664  12.862  65.358  1.00  0.00    -0.307 A  
ATOM     13  CE1 TYR A   1     -10.109  11.579  65.361  1.00  0.00    -0.304 A  
ATOM     14  CZ  TYR A   1      -9.109  11.269  66.272  1.00  0.00    -0.199 A  
ATOM     15  CE2 TYR A   1      -8.626  12.230  67.148  1.00  0.00    -0.187 A  
ATOM     16  OH  TYR A   1      -8.587  10.012  66.345  1.00  0.00    -0.127 OA 
ATOM     17  HH  TYR A   1      -7.902   9.800  66.969  1.00  0.00     0.000 HD 
ATOM     18  CD2 TYR A   1      -9.196  13.505  67.159  1.00  0.00    -0.236 A  
ENDBRANCH  10  11
ENDBRANCH   6  10
ENDBRANCH   3   6
TORSDOF 3
ENDMDL
MODEL       87
REMARK 921   NORMALIZED FREE ENERGY PREDICTED BY IDOCK:   -4.23 KCAL/MOL
REMARK 922        TOTAL FREE ENERGY PREDICTED BY IDOCK:   -5.41 KCAL/MOL
REMARK 923 INTER-LIGAND FREE ENERGY PREDICTED BY IDOCK:   -4.90 KCAL/MOL
REMARK 924 INTRA-LIGAND FREE ENERGY PREDICTED BY IDOCK:   -0.51 KCAL/MOL
REMARK 927      BINDING AFFINITY PREDICTED BY RF-SCORE:    0.00 PKD
ROOT
HETATM    1  C   UNK A   0     -11.999  14.184  69.088  1.00  0.00    -0.388 C  
HETATM    2  C   UNK A   0     -11.875  12.708  68.854  1.00  0.00    -0.302 C  
ATOM      3  N   TYR A   1     -11.553  11.956  69.955  1.00  0.00    -0.501 N  
HETATM    4  O   UNK A   0     -12.107  12.183  67.766  1.00  0.00    -0.508 OA 
ATOM      5  H   TYR A   1     -11.342  12.417  70.841  1.00  0.00     0.000 HD 
ENDROOT
BRANCH   3   6
ATOM      6  CA  TYR A   1     -11.510  10.490  69.865  1.00  0.00    -0.310 C  
ATOM      7  C   TYR A   1     -12.215   9.880  71.094  1.00  0.00    -0.373 C  
ATOM      8  O   TYR A   1     -13.558  10.090  71.096  1.00  0.00    -0.313 OA 
ATOM      9  OXT TYR A   1     -11.659   9.287  72.007  1.00  0.00    -0.356 OA 
BRANCH   6  10
ATOM     10  CB  TYR A   1     -10.064   9.977  69.716  1.00  0.00    -0.284 C  
BRANCH  10  11
ATOM     11  CG  TYR A   1      -9.630   9.676  68.298  1.00  0.00    -0.153 A  
ATOM     12  CD1 TYR A   1      -8.871  10.583  67.540  1.00  0.00    -0.131 A  
ATOM     13  CE1 TYR A   1      -8.600  10.335  66.192  1.00  0.00    -0.146 A  
ATOM     14  CZ  TYR A   1      -9.047   9.157  65.609  1.00  0.00    -0.219 A  
ATOM     15  CE2 TYR A   1      -9.721   8.206  66.362  1.00  0.00    -0.275 A  
ATOM     16  OH  TYR A   1      -8.854   8.909  64.283  1.00  0.00    -0.396 OA 
ATOM     17  HH  TYR A   1      -9.160   8.102  63.884  1.00  0.00     0.000 HD 
ATOM     18  CD2 TYR A   1     -10.010   8.464  67.703  1.00  0.00    -0.246 A  
ENDBRANCH  10  11
ENDBRANCH   6  10
ENDBRANCH   3   6
TORSDOF 3
ENDMDL
MODEL       88
REMARK 921   NORMALIZED FREE ENERGY PREDICTED BY IDOCK:   -4.22 KCAL/MOL
REMARK 922        TOTAL FREE ENERGY PREDICTED BY IDOCK:   -5.39 KCAL/MOL
REMARK 923 INTER-LIGAND FREE ENERGY PREDICTED BY IDOCK:   -4.96 KCAL/MOL
REMARK 924 INTRA-LIGAND FREE ENERGY PREDICTED BY IDOCK:   -0.44 KCAL/MOL
REMARK 927      BINDING AFFINITY PREDICTED BY RF-SCORE:    0.00 PKD
ROOT
HETATM    1  C   UNK A   0     -12.091  15.586  69.782  1.00  0.00    -0.372 C  
HETATM    2  C   UNK A   0     -11.423  14.602  68.868  1.00  0.00    -0.298 C  
ATOM      3  N   TYR A   1     -12.223  14.053  67.898  1.00  0.00    -0.520 N  
HETATM    4  O   UNK A   0     -10.223  14.343  68.931  1.00  0.00    -0.230 OA 
ATOM      5  H   TYR A   1     -13.221  14.267  67.882  1.00  0.00     0.000 HD 
ENDROOT
BRANCH   3   6
ATOM      6  CA  TYR A   1     -11.649  13.160  66.883  1.00  0.00    -0.368 C  
ATOM      7  C   TYR A   1     -12.318  13.436  65.520  1.00  0.00    -0.480 C  
ATOM      8  O   TYR A   1     -11.988  14.647  65.001  1.00  0.00    -0.379 OA 
ATOM      9  OXT TYR A   1     -13.092  12.683  64.947  1.00  0.00    -0.850 OA 
BRANCH   6  10
ATOM     10  CB  TYR A   1     -11.775  11.681  67.298  1.00  0.00    -0.255 C  
BRANCH  10  11
ATOM     11  CG  TYR A   1     -10.465  10.937  67.437  1.00  0.00    -0.263 A  
ATOM     12  CD1 TYR A   1      -9.683  11.012  68.601  1.00  0.00    -0.198 A  
ATOM     13  CE1 TYR A   1      -8.416  10.423  68.650  1.00  0.00    -0.129 A  
ATOM     14  CZ  TYR A   1      -7.947   9.717  67.551  1.00  0.00    -0.106 A  
ATOM     15  CE2 TYR A   1      -8.740   9.554  66.423  1.00  0.00    -0.149 A  
ATOM     16  OH  TYR A   1      -6.694   9.181  67.539  1.00  0.00    -0.067 OA 
ATOM     17  HH  TYR A   1      -6.373   8.698  66.786  1.00  0.00     0.000 HD 
ATOM     18  CD2 TYR A   1      -9.996  10.161  66.367  1.00  0.00    -0.295 A  
ENDBRANCH  10  11
ENDBRANCH   6  10
ENDBRANCH   3   6
TORSDOF 3
ENDMDL
MODEL       89
REMARK 921   NORMALIZED FREE ENERGY PREDICTED BY IDOCK:   -4.20 KCAL/MOL
REMARK 922        TOTAL FREE ENERGY PREDICTED BY IDOCK:   -5.37 KCAL/MOL
REMARK 923 INTER-LIGAND FREE ENERGY PREDICTED BY IDOCK:   -4.97 KCAL/MOL
REMARK 924 INTRA-LIGAND FREE ENERGY PREDICTED BY IDOCK:   -0.40 KCAL/MOL
REMARK 927      BINDING AFFINITY PREDICTED BY RF-SCORE:    0.00 PKD
ROOT
HETATM    1  C   UNK A   0      -6.115  12.002  69.290  1.00  0.00    -0.088 C  
HETATM    2  C   UNK A   0      -7.153  12.630  68.407  1.00  0.00    -0.101 C  
ATOM      3  N   TYR A   1      -8.410  12.732  68.946  1.00  0.00    -0.339 N  
HETATM    4  O   UNK A   0      -6.894  13.086  67.294  1.00  0.00    -0.146 OA 
ATOM      5  H   TYR A   1      -8.605  12.325  69.861  1.00  0.00     0.000 HD 
ENDROOT
BRANCH   3   6
ATOM      6  CA  TYR A   1      -9.477  13.425  68.212  1.00  0.00    -0.209 C  
ATOM      7  C   TYR A   1     -10.008  14.597  69.064  1.00  0.00    -0.193 C  
ATOM      8  O   TYR A   1      -9.107  15.604  69.204  1.00  0.00    -0.220 OA 
ATOM      9  OXT TYR A   1     -11.106  14.642  69.598  1.00  0.00    -0.257 OA 
BRANCH   6  10
ATOM     10  CB  TYR A   1     -10.602  12.455  67.802  1.00  0.00    -0.236 C  
BRANCH  10  11
ATOM     11  CG  TYR A   1     -11.193  12.696  66.430  1.00  0.00    -0.350 A  
ATOM     12  CD1 TYR A   1     -10.854  11.907  65.320  1.00  0.00    -0.347 A  
ATOM     13  CE1 TYR A   1     -11.312  12.236  64.042  1.00  0.00    -0.469 A  
ATOM     14  CZ  TYR A   1     -12.150  13.330  63.877  1.00  0.00    -0.468 A  
ATOM     15  CE2 TYR A   1     -12.572  14.071  64.972  1.00  0.00    -0.416 A  
ATOM     16  OH  TYR A   1     -12.569  13.718  62.639  1.00  0.00    -0.649 OA 
ATOM     17  HH  TYR A   1     -13.142  14.467  62.526  1.00  0.00     0.000 HD 
ATOM     18  CD2 TYR A   1     -12.096  13.754  66.246  1.00  0.00    -0.484 A  
ENDBRANCH  10  11
ENDBRANCH   6  10
ENDBRANCH   3   6
TORSDOF 3
ENDMDL
MODEL       90
REMARK 921   NORMALIZED FREE ENERGY PREDICTED BY IDOCK:   -4.18 KCAL/MOL
REMARK 922        TOTAL FREE ENERGY PREDICTED BY IDOCK:   -5.35 KCAL/MOL
REMARK 923 INTER-LIGAND FREE ENERGY PREDICTED BY IDOCK:   -5.10 KCAL/MOL
REMARK 924 INTRA-LIGAND FREE ENERGY PREDICTED BY IDOCK:   -0.25 KCAL/MOL
REMARK 927      BINDING AFFINITY PREDICTED BY RF-SCORE:    0.00 PKD
ROOT
HETATM    1  C   UNK A   0     -13.972   9.289  72.345  1.00  0.00    -0.432 C  
HETATM    2  C   UNK A   0     -12.767   8.558  71.833  1.00  0.00    -0.360 C  
ATOM      3  N   TYR A   1     -11.562   9.182  72.034  1.00  0.00    -0.349 N  
HETATM    4  O   UNK A   0     -12.832   7.441  71.321  1.00  0.00    -0.351 OA 
ATOM      5  H   TYR A   1     -11.536  10.118  72.439  1.00  0.00     0.000 HD 
ENDROOT
BRANCH   3   6
ATOM      6  CA  TYR A   1     -10.308   8.508  71.669  1.00  0.00    -0.263 C  
ATOM      7  C   TYR A   1      -9.545   8.116  72.950  1.00  0.00    -0.275 C  
ATOM      8  O   TYR A   1     -10.160   7.132  73.657  1.00  0.00    -0.282 OA 
ATOM      9  OXT TYR A   1      -8.507   8.631  73.341  1.00  0.00    -0.385 OA 
BRANCH   6  10
ATOM     10  CB  TYR A   1      -9.452   9.382  70.732  1.00  0.00    -0.307 C  
BRANCH  10  11
ATOM     11  CG  TYR A   1     -10.197  10.006  69.572  1.00  0.00    -0.255 A  
ATOM     12  CD1 TYR A   1     -10.255   9.399  68.307  1.00  0.00    -0.229 A  
ATOM     13  CE1 TYR A   1     -10.836  10.062  67.222  1.00  0.00    -0.284 A  
ATOM     14  CZ  TYR A   1     -11.403  11.315  67.410  1.00  0.00    -0.276 A  
ATOM     15  CE2 TYR A   1     -11.438  11.894  68.671  1.00  0.00    -0.350 A  
ATOM     16  OH  TYR A   1     -11.925  12.017  66.365  1.00  0.00    -0.611 OA 
ATOM     17  HH  TYR A   1     -12.313  12.874  66.494  1.00  0.00     0.000 HD 
ATOM     18  CD2 TYR A   1     -10.838  11.241  69.749  1.00  0.00    -0.089 A  
ENDBRANCH  10  11
ENDBRANCH   6  10
ENDBRANCH   3   6
TORSDOF 3
ENDMDL
MODEL       91
REMARK 921   NORMALIZED FREE ENERGY PREDICTED BY IDOCK:   -4.17 KCAL/MOL
REMARK 922        TOTAL FREE ENERGY PREDICTED BY IDOCK:   -5.34 KCAL/MOL
REMARK 923 INTER-LIGAND FREE ENERGY PREDICTED BY IDOCK:   -4.94 KCAL/MOL
REMARK 924 INTRA-LIGAND FREE ENERGY PREDICTED BY IDOCK:   -0.40 KCAL/MOL
REMARK 927      BINDING AFFINITY PREDICTED BY RF-SCORE:    0.00 PKD
ROOT
HETATM    1  C   UNK A   0      -9.060  10.564  68.212  1.00  0.00    -0.146 C  
HETATM    2  C   UNK A   0      -9.935  10.308  67.021  1.00  0.00    -0.201 C  
ATOM      3  N   TYR A   1      -9.692  11.095  65.923  1.00  0.00    -0.219 N  
HETATM    4  O   UNK A   0     -10.777   9.412  66.993  1.00  0.00    -0.229 OA 
ATOM      5  H   TYR A   1      -9.005  11.847  65.980  1.00  0.00     0.000 HD 
ENDROOT
BRANCH   3   6
ATOM      6  CA  TYR A   1     -10.418  10.860  64.668  1.00  0.00    -0.314 C  
ATOM      7  C   TYR A   1      -9.413  10.801  63.499  1.00  0.00    -0.299 C  
ATOM      8  O   TYR A   1      -8.616   9.701  63.536  1.00  0.00    -0.178 OA 
ATOM      9  OXT TYR A   1      -9.294  11.648  62.625  1.00  0.00    -0.330 OA 
BRANCH   6  10
ATOM     10  CB  TYR A   1     -11.508  11.925  64.439  1.00  0.00    -0.393 C  
BRANCH  10  11
ATOM     11  CG  TYR A   1     -11.370  13.179  65.275  1.00  0.00    -0.321 A  
ATOM     12  CD1 TYR A   1     -10.532  14.241  64.897  1.00  0.00    -0.454 A  
ATOM     13  CE1 TYR A   1     -10.323  15.325  65.753  1.00  0.00    -0.364 A  
ATOM     14  CZ  TYR A   1     -10.988  15.373  66.971  1.00  0.00    -0.306 A  
ATOM     15  CE2 TYR A   1     -11.890  14.380  67.325  1.00  0.00    -0.434 A  
ATOM     16  OH  TYR A   1     -10.764  16.384  67.857  1.00  0.00    -0.316 OA 
ATOM     17  HH  TYR A   1     -11.219  16.417  68.691  1.00  0.00     0.000 HD 
ATOM     18  CD2 TYR A   1     -12.081  13.286  66.478  1.00  0.00    -0.435 A  
ENDBRANCH  10  11
ENDBRANCH   6  10
ENDBRANCH   3   6
TORSDOF 3
ENDMDL
MODEL       92
REMARK 921   NORMALIZED FREE ENERGY PREDICTED BY IDOCK:   -4.17 KCAL/MOL
REMARK 922        TOTAL FREE ENERGY PREDICTED BY IDOCK:   -5.34 KCAL/MOL
REMARK 923 INTER-LIGAND FREE ENERGY PREDICTED BY IDOCK:   -4.84 KCAL/MOL
REMARK 924 INTRA-LIGAND FREE ENERGY PREDICTED BY IDOCK:   -0.50 KCAL/MOL
REMARK 927      BINDING AFFINITY PREDICTED BY RF-SCORE:    0.00 PKD
ROOT
HETATM    1  C   UNK A   0      -8.915   7.619  74.075  1.00  0.00    -0.299 C  
HETATM    2  C   UNK A   0      -9.594   7.996  72.791  1.00  0.00    -0.277 C  
ATOM      3  N   TYR A   1     -10.699   7.253  72.462  1.00  0.00    -0.243 N  
HETATM    4  O   UNK A   0      -9.234   8.948  72.101  1.00  0.00    -0.364 OA 
ATOM      5  H   TYR A   1     -10.964   6.453  73.039  1.00  0.00     0.000 HD 
ENDROOT
BRANCH   3   6
ATOM      6  CA  TYR A   1     -11.503   7.603  71.284  1.00  0.00    -0.269 C  
ATOM      7  C   TYR A   1     -12.963   7.853  71.715  1.00  0.00    -0.325 C  
ATOM      8  O   TYR A   1     -13.113   8.978  72.462  1.00  0.00    -0.433 OA 
ATOM      9  OXT TYR A   1     -13.911   7.125  71.458  1.00  0.00    -0.382 OA 
BRANCH   6  10
ATOM     10  CB  TYR A   1     -11.402   6.522  70.191  1.00  0.00    -0.463 C  
BRANCH  10  11
ATOM     11  CG  TYR A   1     -10.883   7.004  68.853  1.00  0.00    -0.203 A  
ATOM     12  CD1 TYR A   1     -10.962   6.217  67.693  1.00  0.00    -0.438 A  
ATOM     13  CE1 TYR A   1     -10.355   6.634  66.505  1.00  0.00    -0.120 A  
ATOM     14  CZ  TYR A   1      -9.707   7.860  66.461  1.00  0.00    -0.209 A  
ATOM     15  CE2 TYR A   1      -9.695   8.695  67.570  1.00  0.00    -0.212 A  
ATOM     16  OH  TYR A   1      -9.054   8.273  65.339  1.00  0.00    -0.382 OA 
ATOM     17  HH  TYR A   1      -8.610   9.113  65.309  1.00  0.00     0.000 HD 
ATOM     18  CD2 TYR A   1     -10.283   8.268  68.763  1.00  0.00    -0.226 A  
ENDBRANCH  10  11
ENDBRANCH   6  10
ENDBRANCH   3   6
TORSDOF 3
ENDMDL
MODEL       93
REMARK 921   NORMALIZED FREE ENERGY PREDICTED BY IDOCK:   -4.16 KCAL/MOL
REMARK 922        TOTAL FREE ENERGY PREDICTED BY IDOCK:   -5.33 KCAL/MOL
REMARK 923 INTER-LIGAND FREE ENERGY PREDICTED BY IDOCK:   -4.96 KCAL/MOL
REMARK 924 INTRA-LIGAND FREE ENERGY PREDICTED BY IDOCK:   -0.36 KCAL/MOL
REMARK 927      BINDING AFFINITY PREDICTED BY RF-SCORE:    0.00 PKD
ROOT
HETATM    1  C   UNK A   0     -11.086  15.472  64.662  1.00  0.00    -0.373 C  
HETATM    2  C   UNK A   0     -10.782  15.183  66.103  1.00  0.00    -0.325 C  
ATOM      3  N   TYR A   1     -10.517  13.870  66.403  1.00  0.00    -0.280 N  
HETATM    4  O   UNK A   0     -10.708  16.063  66.958  1.00  0.00    -0.319 OA 
ATOM      5  H   TYR A   1     -10.608  13.156  65.681  1.00  0.00     0.000 HD 
ENDROOT
BRANCH   3   6
ATOM      6  CA  TYR A   1     -10.104  13.490  67.761  1.00  0.00    -0.236 C  
ATOM      7  C   TYR A   1      -8.570  13.328  67.803  1.00  0.00    -0.184 C  
ATOM      8  O   TYR A   1      -7.905  14.504  67.660  1.00  0.00    -0.148 OA 
ATOM      9  OXT TYR A   1      -7.974  12.267  67.921  1.00  0.00    -0.130 OA 
BRANCH   6  10
ATOM     10  CB  TYR A   1     -10.832  12.218  68.236  1.00  0.00    -0.254 C  
BRANCH  10  11
ATOM     11  CG  TYR A   1     -11.675  12.386  69.481  1.00  0.00    -0.388 A  
ATOM     12  CD1 TYR A   1     -12.194  13.631  69.871  1.00  0.00    -0.367 A  
ATOM     13  CE1 TYR A   1     -12.855  13.778  71.093  1.00  0.00    -0.409 A  
ATOM     14  CZ  TYR A   1     -13.040  12.671  71.909  1.00  0.00    -0.366 A  
ATOM     15  CE2 TYR A   1     -12.615  11.413  71.503  1.00  0.00    -0.393 A  
ATOM     16  OH  TYR A   1     -13.626  12.787  73.134  1.00  0.00    -0.322 OA 
ATOM     17  HH  TYR A   1     -13.752  12.028  73.693  1.00  0.00     0.000 HD 
ATOM     18  CD2 TYR A   1     -11.936  11.271  70.292  1.00  0.00    -0.466 A  
ENDBRANCH  10  11
ENDBRANCH   6  10
ENDBRANCH   3   6
TORSDOF 3
ENDMDL
MODEL       94
REMARK 921   NORMALIZED FREE ENERGY PREDICTED BY IDOCK:   -4.16 KCAL/MOL
REMARK 922        TOTAL FREE ENERGY PREDICTED BY IDOCK:   -5.32 KCAL/MOL
REMARK 923 INTER-LIGAND FREE ENERGY PREDICTED BY IDOCK:   -4.88 KCAL/MOL
REMARK 924 INTRA-LIGAND FREE ENERGY PREDICTED BY IDOCK:   -0.44 KCAL/MOL
REMARK 927      BINDING AFFINITY PREDICTED BY RF-SCORE:    0.00 PKD
ROOT
HETATM    1  C   UNK A   0     -12.704  15.243  70.337  1.00  0.00    -0.400 C  
HETATM    2  C   UNK A   0     -11.850  15.454  69.122  1.00  0.00    -0.335 C  
ATOM      3  N   TYR A   1     -11.779  14.395  68.253  1.00  0.00    -0.328 N  
HETATM    4  O   UNK A   0     -11.295  16.524  68.875  1.00  0.00    -0.300 OA 
ATOM      5  H   TYR A   1     -12.229  13.511  68.492  1.00  0.00     0.000 HD 
ENDROOT
BRANCH   3   6
ATOM      6  CA  TYR A   1     -11.058  14.529  66.980  1.00  0.00    -0.322 C  
ATOM      7  C   TYR A   1     -11.766  13.686  65.899  1.00  0.00    -0.354 C  
ATOM      8  O   TYR A   1     -12.983  14.181  65.550  1.00  0.00    -0.657 OA 
ATOM      9  OXT TYR A   1     -11.327  12.658  65.403  1.00  0.00    -0.293 OA 
BRANCH   6  10
ATOM     10  CB  TYR A   1      -9.574  14.144  67.130  1.00  0.00    -0.244 C  
BRANCH  10  11
ATOM     11  CG  TYR A   1      -8.593  15.286  66.976  1.00  0.00    -0.256 A  
ATOM     12  CD1 TYR A   1      -8.901  16.442  66.240  1.00  0.00    -0.367 A  
ATOM     13  CE1 TYR A   1      -7.930  17.419  66.004  1.00  0.00    -0.200 A  
ATOM     14  CZ  TYR A   1      -6.660  17.265  66.543  1.00  0.00    -0.248 A  
ATOM     15  CE2 TYR A   1      -6.360  16.176  67.349  1.00  0.00    -0.210 A  
ATOM     16  OH  TYR A   1      -5.670  18.165  66.285  1.00  0.00    -0.145 OA 
ATOM     17  HH  TYR A   1      -4.801  18.060  66.654  1.00  0.00     0.000 HD 
ATOM     18  CD2 TYR A   1      -7.324  15.190  67.566  1.00  0.00    -0.222 A  
ENDBRANCH  10  11
ENDBRANCH   6  10
ENDBRANCH   3   6
TORSDOF 3
ENDMDL
MODEL       95
REMARK 921   NORMALIZED FREE ENERGY PREDICTED BY IDOCK:   -4.16 KCAL/MOL
REMARK 922        TOTAL FREE ENERGY PREDICTED BY IDOCK:   -5.32 KCAL/MOL
REMARK 923 INTER-LIGAND FREE ENERGY PREDICTED BY IDOCK:   -5.15 KCAL/MOL
REMARK 924 INTRA-LIGAND FREE ENERGY PREDICTED BY IDOCK:   -0.17 KCAL/MOL
REMARK 927      BINDING AFFINITY PREDICTED BY RF-SCORE:    0.00 PKD
ROOT
HETATM    1  C   UNK A   0     -10.509  14.701  67.466  1.00  0.00    -0.247 C  
HETATM    2  C   UNK A   0     -10.351  14.404  66.003  1.00  0.00    -0.309 C  
ATOM      3  N   TYR A   1     -10.790  13.170  65.596  1.00  0.00    -0.275 N  
HETATM    4  O   UNK A   0      -9.918  15.227  65.199  1.00  0.00    -0.318 OA 
ATOM      5  H   TYR A   1     -11.124  12.497  66.286  1.00  0.00     0.000 HD 
ENDROOT
BRANCH   3   6
ATOM      6  CA  TYR A   1     -10.782  12.814  64.171  1.00  0.00    -0.412 C  
ATOM      7  C   TYR A   1     -12.217  12.903  63.612  1.00  0.00    -0.499 C  
ATOM      8  O   TYR A   1     -12.686  14.177  63.548  1.00  0.00    -0.794 OA 
ATOM      9  OXT TYR A   1     -12.906  11.951  63.277  1.00  0.00    -0.702 OA 
BRANCH   6  10
ATOM     10  CB  TYR A   1     -10.159  11.424  63.941  1.00  0.00    -0.393 C  
BRANCH  10  11
ATOM     11  CG  TYR A   1      -9.795  10.664  65.198  1.00  0.00    -0.344 A  
ATOM     12  CD1 TYR A   1     -10.768  10.172  66.082  1.00  0.00    -0.008 A  
ATOM     13  CE1 TYR A   1     -10.400   9.593  67.300  1.00  0.00    -0.310 A  
ATOM     14  CZ  TYR A   1      -9.054   9.463  67.616  1.00  0.00    -0.121 A  
ATOM     15  CE2 TYR A   1      -8.074   9.860  66.717  1.00  0.00    -0.117 A  
ATOM     16  OH  TYR A   1      -8.658   8.959  68.818  1.00  0.00    -0.133 OA 
ATOM     17  HH  TYR A   1      -7.737   8.870  69.035  1.00  0.00     0.000 HD 
ATOM     18  CD2 TYR A   1      -8.443  10.458  65.511  1.00  0.00    -0.171 A  
ENDBRANCH  10  11
ENDBRANCH   6  10
ENDBRANCH   3   6
TORSDOF 3
ENDMDL
MODEL       96
REMARK 921   NORMALIZED FREE ENERGY PREDICTED BY IDOCK:   -4.13 KCAL/MOL
REMARK 922        TOTAL FREE ENERGY PREDICTED BY IDOCK:   -5.29 KCAL/MOL
REMARK 923 INTER-LIGAND FREE ENERGY PREDICTED BY IDOCK:   -4.96 KCAL/MOL
REMARK 924 INTRA-LIGAND FREE ENERGY PREDICTED BY IDOCK:   -0.34 KCAL/MOL
REMARK 927      BINDING AFFINITY PREDICTED BY RF-SCORE:    0.00 PKD
ROOT
HETATM    1  C   UNK A   0     -11.749  10.935  67.958  1.00  0.00    -0.205 C  
HETATM    2  C   UNK A   0     -11.181  12.227  67.450  1.00  0.00    -0.301 C  
ATOM      3  N   TYR A   1     -10.921  13.179  68.403  1.00  0.00    -0.251 N  
HETATM    4  O   UNK A   0     -10.902  12.413  66.266  1.00  0.00    -0.252 OA 
ATOM      5  H   TYR A   1     -11.183  13.009  69.374  1.00  0.00     0.000 HD 
ENDROOT
BRANCH   3   6
ATOM      6  CA  TYR A   1     -10.266  14.440  68.031  1.00  0.00    -0.228 C  
ATOM      7  C   TYR A   1      -8.818  14.442  68.563  1.00  0.00    -0.182 C  
ATOM      8  O   TYR A   1      -8.016  13.548  67.928  1.00  0.00    -0.132 OA 
ATOM      9  OXT TYR A   1      -8.402  15.139  69.478  1.00  0.00    -0.223 OA 
BRANCH   6  10
ATOM     10  CB  TYR A   1     -11.066  15.659  68.530  1.00  0.00    -0.322 C  
BRANCH  10  11
ATOM     11  CG  TYR A   1     -10.599  16.997  67.999  1.00  0.00    -0.373 A  
ATOM     12  CD1 TYR A   1     -10.262  18.062  68.849  1.00  0.00    -0.320 A  
ATOM     13  CE1 TYR A   1      -9.964  19.325  68.329  1.00  0.00    -0.497 A  
ATOM     14  CZ  TYR A   1      -9.957  19.514  66.954  1.00  0.00    -0.386 A  
ATOM     15  CE2 TYR A   1     -10.199  18.453  66.092  1.00  0.00    -0.408 A  
ATOM     16  OH  TYR A   1      -9.730  20.743  66.412  1.00  0.00    -0.615 OA 
ATOM     17  HH  TYR A   1      -9.726  20.873  65.470  1.00  0.00     0.000 HD 
ATOM     18  CD2 TYR A   1     -10.517  17.198  66.613  1.00  0.00    -0.259 A  
ENDBRANCH  10  11
ENDBRANCH   6  10
ENDBRANCH   3   6
TORSDOF 3
ENDMDL
MODEL       97
REMARK 921   NORMALIZED FREE ENERGY PREDICTED BY IDOCK:   -4.12 KCAL/MOL
REMARK 922        TOTAL FREE ENERGY PREDICTED BY IDOCK:   -5.28 KCAL/MOL
REMARK 923 INTER-LIGAND FREE ENERGY PREDICTED BY IDOCK:   -4.77 KCAL/MOL
REMARK 924 INTRA-LIGAND FREE ENERGY PREDICTED BY IDOCK:   -0.51 KCAL/MOL
REMARK 927      BINDING AFFINITY PREDICTED BY RF-SCORE:    0.00 PKD
ROOT
HETATM    1  C   UNK A   0      -7.867   8.528  67.800  1.00  0.00    -0.103 C  
HETATM    2  C   UNK A   0      -8.541   9.369  68.843  1.00  0.00    -0.131 C  
ATOM      3  N   TYR A   1      -9.464   8.721  69.625  1.00  0.00    -0.167 N  
HETATM    4  O   UNK A   0      -8.250  10.548  69.039  1.00  0.00    -0.127 OA 
ATOM      5  H   TYR A   1      -9.704   7.750  69.426  1.00  0.00     0.000 HD 
ENDROOT
BRANCH   3   6
ATOM      6  CA  TYR A   1     -10.106   9.421  70.745  1.00  0.00    -0.298 C  
ATOM      7  C   TYR A   1      -9.960   8.576  72.028  1.00  0.00    -0.313 C  
ATOM      8  O   TYR A   1      -8.680   8.508  72.478  1.00  0.00    -0.275 OA 
ATOM      9  OXT TYR A   1     -10.870   7.989  72.596  1.00  0.00    -0.319 OA 
BRANCH   6  10
ATOM     10  CB  TYR A   1     -11.580   9.748  70.435  1.00  0.00    -0.327 C  
BRANCH  10  11
ATOM     11  CG  TYR A   1     -11.815  11.078  69.753  1.00  0.00    -0.421 A  
ATOM     12  CD1 TYR A   1     -11.707  11.235  68.362  1.00  0.00    -0.365 A  
ATOM     13  CE1 TYR A   1     -11.798  12.501  67.777  1.00  0.00    -0.375 A  
ATOM     14  CZ  TYR A   1     -12.044  13.608  68.577  1.00  0.00    -0.286 A  
ATOM     15  CE2 TYR A   1     -12.245  13.465  69.943  1.00  0.00    -0.337 A  
ATOM     16  OH  TYR A   1     -12.080  14.865  68.050  1.00  0.00    -0.547 OA 
ATOM     17  HH  TYR A   1     -12.248  15.623  68.598  1.00  0.00     0.000 HD 
ATOM     18  CD2 TYR A   1     -12.132  12.203  70.529  1.00  0.00    -0.383 A  
ENDBRANCH  10  11
ENDBRANCH   6  10
ENDBRANCH   3   6
TORSDOF 3
ENDMDL
MODEL       98
REMARK 921   NORMALIZED FREE ENERGY PREDICTED BY IDOCK:   -4.11 KCAL/MOL
REMARK 922        TOTAL FREE ENERGY PREDICTED BY IDOCK:   -5.27 KCAL/MOL
REMARK 923 INTER-LIGAND FREE ENERGY PREDICTED BY IDOCK:   -4.95 KCAL/MOL
REMARK 924 INTRA-LIGAND FREE ENERGY PREDICTED BY IDOCK:   -0.32 KCAL/MOL
REMARK 927      BINDING AFFINITY PREDICTED BY RF-SCORE:    0.00 PKD
ROOT
HETATM    1  C   UNK A   0      -8.712   8.052  69.422  1.00  0.00    -0.137 C  
HETATM    2  C   UNK A   0      -9.473   8.833  70.452  1.00  0.00    -0.179 C  
ATOM      3  N   TYR A   1     -10.840   8.746  70.375  1.00  0.00    -0.224 N  
HETATM    4  O   UNK A   0      -8.921   9.464  71.352  1.00  0.00    -0.284 OA 
ATOM      5  H   TYR A   1     -11.273   8.236  69.605  1.00  0.00     0.000 HD 
ENDROOT
BRANCH   3   6
ATOM      6  CA  TYR A   1     -11.681   9.383  71.397  1.00  0.00    -0.378 C  
ATOM      7  C   TYR A   1     -12.302   8.298  72.301  1.00  0.00    -0.356 C  
ATOM      8  O   TYR A   1     -11.386   7.672  73.086  1.00  0.00    -0.360 OA 
ATOM      9  OXT TYR A   1     -13.482   7.982  72.318  1.00  0.00    -0.205 OA 
BRANCH   6  10
ATOM     10  CB  TYR A   1     -12.755  10.286  70.759  1.00  0.00    -0.434 C  
BRANCH  10  11
ATOM     11  CG  TYR A   1     -12.229  11.527  70.071  1.00  0.00    -0.354 A  
ATOM     12  CD1 TYR A   1     -12.200  12.779  70.707  1.00  0.00    -0.338 A  
ATOM     13  CE1 TYR A   1     -11.835  13.929  70.003  1.00  0.00    -0.384 A  
ATOM     14  CZ  TYR A   1     -11.451  13.824  68.673  1.00  0.00    -0.301 A  
ATOM     15  CE2 TYR A   1     -11.385  12.585  68.050  1.00  0.00    -0.339 A  
ATOM     16  OH  TYR A   1     -11.146  14.930  67.937  1.00  0.00    -0.276 OA 
ATOM     17  HH  TYR A   1     -10.884  14.858  67.027  1.00  0.00     0.000 HD 
ATOM     18  CD2 TYR A   1     -11.772  11.440  68.748  1.00  0.00    -0.404 A  
ENDBRANCH  10  11
ENDBRANCH   6  10
ENDBRANCH   3   6
TORSDOF 3
ENDMDL
MODEL       99
REMARK 921   NORMALIZED FREE ENERGY PREDICTED BY IDOCK:   -4.10 KCAL/MOL
REMARK 922        TOTAL FREE ENERGY PREDICTED BY IDOCK:   -5.26 KCAL/MOL
REMARK 923 INTER-LIGAND FREE ENERGY PREDICTED BY IDOCK:   -4.77 KCAL/MOL
REMARK 924 INTRA-LIGAND FREE ENERGY PREDICTED BY IDOCK:   -0.49 KCAL/MOL
REMARK 927      BINDING AFFINITY PREDICTED BY RF-SCORE:    0.00 PKD
ROOT
HETATM    1  C   UNK A   0      -7.750  13.517  67.446  1.00  0.00    -0.149 C  
HETATM    2  C   UNK A   0      -8.966  12.638  67.471  1.00  0.00    -0.187 C  
ATOM      3  N   TYR A   1      -9.411  12.273  68.716  1.00  0.00    -0.403 N  
HETATM    4  O   UNK A   0      -9.573  12.311  66.452  1.00  0.00    -0.228 OA 
ATOM      5  H   TYR A   1      -8.876  12.537  69.544  1.00  0.00     0.000 HD 
ENDROOT
BRANCH   3   6
ATOM      6  CA  TYR A   1     -10.653  11.503  68.862  1.00  0.00    -0.204 C  
ATOM      7  C   TYR A   1     -11.734  12.392  69.513  1.00  0.00    -0.322 C  
ATOM      8  O   TYR A   1     -12.157  13.395  68.700  1.00  0.00    -0.346 OA 
ATOM      9  OXT TYR A   1     -12.171  12.259  70.647  1.00  0.00    -0.371 OA 
BRANCH   6  10
ATOM     10  CB  TYR A   1     -10.421  10.203  69.657  1.00  0.00    -0.282 C  
BRANCH  10  11
ATOM     11  CG  TYR A   1     -10.476   8.930  68.841  1.00  0.00    -0.225 A  
ATOM     12  CD1 TYR A   1     -10.219   8.915  67.461  1.00  0.00    -0.309 A  
ATOM     13  CE1 TYR A   1     -10.408   7.750  66.712  1.00  0.00    -0.348 A  
ATOM     14  CZ  TYR A   1     -10.809   6.584  67.350  1.00  0.00    -0.373 A  
ATOM     15  CE2 TYR A   1     -10.981   6.553  68.727  1.00  0.00    -0.371 A  
ATOM     16  OH  TYR A   1     -11.061   5.446  66.644  1.00  0.00    -0.498 OA 
ATOM     17  HH  TYR A   1     -11.337   4.648  67.081  1.00  0.00     0.000 HD 
ATOM     18  CD2 TYR A   1     -10.813   7.723  69.471  1.00  0.00    -0.157 A  
ENDBRANCH  10  11
ENDBRANCH   6  10
ENDBRANCH   3   6
TORSDOF 3
ENDMDL
MODEL      100
REMARK 921   NORMALIZED FREE ENERGY PREDICTED BY IDOCK:   -4.09 KCAL/MOL
REMARK 922        TOTAL FREE ENERGY PREDICTED BY IDOCK:   -5.25 KCAL/MOL
REMARK 923 INTER-LIGAND FREE ENERGY PREDICTED BY IDOCK:   -4.88 KCAL/MOL
REMARK 924 INTRA-LIGAND FREE ENERGY PREDICTED BY IDOCK:   -0.36 KCAL/MOL
REMARK 927      BINDING AFFINITY PREDICTED BY RF-SCORE:    0.00 PKD
ROOT
HETATM    1  C   UNK A   0      -6.838  14.625  67.788  1.00  0.00    -0.193 C  
HETATM    2  C   UNK A   0      -8.098  15.228  67.240  1.00  0.00    -0.201 C  
ATOM      3  N   TYR A   1      -9.248  14.930  67.927  1.00  0.00    -0.181 N  
HETATM    4  O   UNK A   0      -8.107  15.992  66.277  1.00  0.00    -0.270 OA 
ATOM      5  H   TYR A   1      -9.217  14.274  68.708  1.00  0.00     0.000 HD 
ENDROOT
BRANCH   3   6
ATOM      6  CA  TYR A   1     -10.522  15.551  67.542  1.00  0.00    -0.282 C  
ATOM      7  C   TYR A   1     -11.212  16.125  68.797  1.00  0.00    -0.365 C  
ATOM      8  O   TYR A   1     -10.560  17.197  69.319  1.00  0.00    -0.326 OA 
ATOM      9  OXT TYR A   1     -12.224  15.676  69.316  1.00  0.00    -0.303 OA 
BRANCH   6  10
ATOM     10  CB  TYR A   1     -11.429  14.557  66.790  1.00  0.00    -0.376 C  
BRANCH  10  11
ATOM     11  CG  TYR A   1     -11.193  13.098  67.114  1.00  0.00    -0.326 A  
ATOM     12  CD1 TYR A   1     -10.353  12.285  66.336  1.00  0.00    -0.250 A  
ATOM     13  CE1 TYR A   1     -10.260  10.912  66.580  1.00  0.00    -0.282 A  
ATOM     14  CZ  TYR A   1     -10.973  10.355  67.633  1.00  0.00    -0.312 A  
ATOM     15  CE2 TYR A   1     -11.739  11.154  68.471  1.00  0.00    -0.368 A  
ATOM     16  OH  TYR A   1     -10.955   9.012  67.864  1.00  0.00    -0.488 OA 
ATOM     17  HH  TYR A   1     -11.442   8.631  68.585  1.00  0.00     0.000 HD 
ATOM     18  CD2 TYR A   1     -11.847  12.522  68.213  1.00  0.00    -0.361 A  
ENDBRANCH  10  11
ENDBRANCH   6  10
ENDBRANCH   3   6
TORSDOF 3
ENDMDL
MODEL      101
REMARK 921   NORMALIZED FREE ENERGY PREDICTED BY IDOCK:   -4.08 KCAL/MOL
REMARK 922        TOTAL FREE ENERGY PREDICTED BY IDOCK:   -5.23 KCAL/MOL
REMARK 923 INTER-LIGAND FREE ENERGY PREDICTED BY IDOCK:   -5.00 KCAL/MOL
REMARK 924 INTRA-LIGAND FREE ENERGY PREDICTED BY IDOCK:   -0.23 KCAL/MOL
REMARK 927      BINDING AFFINITY PREDICTED BY RF-SCORE:    0.00 PKD
ROOT
HETATM    1  C   UNK A   0     -11.332  11.873  68.517  1.00  0.00    -0.329 C  
HETATM    2  C   UNK A   0     -10.280  10.806  68.453  1.00  0.00    -0.175 C  
ATOM      3  N   TYR A   1     -10.731   9.517  68.583  1.00  0.00    -0.323 N  
HETATM    4  O   UNK A   0      -9.094  11.050  68.235  1.00  0.00    -0.145 OA 
ATOM      5  H   TYR A   1     -11.716   9.342  68.787  1.00  0.00     0.000 HD 
ENDROOT
BRANCH   3   6
ATOM      6  CA  TYR A   1      -9.804   8.388  68.431  1.00  0.00    -0.176 C  
ATOM      7  C   TYR A   1     -10.095   7.661  67.101  1.00  0.00    -0.253 C  
ATOM      8  O   TYR A   1      -9.770   8.400  66.008  1.00  0.00    -0.195 OA 
ATOM      9  OXT TYR A   1     -10.591   6.549  66.997  1.00  0.00    -0.255 OA 
BRANCH   6  10
ATOM     10  CB  TYR A   1      -9.875   7.433  69.638  1.00  0.00    -0.175 C  
BRANCH  10  11
ATOM     11  CG  TYR A   1     -10.945   7.760  70.656  1.00  0.00    -0.255 A  
ATOM     12  CD1 TYR A   1     -12.156   7.052  70.722  1.00  0.00    -0.374 A  
ATOM     13  CE1 TYR A   1     -13.178   7.463  71.583  1.00  0.00    -0.416 A  
ATOM     14  CZ  TYR A   1     -12.973   8.555  72.415  1.00  0.00    -0.307 A  
ATOM     15  CE2 TYR A   1     -11.752   9.214  72.432  1.00  0.00    -0.044 A  
ATOM     16  OH  TYR A   1     -13.966   9.021  73.224  1.00  0.00    -1.205 OA 
ATOM     17  HH  TYR A   1     -13.826   9.769  73.793  1.00  0.00     0.000 HD 
ATOM     18  CD2 TYR A   1     -10.740   8.816  71.556  1.00  0.00    -0.371 A  
ENDBRANCH  10  11
ENDBRANCH   6  10
ENDBRANCH   3   6
TORSDOF 3
ENDMDL
MODEL      102
REMARK 921   NORMALIZED FREE ENERGY PREDICTED BY IDOCK:   -4.08 KCAL/MOL
REMARK 922        TOTAL FREE ENERGY PREDICTED BY IDOCK:   -5.23 KCAL/MOL
REMARK 923 INTER-LIGAND FREE ENERGY PREDICTED BY IDOCK:   -4.73 KCAL/MOL
REMARK 924 INTRA-LIGAND FREE ENERGY PREDICTED BY IDOCK:   -0.50 KCAL/MOL
REMARK 927      BINDING AFFINITY PREDICTED BY RF-SCORE:    0.00 PKD
ROOT
HETATM    1  C   UNK A   0      -5.429  11.532  66.767  1.00  0.00    -0.135 C  
HETATM    2  C   UNK A   0      -6.861  11.104  66.900  1.00  0.00    -0.127 C  
ATOM      3  N   TYR A   1      -7.263  10.103  66.052  1.00  0.00    -0.112 N  
HETATM    4  O   UNK A   0      -7.619  11.566  67.751  1.00  0.00    -0.101 OA 
ATOM      5  H   TYR A   1      -6.622   9.753  65.339  1.00  0.00     0.000 HD 
ENDROOT
BRANCH   3   6
ATOM      6  CA  TYR A   1      -8.612   9.533  66.167  1.00  0.00    -0.131 C  
ATOM      7  C   TYR A   1      -8.508   8.031  66.502  1.00  0.00    -0.136 C  
ATOM      8  O   TYR A   1      -8.031   7.797  67.753  1.00  0.00    -0.120 OA 
ATOM      9  OXT TYR A   1      -8.786   7.116  65.742  1.00  0.00    -0.143 OA 
BRANCH   6  10
ATOM     10  CB  TYR A   1      -9.440   9.783  64.891  1.00  0.00    -0.331 C  
BRANCH  10  11
ATOM     11  CG  TYR A   1     -10.360  10.983  64.944  1.00  0.00    -0.378 A  
ATOM     12  CD1 TYR A   1     -10.765  11.561  66.158  1.00  0.00    -0.324 A  
ATOM     13  CE1 TYR A   1     -11.719  12.583  66.180  1.00  0.00    -0.466 A  
ATOM     14  CZ  TYR A   1     -12.237  13.061  64.984  1.00  0.00    -0.453 A  
ATOM     15  CE2 TYR A   1     -11.784  12.567  63.768  1.00  0.00    -0.564 A  
ATOM     16  OH  TYR A   1     -13.212  14.013  64.968  1.00  0.00    -0.720 OA 
ATOM     17  HH  TYR A   1     -13.566  14.340  64.149  1.00  0.00     0.000 HD 
ATOM     18  CD2 TYR A   1     -10.847  11.532  63.749  1.00  0.00    -0.486 A  
ENDBRANCH  10  11
ENDBRANCH   6  10
ENDBRANCH   3   6
TORSDOF 3
ENDMDL
MODEL      103
REMARK 921   NORMALIZED FREE ENERGY PREDICTED BY IDOCK:   -4.07 KCAL/MOL
REMARK 922        TOTAL FREE ENERGY PREDICTED BY IDOCK:   -5.22 KCAL/MOL
REMARK 923 INTER-LIGAND FREE ENERGY PREDICTED BY IDOCK:   -4.75 KCAL/MOL
REMARK 924 INTRA-LIGAND FREE ENERGY PREDICTED BY IDOCK:   -0.47 KCAL/MOL
REMARK 927      BINDING AFFINITY PREDICTED BY RF-SCORE:    0.00 PKD
ROOT
HETATM    1  C   UNK A   0     -11.590  15.304  64.367  1.00  0.00    -0.265 C  
HETATM    2  C   UNK A   0     -11.694  14.520  65.642  1.00  0.00    -0.335 C  
ATOM      3  N   TYR A   1     -10.629  14.632  66.499  1.00  0.00    -0.294 N  
HETATM    4  O   UNK A   0     -12.691  13.865  65.942  1.00  0.00    -0.489 OA 
ATOM      5  H   TYR A   1      -9.804  15.162  66.217  1.00  0.00     0.000 HD 
ENDROOT
BRANCH   3   6
ATOM      6  CA  TYR A   1     -10.671  13.993  67.821  1.00  0.00    -0.243 C  
ATOM      7  C   TYR A   1     -10.656  15.079  68.916  1.00  0.00    -0.242 C  
ATOM      8  O   TYR A   1     -11.801  15.811  68.956  1.00  0.00    -0.391 OA 
ATOM      9  OXT TYR A   1      -9.723  15.310  69.671  1.00  0.00    -0.249 OA 
BRANCH   6  10
ATOM     10  CB  TYR A   1      -9.521  12.983  67.995  1.00  0.00    -0.217 C  
BRANCH  10  11
ATOM     11  CG  TYR A   1      -9.824  11.574  67.531  1.00  0.00    -0.203 A  
ATOM     12  CD1 TYR A   1     -10.259  10.574  68.414  1.00  0.00    -0.192 A  
ATOM     13  CE1 TYR A   1     -10.402   9.252  67.982  1.00  0.00    -0.270 A  
ATOM     14  CZ  TYR A   1     -10.155   8.936  66.653  1.00  0.00    -0.287 A  
ATOM     15  CE2 TYR A   1      -9.811   9.926  65.742  1.00  0.00    -0.356 A  
ATOM     16  OH  TYR A   1     -10.225   7.650  66.209  1.00  0.00    -0.476 OA 
ATOM     17  HH  TYR A   1     -10.056   7.434  65.299  1.00  0.00     0.000 HD 
ATOM     18  CD2 TYR A   1      -9.648  11.241  66.180  1.00  0.00    -0.241 A  
ENDBRANCH  10  11
ENDBRANCH   6  10
ENDBRANCH   3   6
TORSDOF 3
ENDMDL
MODEL      104
REMARK 921   NORMALIZED FREE ENERGY PREDICTED BY IDOCK:   -4.06 KCAL/MOL
REMARK 922        TOTAL FREE ENERGY PREDICTED BY IDOCK:   -5.21 KCAL/MOL
REMARK 923 INTER-LIGAND FREE ENERGY PREDICTED BY IDOCK:   -4.86 KCAL/MOL
REMARK 924 INTRA-LIGAND FREE ENERGY PREDICTED BY IDOCK:   -0.35 KCAL/MOL
REMARK 927      BINDING AFFINITY PREDICTED BY RF-SCORE:    0.00 PKD
ROOT
HETATM    1  C   UNK A   0     -10.462   5.344  71.395  1.00  0.00    -0.294 C  
HETATM    2  C   UNK A   0     -11.083   6.426  70.563  1.00  0.00    -0.328 C  
ATOM      3  N   TYR A   1     -10.244   7.049  69.673  1.00  0.00    -0.197 N  
HETATM    4  O   UNK A   0     -12.279   6.705  70.617  1.00  0.00    -0.377 OA 
ATOM      5  H   TYR A   1      -9.251   6.815  69.664  1.00  0.00     0.000 HD 
ENDROOT
BRANCH   3   6
ATOM      6  CA  TYR A   1     -10.770   8.049  68.735  1.00  0.00    -0.045 C  
ATOM      7  C   TYR A   1     -10.538   7.566  67.288  1.00  0.00    -0.324 C  
ATOM      8  O   TYR A   1     -11.299   6.490  66.958  1.00  0.00    -0.342 OA 
ATOM      9  OXT TYR A   1      -9.743   8.053  66.498  1.00  0.00    -0.221 OA 
BRANCH   6  10
ATOM     10  CB  TYR A   1     -10.150   9.437  68.985  1.00  0.00    -0.202 C  
BRANCH  10  11
ATOM     11  CG  TYR A   1     -10.998  10.382  69.809  1.00  0.00    -0.345 A  
ATOM     12  CD1 TYR A   1     -11.743   9.947  70.916  1.00  0.00    -0.449 A  
ATOM     13  CE1 TYR A   1     -12.619  10.814  71.575  1.00  0.00    -0.500 A  
ATOM     14  CZ  TYR A   1     -12.718  12.134  71.156  1.00  0.00    -0.253 A  
ATOM     15  CE2 TYR A   1     -11.925  12.610  70.121  1.00  0.00    -0.375 A  
ATOM     16  OH  TYR A   1     -13.604  12.992  71.734  1.00  0.00    -0.362 OA 
ATOM     17  HH  TYR A   1     -13.672  13.896  71.447  1.00  0.00     0.000 HD 
ATOM     18  CD2 TYR A   1     -11.066  11.737  69.451  1.00  0.00    -0.245 A  
ENDBRANCH  10  11
ENDBRANCH   6  10
ENDBRANCH   3   6
TORSDOF 3
ENDMDL
MODEL      105
REMARK 921   NORMALIZED FREE ENERGY PREDICTED BY IDOCK:   -4.05 KCAL/MOL
REMARK 922        TOTAL FREE ENERGY PREDICTED BY IDOCK:   -5.20 KCAL/MOL
REMARK 923 INTER-LIGAND FREE ENERGY PREDICTED BY IDOCK:   -4.79 KCAL/MOL
REMARK 924 INTRA-LIGAND FREE ENERGY PREDICTED BY IDOCK:   -0.41 KCAL/MOL
REMARK 927      BINDING AFFINITY PREDICTED BY RF-SCORE:    0.00 PKD
ROOT
HETATM    1  C   UNK A   0     -12.673   9.398  71.874  1.00  0.00    -0.484 C  
HETATM    2  C   UNK A   0     -11.653   9.769  70.838  1.00  0.00    -0.361 C  
ATOM      3  N   TYR A   1     -12.150  10.319  69.684  1.00  0.00    -0.505 N  
HETATM    4  O   UNK A   0     -10.443   9.652  71.023  1.00  0.00    -0.304 OA 
ATOM      5  H   TYR A   1     -13.159  10.383  69.546  1.00  0.00     0.000 HD 
ENDROOT
BRANCH   3   6
ATOM      6  CA  TYR A   1     -11.236  10.816  68.647  1.00  0.00    -0.274 C  
ATOM      7  C   TYR A   1     -11.768  12.154  68.093  1.00  0.00    -0.341 C  
ATOM      8  O   TYR A   1     -11.698  13.169  68.994  1.00  0.00    -0.281 OA 
ATOM      9  OXT TYR A   1     -12.238  12.321  66.977  1.00  0.00    -0.522 OA 
BRANCH   6  10
ATOM     10  CB  TYR A   1     -11.028   9.773  67.532  1.00  0.00    -0.205 C  
BRANCH  10  11
ATOM     11  CG  TYR A   1      -9.749   9.925  66.737  1.00  0.00    -0.244 A  
ATOM     12  CD1 TYR A   1      -8.551  10.359  67.325  1.00  0.00    -0.126 A  
ATOM     13  CE1 TYR A   1      -7.423  10.618  66.542  1.00  0.00    -0.134 A  
ATOM     14  CZ  TYR A   1      -7.477  10.398  65.172  1.00  0.00    -0.093 A  
ATOM     15  CE2 TYR A   1      -8.622   9.883  64.582  1.00  0.00    -0.195 A  
ATOM     16  OH  TYR A   1      -6.417  10.695  64.368  1.00  0.00    -0.354 OA 
ATOM     17  HH  TYR A   1      -6.454  10.545  63.430  1.00  0.00     0.000 HD 
ATOM     18  CD2 TYR A   1      -9.755   9.645  65.363  1.00  0.00    -0.365 A  
ENDBRANCH  10  11
ENDBRANCH   6  10
ENDBRANCH   3   6
TORSDOF 3
ENDMDL
MODEL      106
REMARK 921   NORMALIZED FREE ENERGY PREDICTED BY IDOCK:   -4.05 KCAL/MOL
REMARK 922        TOTAL FREE ENERGY PREDICTED BY IDOCK:   -5.19 KCAL/MOL
REMARK 923 INTER-LIGAND FREE ENERGY PREDICTED BY IDOCK:   -4.70 KCAL/MOL
REMARK 924 INTRA-LIGAND FREE ENERGY PREDICTED BY IDOCK:   -0.50 KCAL/MOL
REMARK 927      BINDING AFFINITY PREDICTED BY RF-SCORE:    0.00 PKD
ROOT
HETATM    1  C   UNK A   0     -10.972   6.279  67.596  1.00  0.00    -0.438 C  
HETATM    2  C   UNK A   0     -10.386   7.290  68.537  1.00  0.00    -0.189 C  
ATOM      3  N   TYR A   1     -11.282   7.929  69.357  1.00  0.00    -0.435 N  
HETATM    4  O   UNK A   0      -9.177   7.497  68.625  1.00  0.00    -0.144 OA 
ATOM      5  H   TYR A   1     -12.281   7.757  69.249  1.00  0.00     0.000 HD 
ENDROOT
BRANCH   3   6
ATOM      6  CA  TYR A   1     -10.807   8.860  70.389  1.00  0.00    -0.236 C  
ATOM      7  C   TYR A   1     -11.038   8.241  71.783  1.00  0.00    -0.278 C  
ATOM      8  O   TYR A   1     -10.240   7.169  72.028  1.00  0.00    -0.189 OA 
ATOM      9  OXT TYR A   1     -11.862   8.625  72.600  1.00  0.00    -0.334 OA 
BRANCH   6  10
ATOM     10  CB  TYR A   1     -11.477  10.241  70.254  1.00  0.00    -0.395 C  
BRANCH  10  11
ATOM     11  CG  TYR A   1     -10.986  11.085  69.097  1.00  0.00    -0.289 A  
ATOM     12  CD1 TYR A   1     -11.831  11.964  68.401  1.00  0.00    -0.352 A  
ATOM     13  CE1 TYR A   1     -11.384  12.629  67.256  1.00  0.00    -0.372 A  
ATOM     14  CZ  TYR A   1     -10.075  12.452  66.830  1.00  0.00    -0.219 A  
ATOM     15  CE2 TYR A   1      -9.195  11.659  67.554  1.00  0.00    -0.172 A  
ATOM     16  OH  TYR A   1      -9.621  13.035  65.685  1.00  0.00    -0.455 OA 
ATOM     17  HH  TYR A   1      -8.725  12.914  65.394  1.00  0.00     0.000 HD 
ATOM     18  CD2 TYR A   1      -9.649  10.979  68.686  1.00  0.00    -0.198 A  
ENDBRANCH  10  11
ENDBRANCH   6  10
ENDBRANCH   3   6
TORSDOF 3
ENDMDL
MODEL      107
REMARK 921   NORMALIZED FREE ENERGY PREDICTED BY IDOCK:   -4.04 KCAL/MOL
REMARK 922        TOTAL FREE ENERGY PREDICTED BY IDOCK:   -5.18 KCAL/MOL
REMARK 923 INTER-LIGAND FREE ENERGY PREDICTED BY IDOCK:   -5.89 KCAL/MOL
REMARK 924 INTRA-LIGAND FREE ENERGY PREDICTED BY IDOCK:    0.70 KCAL/MOL
REMARK 927      BINDING AFFINITY PREDICTED BY RF-SCORE:    0.00 PKD
ROOT
HETATM    1  C   UNK A   0      -8.966  15.958  65.901  1.00  0.00    -0.251 C  
HETATM    2  C   UNK A   0      -9.932  14.940  65.370  1.00  0.00    -0.332 C  
ATOM      3  N   TYR A   1      -9.685  13.640  65.732  1.00  0.00    -0.477 N  
HETATM    4  O   UNK A   0     -10.922  15.243  64.707  1.00  0.00    -0.410 OA 
ATOM      5  H   TYR A   1      -8.844  13.412  66.262  1.00  0.00     0.000 HD 
ENDROOT
BRANCH   3   6
ATOM      6  CA  TYR A   1     -10.625  12.575  65.357  1.00  0.00    -0.281 C  
ATOM      7  C   TYR A   1     -10.683  12.460  63.819  1.00  0.00    -0.451 C  
ATOM      8  O   TYR A   1      -9.533  11.980  63.278  1.00  0.00    -0.285 OA 
ATOM      9  OXT TYR A   1     -11.633  12.784  63.121  1.00  0.00    -0.445 OA 
BRANCH   6  10
ATOM     10  CB  TYR A   1     -12.019  12.813  65.970  1.00  0.00    -0.491 C  
BRANCH  10  11
ATOM     11  CG  TYR A   1     -12.021  13.226  67.426  1.00  0.00    -0.383 A  
ATOM     12  CD1 TYR A   1     -12.111  14.570  67.822  1.00  0.00    -0.269 A  
ATOM     13  CE1 TYR A   1     -11.976  14.929  69.166  1.00  0.00    -0.313 A  
ATOM     14  CZ  TYR A   1     -11.796  13.941  70.123  1.00  0.00    -0.298 A  
ATOM     15  CE2 TYR A   1     -11.795  12.600  69.766  1.00  0.00    -0.379 A  
ATOM     16  OH  TYR A   1     -11.601  14.257  71.435  1.00  0.00    -0.464 OA 
ATOM     17  HH  TYR A   1     -11.478  13.580  72.090  1.00  0.00     0.000 HD 
ATOM     18  CD2 TYR A   1     -11.908  12.243  68.421  1.00  0.00    -0.358 A  
ENDBRANCH  10  11
ENDBRANCH   6  10
ENDBRANCH   3   6
TORSDOF 3
ENDMDL
MODEL      108
REMARK 921   NORMALIZED FREE ENERGY PREDICTED BY IDOCK:   -4.04 KCAL/MOL
REMARK 922        TOTAL FREE ENERGY PREDICTED BY IDOCK:   -5.18 KCAL/MOL
REMARK 923 INTER-LIGAND FREE ENERGY PREDICTED BY IDOCK:   -5.54 KCAL/MOL
REMARK 924 INTRA-LIGAND FREE ENERGY PREDICTED BY IDOCK:    0.35 KCAL/MOL
REMARK 927      BINDING AFFINITY PREDICTED BY RF-SCORE:    0.00 PKD
ROOT
HETATM    1  C   UNK A   0      -6.683  11.684  69.238  1.00  0.00    -0.115 C  
HETATM    2  C   UNK A   0      -7.953  11.020  68.794  1.00  0.00    -0.144 C  
ATOM      3  N   TYR A   1      -9.104  11.737  69.005  1.00  0.00    -0.376 N  
HETATM    4  O   UNK A   0      -7.971   9.934  68.218  1.00  0.00    -0.098 OA 
ATOM      5  H   TYR A   1      -9.064  12.624  69.506  1.00  0.00     0.000 HD 
ENDROOT
BRANCH   3   6
ATOM      6  CA  TYR A   1     -10.392  11.230  68.514  1.00  0.00    -0.203 C  
ATOM      7  C   TYR A   1     -10.915  10.141  69.474  1.00  0.00    -0.256 C  
ATOM      8  O   TYR A   1     -11.286  10.633  70.685  1.00  0.00    -0.289 OA 
ATOM      9  OXT TYR A   1     -10.978   8.947  69.221  1.00  0.00    -0.144 OA 
BRANCH   6  10
ATOM     10  CB  TYR A   1     -10.280  10.716  67.065  1.00  0.00    -0.267 C  
BRANCH  10  11
ATOM     11  CG  TYR A   1     -10.828  11.649  66.006  1.00  0.00    -0.339 A  
ATOM     12  CD1 TYR A   1     -11.913  12.505  66.253  1.00  0.00    -0.410 A  
ATOM     13  CE1 TYR A   1     -12.480  13.256  65.220  1.00  0.00    -0.543 A  
ATOM     14  CZ  TYR A   1     -11.935  13.187  63.945  1.00  0.00    -0.488 A  
ATOM     15  CE2 TYR A   1     -10.807  12.417  63.698  1.00  0.00    -0.509 A  
ATOM     16  OH  TYR A   1     -12.497  13.856  62.900  1.00  0.00    -1.034 OA 
ATOM     17  HH  TYR A   1     -12.124  13.809  62.028  1.00  0.00     0.000 HD 
ATOM     18  CD2 TYR A   1     -10.254  11.651  64.727  1.00  0.00    -0.321 A  
ENDBRANCH  10  11
ENDBRANCH   6  10
ENDBRANCH   3   6
TORSDOF 3
ENDMDL
MODEL      109
REMARK 921   NORMALIZED FREE ENERGY PREDICTED BY IDOCK:   -4.04 KCAL/MOL
REMARK 922        TOTAL FREE ENERGY PREDICTED BY IDOCK:   -5.18 KCAL/MOL
REMARK 923 INTER-LIGAND FREE ENERGY PREDICTED BY IDOCK:   -4.69 KCAL/MOL
REMARK 924 INTRA-LIGAND FREE ENERGY PREDICTED BY IDOCK:   -0.49 KCAL/MOL
REMARK 927      BINDING AFFINITY PREDICTED BY RF-SCORE:    0.00 PKD
ROOT
HETATM    1  C   UNK A   0      -7.974   8.302  72.012  1.00  0.00    -0.176 C  
HETATM    2  C   UNK A   0      -9.217   8.633  71.240  1.00  0.00    -0.220 C  
ATOM      3  N   TYR A   1      -9.243   8.198  69.939  1.00  0.00    -0.151 N  
HETATM    4  O   UNK A   0     -10.184   9.201  71.745  1.00  0.00    -0.338 OA 
ATOM      5  H   TYR A   1      -8.419   7.751  69.537  1.00  0.00     0.000 HD 
ENDROOT
BRANCH   3   6
ATOM      6  CA  TYR A   1     -10.452   8.375  69.123  1.00  0.00    -0.206 C  
ATOM      7  C   TYR A   1     -11.081   6.996  68.834  1.00  0.00    -0.050 C  
ATOM      8  O   TYR A   1     -11.609   6.409  69.940  1.00  0.00    -0.429 OA 
ATOM      9  OXT TYR A   1     -11.097   6.440  67.745  1.00  0.00    -0.328 OA 
BRANCH   6  10
ATOM     10  CB  TYR A   1     -10.150   9.154  67.829  1.00  0.00    -0.253 C  
BRANCH  10  11
ATOM     11  CG  TYR A   1     -10.693  10.565  67.784  1.00  0.00    -0.319 A  
ATOM     12  CD1 TYR A   1     -10.925  11.315  68.948  1.00  0.00    -0.274 A  
ATOM     13  CE1 TYR A   1     -11.551  12.563  68.883  1.00  0.00    -0.364 A  
ATOM     14  CZ  TYR A   1     -11.906  13.085  67.647  1.00  0.00    -0.351 A  
ATOM     15  CE2 TYR A   1     -11.606  12.403  66.476  1.00  0.00    -0.447 A  
ATOM     16  OH  TYR A   1     -12.572  14.270  67.547  1.00  0.00    -0.513 OA 
ATOM     17  HH  TYR A   1     -12.815  14.628  66.701  1.00  0.00     0.000 HD 
ATOM     18  CD2 TYR A   1     -10.999  11.147  66.545  1.00  0.00    -0.270 A  
ENDBRANCH  10  11
ENDBRANCH   6  10
ENDBRANCH   3   6
TORSDOF 3
ENDMDL
MODEL      110
REMARK 921   NORMALIZED FREE ENERGY PREDICTED BY IDOCK:   -4.02 KCAL/MOL
REMARK 922        TOTAL FREE ENERGY PREDICTED BY IDOCK:   -5.16 KCAL/MOL
REMARK 923 INTER-LIGAND FREE ENERGY PREDICTED BY IDOCK:   -4.73 KCAL/MOL
REMARK 924 INTRA-LIGAND FREE ENERGY PREDICTED BY IDOCK:   -0.44 KCAL/MOL
REMARK 927      BINDING AFFINITY PREDICTED BY RF-SCORE:    0.00 PKD
ROOT
HETATM    1  C   UNK A   0     -10.860   6.189  71.736  1.00  0.00    -0.303 C  
HETATM    2  C   UNK A   0     -11.158   7.266  70.735  1.00  0.00    -0.266 C  
ATOM      3  N   TYR A   1     -10.327   7.310  69.644  1.00  0.00    -0.215 N  
HETATM    4  O   UNK A   0     -12.119   8.026  70.840  1.00  0.00    -0.263 OA 
ATOM      5  H   TYR A   1      -9.523   6.684  69.592  1.00  0.00     0.000 HD 
ENDROOT
BRANCH   3   6
ATOM      6  CA  TYR A   1     -10.591   8.255  68.550  1.00  0.00    -0.100 C  
ATOM      7  C   TYR A   1     -10.267   7.580  67.201  1.00  0.00    -0.280 C  
ATOM      8  O   TYR A   1     -11.133   6.583  66.883  1.00  0.00    -0.399 OA 
ATOM      9  OXT TYR A   1      -9.324   7.864  66.477  1.00  0.00    -0.178 OA 
BRANCH   6  10
ATOM     10  CB  TYR A   1      -9.810   9.569  68.740  1.00  0.00    -0.177 C  
BRANCH  10  11
ATOM     11  CG  TYR A   1     -10.589  10.831  68.440  1.00  0.00    -0.228 A  
ATOM     12  CD1 TYR A   1     -10.728  11.331  67.135  1.00  0.00    -0.297 A  
ATOM     13  CE1 TYR A   1     -11.338  12.567  66.905  1.00  0.00    -0.383 A  
ATOM     14  CZ  TYR A   1     -11.852  13.286  67.975  1.00  0.00    -0.355 A  
ATOM     15  CE2 TYR A   1     -11.806  12.770  69.263  1.00  0.00    -0.358 A  
ATOM     16  OH  TYR A   1     -12.399  14.521  67.797  1.00  0.00    -0.619 OA 
ATOM     17  HH  TYR A   1     -12.751  15.014  68.530  1.00  0.00     0.000 HD 
ATOM     18  CD2 TYR A   1     -11.177  11.545  69.494  1.00  0.00    -0.305 A  
ENDBRANCH  10  11
ENDBRANCH   6  10
ENDBRANCH   3   6
TORSDOF 3
ENDMDL
MODEL      111
REMARK 921   NORMALIZED FREE ENERGY PREDICTED BY IDOCK:   -4.01 KCAL/MOL
REMARK 922        TOTAL FREE ENERGY PREDICTED BY IDOCK:   -5.14 KCAL/MOL
REMARK 923 INTER-LIGAND FREE ENERGY PREDICTED BY IDOCK:   -4.64 KCAL/MOL
REMARK 924 INTRA-LIGAND FREE ENERGY PREDICTED BY IDOCK:   -0.51 KCAL/MOL
REMARK 927      BINDING AFFINITY PREDICTED BY RF-SCORE:    0.00 PKD
ROOT
HETATM    1  C   UNK A   0      -6.196  11.805  67.038  1.00  0.00    -0.152 C  
HETATM    2  C   UNK A   0      -7.677  11.904  67.255  1.00  0.00    -0.164 C  
ATOM      3  N   TYR A   1      -8.425  12.173  66.138  1.00  0.00    -0.385 N  
HETATM    4  O   UNK A   0      -8.206  11.696  68.346  1.00  0.00    -0.145 OA 
ATOM      5  H   TYR A   1      -7.961  12.365  65.250  1.00  0.00     0.000 HD 
ENDROOT
BRANCH   3   6
ATOM      6  CA  TYR A   1      -9.892  12.187  66.214  1.00  0.00    -0.234 C  
ATOM      7  C   TYR A   1     -10.473  11.320  65.078  1.00  0.00    -0.298 C  
ATOM      8  O   TYR A   1     -10.227   9.994  65.241  1.00  0.00    -0.296 OA 
ATOM      9  OXT TYR A   1     -11.073  11.744  64.100  1.00  0.00    -0.332 OA 
BRANCH   6  10
ATOM     10  CB  TYR A   1     -10.444  13.625  66.182  1.00  0.00    -0.297 C  
BRANCH  10  11
ATOM     11  CG  TYR A   1     -10.693  14.251  67.538  1.00  0.00    -0.270 A  
ATOM     12  CD1 TYR A   1     -11.877  14.026  68.259  1.00  0.00    -0.406 A  
ATOM     13  CE1 TYR A   1     -12.135  14.722  69.443  1.00  0.00    -0.305 A  
ATOM     14  CZ  TYR A   1     -11.188  15.610  69.935  1.00  0.00    -0.331 A  
ATOM     15  CE2 TYR A   1      -9.972  15.780  69.287  1.00  0.00    -0.262 A  
ATOM     16  OH  TYR A   1     -11.429  16.349  71.053  1.00  0.00    -0.542 OA 
ATOM     17  HH  TYR A   1     -10.781  16.958  71.390  1.00  0.00     0.000 HD 
ATOM     18  CD2 TYR A   1      -9.725  15.100  68.092  1.00  0.00    -0.217 A  
ENDBRANCH  10  11
ENDBRANCH   6  10
ENDBRANCH   3   6
TORSDOF 3
ENDMDL
MODEL      112
REMARK 921   NORMALIZED FREE ENERGY PREDICTED BY IDOCK:   -3.99 KCAL/MOL
REMARK 922        TOTAL FREE ENERGY PREDICTED BY IDOCK:   -5.12 KCAL/MOL
REMARK 923 INTER-LIGAND FREE ENERGY PREDICTED BY IDOCK:   -4.87 KCAL/MOL
REMARK 924 INTRA-LIGAND FREE ENERGY PREDICTED BY IDOCK:   -0.25 KCAL/MOL
REMARK 927      BINDING AFFINITY PREDICTED BY RF-SCORE:    0.00 PKD
ROOT
HETATM    1  C   UNK A   0     -10.131   5.424  69.003  1.00  0.00    -0.283 C  
HETATM    2  C   UNK A   0      -9.511   5.686  70.343  1.00  0.00    -0.166 C  
ATOM      3  N   TYR A   1     -10.388   5.808  71.391  1.00  0.00    -0.215 N  
HETATM    4  O   UNK A   0      -8.294   5.726  70.519  1.00  0.00    -0.115 OA 
ATOM      5  H   TYR A   1     -11.393   5.795  71.216  1.00  0.00     0.000 HD 
ENDROOT
BRANCH   3   6
ATOM      6  CA  TYR A   1      -9.886   5.960  72.763  1.00  0.00    -0.166 C  
ATOM      7  C   TYR A   1     -10.209   4.685  73.571  1.00  0.00    -0.174 C  
ATOM      8  O   TYR A   1      -9.497   3.602  73.163  1.00  0.00    -0.104 OA 
ATOM      9  OXT TYR A   1     -11.033   4.608  74.471  1.00  0.00    -0.295 OA 
BRANCH   6  10
ATOM     10  CB  TYR A   1     -10.453   7.226  73.434  1.00  0.00    -0.423 C  
BRANCH  10  11
ATOM     11  CG  TYR A   1     -11.048   8.246  72.487  1.00  0.00    -0.439 A  
ATOM     12  CD1 TYR A   1     -12.425   8.515  72.448  1.00  0.00    -0.416 A  
ATOM     13  CE1 TYR A   1     -12.960   9.362  71.474  1.00  0.00    -0.449 A  
ATOM     14  CZ  TYR A   1     -12.113   9.979  70.564  1.00  0.00    -0.251 A  
ATOM     15  CE2 TYR A   1     -10.739   9.799  70.641  1.00  0.00    -0.394 A  
ATOM     16  OH  TYR A   1     -12.603  10.764  69.564  1.00  0.00    -0.568 OA 
ATOM     17  HH  TYR A   1     -12.023  11.186  68.941  1.00  0.00     0.000 HD 
ATOM     18  CD2 TYR A   1     -10.207   8.936  71.601  1.00  0.00    -0.415 A  
ENDBRANCH  10  11
ENDBRANCH   6  10
ENDBRANCH   3   6
TORSDOF 3
ENDMDL
MODEL      113
REMARK 921   NORMALIZED FREE ENERGY PREDICTED BY IDOCK:   -3.98 KCAL/MOL
REMARK 922        TOTAL FREE ENERGY PREDICTED BY IDOCK:   -5.12 KCAL/MOL
REMARK 923 INTER-LIGAND FREE ENERGY PREDICTED BY IDOCK:   -5.16 KCAL/MOL
REMARK 924 INTRA-LIGAND FREE ENERGY PREDICTED BY IDOCK:    0.05 KCAL/MOL
REMARK 927      BINDING AFFINITY PREDICTED BY RF-SCORE:    0.00 PKD
ROOT
HETATM    1  C   UNK A   0     -11.077  11.399  64.457  1.00  0.00    -0.302 C  
HETATM    2  C   UNK A   0     -11.868  12.594  64.903  1.00  0.00    -0.387 C  
ATOM      3  N   TYR A   1     -11.131  13.665  65.340  1.00  0.00    -0.294 N  
HETATM    4  O   UNK A   0     -13.094  12.649  64.826  1.00  0.00    -0.852 OA 
ATOM      5  H   TYR A   1     -10.117  13.587  65.417  1.00  0.00     0.000 HD 
ENDROOT
BRANCH   3   6
ATOM      6  CA  TYR A   1     -11.796  14.925  65.700  1.00  0.00    -0.131 C  
ATOM      7  C   TYR A   1     -11.773  15.880  64.489  1.00  0.00    -0.161 C  
ATOM      8  O   TYR A   1     -12.565  15.463  63.466  1.00  0.00    -0.289 OA 
ATOM      9  OXT TYR A   1     -11.105  16.901  64.406  1.00  0.00    -1.128 OA 
BRANCH   6  10
ATOM     10  CB  TYR A   1     -11.159  15.562  66.950  1.00  0.00    -0.221 C  
BRANCH  10  11
ATOM     11  CG  TYR A   1      -9.759  15.086  67.273  1.00  0.00    -0.220 A  
ATOM     12  CD1 TYR A   1      -8.627  15.884  67.043  1.00  0.00    -0.245 A  
ATOM     13  CE1 TYR A   1      -7.341  15.369  67.227  1.00  0.00    -0.239 A  
ATOM     14  CZ  TYR A   1      -7.184  14.068  67.685  1.00  0.00    -0.176 A  
ATOM     15  CE2 TYR A   1      -8.289  13.292  68.006  1.00  0.00    -0.162 A  
ATOM     16  OH  TYR A   1      -5.948  13.511  67.819  1.00  0.00    -0.137 OA 
ATOM     17  HH  TYR A   1      -5.840  12.621  68.133  1.00  0.00     0.000 HD 
ATOM     18  CD2 TYR A   1      -9.574  13.800  67.801  1.00  0.00    -0.219 A  
ENDBRANCH  10  11
ENDBRANCH   6  10
ENDBRANCH   3   6
TORSDOF 3
ENDMDL
MODEL      114
REMARK 921   NORMALIZED FREE ENERGY PREDICTED BY IDOCK:   -3.97 KCAL/MOL
REMARK 922        TOTAL FREE ENERGY PREDICTED BY IDOCK:   -5.10 KCAL/MOL
REMARK 923 INTER-LIGAND FREE ENERGY PREDICTED BY IDOCK:   -5.47 KCAL/MOL
REMARK 924 INTRA-LIGAND FREE ENERGY PREDICTED BY IDOCK:    0.37 KCAL/MOL
REMARK 927      BINDING AFFINITY PREDICTED BY RF-SCORE:    0.00 PKD
ROOT
HETATM    1  C   UNK A   0     -11.935  11.947  63.266  1.00  0.00    -0.441 C  
HETATM    2  C   UNK A   0     -11.630  12.541  64.610  1.00  0.00    -0.343 C  
ATOM      3  N   TYR A   1     -10.398  13.130  64.734  1.00  0.00    -0.438 N  
HETATM    4  O   UNK A   0     -12.446  12.561  65.530  1.00  0.00    -0.646 OA 
ATOM      5  H   TYR A   1      -9.730  13.079  63.964  1.00  0.00     0.000 HD 
ENDROOT
BRANCH   3   6
ATOM      6  CA  TYR A   1     -10.036  13.835  65.971  1.00  0.00    -0.306 C  
ATOM      7  C   TYR A   1      -9.566  12.811  67.026  1.00  0.00    -0.229 C  
ATOM      8  O   TYR A   1      -8.378  12.230  66.712  1.00  0.00    -0.168 OA 
ATOM      9  OXT TYR A   1     -10.182  12.504  68.036  1.00  0.00    -0.211 OA 
BRANCH   6  10
ATOM     10  CB  TYR A   1     -11.200  14.702  66.488  1.00  0.00    -0.346 C  
BRANCH  10  11
ATOM     11  CG  TYR A   1     -10.790  15.941  67.255  1.00  0.00    -0.279 A  
ATOM     12  CD1 TYR A   1     -10.769  15.978  68.658  1.00  0.00    -0.281 A  
ATOM     13  CE1 TYR A   1     -10.516  17.173  69.337  1.00  0.00    -0.203 A  
ATOM     14  CZ  TYR A   1     -10.238  18.325  68.614  1.00  0.00    -0.353 A  
ATOM     15  CE2 TYR A   1     -10.164  18.291  67.228  1.00  0.00    -0.387 A  
ATOM     16  OH  TYR A   1     -10.045  19.521  69.239  1.00  0.00    -0.585 OA 
ATOM     17  HH  TYR A   1      -9.855  20.309  68.744  1.00  0.00     0.000 HD 
ATOM     18  CD2 TYR A   1     -10.438  17.101  66.551  1.00  0.00    -0.255 A  
ENDBRANCH  10  11
ENDBRANCH   6  10
ENDBRANCH   3   6
TORSDOF 3
ENDMDL
MODEL      115
REMARK 921   NORMALIZED FREE ENERGY PREDICTED BY IDOCK:   -3.94 KCAL/MOL
REMARK 922        TOTAL FREE ENERGY PREDICTED BY IDOCK:   -5.06 KCAL/MOL
REMARK 923 INTER-LIGAND FREE ENERGY PREDICTED BY IDOCK:   -4.67 KCAL/MOL
REMARK 924 INTRA-LIGAND FREE ENERGY PREDICTED BY IDOCK:   -0.40 KCAL/MOL
REMARK 927      BINDING AFFINITY PREDICTED BY RF-SCORE:    0.00 PKD
ROOT
HETATM    1  C   UNK A   0      -9.480  11.361  68.510  1.00  0.00    -0.183 C  
HETATM    2  C   UNK A   0     -10.707  12.191  68.273  1.00  0.00    -0.223 C  
ATOM      3  N   TYR A   1     -10.577  13.193  67.344  1.00  0.00    -0.241 N  
HETATM    4  O   UNK A   0     -11.784  11.961  68.819  1.00  0.00    -0.279 OA 
ATOM      5  H   TYR A   1      -9.667  13.379  66.922  1.00  0.00     0.000 HD 
ENDROOT
BRANCH   3   6
ATOM      6  CA  TYR A   1     -11.742  13.998  66.955  1.00  0.00    -0.398 C  
ATOM      7  C   TYR A   1     -12.094  13.712  65.481  1.00  0.00    -0.411 C  
ATOM      8  O   TYR A   1     -12.580  12.459  65.283  1.00  0.00    -0.636 OA 
ATOM      9  OXT TYR A   1     -11.941  14.493  64.553  1.00  0.00    -0.440 OA 
BRANCH   6  10
ATOM     10  CB  TYR A   1     -11.501  15.499  67.210  1.00  0.00    -0.102 C  
BRANCH  10  11
ATOM     11  CG  TYR A   1     -10.052  15.895  67.401  1.00  0.00    -0.252 A  
ATOM     12  CD1 TYR A   1      -9.485  16.063  68.674  1.00  0.00    -0.224 A  
ATOM     13  CE1 TYR A   1      -8.186  16.558  68.818  1.00  0.00    -0.248 A  
ATOM     14  CZ  TYR A   1      -7.434  16.842  67.687  1.00  0.00    -0.160 A  
ATOM     15  CE2 TYR A   1      -7.941  16.598  66.419  1.00  0.00    -0.360 A  
ATOM     16  OH  TYR A   1      -6.186  17.382  67.787  1.00  0.00    -0.143 OA 
ATOM     17  HH  TYR A   1      -5.671  17.577  67.013  1.00  0.00     0.000 HD 
ATOM     18  CD2 TYR A   1      -9.247  16.124  66.276  1.00  0.00    -0.366 A  
ENDBRANCH  10  11
ENDBRANCH   6  10
ENDBRANCH   3   6
TORSDOF 3
ENDMDL
MODEL      116
REMARK 921   NORMALIZED FREE ENERGY PREDICTED BY IDOCK:   -3.93 KCAL/MOL
REMARK 922        TOTAL FREE ENERGY PREDICTED BY IDOCK:   -5.05 KCAL/MOL
REMARK 923 INTER-LIGAND FREE ENERGY PREDICTED BY IDOCK:   -4.56 KCAL/MOL
REMARK 924 INTRA-LIGAND FREE ENERGY PREDICTED BY IDOCK:   -0.49 KCAL/MOL
REMARK 927      BINDING AFFINITY PREDICTED BY RF-SCORE:    0.00 PKD
ROOT
HETATM    1  C   UNK A   0      -8.942   6.275  66.754  1.00  0.00    -0.128 C  
HETATM    2  C   UNK A   0      -9.188   6.808  68.135  1.00  0.00    -0.121 C  
ATOM      3  N   TYR A   1      -9.910   5.992  68.968  1.00  0.00    -0.142 N  
HETATM    4  O   UNK A   0      -8.724   7.877  68.529  1.00  0.00    -0.131 OA 
ATOM      5  H   TYR A   1     -10.304   5.122  68.610  1.00  0.00     0.000 HD 
ENDROOT
BRANCH   3   6
ATOM      6  CA  TYR A   1     -10.120   6.367  70.373  1.00  0.00    -0.185 C  
ATOM      7  C   TYR A   1      -9.412   5.345  71.287  1.00  0.00    -0.150 C  
ATOM      8  O   TYR A   1      -8.057   5.412  71.210  1.00  0.00    -0.110 OA 
ATOM      9  OXT TYR A   1      -9.973   4.525  71.999  1.00  0.00    -0.176 OA 
BRANCH   6  10
ATOM     10  CB  TYR A   1     -11.619   6.495  70.704  1.00  0.00    -0.442 C  
BRANCH  10  11
ATOM     11  CG  TYR A   1     -12.093   7.899  71.011  1.00  0.00    -0.246 A  
ATOM     12  CD1 TYR A   1     -11.353   9.035  70.646  1.00  0.00    -0.311 A  
ATOM     13  CE1 TYR A   1     -11.749  10.310  71.060  1.00  0.00    -0.461 A  
ATOM     14  CZ  TYR A   1     -12.913  10.457  71.802  1.00  0.00    -0.475 A  
ATOM     15  CE2 TYR A   1     -13.709   9.359  72.097  1.00  0.00    -0.490 A  
ATOM     16  OH  TYR A   1     -13.299  11.676  72.274  1.00  0.00    -0.625 OA 
ATOM     17  HH  TYR A   1     -14.096  11.776  72.782  1.00  0.00     0.000 HD 
ATOM     18  CD2 TYR A   1     -13.300   8.083  71.702  1.00  0.00    -0.364 A  
ENDBRANCH  10  11
ENDBRANCH   6  10
ENDBRANCH   3   6
TORSDOF 3
ENDMDL
MODEL      117
REMARK 921   NORMALIZED FREE ENERGY PREDICTED BY IDOCK:   -3.91 KCAL/MOL
REMARK 922        TOTAL FREE ENERGY PREDICTED BY IDOCK:   -5.03 KCAL/MOL
REMARK 923 INTER-LIGAND FREE ENERGY PREDICTED BY IDOCK:   -4.62 KCAL/MOL
REMARK 924 INTRA-LIGAND FREE ENERGY PREDICTED BY IDOCK:   -0.41 KCAL/MOL
REMARK 927      BINDING AFFINITY PREDICTED BY RF-SCORE:    0.00 PKD
ROOT
HETATM    1  C   UNK A   0      -5.997  14.982  68.028  1.00  0.00    -0.157 C  
HETATM    2  C   UNK A   0      -6.542  16.200  67.344  1.00  0.00    -0.185 C  
ATOM      3  N   TYR A   1      -7.790  16.602  67.749  1.00  0.00    -0.162 N  
HETATM    4  O   UNK A   0      -5.899  16.846  66.519  1.00  0.00    -0.289 OA 
ATOM      5  H   TYR A   1      -8.313  16.036  68.418  1.00  0.00     0.000 HD 
ENDROOT
BRANCH   3   6
ATOM      6  CA  TYR A   1      -8.376  17.842  67.224  1.00  0.00    -0.220 C  
ATOM      7  C   TYR A   1      -8.793  18.750  68.399  1.00  0.00    -0.342 C  
ATOM      8  O   TYR A   1      -7.734  19.248  69.089  1.00  0.00    -0.328 OA 
ATOM      9  OXT TYR A   1      -9.944  18.998  68.727  1.00  0.00    -0.391 OA 
BRANCH   6  10
ATOM     10  CB  TYR A   1      -9.554  17.550  66.274  1.00  0.00    -0.253 C  
BRANCH  10  11
ATOM     11  CG  TYR A   1     -10.167  16.173  66.412  1.00  0.00    -0.315 A  
ATOM     12  CD1 TYR A   1     -11.012  15.833  67.481  1.00  0.00    -0.293 A  
ATOM     13  CE1 TYR A   1     -11.454  14.519  67.652  1.00  0.00    -0.374 A  
ATOM     14  CZ  TYR A   1     -11.090  13.549  66.729  1.00  0.00    -0.299 A  
ATOM     15  CE2 TYR A   1     -10.331  13.880  65.615  1.00  0.00    -0.337 A  
ATOM     16  OH  TYR A   1     -11.452  12.245  66.896  1.00  0.00    -0.317 OA 
ATOM     17  HH  TYR A   1     -11.202  11.581  66.263  1.00  0.00     0.000 HD 
ATOM     18  CD2 TYR A   1      -9.872  15.189  65.456  1.00  0.00    -0.356 A  
ENDBRANCH  10  11
ENDBRANCH   6  10
ENDBRANCH   3   6
TORSDOF 3
ENDMDL
MODEL      118
REMARK 921   NORMALIZED FREE ENERGY PREDICTED BY IDOCK:   -3.88 KCAL/MOL
REMARK 922        TOTAL FREE ENERGY PREDICTED BY IDOCK:   -5.00 KCAL/MOL
REMARK 923 INTER-LIGAND FREE ENERGY PREDICTED BY IDOCK:   -4.68 KCAL/MOL
REMARK 924 INTRA-LIGAND FREE ENERGY PREDICTED BY IDOCK:   -0.32 KCAL/MOL
REMARK 927      BINDING AFFINITY PREDICTED BY RF-SCORE:    0.00 PKD
ROOT
HETATM    1  C   UNK A   0      -8.079  12.156  68.507  1.00  0.00    -0.112 C  
HETATM    2  C   UNK A   0      -9.444  11.829  67.976  1.00  0.00    -0.188 C  
ATOM      3  N   TYR A   1      -9.900  12.637  66.966  1.00  0.00    -0.221 N  
HETATM    4  O   UNK A   0     -10.097  10.863  68.368  1.00  0.00    -0.170 OA 
ATOM      5  H   TYR A   1      -9.349  13.446  66.676  1.00  0.00     0.000 HD 
ENDROOT
BRANCH   3   6
ATOM      6  CA  TYR A   1     -11.176  12.344  66.301  1.00  0.00    -0.317 C  
ATOM      7  C   TYR A   1     -10.901  11.756  64.901  1.00  0.00    -0.298 C  
ATOM      8  O   TYR A   1     -10.350  10.515  64.943  1.00  0.00    -0.328 OA 
ATOM      9  OXT TYR A   1     -11.114  12.326  63.840  1.00  0.00    -0.341 OA 
BRANCH   6  10
ATOM     10  CB  TYR A   1     -12.078  13.592  66.236  1.00  0.00    -0.476 C  
BRANCH  10  11
ATOM     11  CG  TYR A   1     -11.430  14.880  66.695  1.00  0.00    -0.297 A  
ATOM     12  CD1 TYR A   1     -10.685  15.693  65.826  1.00  0.00    -0.350 A  
ATOM     13  CE1 TYR A   1      -9.988  16.805  66.308  1.00  0.00    -0.336 A  
ATOM     14  CZ  TYR A   1     -10.073  17.133  67.654  1.00  0.00    -0.305 A  
ATOM     15  CE2 TYR A   1     -10.876  16.396  68.514  1.00  0.00    -0.339 A  
ATOM     16  OH  TYR A   1      -9.361  18.173  68.173  1.00  0.00    -0.272 OA 
ATOM     17  HH  TYR A   1      -9.418  18.397  69.094  1.00  0.00     0.000 HD 
ATOM     18  CD2 TYR A   1     -11.554  15.274  68.035  1.00  0.00    -0.325 A  
ENDBRANCH  10  11
ENDBRANCH   6  10
ENDBRANCH   3   6
TORSDOF 3
ENDMDL
MODEL      119
REMARK 921   NORMALIZED FREE ENERGY PREDICTED BY IDOCK:   -3.88 KCAL/MOL
REMARK 922        TOTAL FREE ENERGY PREDICTED BY IDOCK:   -5.00 KCAL/MOL
REMARK 923 INTER-LIGAND FREE ENERGY PREDICTED BY IDOCK:   -4.46 KCAL/MOL
REMARK 924 INTRA-LIGAND FREE ENERGY PREDICTED BY IDOCK:   -0.54 KCAL/MOL
REMARK 927      BINDING AFFINITY PREDICTED BY RF-SCORE:    0.00 PKD
ROOT
HETATM    1  C   UNK A   0     -12.260  13.807  69.799  1.00  0.00    -0.368 C  
HETATM    2  C   UNK A   0     -11.816  14.516  68.553  1.00  0.00    -0.320 C  
ATOM      3  N   TYR A   1     -11.392  13.708  67.528  1.00  0.00    -0.294 N  
HETATM    4  O   UNK A   0     -11.882  15.737  68.422  1.00  0.00    -0.338 OA 
ATOM      5  H   TYR A   1     -11.325  12.700  67.671  1.00  0.00     0.000 HD 
ENDROOT
BRANCH   3   6
ATOM      6  CA  TYR A   1     -11.036  14.289  66.227  1.00  0.00    -0.323 C  
ATOM      7  C   TYR A   1     -11.964  13.713  65.137  1.00  0.00    -0.372 C  
ATOM      8  O   TYR A   1     -13.250  14.136  65.255  1.00  0.00    -0.760 OA 
ATOM      9  OXT TYR A   1     -11.625  12.933  64.259  1.00  0.00    -0.336 OA 
BRANCH   6  10
ATOM     10  CB  TYR A   1      -9.548  14.061  65.897  1.00  0.00    -0.186 C  
BRANCH  10  11
ATOM     11  CG  TYR A   1      -8.574  14.533  66.954  1.00  0.00    -0.207 A  
ATOM     12  CD1 TYR A   1      -7.815  13.637  67.725  1.00  0.00    -0.172 A  
ATOM     13  CE1 TYR A   1      -7.025  14.095  68.783  1.00  0.00    -0.104 A  
ATOM     14  CZ  TYR A   1      -6.955  15.457  69.044  1.00  0.00    -0.138 A  
ATOM     15  CE2 TYR A   1      -7.625  16.368  68.239  1.00  0.00    -0.163 A  
ATOM     16  OH  TYR A   1      -6.244  15.936  70.103  1.00  0.00    -0.152 OA 
ATOM     17  HH  TYR A   1      -6.196  16.868  70.281  1.00  0.00     0.000 HD 
ATOM     18  CD2 TYR A   1      -8.430  15.907  67.196  1.00  0.00    -0.225 A  
ENDBRANCH  10  11
ENDBRANCH   6  10
ENDBRANCH   3   6
TORSDOF 3
ENDMDL
MODEL      120
REMARK 921   NORMALIZED FREE ENERGY PREDICTED BY IDOCK:   -3.85 KCAL/MOL
REMARK 922        TOTAL FREE ENERGY PREDICTED BY IDOCK:   -4.96 KCAL/MOL
REMARK 923 INTER-LIGAND FREE ENERGY PREDICTED BY IDOCK:   -4.65 KCAL/MOL
REMARK 924 INTRA-LIGAND FREE ENERGY PREDICTED BY IDOCK:   -0.32 KCAL/MOL
REMARK 927      BINDING AFFINITY PREDICTED BY RF-SCORE:    0.00 PKD
ROOT
HETATM    1  C   UNK A   0      -8.767  14.296  67.024  1.00  0.00    -0.231 C  
HETATM    2  C   UNK A   0      -8.822  13.040  67.843  1.00  0.00    -0.193 C  
ATOM      3  N   TYR A   1      -9.958  12.285  67.699  1.00  0.00    -0.195 N  
HETATM    4  O   UNK A   0      -7.890  12.665  68.553  1.00  0.00    -0.137 OA 
ATOM      5  H   TYR A   1     -10.726  12.629  67.122  1.00  0.00     0.000 HD 
ENDROOT
BRANCH   3   6
ATOM      6  CA  TYR A   1     -10.073  10.984  68.371  1.00  0.00    -0.184 C  
ATOM      7  C   TYR A   1      -9.960   9.855  67.325  1.00  0.00    -0.196 C  
ATOM      8  O   TYR A   1      -8.717   9.749  66.788  1.00  0.00    -0.130 OA 
ATOM      9  OXT TYR A   1     -10.876   9.128  66.967  1.00  0.00    -0.182 OA 
BRANCH   6  10
ATOM     10  CB  TYR A   1     -11.376  10.885  69.188  1.00  0.00    -0.350 C  
BRANCH  10  11
ATOM     11  CG  TYR A   1     -11.350   9.885  70.324  1.00  0.00    -0.357 A  
ATOM     12  CD1 TYR A   1     -12.514   9.498  71.007  1.00  0.00    -0.347 A  
ATOM     13  CE1 TYR A   1     -12.441   8.678  72.136  1.00  0.00    -0.453 A  
ATOM     14  CZ  TYR A   1     -11.207   8.204  72.558  1.00  0.00    -0.391 A  
ATOM     15  CE2 TYR A   1     -10.053   8.499  71.846  1.00  0.00    -0.367 A  
ATOM     16  OH  TYR A   1     -11.090   7.451  73.688  1.00  0.00    -0.576 OA 
ATOM     17  HH  TYR A   1     -10.244   7.127  73.978  1.00  0.00     0.000 HD 
ATOM     18  CD2 TYR A   1     -10.124   9.337  70.731  1.00  0.00    -0.358 A  
ENDBRANCH  10  11
ENDBRANCH   6  10
ENDBRANCH   3   6
TORSDOF 3
ENDMDL
MODEL      121
REMARK 921   NORMALIZED FREE ENERGY PREDICTED BY IDOCK:   -3.83 KCAL/MOL
REMARK 922        TOTAL FREE ENERGY PREDICTED BY IDOCK:   -4.94 KCAL/MOL
REMARK 923 INTER-LIGAND FREE ENERGY PREDICTED BY IDOCK:   -4.51 KCAL/MOL
REMARK 924 INTRA-LIGAND FREE ENERGY PREDICTED BY IDOCK:   -0.43 KCAL/MOL
REMARK 927      BINDING AFFINITY PREDICTED BY RF-SCORE:    0.00 PKD
ROOT
HETATM    1  C   UNK A   0     -10.165   2.910  72.888  1.00  0.00    -0.233 C  
HETATM    2  C   UNK A   0     -10.013   4.174  72.093  1.00  0.00    -0.174 C  
ATOM      3  N   TYR A   1     -10.941   5.152  72.346  1.00  0.00    -0.210 N  
HETATM    4  O   UNK A   0      -9.084   4.360  71.309  1.00  0.00    -0.118 OA 
ATOM      5  H   TYR A   1     -11.716   4.964  72.983  1.00  0.00     0.000 HD 
ENDROOT
BRANCH   3   6
ATOM      6  CA  TYR A   1     -10.825   6.467  71.702  1.00  0.00    -0.240 C  
ATOM      7  C   TYR A   1     -11.142   7.571  72.733  1.00  0.00    -0.366 C  
ATOM      8  O   TYR A   1     -10.196   7.683  73.701  1.00  0.00    -0.320 OA 
ATOM      9  OXT TYR A   1     -12.142   8.274  72.731  1.00  0.00    -0.353 OA 
BRANCH   6  10
ATOM     10  CB  TYR A   1     -11.725   6.566  70.456  1.00  0.00    -0.438 C  
BRANCH  10  11
ATOM     11  CG  TYR A   1     -11.021   6.990  69.185  1.00  0.00    -0.193 A  
ATOM     12  CD1 TYR A   1     -10.379   8.233  69.065  1.00  0.00    -0.233 A  
ATOM     13  CE1 TYR A   1      -9.854   8.651  67.838  1.00  0.00    -0.211 A  
ATOM     14  CZ  TYR A   1      -9.930   7.807  66.739  1.00  0.00    -0.261 A  
ATOM     15  CE2 TYR A   1     -10.479   6.537  66.857  1.00  0.00    -0.347 A  
ATOM     16  OH  TYR A   1      -9.483   8.203  65.514  1.00  0.00    -0.416 OA 
ATOM     17  HH  TYR A   1      -9.535   7.625  64.761  1.00  0.00     0.000 HD 
ATOM     18  CD2 TYR A   1     -11.022   6.130  68.077  1.00  0.00    -0.399 A  
ENDBRANCH  10  11
ENDBRANCH   6  10
ENDBRANCH   3   6
TORSDOF 3
ENDMDL
MODEL      122
REMARK 921   NORMALIZED FREE ENERGY PREDICTED BY IDOCK:   -3.81 KCAL/MOL
REMARK 922        TOTAL FREE ENERGY PREDICTED BY IDOCK:   -4.91 KCAL/MOL
REMARK 923 INTER-LIGAND FREE ENERGY PREDICTED BY IDOCK:   -4.56 KCAL/MOL
REMARK 924 INTRA-LIGAND FREE ENERGY PREDICTED BY IDOCK:   -0.35 KCAL/MOL
REMARK 927      BINDING AFFINITY PREDICTED BY RF-SCORE:    0.00 PKD
ROOT
HETATM    1  C   UNK A   0      -6.021   7.767  70.472  1.00  0.00    -0.030 C  
HETATM    2  C   UNK A   0      -7.101   8.626  71.059  1.00  0.00    -0.076 C  
ATOM      3  N   TYR A   1      -8.327   8.027  71.200  1.00  0.00    -0.109 N  
HETATM    4  O   UNK A   0      -6.901   9.774  71.453  1.00  0.00    -0.326 OA 
ATOM      5  H   TYR A   1      -8.474   7.082  70.844  1.00  0.00     0.000 HD 
ENDROOT
BRANCH   3   6
ATOM      6  CA  TYR A   1      -9.429   8.740  71.861  1.00  0.00    -0.292 C  
ATOM      7  C   TYR A   1      -9.919   7.917  73.071  1.00  0.00    -0.296 C  
ATOM      8  O   TYR A   1      -9.013   7.866  74.082  1.00  0.00    -0.245 OA 
ATOM      9  OXT TYR A   1     -10.990   7.333  73.141  1.00  0.00    -0.337 OA 
BRANCH   6  10
ATOM     10  CB  TYR A   1     -10.571   9.051  70.874  1.00  0.00    -0.316 C  
BRANCH  10  11
ATOM     11  CG  TYR A   1     -10.590   8.201  69.622  1.00  0.00    -0.223 A  
ATOM     12  CD1 TYR A   1     -10.258   8.720  68.361  1.00  0.00    -0.228 A  
ATOM     13  CE1 TYR A   1     -10.414   7.948  67.206  1.00  0.00    -0.390 A  
ATOM     14  CZ  TYR A   1     -10.859   6.638  67.315  1.00  0.00    -0.385 A  
ATOM     15  CE2 TYR A   1     -11.107   6.075  68.559  1.00  0.00    -0.279 A  
ATOM     16  OH  TYR A   1     -11.080   5.875  66.208  1.00  0.00    -0.721 OA 
ATOM     17  HH  TYR A   1     -11.385   4.978  66.282  1.00  0.00     0.000 HD 
ATOM     18  CD2 TYR A   1     -10.972   6.854  69.710  1.00  0.00    -0.310 A  
ENDBRANCH  10  11
ENDBRANCH   6  10
ENDBRANCH   3   6
TORSDOF 3
ENDMDL
MODEL      123
REMARK 921   NORMALIZED FREE ENERGY PREDICTED BY IDOCK:   -3.80 KCAL/MOL
REMARK 922        TOTAL FREE ENERGY PREDICTED BY IDOCK:   -4.91 KCAL/MOL
REMARK 923 INTER-LIGAND FREE ENERGY PREDICTED BY IDOCK:   -4.57 KCAL/MOL
REMARK 924 INTRA-LIGAND FREE ENERGY PREDICTED BY IDOCK:   -0.34 KCAL/MOL
REMARK 927      BINDING AFFINITY PREDICTED BY RF-SCORE:    0.00 PKD
ROOT
HETATM    1  C   UNK A   0      -8.951   9.468  63.088  1.00  0.00    -0.217 C  
HETATM    2  C   UNK A   0      -8.826  10.538  64.133  1.00  0.00    -0.194 C  
ATOM      3  N   TYR A   1      -9.933  11.328  64.311  1.00  0.00    -0.273 N  
HETATM    4  O   UNK A   0      -7.826  10.669  64.837  1.00  0.00    -0.084 OA 
ATOM      5  H   TYR A   1     -10.741  11.215  63.699  1.00  0.00     0.000 HD 
ENDROOT
BRANCH   3   6
ATOM      6  CA  TYR A   1      -9.959  12.336  65.379  1.00  0.00    -0.244 C  
ATOM      7  C   TYR A   1     -10.879  11.852  66.519  1.00  0.00    -0.278 C  
ATOM      8  O   TYR A   1     -10.375  10.786  67.194  1.00  0.00    -0.203 OA 
ATOM      9  OXT TYR A   1     -11.969  12.330  66.800  1.00  0.00    -0.586 OA 
BRANCH   6  10
ATOM     10  CB  TYR A   1     -10.385  13.716  64.842  1.00  0.00    -0.408 C  
BRANCH  10  11
ATOM     11  CG  TYR A   1      -9.970  14.896  65.693  1.00  0.00    -0.389 A  
ATOM     12  CD1 TYR A   1      -8.952  14.802  66.656  1.00  0.00    -0.286 A  
ATOM     13  CE1 TYR A   1      -8.683  15.869  67.518  1.00  0.00    -0.189 A  
ATOM     14  CZ  TYR A   1      -9.400  17.050  67.388  1.00  0.00    -0.239 A  
ATOM     15  CE2 TYR A   1     -10.347  17.198  66.385  1.00  0.00    -0.307 A  
ATOM     16  OH  TYR A   1      -9.207  18.090  68.248  1.00  0.00    -0.277 OA 
ATOM     17  HH  TYR A   1      -9.698  18.899  68.159  1.00  0.00     0.000 HD 
ATOM     18  CD2 TYR A   1     -10.630  16.124  65.539  1.00  0.00    -0.394 A  
ENDBRANCH  10  11
ENDBRANCH   6  10
ENDBRANCH   3   6
TORSDOF 3
ENDMDL
MODEL      124
REMARK 921   NORMALIZED FREE ENERGY PREDICTED BY IDOCK:   -3.80 KCAL/MOL
REMARK 922        TOTAL FREE ENERGY PREDICTED BY IDOCK:   -4.90 KCAL/MOL
REMARK 923 INTER-LIGAND FREE ENERGY PREDICTED BY IDOCK:   -4.46 KCAL/MOL
REMARK 924 INTRA-LIGAND FREE ENERGY PREDICTED BY IDOCK:   -0.44 KCAL/MOL
REMARK 927      BINDING AFFINITY PREDICTED BY RF-SCORE:    0.00 PKD
ROOT
HETATM    1  C   UNK A   0     -13.471   8.980  72.163  1.00  0.00    -0.514 C  
HETATM    2  C   UNK A   0     -12.506   9.974  71.586  1.00  0.00    -0.418 C  
ATOM      3  N   TYR A   1     -13.045  11.179  71.213  1.00  0.00    -0.327 N  
HETATM    4  O   UNK A   0     -11.298   9.759  71.504  1.00  0.00    -0.367 OA 
ATOM      5  H   TYR A   1     -14.053  11.323  71.269  1.00  0.00     0.000 HD 
ENDROOT
BRANCH   3   6
ATOM      6  CA  TYR A   1     -12.176  12.263  70.735  1.00  0.00    -0.260 C  
ATOM      7  C   TYR A   1     -12.703  13.613  71.264  1.00  0.00    -0.361 C  
ATOM      8  O   TYR A   1     -12.558  13.752  72.608  1.00  0.00    -0.130 OA 
ATOM      9  OXT TYR A   1     -13.228  14.482  70.583  1.00  0.00    -0.334 OA 
BRANCH   6  10
ATOM     10  CB  TYR A   1     -12.055  12.252  69.199  1.00  0.00    -0.214 C  
BRANCH  10  11
ATOM     11  CG  TYR A   1     -10.675  12.560  68.659  1.00  0.00    -0.263 A  
ATOM     12  CD1 TYR A   1     -10.267  13.867  68.352  1.00  0.00    -0.243 A  
ATOM     13  CE1 TYR A   1      -9.037  14.105  67.731  1.00  0.00    -0.190 A  
ATOM     14  CZ  TYR A   1      -8.192  13.039  67.458  1.00  0.00    -0.181 A  
ATOM     15  CE2 TYR A   1      -8.535  11.748  67.835  1.00  0.00    -0.154 A  
ATOM     16  OH  TYR A   1      -7.013  13.224  66.800  1.00  0.00    -0.305 OA 
ATOM     17  HH  TYR A   1      -6.434  12.494  66.613  1.00  0.00     0.000 HD 
ATOM     18  CD2 TYR A   1      -9.773  11.509  68.436  1.00  0.00    -0.202 A  
ENDBRANCH  10  11
ENDBRANCH   6  10
ENDBRANCH   3   6
TORSDOF 3
ENDMDL
MODEL      125
REMARK 921   NORMALIZED FREE ENERGY PREDICTED BY IDOCK:   -3.80 KCAL/MOL
REMARK 922        TOTAL FREE ENERGY PREDICTED BY IDOCK:   -4.90 KCAL/MOL
REMARK 923 INTER-LIGAND FREE ENERGY PREDICTED BY IDOCK:   -4.41 KCAL/MOL
REMARK 924 INTRA-LIGAND FREE ENERGY PREDICTED BY IDOCK:   -0.49 KCAL/MOL
REMARK 927      BINDING AFFINITY PREDICTED BY RF-SCORE:    0.00 PKD
ROOT
HETATM    1  C   UNK A   0     -12.122  11.103  70.557  1.00  0.00    -0.474 C  
HETATM    2  C   UNK A   0     -11.220   9.913  70.416  1.00  0.00    -0.313 C  
ATOM      3  N   TYR A   1     -11.370   9.186  69.262  1.00  0.00    -0.420 N  
HETATM    4  O   UNK A   0     -10.354   9.632  71.242  1.00  0.00    -0.275 OA 
ATOM      5  H   TYR A   1     -12.111   9.426  68.604  1.00  0.00     0.000 HD 
ENDROOT
BRANCH   3   6
ATOM      6  CA  TYR A   1     -10.467   8.064  68.972  1.00  0.00    -0.199 C  
ATOM      7  C   TYR A   1      -9.880   8.232  67.555  1.00  0.00    -0.177 C  
ATOM      8  O   TYR A   1      -9.018   9.278  67.457  1.00  0.00    -0.119 OA 
ATOM      9  OXT TYR A   1     -10.157   7.538  66.587  1.00  0.00    -0.235 OA 
BRANCH   6  10
ATOM     10  CB  TYR A   1     -11.180   6.708  69.143  1.00  0.00    -0.305 C  
BRANCH  10  11
ATOM     11  CG  TYR A   1     -10.780   5.921  70.372  1.00  0.00    -0.373 A  
ATOM     12  CD1 TYR A   1      -9.793   4.924  70.333  1.00  0.00    -0.302 A  
ATOM     13  CE1 TYR A   1      -9.540   4.124  71.451  1.00  0.00    -0.238 A  
ATOM     14  CZ  TYR A   1     -10.243   4.350  72.627  1.00  0.00    -0.180 A  
ATOM     15  CE2 TYR A   1     -11.160   5.389  72.715  1.00  0.00    -0.349 A  
ATOM     16  OH  TYR A   1     -10.068   3.553  73.718  1.00  0.00    -0.115 OA 
ATOM     17  HH  TYR A   1     -10.549   3.708  74.522  1.00  0.00     0.000 HD 
ATOM     18  CD2 TYR A   1     -11.426   6.173  71.592  1.00  0.00    -0.331 A  
ENDBRANCH  10  11
ENDBRANCH   6  10
ENDBRANCH   3   6
TORSDOF 3
ENDMDL
MODEL      126
REMARK 921   NORMALIZED FREE ENERGY PREDICTED BY IDOCK:   -3.79 KCAL/MOL
REMARK 922        TOTAL FREE ENERGY PREDICTED BY IDOCK:   -4.89 KCAL/MOL
REMARK 923 INTER-LIGAND FREE ENERGY PREDICTED BY IDOCK:   -4.40 KCAL/MOL
REMARK 924 INTRA-LIGAND FREE ENERGY PREDICTED BY IDOCK:   -0.49 KCAL/MOL
REMARK 927      BINDING AFFINITY PREDICTED BY RF-SCORE:    0.00 PKD
ROOT
HETATM    1  C   UNK A   0     -11.936   9.032  71.971  1.00  0.00    -0.433 C  
HETATM    2  C   UNK A   0     -11.977   7.594  71.543  1.00  0.00    -0.303 C  
ATOM      3  N   TYR A   1     -10.793   6.909  71.645  1.00  0.00    -0.223 N  
HETATM    4  O   UNK A   0     -13.012   7.036  71.182  1.00  0.00    -0.360 OA 
ATOM      5  H   TYR A   1      -9.944   7.401  71.925  1.00  0.00     0.000 HD 
ENDROOT
BRANCH   3   6
ATOM      6  CA  TYR A   1     -10.743   5.470  71.355  1.00  0.00    -0.221 C  
ATOM      7  C   TYR A   1     -10.383   4.699  72.642  1.00  0.00    -0.196 C  
ATOM      8  O   TYR A   1     -11.369   4.731  73.575  1.00  0.00    -0.332 OA 
ATOM      9  OXT TYR A   1      -9.321   4.130  72.852  1.00  0.00    -0.113 OA 
BRANCH   6  10
ATOM     10  CB  TYR A   1      -9.765   5.161  70.205  1.00  0.00    -0.274 C  
BRANCH  10  11
ATOM     11  CG  TYR A   1      -9.830   6.113  69.030  1.00  0.00    -0.170 A  
ATOM     12  CD1 TYR A   1     -10.930   6.152  68.159  1.00  0.00    -0.398 A  
ATOM     13  CE1 TYR A   1     -10.903   6.946  67.009  1.00  0.00    -0.436 A  
ATOM     14  CZ  TYR A   1      -9.793   7.739  66.751  1.00  0.00    -0.241 A  
ATOM     15  CE2 TYR A   1      -8.732   7.785  67.645  1.00  0.00    -0.126 A  
ATOM     16  OH  TYR A   1      -9.705   8.479  65.611  1.00  0.00    -0.448 OA 
ATOM     17  HH  TYR A   1      -8.945   9.022  65.434  1.00  0.00     0.000 HD 
ATOM     18  CD2 TYR A   1      -8.751   6.975  68.782  1.00  0.00    -0.127 A  
ENDBRANCH  10  11
ENDBRANCH   6  10
ENDBRANCH   3   6
TORSDOF 3
ENDMDL
MODEL      127
REMARK 921   NORMALIZED FREE ENERGY PREDICTED BY IDOCK:   -3.77 KCAL/MOL
REMARK 922        TOTAL FREE ENERGY PREDICTED BY IDOCK:   -4.86 KCAL/MOL
REMARK 923 INTER-LIGAND FREE ENERGY PREDICTED BY IDOCK:   -5.15 KCAL/MOL
REMARK 924 INTRA-LIGAND FREE ENERGY PREDICTED BY IDOCK:    0.29 KCAL/MOL
REMARK 927      BINDING AFFINITY PREDICTED BY RF-SCORE:    0.00 PKD
ROOT
HETATM    1  C   UNK A   0     -10.873  19.417  67.430  1.00  0.00    -0.555 C  
HETATM    2  C   UNK A   0      -9.813  18.471  66.950  1.00  0.00    -0.334 C  
ATOM      3  N   TYR A   1      -9.336  17.587  67.885  1.00  0.00    -0.260 N  
HETATM    4  O   UNK A   0      -9.432  18.434  65.781  1.00  0.00    -0.452 OA 
ATOM      5  H   TYR A   1      -9.650  17.654  68.853  1.00  0.00     0.000 HD 
ENDROOT
BRANCH   3   6
ATOM      6  CA  TYR A   1      -8.373  16.547  67.498  1.00  0.00    -0.164 C  
ATOM      7  C   TYR A   1      -6.998  17.194  67.233  1.00  0.00    -0.167 C  
ATOM      8  O   TYR A   1      -6.409  17.672  68.360  1.00  0.00    -0.177 OA 
ATOM      9  OXT TYR A   1      -6.471  17.311  66.136  1.00  0.00    -0.214 OA 
BRANCH   6  10
ATOM     10  CB  TYR A   1      -8.874  15.739  66.285  1.00  0.00    -0.378 C  
BRANCH  10  11
ATOM     11  CG  TYR A   1      -9.806  14.593  66.615  1.00  0.00    -0.280 A  
ATOM     12  CD1 TYR A   1     -11.193  14.770  66.742  1.00  0.00    -0.344 A  
ATOM     13  CE1 TYR A   1     -12.010  13.722  67.177  1.00  0.00    -0.442 A  
ATOM     14  CZ  TYR A   1     -11.448  12.481  67.442  1.00  0.00    -0.341 A  
ATOM     15  CE2 TYR A   1     -10.093  12.258  67.236  1.00  0.00    -0.212 A  
ATOM     16  OH  TYR A   1     -12.202  11.454  67.925  1.00  0.00    -0.592 OA 
ATOM     17  HH  TYR A   1     -11.816  10.604  68.106  1.00  0.00     0.000 HD 
ATOM     18  CD2 TYR A   1      -9.275  13.311  66.822  1.00  0.00    -0.237 A  
ENDBRANCH  10  11
ENDBRANCH   6  10
ENDBRANCH   3   6
TORSDOF 3
ENDMDL
MODEL      128
REMARK 921   NORMALIZED FREE ENERGY PREDICTED BY IDOCK:   -3.76 KCAL/MOL
REMARK 922        TOTAL FREE ENERGY PREDICTED BY IDOCK:   -4.85 KCAL/MOL
REMARK 923 INTER-LIGAND FREE ENERGY PREDICTED BY IDOCK:   -4.49 KCAL/MOL
REMARK 924 INTRA-LIGAND FREE ENERGY PREDICTED BY IDOCK:   -0.36 KCAL/MOL
REMARK 927      BINDING AFFINITY PREDICTED BY RF-SCORE:    0.00 PKD
ROOT
HETATM    1  C   UNK A   0      -6.765  12.188  69.319  1.00  0.00    -0.084 C  
HETATM    2  C   UNK A   0      -7.455  13.177  68.426  1.00  0.00    -0.124 C  
ATOM      3  N   TYR A   1      -8.645  13.673  68.894  1.00  0.00    -0.365 N  
HETATM    4  O   UNK A   0      -6.966  13.574  67.369  1.00  0.00    -0.166 OA 
ATOM      5  H   TYR A   1      -9.040  13.309  69.761  1.00  0.00     0.000 HD 
ENDROOT
BRANCH   3   6
ATOM      6  CA  TYR A   1      -9.352  14.725  68.151  1.00  0.00    -0.197 C  
ATOM      7  C   TYR A   1      -9.282  16.047  68.944  1.00  0.00    -0.233 C  
ATOM      8  O   TYR A   1      -8.030  16.573  68.991  1.00  0.00    -0.237 OA 
ATOM      9  OXT TYR A   1     -10.224  16.583  69.509  1.00  0.00    -0.263 OA 
BRANCH   6  10
ATOM     10  CB  TYR A   1     -10.804  14.316  67.840  1.00  0.00    -0.260 C  
BRANCH  10  11
ATOM     11  CG  TYR A   1     -11.293  13.077  68.559  1.00  0.00    -0.323 A  
ATOM     12  CD1 TYR A   1     -11.842  13.129  69.850  1.00  0.00    -0.378 A  
ATOM     13  CE1 TYR A   1     -12.160  11.956  70.540  1.00  0.00    -0.422 A  
ATOM     14  CZ  TYR A   1     -11.975  10.728  69.921  1.00  0.00    -0.342 A  
ATOM     15  CE2 TYR A   1     -11.520  10.655  68.612  1.00  0.00    -0.332 A  
ATOM     16  OH  TYR A   1     -12.218   9.561  70.582  1.00  0.00    -0.431 OA 
ATOM     17  HH  TYR A   1     -12.090   8.720  70.158  1.00  0.00     0.000 HD 
ATOM     18  CD2 TYR A   1     -11.181  11.827  67.932  1.00  0.00    -0.331 A  
ENDBRANCH  10  11
ENDBRANCH   6  10
ENDBRANCH   3   6
TORSDOF 3
ENDMDL
MODEL      129
REMARK 921   NORMALIZED FREE ENERGY PREDICTED BY IDOCK:   -3.75 KCAL/MOL
REMARK 922        TOTAL FREE ENERGY PREDICTED BY IDOCK:   -4.84 KCAL/MOL
REMARK 923 INTER-LIGAND FREE ENERGY PREDICTED BY IDOCK:   -4.39 KCAL/MOL
REMARK 924 INTRA-LIGAND FREE ENERGY PREDICTED BY IDOCK:   -0.45 KCAL/MOL
REMARK 927      BINDING AFFINITY PREDICTED BY RF-SCORE:    0.00 PKD
ROOT
HETATM    1  C   UNK A   0     -10.515  15.162  65.065  1.00  0.00    -0.418 C  
HETATM    2  C   UNK A   0     -10.507  14.279  66.277  1.00  0.00    -0.291 C  
ATOM      3  N   TYR A   1      -9.646  13.212  66.231  1.00  0.00    -0.357 N  
HETATM    4  O   UNK A   0     -11.176  14.519  67.281  1.00  0.00    -0.308 OA 
ATOM      5  H   TYR A   1      -9.120  13.021  65.378  1.00  0.00     0.000 HD 
ENDROOT
BRANCH   3   6
ATOM      6  CA  TYR A   1      -9.479  12.343  67.404  1.00  0.00    -0.186 C  
ATOM      7  C   TYR A   1      -7.986  11.990  67.572  1.00  0.00    -0.159 C  
ATOM      8  O   TYR A   1      -7.226  13.055  67.939  1.00  0.00    -0.099 OA 
ATOM      9  OXT TYR A   1      -7.494  10.889  67.377  1.00  0.00    -0.094 OA 
BRANCH   6  10
ATOM     10  CB  TYR A   1     -10.361  11.084  67.303  1.00  0.00    -0.249 C  
BRANCH  10  11
ATOM     11  CG  TYR A   1     -10.970  10.618  68.608  1.00  0.00    -0.291 A  
ATOM     12  CD1 TYR A   1     -12.143  11.186  69.131  1.00  0.00    -0.352 A  
ATOM     13  CE1 TYR A   1     -12.606  10.827  70.400  1.00  0.00    -0.395 A  
ATOM     14  CZ  TYR A   1     -11.923   9.865  71.130  1.00  0.00    -0.384 A  
ATOM     15  CE2 TYR A   1     -10.814   9.224  70.596  1.00  0.00    -0.339 A  
ATOM     16  OH  TYR A   1     -12.309   9.533  72.394  1.00  0.00    -0.241 OA 
ATOM     17  HH  TYR A   1     -11.842   8.874  72.894  1.00  0.00     0.000 HD 
ATOM     18  CD2 TYR A   1     -10.340   9.599  69.337  1.00  0.00    -0.226 A  
ENDBRANCH  10  11
ENDBRANCH   6  10
ENDBRANCH   3   6
TORSDOF 3
ENDMDL
MODEL      130
REMARK 921   NORMALIZED FREE ENERGY PREDICTED BY IDOCK:   -3.73 KCAL/MOL
REMARK 922        TOTAL FREE ENERGY PREDICTED BY IDOCK:   -4.81 KCAL/MOL
REMARK 923 INTER-LIGAND FREE ENERGY PREDICTED BY IDOCK:   -4.42 KCAL/MOL
REMARK 924 INTRA-LIGAND FREE ENERGY PREDICTED BY IDOCK:   -0.40 KCAL/MOL
REMARK 927      BINDING AFFINITY PREDICTED BY RF-SCORE:    0.00 PKD
ROOT
HETATM    1  C   UNK A   0      -7.704  12.936  67.912  1.00  0.00    -0.143 C  
HETATM    2  C   UNK A   0      -9.179  12.705  67.761  1.00  0.00    -0.195 C  
ATOM      3  N   TYR A   1      -9.922  12.834  68.908  1.00  0.00    -0.420 N  
HETATM    4  O   UNK A   0      -9.711  12.479  66.676  1.00  0.00    -0.229 OA 
ATOM      5  H   TYR A   1      -9.454  12.998  69.799  1.00  0.00     0.000 HD 
ENDROOT
BRANCH   3   6
ATOM      6  CA  TYR A   1     -11.386  12.734  68.856  1.00  0.00    -0.296 C  
ATOM      7  C   TYR A   1     -12.006  14.104  69.203  1.00  0.00    -0.349 C  
ATOM      8  O   TYR A   1     -11.786  15.045  68.248  1.00  0.00    -0.328 OA 
ATOM      9  OXT TYR A   1     -12.613  14.366  70.232  1.00  0.00    -0.345 OA 
BRANCH   6  10
ATOM     10  CB  TYR A   1     -11.908  11.615  69.779  1.00  0.00    -0.428 C  
BRANCH  10  11
ATOM     11  CG  TYR A   1     -11.132  10.317  69.720  1.00  0.00    -0.340 A  
ATOM     12  CD1 TYR A   1     -10.893   9.643  68.512  1.00  0.00    -0.202 A  
ATOM     13  CE1 TYR A   1     -10.290   8.382  68.505  1.00  0.00    -0.232 A  
ATOM     14  CZ  TYR A   1      -9.883   7.812  69.703  1.00  0.00    -0.182 A  
ATOM     15  CE2 TYR A   1     -10.027   8.499  70.900  1.00  0.00    -0.237 A  
ATOM     16  OH  TYR A   1      -9.347   6.559  69.741  1.00  0.00    -0.147 OA 
ATOM     17  HH  TYR A   1      -9.068   6.169  70.562  1.00  0.00     0.000 HD 
ATOM     18  CD2 TYR A   1     -10.648   9.750  70.908  1.00  0.00    -0.344 A  
ENDBRANCH  10  11
ENDBRANCH   6  10
ENDBRANCH   3   6
TORSDOF 3
ENDMDL
MODEL      131
REMARK 921   NORMALIZED FREE ENERGY PREDICTED BY IDOCK:   -3.72 KCAL/MOL
REMARK 922        TOTAL FREE ENERGY PREDICTED BY IDOCK:   -4.81 KCAL/MOL
REMARK 923 INTER-LIGAND FREE ENERGY PREDICTED BY IDOCK:   -4.32 KCAL/MOL
REMARK 924 INTRA-LIGAND FREE ENERGY PREDICTED BY IDOCK:   -0.49 KCAL/MOL
REMARK 927      BINDING AFFINITY PREDICTED BY RF-SCORE:    0.00 PKD
ROOT
HETATM    1  C   UNK A   0     -12.458  12.470  70.739  1.00  0.00    -0.357 C  
HETATM    2  C   UNK A   0     -11.812  13.411  69.764  1.00  0.00    -0.326 C  
ATOM      3  N   TYR A   1     -10.808  12.876  68.997  1.00  0.00    -0.394 N  
HETATM    4  O   UNK A   0     -12.191  14.570  69.606  1.00  0.00    -0.316 OA 
ATOM      5  H   TYR A   1     -10.497  11.919  69.163  1.00  0.00     0.000 HD 
ENDROOT
BRANCH   3   6
ATOM      6  CA  TYR A   1     -10.180  13.676  67.937  1.00  0.00    -0.250 C  
ATOM      7  C   TYR A   1     -10.123  12.849  66.636  1.00  0.00    -0.245 C  
ATOM      8  O   TYR A   1     -11.348  12.630  66.090  1.00  0.00    -0.298 OA 
ATOM      9  OXT TYR A   1      -9.107  12.395  66.131  1.00  0.00    -0.163 OA 
BRANCH   6  10
ATOM     10  CB  TYR A   1      -8.787  14.180  68.362  1.00  0.00    -0.187 C  
BRANCH  10  11
ATOM     11  CG  TYR A   1      -8.605  15.682  68.324  1.00  0.00    -0.158 A  
ATOM     12  CD1 TYR A   1      -7.408  16.300  68.720  1.00  0.00    -0.191 A  
ATOM     13  CE1 TYR A   1      -7.316  17.692  68.801  1.00  0.00    -0.261 A  
ATOM     14  CZ  TYR A   1      -8.407  18.472  68.440  1.00  0.00    -0.332 A  
ATOM     15  CE2 TYR A   1      -9.569  17.885  67.960  1.00  0.00    -0.290 A  
ATOM     16  OH  TYR A   1      -8.375  19.829  68.563  1.00  0.00    -0.313 OA 
ATOM     17  HH  TYR A   1      -9.122  20.362  68.316  1.00  0.00     0.000 HD 
ATOM     18  CD2 TYR A   1      -9.667  16.494  67.900  1.00  0.00    -0.236 A  
ENDBRANCH  10  11
ENDBRANCH   6  10
ENDBRANCH   3   6
TORSDOF 3
ENDMDL
MODEL      132
REMARK 921   NORMALIZED FREE ENERGY PREDICTED BY IDOCK:   -3.71 KCAL/MOL
REMARK 922        TOTAL FREE ENERGY PREDICTED BY IDOCK:   -4.80 KCAL/MOL
REMARK 923 INTER-LIGAND FREE ENERGY PREDICTED BY IDOCK:   -4.45 KCAL/MOL
REMARK 924 INTRA-LIGAND FREE ENERGY PREDICTED BY IDOCK:   -0.35 KCAL/MOL
REMARK 927      BINDING AFFINITY PREDICTED BY RF-SCORE:    0.00 PKD
ROOT
HETATM    1  C   UNK A   0      -9.647  10.947  63.147  1.00  0.00    -0.384 C  
HETATM    2  C   UNK A   0      -9.658  11.447  64.562  1.00  0.00    -0.192 C  
ATOM      3  N   TYR A   1     -10.039  12.754  64.729  1.00  0.00    -0.482 N  
HETATM    4  O   UNK A   0      -9.405  10.725  65.525  1.00  0.00    -0.188 OA 
ATOM      5  H   TYR A   1     -10.220  13.338  63.912  1.00  0.00     0.000 HD 
ENDROOT
BRANCH   3   6
ATOM      6  CA  TYR A   1     -10.187  13.316  66.078  1.00  0.00    -0.291 C  
ATOM      7  C   TYR A   1     -11.678  13.306  66.476  1.00  0.00    -0.377 C  
ATOM      8  O   TYR A   1     -12.169  12.054  66.672  1.00  0.00    -0.550 OA 
ATOM      9  OXT TYR A   1     -12.387  14.296  66.586  1.00  0.00    -0.446 OA 
BRANCH   6  10
ATOM     10  CB  TYR A   1      -9.575  14.727  66.171  1.00  0.00    -0.338 C  
BRANCH  10  11
ATOM     11  CG  TYR A   1      -8.509  14.897  67.232  1.00  0.00    -0.229 A  
ATOM     12  CD1 TYR A   1      -7.694  13.834  67.651  1.00  0.00    -0.187 A  
ATOM     13  CE1 TYR A   1      -6.812  13.989  68.724  1.00  0.00    -0.103 A  
ATOM     14  CZ  TYR A   1      -6.708  15.223  69.350  1.00  0.00    -0.164 A  
ATOM     15  CE2 TYR A   1      -7.437  16.313  68.894  1.00  0.00    -0.209 A  
ATOM     16  OH  TYR A   1      -5.904  15.397  70.437  1.00  0.00    -0.143 OA 
ATOM     17  HH  TYR A   1      -5.833  16.242  70.866  1.00  0.00     0.000 HD 
ATOM     18  CD2 TYR A   1      -8.334  16.151  67.837  1.00  0.00    -0.165 A  
ENDBRANCH  10  11
ENDBRANCH   6  10
ENDBRANCH   3   6
TORSDOF 3
ENDMDL
MODEL      133
REMARK 921   NORMALIZED FREE ENERGY PREDICTED BY IDOCK:   -3.71 KCAL/MOL
REMARK 922        TOTAL FREE ENERGY PREDICTED BY IDOCK:   -4.80 KCAL/MOL
REMARK 923 INTER-LIGAND FREE ENERGY PREDICTED BY IDOCK:   -4.52 KCAL/MOL
REMARK 924 INTRA-LIGAND FREE ENERGY PREDICTED BY IDOCK:   -0.28 KCAL/MOL
REMARK 927      BINDING AFFINITY PREDICTED BY RF-SCORE:    0.00 PKD
ROOT
HETATM    1  C   UNK A   0      -6.523   7.307  71.080  1.00  0.00    -0.043 C  
HETATM    2  C   UNK A   0      -7.772   8.137  71.139  1.00  0.00    -0.091 C  
ATOM      3  N   TYR A   1      -8.732   7.834  70.206  1.00  0.00    -0.142 N  
HETATM    4  O   UNK A   0      -7.964   8.992  72.001  1.00  0.00    -0.356 OA 
ATOM      5  H   TYR A   1      -8.539   7.136  69.487  1.00  0.00     0.000 HD 
ENDROOT
BRANCH   3   6
ATOM      6  CA  TYR A   1     -10.035   8.511  70.239  1.00  0.00    -0.183 C  
ATOM      7  C   TYR A   1     -11.054   7.625  70.987  1.00  0.00    -0.257 C  
ATOM      8  O   TYR A   1     -10.793   7.521  72.317  1.00  0.00    -0.230 OA 
ATOM      9  OXT TYR A   1     -11.993   7.037  70.471  1.00  0.00    -0.325 OA 
BRANCH   6  10
ATOM     10  CB  TYR A   1     -10.518   8.873  68.821  1.00  0.00    -0.223 C  
BRANCH  10  11
ATOM     11  CG  TYR A   1     -11.074  10.272  68.668  1.00  0.00    -0.290 A  
ATOM     12  CD1 TYR A   1     -11.268  10.865  67.410  1.00  0.00    -0.345 A  
ATOM     13  CE1 TYR A   1     -11.655  12.204  67.304  1.00  0.00    -0.404 A  
ATOM     14  CZ  TYR A   1     -11.895  12.940  68.456  1.00  0.00    -0.313 A  
ATOM     15  CE2 TYR A   1     -11.797  12.349  69.708  1.00  0.00    -0.387 A  
ATOM     16  OH  TYR A   1     -12.216  14.263  68.393  1.00  0.00    -0.562 OA 
ATOM     17  HH  TYR A   1     -12.380  14.767  69.182  1.00  0.00     0.000 HD 
ATOM     18  CD2 TYR A   1     -11.389  11.018  69.813  1.00  0.00    -0.366 A  
ENDBRANCH  10  11
ENDBRANCH   6  10
ENDBRANCH   3   6
TORSDOF 3
ENDMDL
MODEL      134
REMARK 921   NORMALIZED FREE ENERGY PREDICTED BY IDOCK:   -3.71 KCAL/MOL
REMARK 922        TOTAL FREE ENERGY PREDICTED BY IDOCK:   -4.79 KCAL/MOL
REMARK 923 INTER-LIGAND FREE ENERGY PREDICTED BY IDOCK:   -5.29 KCAL/MOL
REMARK 924 INTRA-LIGAND FREE ENERGY PREDICTED BY IDOCK:    0.49 KCAL/MOL
REMARK 927      BINDING AFFINITY PREDICTED BY RF-SCORE:    0.00 PKD
ROOT
HETATM    1  C   UNK A   0      -7.211  14.689  68.736  1.00  0.00    -0.124 C  
HETATM    2  C   UNK A   0      -8.335  15.682  68.692  1.00  0.00    -0.177 C  
ATOM      3  N   TYR A   1      -9.431  15.307  67.956  1.00  0.00    -0.197 N  
HETATM    4  O   UNK A   0      -8.316  16.739  69.320  1.00  0.00    -0.145 OA 
ATOM      5  H   TYR A   1      -9.412  14.436  67.425  1.00  0.00     0.000 HD 
ENDROOT
BRANCH   3   6
ATOM      6  CA  TYR A   1     -10.630  16.155  67.931  1.00  0.00    -0.309 C  
ATOM      7  C   TYR A   1     -10.477  17.227  66.832  1.00  0.00    -0.272 C  
ATOM      8  O   TYR A   1     -10.510  16.710  65.576  1.00  0.00    -0.509 OA 
ATOM      9  OXT TYR A   1     -10.312  18.422  67.028  1.00  0.00    -0.358 OA 
BRANCH   6  10
ATOM     10  CB  TYR A   1     -10.908  16.780  69.311  1.00  0.00    -0.275 C  
BRANCH  10  11
ATOM     11  CG  TYR A   1     -11.678  15.901  70.274  1.00  0.00    -0.352 A  
ATOM     12  CD1 TYR A   1     -11.969  16.306  71.586  1.00  0.00    -0.436 A  
ATOM     13  CE1 TYR A   1     -12.563  15.422  72.491  1.00  0.00    -0.475 A  
ATOM     14  CZ  TYR A   1     -12.910  14.144  72.073  1.00  0.00    -0.338 A  
ATOM     15  CE2 TYR A   1     -12.714  13.753  70.755  1.00  0.00    -0.361 A  
ATOM     16  OH  TYR A   1     -13.435  13.236  72.942  1.00  0.00    -0.572 OA 
ATOM     17  HH  TYR A   1     -13.672  12.361  72.655  1.00  0.00     0.000 HD 
ATOM     18  CD2 TYR A   1     -12.101  14.630  69.858  1.00  0.00    -0.385 A  
ENDBRANCH  10  11
ENDBRANCH   6  10
ENDBRANCH   3   6
TORSDOF 3
ENDMDL
MODEL      135
REMARK 921   NORMALIZED FREE ENERGY PREDICTED BY IDOCK:   -3.70 KCAL/MOL
REMARK 922        TOTAL FREE ENERGY PREDICTED BY IDOCK:   -4.78 KCAL/MOL
REMARK 923 INTER-LIGAND FREE ENERGY PREDICTED BY IDOCK:   -4.33 KCAL/MOL
REMARK 924 INTRA-LIGAND FREE ENERGY PREDICTED BY IDOCK:   -0.45 KCAL/MOL
REMARK 927      BINDING AFFINITY PREDICTED BY RF-SCORE:    0.00 PKD
ROOT
HETATM    1  C   UNK A   0      -7.846   4.955  69.522  1.00  0.00    -0.067 C  
HETATM    2  C   UNK A   0      -8.405   6.282  69.942  1.00  0.00    -0.129 C  
ATOM      3  N   TYR A   1      -9.290   6.251  70.990  1.00  0.00    -0.160 N  
HETATM    4  O   UNK A   0      -8.054   7.345  69.431  1.00  0.00    -0.124 OA 
ATOM      5  H   TYR A   1      -9.582   5.355  71.380  1.00  0.00     0.000 HD 
ENDROOT
BRANCH   3   6
ATOM      6  CA  TYR A   1      -9.816   7.501  71.552  1.00  0.00    -0.166 C  
ATOM      7  C   TYR A   1      -9.551   7.532  73.072  1.00  0.00    -0.215 C  
ATOM      8  O   TYR A   1      -8.233   7.656  73.379  1.00  0.00    -0.124 OA 
ATOM      9  OXT TYR A   1     -10.404   7.430  73.941  1.00  0.00    -0.317 OA 
BRANCH   6  10
ATOM     10  CB  TYR A   1     -11.311   7.681  71.224  1.00  0.00    -0.286 C  
BRANCH  10  11
ATOM     11  CG  TYR A   1     -11.759   9.112  71.019  1.00  0.00    -0.363 A  
ATOM     12  CD1 TYR A   1     -11.232   9.921  70.000  1.00  0.00    -0.327 A  
ATOM     13  CE1 TYR A   1     -11.566  11.276  69.919  1.00  0.00    -0.413 A  
ATOM     14  CZ  TYR A   1     -12.464  11.814  70.830  1.00  0.00    -0.312 A  
ATOM     15  CE2 TYR A   1     -13.067  11.013  71.789  1.00  0.00    -0.554 A  
ATOM     16  OH  TYR A   1     -12.768  13.143  70.819  1.00  0.00    -0.273 OA 
ATOM     17  HH  TYR A   1     -13.383  13.512  71.443  1.00  0.00     0.000 HD 
ATOM     18  CD2 TYR A   1     -12.716   9.665  71.883  1.00  0.00    -0.499 A  
ENDBRANCH  10  11
ENDBRANCH   6  10
ENDBRANCH   3   6
TORSDOF 3
ENDMDL
MODEL      136
REMARK 921   NORMALIZED FREE ENERGY PREDICTED BY IDOCK:   -3.69 KCAL/MOL
REMARK 922        TOTAL FREE ENERGY PREDICTED BY IDOCK:   -4.77 KCAL/MOL
REMARK 923 INTER-LIGAND FREE ENERGY PREDICTED BY IDOCK:   -5.13 KCAL/MOL
REMARK 924 INTRA-LIGAND FREE ENERGY PREDICTED BY IDOCK:    0.35 KCAL/MOL
REMARK 927      BINDING AFFINITY PREDICTED BY RF-SCORE:    0.00 PKD
ROOT
HETATM    1  C   UNK A   0      -8.911   7.682  69.413  1.00  0.00    -0.139 C  
HETATM    2  C   UNK A   0      -9.228   9.039  68.857  1.00  0.00    -0.140 C  
ATOM      3  N   TYR A   1      -8.897   9.235  67.540  1.00  0.00    -0.119 N  
HETATM    4  O   UNK A   0      -9.805   9.908  69.508  1.00  0.00    -0.196 OA 
ATOM      5  H   TYR A   1      -8.399   8.507  67.028  1.00  0.00     0.000 HD 
ENDROOT
BRANCH   3   6
ATOM      6  CA  TYR A   1      -9.259  10.488  66.864  1.00  0.00    -0.155 C  
ATOM      7  C   TYR A   1      -8.362  11.629  67.388  1.00  0.00    -0.152 C  
ATOM      8  O   TYR A   1      -7.064  11.505  67.006  1.00  0.00    -0.129 OA 
ATOM      9  OXT TYR A   1      -8.735  12.552  68.098  1.00  0.00    -0.180 OA 
BRANCH   6  10
ATOM     10  CB  TYR A   1     -10.757  10.807  67.032  1.00  0.00    -0.320 C  
BRANCH  10  11
ATOM     11  CG  TYR A   1     -11.305  11.845  66.076  1.00  0.00    -0.375 A  
ATOM     12  CD1 TYR A   1     -11.041  11.806  64.698  1.00  0.00    -0.363 A  
ATOM     13  CE1 TYR A   1     -11.449  12.849  63.862  1.00  0.00    -0.504 A  
ATOM     14  CZ  TYR A   1     -12.164  13.912  64.395  1.00  0.00    -0.413 A  
ATOM     15  CE2 TYR A   1     -12.516  13.927  65.738  1.00  0.00    -0.530 A  
ATOM     16  OH  TYR A   1     -12.527  14.975  63.624  1.00  0.00    -1.036 OA 
ATOM     17  HH  TYR A   1     -13.017  15.703  63.989  1.00  0.00     0.000 HD 
ATOM     18  CD2 TYR A   1     -12.089  12.895  66.576  1.00  0.00    -0.375 A  
ENDBRANCH  10  11
ENDBRANCH   6  10
ENDBRANCH   3   6
TORSDOF 3
ENDMDL
MODEL      137
REMARK 921   NORMALIZED FREE ENERGY PREDICTED BY IDOCK:   -3.69 KCAL/MOL
REMARK 922        TOTAL FREE ENERGY PREDICTED BY IDOCK:   -4.77 KCAL/MOL
REMARK 923 INTER-LIGAND FREE ENERGY PREDICTED BY IDOCK:   -4.35 KCAL/MOL
REMARK 924 INTRA-LIGAND FREE ENERGY PREDICTED BY IDOCK:   -0.42 KCAL/MOL
REMARK 927      BINDING AFFINITY PREDICTED BY RF-SCORE:    0.00 PKD
ROOT
HETATM    1  C   UNK A   0     -10.218  20.120  66.343  1.00  0.00    -0.552 C  
HETATM    2  C   UNK A   0      -9.685  18.721  66.231  1.00  0.00    -0.330 C  
ATOM      3  N   TYR A   1     -10.609  17.719  66.384  1.00  0.00    -0.274 N  
HETATM    4  O   UNK A   0      -8.512  18.475  65.957  1.00  0.00    -0.489 OA 
ATOM      5  H   TYR A   1     -11.571  17.949  66.634  1.00  0.00     0.000 HD 
ENDROOT
BRANCH   3   6
ATOM      6  CA  TYR A   1     -10.219  16.316  66.189  1.00  0.00    -0.346 C  
ATOM      7  C   TYR A   1     -11.146  15.667  65.141  1.00  0.00    -0.348 C  
ATOM      8  O   TYR A   1     -10.956  16.155  63.887  1.00  0.00    -0.277 OA 
ATOM      9  OXT TYR A   1     -11.996  14.820  65.376  1.00  0.00    -0.310 OA 
BRANCH   6  10
ATOM     10  CB  TYR A   1     -10.221  15.540  67.521  1.00  0.00    -0.254 C  
BRANCH  10  11
ATOM     11  CG  TYR A   1      -9.356  14.299  67.545  1.00  0.00    -0.199 A  
ATOM     12  CD1 TYR A   1      -9.903  13.007  67.599  1.00  0.00    -0.212 A  
ATOM     13  CE1 TYR A   1      -9.080  11.888  67.755  1.00  0.00    -0.180 A  
ATOM     14  CZ  TYR A   1      -7.703  12.055  67.811  1.00  0.00    -0.139 A  
ATOM     15  CE2 TYR A   1      -7.135  13.314  67.669  1.00  0.00    -0.163 A  
ATOM     16  OH  TYR A   1      -6.872  10.996  68.023  1.00  0.00    -0.066 OA 
ATOM     17  HH  TYR A   1      -5.930  11.110  68.061  1.00  0.00     0.000 HD 
ATOM     18  CD2 TYR A   1      -7.960  14.433  67.535  1.00  0.00    -0.208 A  
ENDBRANCH  10  11
ENDBRANCH   6  10
ENDBRANCH   3   6
TORSDOF 3
ENDMDL
MODEL      138
REMARK 921   NORMALIZED FREE ENERGY PREDICTED BY IDOCK:   -3.68 KCAL/MOL
REMARK 922        TOTAL FREE ENERGY PREDICTED BY IDOCK:   -4.76 KCAL/MOL
REMARK 923 INTER-LIGAND FREE ENERGY PREDICTED BY IDOCK:   -4.36 KCAL/MOL
REMARK 924 INTRA-LIGAND FREE ENERGY PREDICTED BY IDOCK:   -0.40 KCAL/MOL
REMARK 927      BINDING AFFINITY PREDICTED BY RF-SCORE:    0.00 PKD
ROOT
HETATM    1  C   UNK A   0      -8.788  10.616  68.570  1.00  0.00    -0.148 C  
HETATM    2  C   UNK A   0     -10.040   9.812  68.763  1.00  0.00    -0.174 C  
ATOM      3  N   TYR A   1     -10.035   8.949  69.829  1.00  0.00    -0.186 N  
HETATM    4  O   UNK A   0     -11.038   9.953  68.057  1.00  0.00    -0.249 OA 
ATOM      5  H   TYR A   1      -9.187   8.834  70.384  1.00  0.00     0.000 HD 
ENDROOT
BRANCH   3   6
ATOM      6  CA  TYR A   1     -11.245   8.192  70.175  1.00  0.00    -0.134 C  
ATOM      7  C   TYR A   1     -11.869   8.779  71.457  1.00  0.00    -0.311 C  
ATOM      8  O   TYR A   1     -12.395  10.019  71.274  1.00  0.00    -0.337 OA 
ATOM      9  OXT TYR A   1     -11.885   8.233  72.551  1.00  0.00    -0.387 OA 
BRANCH   6  10
ATOM     10  CB  TYR A   1     -10.947   6.687  70.316  1.00  0.00    -0.355 C  
BRANCH  10  11
ATOM     11  CG  TYR A   1     -10.596   5.975  69.027  1.00  0.00    -0.357 A  
ATOM     12  CD1 TYR A   1     -11.027   6.441  67.775  1.00  0.00    -0.425 A  
ATOM     13  CE1 TYR A   1     -10.801   5.691  66.617  1.00  0.00    -0.280 A  
ATOM     14  CZ  TYR A   1     -10.102   4.496  66.702  1.00  0.00    -0.209 A  
ATOM     15  CE2 TYR A   1      -9.587   4.061  67.916  1.00  0.00    -0.199 A  
ATOM     16  OH  TYR A   1      -9.914   3.709  65.605  1.00  0.00    -0.376 OA 
ATOM     17  HH  TYR A   1      -9.435   2.890  65.664  1.00  0.00     0.000 HD 
ATOM     18  CD2 TYR A   1      -9.832   4.800  69.075  1.00  0.00    -0.239 A  
ENDBRANCH  10  11
ENDBRANCH   6  10
ENDBRANCH   3   6
TORSDOF 3
ENDMDL
MODEL      139
REMARK 921   NORMALIZED FREE ENERGY PREDICTED BY IDOCK:   -3.67 KCAL/MOL
REMARK 922        TOTAL FREE ENERGY PREDICTED BY IDOCK:   -4.75 KCAL/MOL
REMARK 923 INTER-LIGAND FREE ENERGY PREDICTED BY IDOCK:   -4.22 KCAL/MOL
REMARK 924 INTRA-LIGAND FREE ENERGY PREDICTED BY IDOCK:   -0.53 KCAL/MOL
REMARK 927      BINDING AFFINITY PREDICTED BY RF-SCORE:    0.00 PKD
ROOT
HETATM    1  C   UNK A   0      -7.726  14.664  67.502  1.00  0.00    -0.216 C  
HETATM    2  C   UNK A   0      -9.189  14.420  67.272  1.00  0.00    -0.209 C  
ATOM      3  N   TYR A   1      -9.886  13.925  68.345  1.00  0.00    -0.227 N  
HETATM    4  O   UNK A   0      -9.753  14.699  66.215  1.00  0.00    -0.276 OA 
ATOM      5  H   TYR A   1      -9.391  13.679  69.202  1.00  0.00     0.000 HD 
ENDROOT
BRANCH   3   6
ATOM      6  CA  TYR A   1     -11.342  13.749  68.264  1.00  0.00    -0.285 C  
ATOM      7  C   TYR A   1     -12.026  14.641  69.321  1.00  0.00    -0.302 C  
ATOM      8  O   TYR A   1     -11.920  15.968  69.047  1.00  0.00    -0.342 OA 
ATOM      9  OXT TYR A   1     -12.589  14.239  70.329  1.00  0.00    -0.348 OA 
BRANCH   6  10
ATOM     10  CB  TYR A   1     -11.740  12.268  68.416  1.00  0.00    -0.390 C  
BRANCH  10  11
ATOM     11  CG  TYR A   1     -11.032  11.312  67.480  1.00  0.00    -0.319 A  
ATOM     12  CD1 TYR A   1     -11.186  11.379  66.086  1.00  0.00    -0.203 A  
ATOM     13  CE1 TYR A   1     -10.627  10.402  65.257  1.00  0.00    -0.064 A  
ATOM     14  CZ  TYR A   1      -9.875   9.379  65.817  1.00  0.00    -0.275 A  
ATOM     15  CE2 TYR A   1      -9.635   9.343  67.184  1.00  0.00    -0.202 A  
ATOM     16  OH  TYR A   1      -9.366   8.376  65.048  1.00  0.00    -0.361 OA 
ATOM     17  HH  TYR A   1      -8.851   7.675  65.432  1.00  0.00     0.000 HD 
ATOM     18  CD2 TYR A   1     -10.211  10.307  68.013  1.00  0.00    -0.200 A  
ENDBRANCH  10  11
ENDBRANCH   6  10
ENDBRANCH   3   6
TORSDOF 3
ENDMDL
MODEL      140
REMARK 921   NORMALIZED FREE ENERGY PREDICTED BY IDOCK:   -3.66 KCAL/MOL
REMARK 922        TOTAL FREE ENERGY PREDICTED BY IDOCK:   -4.74 KCAL/MOL
REMARK 923 INTER-LIGAND FREE ENERGY PREDICTED BY IDOCK:   -4.35 KCAL/MOL
REMARK 924 INTRA-LIGAND FREE ENERGY PREDICTED BY IDOCK:   -0.38 KCAL/MOL
REMARK 927      BINDING AFFINITY PREDICTED BY RF-SCORE:    0.00 PKD
ROOT
HETATM    1  C   UNK A   0      -9.272   9.346  70.187  1.00  0.00    -0.268 C  
HETATM    2  C   UNK A   0      -9.800   9.870  68.884  1.00  0.00    -0.176 C  
ATOM      3  N   TYR A   1      -8.856  10.325  67.999  1.00  0.00    -0.122 N  
HETATM    4  O   UNK A   0     -10.994   9.841  68.589  1.00  0.00    -0.213 OA 
ATOM      5  H   TYR A   1      -7.875  10.361  68.276  1.00  0.00     0.000 HD 
ENDROOT
BRANCH   3   6
ATOM      6  CA  TYR A   1      -9.253  10.762  66.653  1.00  0.00    -0.166 C  
ATOM      7  C   TYR A   1      -8.592   9.846  65.602  1.00  0.00    -0.145 C  
ATOM      8  O   TYR A   1      -9.089   8.581  65.610  1.00  0.00    -0.187 OA 
ATOM      9  OXT TYR A   1      -7.693  10.175  64.842  1.00  0.00    -0.139 OA 
BRANCH   6  10
ATOM     10  CB  TYR A   1      -8.913  12.246  66.419  1.00  0.00    -0.117 C  
BRANCH  10  11
ATOM     11  CG  TYR A   1      -9.982  13.048  65.710  1.00  0.00    -0.260 A  
ATOM     12  CD1 TYR A   1     -10.838  12.475  64.756  1.00  0.00    -0.332 A  
ATOM     13  CE1 TYR A   1     -11.724  13.268  64.022  1.00  0.00    -0.483 A  
ATOM     14  CZ  TYR A   1     -11.791  14.631  64.274  1.00  0.00    -0.337 A  
ATOM     15  CE2 TYR A   1     -11.020  15.205  65.275  1.00  0.00    -0.405 A  
ATOM     16  OH  TYR A   1     -12.599  15.446  63.538  1.00  0.00    -0.668 OA 
ATOM     17  HH  TYR A   1     -12.644  16.379  63.710  1.00  0.00     0.000 HD 
ATOM     18  CD2 TYR A   1     -10.119  14.416  65.992  1.00  0.00    -0.338 A  
ENDBRANCH  10  11
ENDBRANCH   6  10
ENDBRANCH   3   6
TORSDOF 3
ENDMDL
MODEL      141
REMARK 921   NORMALIZED FREE ENERGY PREDICTED BY IDOCK:   -3.65 KCAL/MOL
REMARK 922        TOTAL FREE ENERGY PREDICTED BY IDOCK:   -4.73 KCAL/MOL
REMARK 923 INTER-LIGAND FREE ENERGY PREDICTED BY IDOCK:   -4.36 KCAL/MOL
REMARK 924 INTRA-LIGAND FREE ENERGY PREDICTED BY IDOCK:   -0.37 KCAL/MOL
REMARK 927      BINDING AFFINITY PREDICTED BY RF-SCORE:    0.00 PKD
ROOT
HETATM    1  C   UNK A   0      -6.184  21.185  66.472  1.00  0.00    -0.347 C  
HETATM    2  C   UNK A   0      -7.198  20.089  66.325  1.00  0.00    -0.274 C  
ATOM      3  N   TYR A   1      -8.162  20.035  67.300  1.00  0.00    -0.315 N  
HETATM    4  O   UNK A   0      -7.215  19.321  65.365  1.00  0.00    -0.448 OA 
ATOM      5  H   TYR A   1      -8.112  20.668  68.098  1.00  0.00     0.000 HD 
ENDROOT
BRANCH   3   6
ATOM      6  CA  TYR A   1      -9.265  19.070  67.198  1.00  0.00    -0.293 C  
ATOM      7  C   TYR A   1     -10.523  19.784  66.662  1.00  0.00    -0.497 C  
ATOM      8  O   TYR A   1     -10.406  20.167  65.364  1.00  0.00    -0.314 OA 
ATOM      9  OXT TYR A   1     -11.530  20.026  67.313  1.00  0.00     0.228 OA 
BRANCH   6  10
ATOM     10  CB  TYR A   1      -9.528  18.372  68.546  1.00  0.00    -0.355 C  
BRANCH  10  11
ATOM     11  CG  TYR A   1      -9.905  16.909  68.451  1.00  0.00    -0.266 A  
ATOM     12  CD1 TYR A   1      -8.944  15.886  68.478  1.00  0.00    -0.199 A  
ATOM     13  CE1 TYR A   1      -9.310  14.555  68.255  1.00  0.00    -0.203 A  
ATOM     14  CZ  TYR A   1     -10.645  14.239  68.050  1.00  0.00    -0.238 A  
ATOM     15  CE2 TYR A   1     -11.624  15.222  68.109  1.00  0.00    -0.344 A  
ATOM     16  OH  TYR A   1     -11.033  12.963  67.769  1.00  0.00    -0.231 OA 
ATOM     17  HH  TYR A   1     -11.947  12.746  67.629  1.00  0.00     0.000 HD 
ATOM     18  CD2 TYR A   1     -11.254  16.553  68.311  1.00  0.00    -0.265 A  
ENDBRANCH  10  11
ENDBRANCH   6  10
ENDBRANCH   3   6
TORSDOF 3
ENDMDL
MODEL      142
REMARK 921   NORMALIZED FREE ENERGY PREDICTED BY IDOCK:   -3.65 KCAL/MOL
REMARK 922        TOTAL FREE ENERGY PREDICTED BY IDOCK:   -4.73 KCAL/MOL
REMARK 923 INTER-LIGAND FREE ENERGY PREDICTED BY IDOCK:   -5.07 KCAL/MOL
REMARK 924 INTRA-LIGAND FREE ENERGY PREDICTED BY IDOCK:    0.35 KCAL/MOL
REMARK 927      BINDING AFFINITY PREDICTED BY RF-SCORE:    0.00 PKD
ROOT
HETATM    1  C   UNK A   0      -8.825   7.839  73.805  1.00  0.00    -0.326 C  
HETATM    2  C   UNK A   0      -9.611   7.786  72.528  1.00  0.00    -0.192 C  
ATOM      3  N   TYR A   1     -10.850   8.375  72.568  1.00  0.00    -0.342 N  
HETATM    4  O   UNK A   0      -9.163   7.306  71.489  1.00  0.00    -0.145 OA 
ATOM      5  H   TYR A   1     -11.208   8.745  73.449  1.00  0.00     0.000 HD 
ENDROOT
BRANCH   3   6
ATOM      6  CA  TYR A   1     -11.661   8.475  71.348  1.00  0.00    -0.294 C  
ATOM      7  C   TYR A   1     -12.216   7.082  70.986  1.00  0.00    -0.374 C  
ATOM      8  O   TYR A   1     -13.147   6.633  71.868  1.00  0.00    -0.280 OA 
ATOM      9  OXT TYR A   1     -11.862   6.406  70.031  1.00  0.00    -0.404 OA 
BRANCH   6  10
ATOM     10  CB  TYR A   1     -10.860   9.096  70.187  1.00  0.00    -0.269 C  
BRANCH  10  11
ATOM     11  CG  TYR A   1     -11.163  10.551  69.900  1.00  0.00    -0.374 A  
ATOM     12  CD1 TYR A   1     -11.930  11.340  70.772  1.00  0.00    -0.383 A  
ATOM     13  CE1 TYR A   1     -12.305  12.639  70.416  1.00  0.00    -0.315 A  
ATOM     14  CZ  TYR A   1     -11.874  13.169  69.208  1.00  0.00    -0.323 A  
ATOM     15  CE2 TYR A   1     -11.040  12.439  68.372  1.00  0.00    -0.288 A  
ATOM     16  OH  TYR A   1     -12.268  14.408  68.800  1.00  0.00    -0.528 OA 
ATOM     17  HH  TYR A   1     -11.974  14.770  67.972  1.00  0.00     0.000 HD 
ATOM     18  CD2 TYR A   1     -10.685  11.134  68.718  1.00  0.00    -0.236 A  
ENDBRANCH  10  11
ENDBRANCH   6  10
ENDBRANCH   3   6
TORSDOF 3
ENDMDL
MODEL      143
REMARK 921   NORMALIZED FREE ENERGY PREDICTED BY IDOCK:   -3.64 KCAL/MOL
REMARK 922        TOTAL FREE ENERGY PREDICTED BY IDOCK:   -4.71 KCAL/MOL
REMARK 923 INTER-LIGAND FREE ENERGY PREDICTED BY IDOCK:   -4.39 KCAL/MOL
REMARK 924 INTRA-LIGAND FREE ENERGY PREDICTED BY IDOCK:   -0.33 KCAL/MOL
REMARK 927      BINDING AFFINITY PREDICTED BY RF-SCORE:    0.00 PKD
ROOT
HETATM    1  C   UNK A   0     -11.154  11.752  63.655  1.00  0.00    -0.518 C  
HETATM    2  C   UNK A   0     -10.202  11.279  64.714  1.00  0.00    -0.292 C  
ATOM      3  N   TYR A   1     -10.641  11.406  66.008  1.00  0.00    -0.261 N  
HETATM    4  O   UNK A   0      -9.122  10.751  64.452  1.00  0.00    -0.199 OA 
ATOM      5  H   TYR A   1     -11.529  11.869  66.199  1.00  0.00     0.000 HD 
ENDROOT
BRANCH   3   6
ATOM      6  CA  TYR A   1      -9.836  10.879  67.117  1.00  0.00    -0.184 C  
ATOM      7  C   TYR A   1     -10.561   9.673  67.749  1.00  0.00    -0.264 C  
ATOM      8  O   TYR A   1     -10.600   8.588  66.932  1.00  0.00    -0.298 OA 
ATOM      9  OXT TYR A   1     -11.085   9.661  68.853  1.00  0.00    -0.170 OA 
BRANCH   6  10
ATOM     10  CB  TYR A   1      -9.524  11.973  68.157  1.00  0.00    -0.200 C  
BRANCH  10  11
ATOM     11  CG  TYR A   1      -9.830  13.388  67.715  1.00  0.00    -0.234 A  
ATOM     12  CD1 TYR A   1      -8.982  14.101  66.852  1.00  0.00    -0.247 A  
ATOM     13  CE1 TYR A   1      -9.221  15.449  66.569  1.00  0.00    -0.323 A  
ATOM     14  CZ  TYR A   1     -10.335  16.075  67.111  1.00  0.00    -0.295 A  
ATOM     15  CE2 TYR A   1     -11.235  15.365  67.894  1.00  0.00    -0.329 A  
ATOM     16  OH  TYR A   1     -10.567  17.402  66.907  1.00  0.00    -0.303 OA 
ATOM     17  HH  TYR A   1     -11.330  17.830  67.278  1.00  0.00     0.000 HD 
ATOM     18  CD2 TYR A   1     -10.984  14.025  68.193  1.00  0.00    -0.268 A  
ENDBRANCH  10  11
ENDBRANCH   6  10
ENDBRANCH   3   6
TORSDOF 3
ENDMDL
MODEL      144
REMARK 921   NORMALIZED FREE ENERGY PREDICTED BY IDOCK:   -3.61 KCAL/MOL
REMARK 922        TOTAL FREE ENERGY PREDICTED BY IDOCK:   -4.68 KCAL/MOL
REMARK 923 INTER-LIGAND FREE ENERGY PREDICTED BY IDOCK:   -4.26 KCAL/MOL
REMARK 924 INTRA-LIGAND FREE ENERGY PREDICTED BY IDOCK:   -0.42 KCAL/MOL
REMARK 927      BINDING AFFINITY PREDICTED BY RF-SCORE:    0.00 PKD
ROOT
HETATM    1  C   UNK A   0      -7.546   6.172  67.662  1.00  0.00    -0.097 C  
HETATM    2  C   UNK A   0      -8.379   6.947  66.684  1.00  0.00    -0.118 C  
ATOM      3  N   TYR A   1      -7.728   7.953  66.015  1.00  0.00    -0.089 N  
HETATM    4  O   UNK A   0      -9.552   6.670  66.440  1.00  0.00    -0.161 OA 
ATOM      5  H   TYR A   1      -6.762   8.179  66.253  1.00  0.00     0.000 HD 
ENDROOT
BRANCH   3   6
ATOM      6  CA  TYR A   1      -8.417   8.706  64.958  1.00  0.00    -0.173 C  
ATOM      7  C   TYR A   1      -7.782   8.371  63.593  1.00  0.00    -0.144 C  
ATOM      8  O   TYR A   1      -8.026   7.096  63.191  1.00  0.00    -0.125 OA 
ATOM      9  OXT TYR A   1      -7.099   9.133  62.924  1.00  0.00    -0.093 OA 
BRANCH   6  10
ATOM     10  CB  TYR A   1      -8.403  10.220  65.245  1.00  0.00    -0.165 C  
BRANCH  10  11
ATOM     11  CG  TYR A   1      -9.736  10.918  65.088  1.00  0.00    -0.312 A  
ATOM     12  CD1 TYR A   1     -10.317  11.146  63.830  1.00  0.00    -0.447 A  
ATOM     13  CE1 TYR A   1     -11.482  11.910  63.708  1.00  0.00    -0.542 A  
ATOM     14  CZ  TYR A   1     -12.095  12.409  64.849  1.00  0.00    -0.407 A  
ATOM     15  CE2 TYR A   1     -11.589  12.120  66.109  1.00  0.00    -0.418 A  
ATOM     16  OH  TYR A   1     -13.196  13.206  64.766  1.00  0.00    -0.670 OA 
ATOM     17  HH  TYR A   1     -13.616  13.548  65.548  1.00  0.00     0.000 HD 
ATOM     18  CD2 TYR A   1     -10.413  11.375  66.228  1.00  0.00    -0.301 A  
ENDBRANCH  10  11
ENDBRANCH   6  10
ENDBRANCH   3   6
TORSDOF 3
ENDMDL
MODEL      145
REMARK 921   NORMALIZED FREE ENERGY PREDICTED BY IDOCK:   -3.61 KCAL/MOL
REMARK 922        TOTAL FREE ENERGY PREDICTED BY IDOCK:   -4.68 KCAL/MOL
REMARK 923 INTER-LIGAND FREE ENERGY PREDICTED BY IDOCK:   -4.24 KCAL/MOL
REMARK 924 INTRA-LIGAND FREE ENERGY PREDICTED BY IDOCK:   -0.45 KCAL/MOL
REMARK 927      BINDING AFFINITY PREDICTED BY RF-SCORE:    0.00 PKD
ROOT
HETATM    1  C   UNK A   0      -7.971   7.952  62.370  1.00  0.00    -0.153 C  
HETATM    2  C   UNK A   0      -8.480   9.073  63.227  1.00  0.00    -0.177 C  
ATOM      3  N   TYR A   1      -8.171   8.990  64.561  1.00  0.00    -0.151 N  
HETATM    4  O   UNK A   0      -9.080  10.044  62.768  1.00  0.00    -0.246 OA 
ATOM      5  H   TYR A   1      -7.692   8.163  64.921  1.00  0.00     0.000 HD 
ENDROOT
BRANCH   3   6
ATOM      6  CA  TYR A   1      -8.526  10.085  65.474  1.00  0.00    -0.147 C  
ATOM      7  C   TYR A   1      -7.373  10.315  66.472  1.00  0.00    -0.113 C  
ATOM      8  O   TYR A   1      -6.258  10.828  65.889  1.00  0.00    -0.127 OA 
ATOM      9  OXT TYR A   1      -7.406  10.050  67.665  1.00  0.00    -0.088 OA 
BRANCH   6  10
ATOM     10  CB  TYR A   1      -9.862   9.810  66.190  1.00  0.00    -0.329 C  
BRANCH  10  11
ATOM     11  CG  TYR A   1     -10.664  11.042  66.553  1.00  0.00    -0.298 A  
ATOM     12  CD1 TYR A   1     -11.110  11.955  65.585  1.00  0.00    -0.362 A  
ATOM     13  CE1 TYR A   1     -11.731  13.149  65.962  1.00  0.00    -0.424 A  
ATOM     14  CZ  TYR A   1     -11.949  13.412  67.308  1.00  0.00    -0.347 A  
ATOM     15  CE2 TYR A   1     -11.598  12.482  68.277  1.00  0.00    -0.376 A  
ATOM     16  OH  TYR A   1     -12.497  14.590  67.717  1.00  0.00    -0.597 OA 
ATOM     17  HH  TYR A   1     -12.646  14.770  68.638  1.00  0.00     0.000 HD 
ATOM     18  CD2 TYR A   1     -10.959  11.299  67.900  1.00  0.00    -0.302 A  
ENDBRANCH  10  11
ENDBRANCH   6  10
ENDBRANCH   3   6
TORSDOF 3
ENDMDL
MODEL      146
REMARK 921   NORMALIZED FREE ENERGY PREDICTED BY IDOCK:   -3.61 KCAL/MOL
REMARK 922        TOTAL FREE ENERGY PREDICTED BY IDOCK:   -4.68 KCAL/MOL
REMARK 923 INTER-LIGAND FREE ENERGY PREDICTED BY IDOCK:   -5.08 KCAL/MOL
REMARK 924 INTRA-LIGAND FREE ENERGY PREDICTED BY IDOCK:    0.40 KCAL/MOL
REMARK 927      BINDING AFFINITY PREDICTED BY RF-SCORE:    0.00 PKD
ROOT
HETATM    1  C   UNK A   0      -9.995   5.213  69.415  1.00  0.00    -0.292 C  
HETATM    2  C   UNK A   0     -10.662   6.355  70.124  1.00  0.00    -0.271 C  
ATOM      3  N   TYR A   1      -9.877   7.458  70.344  1.00  0.00    -0.183 N  
HETATM    4  O   UNK A   0     -11.851   6.343  70.436  1.00  0.00    -0.382 OA 
ATOM      5  H   TYR A   1      -8.887   7.434  70.097  1.00  0.00     0.000 HD 
ENDROOT
BRANCH   3   6
ATOM      6  CA  TYR A   1     -10.455   8.673  70.934  1.00  0.00    -0.214 C  
ATOM      7  C   TYR A   1     -10.853   8.392  72.398  1.00  0.00    -0.346 C  
ATOM      8  O   TYR A   1      -9.783   8.203  73.214  1.00  0.00    -0.269 OA 
ATOM      9  OXT TYR A   1     -11.999   8.310  72.817  1.00  0.00    -0.377 OA 
BRANCH   6  10
ATOM     10  CB  TYR A   1     -11.644   9.192  70.103  1.00  0.00    -0.041 C  
BRANCH  10  11
ATOM     11  CG  TYR A   1     -11.804  10.697  70.077  1.00  0.00    -0.403 A  
ATOM     12  CD1 TYR A   1     -12.333  11.412  71.163  1.00  0.00    -0.404 A  
ATOM     13  CE1 TYR A   1     -12.592  12.781  71.059  1.00  0.00    -0.362 A  
ATOM     14  CZ  TYR A   1     -12.279  13.449  69.883  1.00  0.00    -0.271 A  
ATOM     15  CE2 TYR A   1     -11.671  12.781  68.829  1.00  0.00    -0.363 A  
ATOM     16  OH  TYR A   1     -12.571  14.771  69.723  1.00  0.00    -0.541 OA 
ATOM     17  HH  TYR A   1     -12.357  15.228  68.918  1.00  0.00     0.000 HD 
ATOM     18  CD2 TYR A   1     -11.433  11.409  68.926  1.00  0.00    -0.363 A  
ENDBRANCH  10  11
ENDBRANCH   6  10
ENDBRANCH   3   6
TORSDOF 3
ENDMDL
MODEL      147
REMARK 921   NORMALIZED FREE ENERGY PREDICTED BY IDOCK:   -3.61 KCAL/MOL
REMARK 922        TOTAL FREE ENERGY PREDICTED BY IDOCK:   -4.67 KCAL/MOL
REMARK 923 INTER-LIGAND FREE ENERGY PREDICTED BY IDOCK:   -5.11 KCAL/MOL
REMARK 924 INTRA-LIGAND FREE ENERGY PREDICTED BY IDOCK:    0.43 KCAL/MOL
REMARK 927      BINDING AFFINITY PREDICTED BY RF-SCORE:    0.00 PKD
ROOT
HETATM    1  C   UNK A   0      -7.411  12.915  67.826  1.00  0.00    -0.136 C  
HETATM    2  C   UNK A   0      -8.890  12.669  67.765  1.00  0.00    -0.179 C  
ATOM      3  N   TYR A   1      -9.630  13.230  68.774  1.00  0.00    -0.410 N  
HETATM    4  O   UNK A   0      -9.426  12.059  66.840  1.00  0.00    -0.193 OA 
ATOM      5  H   TYR A   1      -9.159  13.710  69.542  1.00  0.00     0.000 HD 
ENDROOT
BRANCH   3   6
ATOM      6  CA  TYR A   1     -11.096  13.141  68.755  1.00  0.00    -0.269 C  
ATOM      7  C   TYR A   1     -11.523  11.670  68.939  1.00  0.00    -0.287 C  
ATOM      8  O   TYR A   1     -11.261  11.191  70.183  1.00  0.00    -0.250 OA 
ATOM      9  OXT TYR A   1     -12.022  10.965  68.073  1.00  0.00    -0.586 OA 
BRANCH   6  10
ATOM     10  CB  TYR A   1     -11.681  13.756  67.469  1.00  0.00    -0.410 C  
BRANCH  10  11
ATOM     11  CG  TYR A   1     -11.145  15.124  67.107  1.00  0.00    -0.335 A  
ATOM     12  CD1 TYR A   1     -11.089  16.175  68.036  1.00  0.00    -0.317 A  
ATOM     13  CE1 TYR A   1     -10.715  17.461  67.637  1.00  0.00    -0.310 A  
ATOM     14  CZ  TYR A   1     -10.351  17.690  66.318  1.00  0.00    -0.342 A  
ATOM     15  CE2 TYR A   1     -10.313  16.647  65.402  1.00  0.00    -0.214 A  
ATOM     16  OH  TYR A   1     -10.039  18.942  65.879  1.00  0.00    -0.506 OA 
ATOM     17  HH  TYR A   1      -9.790  19.099  64.975  1.00  0.00     0.000 HD 
ATOM     18  CD2 TYR A   1     -10.707  15.367  65.797  1.00  0.00    -0.360 A  
ENDBRANCH  10  11
ENDBRANCH   6  10
ENDBRANCH   3   6
TORSDOF 3
ENDMDL
MODEL      148
REMARK 921   NORMALIZED FREE ENERGY PREDICTED BY IDOCK:   -3.60 KCAL/MOL
REMARK 922        TOTAL FREE ENERGY PREDICTED BY IDOCK:   -4.67 KCAL/MOL
REMARK 923 INTER-LIGAND FREE ENERGY PREDICTED BY IDOCK:   -4.83 KCAL/MOL
REMARK 924 INTRA-LIGAND FREE ENERGY PREDICTED BY IDOCK:    0.16 KCAL/MOL
REMARK 927      BINDING AFFINITY PREDICTED BY RF-SCORE:    0.00 PKD
ROOT
HETATM    1  C   UNK A   0      -9.321  13.453  66.589  1.00  0.00    -0.248 C  
HETATM    2  C   UNK A   0      -9.336  12.694  67.883  1.00  0.00    -0.204 C  
ATOM      3  N   TYR A   1     -10.431  11.893  68.091  1.00  0.00    -0.200 N  
HETATM    4  O   UNK A   0      -8.406  12.727  68.687  1.00  0.00    -0.091 OA 
ATOM      5  H   TYR A   1     -11.200  11.902  67.420  1.00  0.00     0.000 HD 
ENDROOT
BRANCH   3   6
ATOM      6  CA  TYR A   1     -10.500  11.025  69.273  1.00  0.00    -0.180 C  
ATOM      7  C   TYR A   1      -9.934   9.634  68.922  1.00  0.00    -0.178 C  
ATOM      8  O   TYR A   1      -8.593   9.646  68.699  1.00  0.00    -0.116 OA 
ATOM      9  OXT TYR A   1     -10.591   8.609  68.816  1.00  0.00    -0.211 OA 
BRANCH   6  10
ATOM     10  CB  TYR A   1     -11.936  10.940  69.827  1.00  0.00    -0.423 C  
BRANCH  10  11
ATOM     11  CG  TYR A   1     -12.433  12.188  70.524  1.00  0.00    -0.282 A  
ATOM     12  CD1 TYR A   1     -12.069  13.476  70.101  1.00  0.00    -0.425 A  
ATOM     13  CE1 TYR A   1     -12.434  14.602  70.844  1.00  0.00    -0.406 A  
ATOM     14  CZ  TYR A   1     -13.205  14.446  71.988  1.00  0.00    -0.369 A  
ATOM     15  CE2 TYR A   1     -13.653  13.191  72.375  1.00  0.00    -0.667 A  
ATOM     16  OH  TYR A   1     -13.530  15.514  72.770  1.00  0.00    -0.468 OA 
ATOM     17  HH  TYR A   1     -14.058  15.407  73.553  1.00  0.00     0.000 HD 
ATOM     18  CD2 TYR A   1     -13.269  12.065  71.644  1.00  0.00    -0.361 A  
ENDBRANCH  10  11
ENDBRANCH   6  10
ENDBRANCH   3   6
TORSDOF 3
ENDMDL
MODEL      149
REMARK 921   NORMALIZED FREE ENERGY PREDICTED BY IDOCK:   -3.60 KCAL/MOL
REMARK 922        TOTAL FREE ENERGY PREDICTED BY IDOCK:   -4.66 KCAL/MOL
REMARK 923 INTER-LIGAND FREE ENERGY PREDICTED BY IDOCK:   -5.07 KCAL/MOL
REMARK 924 INTRA-LIGAND FREE ENERGY PREDICTED BY IDOCK:    0.41 KCAL/MOL
REMARK 927      BINDING AFFINITY PREDICTED BY RF-SCORE:    0.00 PKD
ROOT
HETATM    1  C   UNK A   0     -11.552  10.768  70.497  1.00  0.00    -0.425 C  
HETATM    2  C   UNK A   0     -11.039  11.618  69.372  1.00  0.00    -0.206 C  
ATOM      3  N   TYR A   1     -11.901  12.583  68.915  1.00  0.00    -0.311 N  
HETATM    4  O   UNK A   0      -9.900  11.512  68.922  1.00  0.00    -0.173 OA 
ATOM      5  H   TYR A   1     -12.849  12.635  69.289  1.00  0.00     0.000 HD 
ENDROOT
BRANCH   3   6
ATOM      6  CA  TYR A   1     -11.465  13.540  67.890  1.00  0.00    -0.318 C  
ATOM      7  C   TYR A   1     -11.166  12.785  66.578  1.00  0.00    -0.307 C  
ATOM      8  O   TYR A   1     -12.281  12.279  65.989  1.00  0.00    -0.646 OA 
ATOM      9  OXT TYR A   1     -10.054  12.612  66.099  1.00  0.00    -0.247 OA 
BRANCH   6  10
ATOM     10  CB  TYR A   1     -10.255  14.366  68.368  1.00  0.00    -0.243 C  
BRANCH  10  11
ATOM     11  CG  TYR A   1     -10.334  15.850  68.081  1.00  0.00    -0.256 A  
ATOM     12  CD1 TYR A   1     -10.358  16.358  66.773  1.00  0.00    -0.293 A  
ATOM     13  CE1 TYR A   1     -10.296  17.735  66.539  1.00  0.00    -0.345 A  
ATOM     14  CZ  TYR A   1     -10.256  18.610  67.616  1.00  0.00    -0.384 A  
ATOM     15  CE2 TYR A   1     -10.322  18.134  68.918  1.00  0.00    -0.217 A  
ATOM     16  OH  TYR A   1     -10.135  19.954  67.428  1.00  0.00    -0.377 OA 
ATOM     17  HH  TYR A   1     -10.107  20.553  68.165  1.00  0.00     0.000 HD 
ATOM     18  CD2 TYR A   1     -10.362  16.758  69.150  1.00  0.00    -0.326 A  
ENDBRANCH  10  11
ENDBRANCH   6  10
ENDBRANCH   3   6
TORSDOF 3
ENDMDL
MODEL      150
REMARK 921   NORMALIZED FREE ENERGY PREDICTED BY IDOCK:   -3.54 KCAL/MOL
REMARK 922        TOTAL FREE ENERGY PREDICTED BY IDOCK:   -4.60 KCAL/MOL
REMARK 923 INTER-LIGAND FREE ENERGY PREDICTED BY IDOCK:   -5.22 KCAL/MOL
REMARK 924 INTRA-LIGAND FREE ENERGY PREDICTED BY IDOCK:    0.62 KCAL/MOL
REMARK 927      BINDING AFFINITY PREDICTED BY RF-SCORE:    0.00 PKD
ROOT
HETATM    1  C   UNK A   0     -12.466  11.996  63.517  1.00  0.00    -0.654 C  
HETATM    2  C   UNK A   0     -12.426  12.776  64.798  1.00  0.00    -0.472 C  
ATOM      3  N   TYR A   1     -11.476  12.382  65.706  1.00  0.00    -0.352 N  
HETATM    4  O   UNK A   0     -13.148  13.749  65.008  1.00  0.00    -0.751 OA 
ATOM      5  H   TYR A   1     -10.905  11.558  65.517  1.00  0.00     0.000 HD 
ENDROOT
BRANCH   3   6
ATOM      6  CA  TYR A   1     -11.278  13.142  66.947  1.00  0.00    -0.296 C  
ATOM      7  C   TYR A   1      -9.928  13.885  66.883  1.00  0.00    -0.264 C  
ATOM      8  O   TYR A   1      -9.917  14.892  65.971  1.00  0.00    -0.277 OA 
ATOM      9  OXT TYR A   1      -8.937  13.611  67.545  1.00  0.00    -0.188 OA 
BRANCH   6  10
ATOM     10  CB  TYR A   1     -11.377  12.231  68.187  1.00  0.00    -0.349 C  
BRANCH  10  11
ATOM     11  CG  TYR A   1     -10.758  10.859  68.030  1.00  0.00    -0.263 A  
ATOM     12  CD1 TYR A   1     -10.249  10.405  66.803  1.00  0.00    -0.282 A  
ATOM     13  CE1 TYR A   1      -9.806   9.087  66.657  1.00  0.00    -0.316 A  
ATOM     14  CZ  TYR A   1      -9.828   8.233  67.751  1.00  0.00    -0.170 A  
ATOM     15  CE2 TYR A   1     -10.243   8.687  68.996  1.00  0.00    -0.218 A  
ATOM     16  OH  TYR A   1      -9.461   6.926  67.634  1.00  0.00    -0.124 OA 
ATOM     17  HH  TYR A   1      -9.477   6.341  68.383  1.00  0.00     0.000 HD 
ATOM     18  CD2 TYR A   1     -10.705   9.997  69.135  1.00  0.00    -0.244 A  
ENDBRANCH  10  11
ENDBRANCH   6  10
ENDBRANCH   3   6
TORSDOF 3
ENDMDL
MODEL      151
REMARK 921   NORMALIZED FREE ENERGY PREDICTED BY IDOCK:   -3.54 KCAL/MOL
REMARK 922        TOTAL FREE ENERGY PREDICTED BY IDOCK:   -4.59 KCAL/MOL
REMARK 923 INTER-LIGAND FREE ENERGY PREDICTED BY IDOCK:   -4.09 KCAL/MOL
REMARK 924 INTRA-LIGAND FREE ENERGY PREDICTED BY IDOCK:   -0.50 KCAL/MOL
REMARK 927      BINDING AFFINITY PREDICTED BY RF-SCORE:    0.00 PKD
ROOT
HETATM    1  C   UNK A   0     -13.142  10.222  71.079  1.00  0.00    -0.458 C  
HETATM    2  C   UNK A   0     -11.837  10.095  70.349  1.00  0.00    -0.288 C  
ATOM      3  N   TYR A   1     -11.906  10.199  68.983  1.00  0.00    -0.496 N  
HETATM    4  O   UNK A   0     -10.759   9.969  70.928  1.00  0.00    -0.300 OA 
ATOM      5  H   TYR A   1     -12.815  10.280  68.526  1.00  0.00     0.000 HD 
ENDROOT
BRANCH   3   6
ATOM      6  CA  TYR A   1     -10.679  10.196  68.177  1.00  0.00    -0.244 C  
ATOM      7  C   TYR A   1     -10.468  11.593  67.558  1.00  0.00    -0.200 C  
ATOM      8  O   TYR A   1     -10.159  12.543  68.479  1.00  0.00    -0.221 OA 
ATOM      9  OXT TYR A   1     -10.586  11.867  66.372  1.00  0.00    -0.233 OA 
BRANCH   6  10
ATOM     10  CB  TYR A   1     -10.712   9.089  67.105  1.00  0.00    -0.206 C  
BRANCH  10  11
ATOM     11  CG  TYR A   1     -10.253   7.725  67.573  1.00  0.00    -0.301 A  
ATOM     12  CD1 TYR A   1     -10.657   6.541  66.935  1.00  0.00    -0.376 A  
ATOM     13  CE1 TYR A   1     -10.325   5.293  67.469  1.00  0.00    -0.221 A  
ATOM     14  CZ  TYR A   1      -9.549   5.225  68.618  1.00  0.00    -0.136 A  
ATOM     15  CE2 TYR A   1      -9.063   6.380  69.214  1.00  0.00    -0.136 A  
ATOM     16  OH  TYR A   1      -9.257   4.029  69.202  1.00  0.00    -0.124 OA 
ATOM     17  HH  TYR A   1      -8.725   3.982  69.988  1.00  0.00     0.000 HD 
ATOM     18  CD2 TYR A   1      -9.413   7.627  68.692  1.00  0.00    -0.151 A  
ENDBRANCH  10  11
ENDBRANCH   6  10
ENDBRANCH   3   6
TORSDOF 3
ENDMDL
MODEL      152
REMARK 921   NORMALIZED FREE ENERGY PREDICTED BY IDOCK:   -3.52 KCAL/MOL
REMARK 922        TOTAL FREE ENERGY PREDICTED BY IDOCK:   -4.57 KCAL/MOL
REMARK 923 INTER-LIGAND FREE ENERGY PREDICTED BY IDOCK:   -4.26 KCAL/MOL
REMARK 924 INTRA-LIGAND FREE ENERGY PREDICTED BY IDOCK:   -0.30 KCAL/MOL
REMARK 927      BINDING AFFINITY PREDICTED BY RF-SCORE:    0.00 PKD
ROOT
HETATM    1  C   UNK A   0     -10.254   8.134  69.085  1.00  0.00    -0.219 C  
HETATM    2  C   UNK A   0     -10.409   8.296  67.602  1.00  0.00    -0.248 C  
ATOM      3  N   TYR A   1      -9.898   9.454  67.072  1.00  0.00    -0.187 N  
HETATM    4  O   UNK A   0     -10.904   7.428  66.885  1.00  0.00    -0.357 OA 
ATOM      5  H   TYR A   1      -9.514  10.169  67.691  1.00  0.00     0.000 HD 
ENDROOT
BRANCH   3   6
ATOM      6  CA  TYR A   1      -9.900   9.668  65.619  1.00  0.00    -0.299 C  
ATOM      7  C   TYR A   1      -8.487   9.403  65.060  1.00  0.00    -0.159 C  
ATOM      8  O   TYR A   1      -8.129   8.093  65.118  1.00  0.00    -0.124 OA 
ATOM      9  OXT TYR A   1      -7.726  10.256  64.627  1.00  0.00    -0.149 OA 
BRANCH   6  10
ATOM     10  CB  TYR A   1     -10.408  11.078  65.258  1.00  0.00    -0.338 C  
BRANCH  10  11
ATOM     11  CG  TYR A   1     -10.520  12.040  66.421  1.00  0.00    -0.267 A  
ATOM     12  CD1 TYR A   1      -9.402  12.704  66.953  1.00  0.00    -0.228 A  
ATOM     13  CE1 TYR A   1      -9.516  13.481  68.108  1.00  0.00    -0.214 A  
ATOM     14  CZ  TYR A   1     -10.758  13.635  68.710  1.00  0.00    -0.244 A  
ATOM     15  CE2 TYR A   1     -11.891  13.062  68.151  1.00  0.00    -0.381 A  
ATOM     16  OH  TYR A   1     -10.897  14.335  69.871  1.00  0.00    -0.452 OA 
ATOM     17  HH  TYR A   1     -11.747  14.440  70.282  1.00  0.00     0.000 HD 
ATOM     18  CD2 TYR A   1     -11.773  12.268  67.008  1.00  0.00    -0.399 A  
ENDBRANCH  10  11
ENDBRANCH   6  10
ENDBRANCH   3   6
TORSDOF 3
ENDMDL
MODEL      153
REMARK 921   NORMALIZED FREE ENERGY PREDICTED BY IDOCK:   -3.51 KCAL/MOL
REMARK 922        TOTAL FREE ENERGY PREDICTED BY IDOCK:   -4.56 KCAL/MOL
REMARK 923 INTER-LIGAND FREE ENERGY PREDICTED BY IDOCK:   -4.22 KCAL/MOL
REMARK 924 INTRA-LIGAND FREE ENERGY PREDICTED BY IDOCK:   -0.34 KCAL/MOL
REMARK 927      BINDING AFFINITY PREDICTED BY RF-SCORE:    0.00 PKD
ROOT
HETATM    1  C   UNK A   0      -6.548  12.556  69.377  1.00  0.00    -0.073 C  
HETATM    2  C   UNK A   0      -7.586  12.609  68.295  1.00  0.00    -0.133 C  
ATOM      3  N   TYR A   1      -8.887  12.702  68.722  1.00  0.00    -0.383 N  
HETATM    4  O   UNK A   0      -7.301  12.633  67.099  1.00  0.00    -0.127 OA 
ATOM      5  H   TYR A   1      -9.098  12.656  69.719  1.00  0.00     0.000 HD 
ENDROOT
BRANCH   3   6
ATOM      6  CA  TYR A   1      -9.975  12.867  67.749  1.00  0.00    -0.230 C  
ATOM      7  C   TYR A   1     -10.825  14.096  68.134  1.00  0.00    -0.248 C  
ATOM      8  O   TYR A   1     -10.164  15.272  67.971  1.00  0.00    -0.227 OA 
ATOM      9  OXT TYR A   1     -11.966  14.058  68.572  1.00  0.00    -0.349 OA 
BRANCH   6  10
ATOM     10  CB  TYR A   1     -10.829  11.589  67.637  1.00  0.00    -0.277 C  
BRANCH  10  11
ATOM     11  CG  TYR A   1     -10.879  10.735  68.885  1.00  0.00    -0.269 A  
ATOM     12  CD1 TYR A   1     -11.681  11.069  69.988  1.00  0.00    -0.437 A  
ATOM     13  CE1 TYR A   1     -11.605  10.336  71.175  1.00  0.00    -0.385 A  
ATOM     14  CZ  TYR A   1     -10.760   9.237  71.248  1.00  0.00    -0.352 A  
ATOM     15  CE2 TYR A   1     -10.026   8.834  70.141  1.00  0.00    -0.201 A  
ATOM     16  OH  TYR A   1     -10.615   8.535  72.406  1.00  0.00    -0.329 OA 
ATOM     17  HH  TYR A   1     -10.036   7.783  72.456  1.00  0.00     0.000 HD 
ATOM     18  CD2 TYR A   1     -10.086   9.580  68.962  1.00  0.00    -0.201 A  
ENDBRANCH  10  11
ENDBRANCH   6  10
ENDBRANCH   3   6
TORSDOF 3
ENDMDL
MODEL      154
REMARK 921   NORMALIZED FREE ENERGY PREDICTED BY IDOCK:   -3.49 KCAL/MOL
REMARK 922        TOTAL FREE ENERGY PREDICTED BY IDOCK:   -4.54 KCAL/MOL
REMARK 923 INTER-LIGAND FREE ENERGY PREDICTED BY IDOCK:   -4.65 KCAL/MOL
REMARK 924 INTRA-LIGAND FREE ENERGY PREDICTED BY IDOCK:    0.11 KCAL/MOL
REMARK 927      BINDING AFFINITY PREDICTED BY RF-SCORE:    0.00 PKD
ROOT
HETATM    1  C   UNK A   0      -6.904  10.563  69.037  1.00  0.00    -0.068 C  
HETATM    2  C   UNK A   0      -7.881  10.092  70.074  1.00  0.00    -0.158 C  
ATOM      3  N   TYR A   1      -9.191  10.031  69.674  1.00  0.00    -0.251 N  
HETATM    4  O   UNK A   0      -7.535   9.720  71.195  1.00  0.00    -0.301 OA 
ATOM      5  H   TYR A   1      -9.455  10.367  68.748  1.00  0.00     0.000 HD 
ENDROOT
BRANCH   3   6
ATOM      6  CA  TYR A   1     -10.216   9.484  70.573  1.00  0.00    -0.287 C  
ATOM      7  C   TYR A   1     -10.403   7.980  70.282  1.00  0.00    -0.212 C  
ATOM      8  O   TYR A   1      -9.329   7.230  70.643  1.00  0.00    -0.158 OA 
ATOM      9  OXT TYR A   1     -11.387   7.478  69.758  1.00  0.00    -0.127 OA 
BRANCH   6  10
ATOM     10  CB  TYR A   1     -11.541  10.262  70.459  1.00  0.00    -0.424 C  
BRANCH  10  11
ATOM     11  CG  TYR A   1     -11.548  11.373  69.431  1.00  0.00    -0.391 A  
ATOM     12  CD1 TYR A   1     -11.669  12.725  69.791  1.00  0.00    -0.352 A  
ATOM     13  CE1 TYR A   1     -11.807  13.715  68.815  1.00  0.00    -0.395 A  
ATOM     14  CZ  TYR A   1     -11.779  13.362  67.473  1.00  0.00    -0.366 A  
ATOM     15  CE2 TYR A   1     -11.569  12.043  67.092  1.00  0.00    -0.387 A  
ATOM     16  OH  TYR A   1     -11.970  14.290  66.495  1.00  0.00    -0.408 OA 
ATOM     17  HH  TYR A   1     -11.951  14.048  65.576  1.00  0.00     0.000 HD 
ATOM     18  CD2 TYR A   1     -11.453  11.052  68.069  1.00  0.00    -0.365 A  
ENDBRANCH  10  11
ENDBRANCH   6  10
ENDBRANCH   3   6
TORSDOF 3
ENDMDL
MODEL      155
REMARK 921   NORMALIZED FREE ENERGY PREDICTED BY IDOCK:   -3.47 KCAL/MOL
REMARK 922        TOTAL FREE ENERGY PREDICTED BY IDOCK:   -4.51 KCAL/MOL
REMARK 923 INTER-LIGAND FREE ENERGY PREDICTED BY IDOCK:   -4.01 KCAL/MOL
REMARK 924 INTRA-LIGAND FREE ENERGY PREDICTED BY IDOCK:   -0.51 KCAL/MOL
REMARK 927      BINDING AFFINITY PREDICTED BY RF-SCORE:    0.00 PKD
ROOT
HETATM    1  C   UNK A   0     -11.821   9.023  70.959  1.00  0.00    -0.339 C  
HETATM    2  C   UNK A   0     -10.957   9.814  70.021  1.00  0.00    -0.277 C  
ATOM      3  N   TYR A   1     -11.590  10.320  68.914  1.00  0.00    -0.497 N  
HETATM    4  O   UNK A   0      -9.773  10.055  70.248  1.00  0.00    -0.212 OA 
ATOM      5  H   TYR A   1     -12.567  10.086  68.736  1.00  0.00     0.000 HD 
ENDROOT
BRANCH   3   6
ATOM      6  CA  TYR A   1     -10.866  11.197  67.984  1.00  0.00    -0.225 C  
ATOM      7  C   TYR A   1     -11.693  12.477  67.738  1.00  0.00    -0.359 C  
ATOM      8  O   TYR A   1     -11.769  13.280  68.831  1.00  0.00    -0.285 OA 
ATOM      9  OXT TYR A   1     -12.261  12.762  66.694  1.00  0.00    -0.481 OA 
BRANCH   6  10
ATOM     10  CB  TYR A   1     -10.528  10.468  66.670  1.00  0.00    -0.290 C  
BRANCH  10  11
ATOM     11  CG  TYR A   1      -9.502   9.362  66.792  1.00  0.00    -0.217 A  
ATOM     12  CD1 TYR A   1      -8.152   9.622  67.075  1.00  0.00    -0.113 A  
ATOM     13  CE1 TYR A   1      -7.205   8.594  67.050  1.00  0.00    -0.076 A  
ATOM     14  CZ  TYR A   1      -7.614   7.294  66.787  1.00  0.00    -0.100 A  
ATOM     15  CE2 TYR A   1      -8.957   7.000  66.593  1.00  0.00    -0.157 A  
ATOM     16  OH  TYR A   1      -6.713   6.277  66.694  1.00  0.00    -0.056 OA 
ATOM     17  HH  TYR A   1      -6.993   5.387  66.514  1.00  0.00     0.000 HD 
ATOM     18  CD2 TYR A   1      -9.898   8.031  66.598  1.00  0.00    -0.322 A  
ENDBRANCH  10  11
ENDBRANCH   6  10
ENDBRANCH   3   6
TORSDOF 3
ENDMDL
MODEL      156
REMARK 921   NORMALIZED FREE ENERGY PREDICTED BY IDOCK:   -3.47 KCAL/MOL
REMARK 922        TOTAL FREE ENERGY PREDICTED BY IDOCK:   -4.51 KCAL/MOL
REMARK 923 INTER-LIGAND FREE ENERGY PREDICTED BY IDOCK:   -4.15 KCAL/MOL
REMARK 924 INTRA-LIGAND FREE ENERGY PREDICTED BY IDOCK:   -0.36 KCAL/MOL
REMARK 927      BINDING AFFINITY PREDICTED BY RF-SCORE:    0.00 PKD
ROOT
HETATM    1  C   UNK A   0     -11.818  15.255  64.345  1.00  0.00    -0.288 C  
HETATM    2  C   UNK A   0     -11.609  13.975  65.101  1.00  0.00    -0.342 C  
ATOM      3  N   TYR A   1     -10.338  13.461  65.060  1.00  0.00    -0.397 N  
HETATM    4  O   UNK A   0     -12.494  13.445  65.770  1.00  0.00    -0.451 OA 
ATOM      5  H   TYR A   1      -9.628  13.907  64.479  1.00  0.00     0.000 HD 
ENDROOT
BRANCH   3   6
ATOM      6  CA  TYR A   1      -9.995  12.271  65.850  1.00  0.00    -0.254 C  
ATOM      7  C   TYR A   1      -8.990  12.660  66.953  1.00  0.00    -0.213 C  
ATOM      8  O   TYR A   1      -9.535  13.450  67.916  1.00  0.00    -0.201 OA 
ATOM      9  OXT TYR A   1      -7.811  12.338  66.982  1.00  0.00    -0.164 OA 
BRANCH   6  10
ATOM     10  CB  TYR A   1      -9.459  11.136  64.956  1.00  0.00    -0.259 C  
BRANCH  10  11
ATOM     11  CG  TYR A   1      -9.540   9.749  65.556  1.00  0.00    -0.348 A  
ATOM     12  CD1 TYR A   1     -10.430   9.436  66.596  1.00  0.00    -0.238 A  
ATOM     13  CE1 TYR A   1     -10.388   8.185  67.219  1.00  0.00    -0.373 A  
ATOM     14  CZ  TYR A   1      -9.487   7.229  66.773  1.00  0.00    -0.171 A  
ATOM     15  CE2 TYR A   1      -8.661   7.485  65.688  1.00  0.00    -0.131 A  
ATOM     16  OH  TYR A   1      -9.376   6.021  67.394  1.00  0.00    -0.112 OA 
ATOM     17  HH  TYR A   1      -8.759   5.366  67.088  1.00  0.00     0.000 HD 
ATOM     18  CD2 TYR A   1      -8.688   8.742  65.080  1.00  0.00    -0.202 A  
ENDBRANCH  10  11
ENDBRANCH   6  10
ENDBRANCH   3   6
TORSDOF 3
ENDMDL
MODEL      157
REMARK 921   NORMALIZED FREE ENERGY PREDICTED BY IDOCK:   -3.46 KCAL/MOL
REMARK 922        TOTAL FREE ENERGY PREDICTED BY IDOCK:   -4.50 KCAL/MOL
REMARK 923 INTER-LIGAND FREE ENERGY PREDICTED BY IDOCK:   -4.47 KCAL/MOL
REMARK 924 INTRA-LIGAND FREE ENERGY PREDICTED BY IDOCK:   -0.03 KCAL/MOL
REMARK 927      BINDING AFFINITY PREDICTED BY RF-SCORE:    0.00 PKD
ROOT
HETATM    1  C   UNK A   0     -12.548  12.340  64.193  1.00  0.00    -0.493 C  
HETATM    2  C   UNK A   0     -11.063  12.232  64.373  1.00  0.00    -0.330 C  
ATOM      3  N   TYR A   1     -10.646  11.600  65.517  1.00  0.00    -0.271 N  
HETATM    4  O   UNK A   0     -10.259  12.624  63.528  1.00  0.00    -0.387 OA 
ATOM      5  H   TYR A   1     -11.332  11.306  66.213  1.00  0.00     0.000 HD 
ENDROOT
BRANCH   3   6
ATOM      6  CA  TYR A   1      -9.217  11.346  65.744  1.00  0.00    -0.208 C  
ATOM      7  C   TYR A   1      -8.907   9.864  65.446  1.00  0.00    -0.168 C  
ATOM      8  O   TYR A   1      -9.009   9.554  64.127  1.00  0.00    -0.230 OA 
ATOM      9  OXT TYR A   1      -8.623   9.018  66.282  1.00  0.00    -0.120 OA 
BRANCH   6  10
ATOM     10  CB  TYR A   1      -8.793  11.748  67.170  1.00  0.00    -0.173 C  
BRANCH  10  11
ATOM     11  CG  TYR A   1      -9.843  11.536  68.239  1.00  0.00    -0.203 A  
ATOM     12  CD1 TYR A   1      -9.797  10.449  69.127  1.00  0.00    -0.237 A  
ATOM     13  CE1 TYR A   1     -10.850  10.206  70.014  1.00  0.00    -0.361 A  
ATOM     14  CZ  TYR A   1     -11.930  11.077  70.048  1.00  0.00    -0.351 A  
ATOM     15  CE2 TYR A   1     -11.954  12.208  69.243  1.00  0.00    -0.318 A  
ATOM     16  OH  TYR A   1     -13.002  10.840  70.855  1.00  0.00    -0.348 OA 
ATOM     17  HH  TYR A   1     -13.741  11.437  70.879  1.00  0.00     0.000 HD 
ATOM     18  CD2 TYR A   1     -10.912  12.438  68.342  1.00  0.00    -0.272 A  
ENDBRANCH  10  11
ENDBRANCH   6  10
ENDBRANCH   3   6
TORSDOF 3
ENDMDL
MODEL      158
REMARK 921   NORMALIZED FREE ENERGY PREDICTED BY IDOCK:   -3.44 KCAL/MOL
REMARK 922        TOTAL FREE ENERGY PREDICTED BY IDOCK:   -4.48 KCAL/MOL
REMARK 923 INTER-LIGAND FREE ENERGY PREDICTED BY IDOCK:   -4.05 KCAL/MOL
REMARK 924 INTRA-LIGAND FREE ENERGY PREDICTED BY IDOCK:   -0.43 KCAL/MOL
REMARK 927      BINDING AFFINITY PREDICTED BY RF-SCORE:    0.00 PKD
ROOT
HETATM    1  C   UNK A   0     -14.031   8.542  71.976  1.00  0.00    -0.494 C  
HETATM    2  C   UNK A   0     -12.582   8.257  71.707  1.00  0.00    -0.333 C  
ATOM      3  N   TYR A   1     -12.327   7.423  70.648  1.00  0.00    -0.559 N  
HETATM    4  O   UNK A   0     -11.670   8.780  72.345  1.00  0.00    -0.353 OA 
ATOM      5  H   TYR A   1     -13.101   6.984  70.149  1.00  0.00     0.000 HD 
ENDROOT
BRANCH   3   6
ATOM      6  CA  TYR A   1     -10.943   7.160  70.229  1.00  0.00    -0.263 C  
ATOM      7  C   TYR A   1     -10.659   7.901  68.906  1.00  0.00    -0.145 C  
ATOM      8  O   TYR A   1     -10.624   9.252  69.049  1.00  0.00    -0.218 OA 
ATOM      9  OXT TYR A   1     -10.504   7.369  67.817  1.00  0.00    -0.211 OA 
BRANCH   6  10
ATOM     10  CB  TYR A   1     -10.666   5.649  70.115  1.00  0.00    -0.376 C  
BRANCH  10  11
ATOM     11  CG  TYR A   1      -9.961   5.031  71.303  1.00  0.00    -0.264 A  
ATOM     12  CD1 TYR A   1      -8.661   4.507  71.211  1.00  0.00    -0.137 A  
ATOM     13  CE1 TYR A   1      -8.088   3.825  72.288  1.00  0.00    -0.077 A  
ATOM     14  CZ  TYR A   1      -8.796   3.705  73.476  1.00  0.00    -0.092 A  
ATOM     15  CE2 TYR A   1     -10.045   4.293  73.619  1.00  0.00    -0.192 A  
ATOM     16  OH  TYR A   1      -8.295   2.996  74.526  1.00  0.00    -0.068 OA 
ATOM     17  HH  TYR A   1      -8.780   2.913  75.340  1.00  0.00     0.000 HD 
ATOM     18  CD2 TYR A   1     -10.625   4.956  72.536  1.00  0.00    -0.271 A  
ENDBRANCH  10  11
ENDBRANCH   6  10
ENDBRANCH   3   6
TORSDOF 3
ENDMDL
MODEL      159
REMARK 921   NORMALIZED FREE ENERGY PREDICTED BY IDOCK:   -3.44 KCAL/MOL
REMARK 922        TOTAL FREE ENERGY PREDICTED BY IDOCK:   -4.48 KCAL/MOL
REMARK 923 INTER-LIGAND FREE ENERGY PREDICTED BY IDOCK:   -5.04 KCAL/MOL
REMARK 924 INTRA-LIGAND FREE ENERGY PREDICTED BY IDOCK:    0.57 KCAL/MOL
REMARK 927      BINDING AFFINITY PREDICTED BY RF-SCORE:    0.00 PKD
ROOT
HETATM    1  C   UNK A   0      -9.541  11.458  62.807  1.00  0.00    -0.290 C  
HETATM    2  C   UNK A   0     -10.215  11.514  64.146  1.00  0.00    -0.325 C  
ATOM      3  N   TYR A   1      -9.392  11.757  65.217  1.00  0.00    -0.410 N  
HETATM    4  O   UNK A   0     -11.433  11.413  64.284  1.00  0.00    -0.253 OA 
ATOM      5  H   TYR A   1      -8.383  11.813  65.079  1.00  0.00     0.000 HD 
ENDROOT
BRANCH   3   6
ATOM      6  CA  TYR A   1      -9.959  11.937  66.560  1.00  0.00    -0.202 C  
ATOM      7  C   TYR A   1     -10.237  10.556  67.189  1.00  0.00    -0.223 C  
ATOM      8  O   TYR A   1      -9.103   9.869  67.486  1.00  0.00    -0.134 OA 
ATOM      9  OXT TYR A   1     -11.345  10.080  67.389  1.00  0.00    -0.187 OA 
BRANCH   6  10
ATOM     10  CB  TYR A   1     -11.222  12.820  66.525  1.00  0.00    -0.349 C  
BRANCH  10  11
ATOM     11  CG  TYR A   1     -11.489  13.612  67.786  1.00  0.00    -0.351 A  
ATOM     12  CD1 TYR A   1     -11.796  12.992  69.008  1.00  0.00    -0.362 A  
ATOM     13  CE1 TYR A   1     -12.169  13.751  70.121  1.00  0.00    -0.425 A  
ATOM     14  CZ  TYR A   1     -12.190  15.136  70.028  1.00  0.00    -0.338 A  
ATOM     15  CE2 TYR A   1     -11.804  15.774  68.857  1.00  0.00    -0.354 A  
ATOM     16  OH  TYR A   1     -12.606  15.907  71.072  1.00  0.00    -0.495 OA 
ATOM     17  HH  TYR A   1     -12.621  16.855  71.008  1.00  0.00     0.000 HD 
ATOM     18  CD2 TYR A   1     -11.452  15.014  67.740  1.00  0.00    -0.347 A  
ENDBRANCH  10  11
ENDBRANCH   6  10
ENDBRANCH   3   6
TORSDOF 3
ENDMDL
MODEL      160
REMARK 921   NORMALIZED FREE ENERGY PREDICTED BY IDOCK:   -3.42 KCAL/MOL
REMARK 922        TOTAL FREE ENERGY PREDICTED BY IDOCK:   -4.46 KCAL/MOL
REMARK 923 INTER-LIGAND FREE ENERGY PREDICTED BY IDOCK:   -4.14 KCAL/MOL
REMARK 924 INTRA-LIGAND FREE ENERGY PREDICTED BY IDOCK:   -0.31 KCAL/MOL
REMARK 927      BINDING AFFINITY PREDICTED BY RF-SCORE:    0.00 PKD
ROOT
HETATM    1  C   UNK A   0      -5.417  16.523  67.279  1.00  0.00    -0.163 C  
HETATM    2  C   UNK A   0      -6.503  15.821  68.039  1.00  0.00    -0.137 C  
ATOM      3  N   TYR A   1      -7.590  15.430  67.298  1.00  0.00    -0.200 N  
HETATM    4  O   UNK A   0      -6.412  15.549  69.235  1.00  0.00    -0.124 OA 
ATOM      5  H   TYR A   1      -7.653  15.688  66.313  1.00  0.00     0.000 HD 
ENDROOT
BRANCH   3   6
ATOM      6  CA  TYR A   1      -8.664  14.642  67.918  1.00  0.00    -0.169 C  
ATOM      7  C   TYR A   1      -8.979  13.419  67.032  1.00  0.00    -0.224 C  
ATOM      8  O   TYR A   1      -7.976  12.502  67.013  1.00  0.00    -0.160 OA 
ATOM      9  OXT TYR A   1      -9.999  13.265  66.376  1.00  0.00    -0.274 OA 
BRANCH   6  10
ATOM     10  CB  TYR A   1      -9.915  15.502  68.180  1.00  0.00    -0.217 C  
BRANCH  10  11
ATOM     11  CG  TYR A   1      -9.847  16.918  67.650  1.00  0.00    -0.259 A  
ATOM     12  CD1 TYR A   1      -9.362  17.984  68.424  1.00  0.00    -0.306 A  
ATOM     13  CE1 TYR A   1      -9.435  19.299  67.956  1.00  0.00    -0.400 A  
ATOM     14  CZ  TYR A   1      -9.952  19.546  66.692  1.00  0.00    -0.407 A  
ATOM     15  CE2 TYR A   1     -10.353  18.500  65.873  1.00  0.00    -0.344 A  
ATOM     16  OH  TYR A   1     -10.095  20.819  66.226  1.00  0.00    -0.453 OA 
ATOM     17  HH  TYR A   1     -10.448  20.988  65.360  1.00  0.00     0.000 HD 
ATOM     18  CD2 TYR A   1     -10.299  17.189  66.350  1.00  0.00    -0.307 A  
ENDBRANCH  10  11
ENDBRANCH   6  10
ENDBRANCH   3   6
TORSDOF 3
ENDMDL
MODEL      161
REMARK 921   NORMALIZED FREE ENERGY PREDICTED BY IDOCK:   -3.42 KCAL/MOL
REMARK 922        TOTAL FREE ENERGY PREDICTED BY IDOCK:   -4.45 KCAL/MOL
REMARK 923 INTER-LIGAND FREE ENERGY PREDICTED BY IDOCK:   -4.12 KCAL/MOL
REMARK 924 INTRA-LIGAND FREE ENERGY PREDICTED BY IDOCK:   -0.33 KCAL/MOL
REMARK 927      BINDING AFFINITY PREDICTED BY RF-SCORE:    0.00 PKD
ROOT
HETATM    1  C   UNK A   0     -14.034   8.708  71.842  1.00  0.00    -0.501 C  
HETATM    2  C   UNK A   0     -12.811   9.502  71.487  1.00  0.00    -0.377 C  
ATOM      3  N   TYR A   1     -12.097   9.044  70.409  1.00  0.00    -0.465 N  
HETATM    4  O   UNK A   0     -12.493  10.534  72.075  1.00  0.00    -0.260 OA 
ATOM      5  H   TYR A   1     -12.368   8.173  69.953  1.00  0.00     0.000 HD 
ENDROOT
BRANCH   3   6
ATOM      6  CA  TYR A   1     -10.944   9.804  69.908  1.00  0.00    -0.264 C  
ATOM      7  C   TYR A   1     -11.353  10.581  68.640  1.00  0.00    -0.252 C  
ATOM      8  O   TYR A   1     -12.226  11.591  68.893  1.00  0.00    -0.415 OA 
ATOM      9  OXT TYR A   1     -10.978  10.329  67.504  1.00  0.00    -0.297 OA 
BRANCH   6  10
ATOM     10  CB  TYR A   1      -9.731   8.886  69.656  1.00  0.00    -0.175 C  
BRANCH  10  11
ATOM     11  CG  TYR A   1      -8.791   8.723  70.830  1.00  0.00    -0.243 A  
ATOM     12  CD1 TYR A   1      -7.446   9.121  70.772  1.00  0.00    -0.133 A  
ATOM     13  CE1 TYR A   1      -6.570   8.836  71.824  1.00  0.00    -0.074 A  
ATOM     14  CZ  TYR A   1      -7.049   8.192  72.956  1.00  0.00    -0.110 A  
ATOM     15  CE2 TYR A   1      -8.394   7.870  73.074  1.00  0.00    -0.218 A  
ATOM     16  OH  TYR A   1      -6.213   7.844  73.975  1.00  0.00    -0.082 OA 
ATOM     17  HH  TYR A   1      -6.541   7.403  74.751  1.00  0.00     0.000 HD 
ATOM     18  CD2 TYR A   1      -9.263   8.136  72.014  1.00  0.00    -0.253 A  
ENDBRANCH  10  11
ENDBRANCH   6  10
ENDBRANCH   3   6
TORSDOF 3
ENDMDL
MODEL      162
REMARK 921   NORMALIZED FREE ENERGY PREDICTED BY IDOCK:   -3.40 KCAL/MOL
REMARK 922        TOTAL FREE ENERGY PREDICTED BY IDOCK:   -4.43 KCAL/MOL
REMARK 923 INTER-LIGAND FREE ENERGY PREDICTED BY IDOCK:   -4.88 KCAL/MOL
REMARK 924 INTRA-LIGAND FREE ENERGY PREDICTED BY IDOCK:    0.45 KCAL/MOL
REMARK 927      BINDING AFFINITY PREDICTED BY RF-SCORE:    0.00 PKD
ROOT
HETATM    1  C   UNK A   0     -10.616   6.468  68.114  1.00  0.00    -0.307 C  
HETATM    2  C   UNK A   0     -10.269   7.922  68.240  1.00  0.00    -0.203 C  
ATOM      3  N   TYR A   1     -11.089   8.791  67.565  1.00  0.00    -0.376 N  
HETATM    4  O   UNK A   0      -9.350   8.329  68.949  1.00  0.00    -0.147 OA 
ATOM      5  H   TYR A   1     -11.829   8.428  66.965  1.00  0.00     0.000 HD 
ENDROOT
BRANCH   3   6
ATOM      6  CA  TYR A   1     -10.905  10.242  67.704  1.00  0.00    -0.307 C  
ATOM      7  C   TYR A   1      -9.598  10.663  67.002  1.00  0.00    -0.169 C  
ATOM      8  O   TYR A   1      -9.659  10.548  65.649  1.00  0.00    -0.198 OA 
ATOM      9  OXT TYR A   1      -8.580  11.038  67.566  1.00  0.00    -0.126 OA 
BRANCH   6  10
ATOM     10  CB  TYR A   1     -10.930  10.674  69.183  1.00  0.00    -0.296 C  
BRANCH  10  11
ATOM     11  CG  TYR A   1     -11.580  12.014  69.453  1.00  0.00    -0.393 A  
ATOM     12  CD1 TYR A   1     -11.483  13.086  68.552  1.00  0.00    -0.340 A  
ATOM     13  CE1 TYR A   1     -11.979  14.349  68.888  1.00  0.00    -0.337 A  
ATOM     14  CZ  TYR A   1     -12.615  14.531  70.109  1.00  0.00    -0.288 A  
ATOM     15  CE2 TYR A   1     -12.803  13.464  70.976  1.00  0.00    -0.329 A  
ATOM     16  OH  TYR A   1     -13.058  15.760  70.497  1.00  0.00    -0.681 OA 
ATOM     17  HH  TYR A   1     -13.494  15.884  71.332  1.00  0.00     0.000 HD 
ATOM     18  CD2 TYR A   1     -12.287  12.208  70.648  1.00  0.00    -0.385 A  
ENDBRANCH  10  11
ENDBRANCH   6  10
ENDBRANCH   3   6
TORSDOF 3
ENDMDL
MODEL      163
REMARK 921   NORMALIZED FREE ENERGY PREDICTED BY IDOCK:   -3.37 KCAL/MOL
REMARK 922        TOTAL FREE ENERGY PREDICTED BY IDOCK:   -4.40 KCAL/MOL
REMARK 923 INTER-LIGAND FREE ENERGY PREDICTED BY IDOCK:   -3.93 KCAL/MOL
REMARK 924 INTRA-LIGAND FREE ENERGY PREDICTED BY IDOCK:   -0.46 KCAL/MOL
REMARK 927      BINDING AFFINITY PREDICTED BY RF-SCORE:    0.00 PKD
ROOT
HETATM    1  C   UNK A   0      -7.815  14.247  67.308  1.00  0.00    -0.170 C  
HETATM    2  C   UNK A   0      -8.154  12.873  67.806  1.00  0.00    -0.166 C  
ATOM      3  N   TYR A   1      -8.769  12.047  66.900  1.00  0.00    -0.190 N  
HETATM    4  O   UNK A   0      -7.849  12.478  68.930  1.00  0.00    -0.019 OA 
ATOM      5  H   TYR A   1      -9.032  12.406  65.982  1.00  0.00     0.000 HD 
ENDROOT
BRANCH   3   6
ATOM      6  CA  TYR A   1      -9.050  10.647  67.246  1.00  0.00    -0.143 C  
ATOM      7  C   TYR A   1      -8.379   9.719  66.213  1.00  0.00    -0.116 C  
ATOM      8  O   TYR A   1      -7.022   9.728  66.291  1.00  0.00    -0.089 OA 
ATOM      9  OXT TYR A   1      -8.967   9.051  65.374  1.00  0.00    -0.193 OA 
BRANCH   6  10
ATOM     10  CB  TYR A   1     -10.565  10.387  67.356  1.00  0.00    -0.321 C  
BRANCH  10  11
ATOM     11  CG  TYR A   1     -11.127  10.435  68.760  1.00  0.00    -0.298 A  
ATOM     12  CD1 TYR A   1     -10.971   9.372  69.664  1.00  0.00    -0.216 A  
ATOM     13  CE1 TYR A   1     -11.614   9.390  70.905  1.00  0.00    -0.380 A  
ATOM     14  CZ  TYR A   1     -12.377  10.491  71.265  1.00  0.00    -0.397 A  
ATOM     15  CE2 TYR A   1     -12.472  11.592  70.425  1.00  0.00    -0.304 A  
ATOM     16  OH  TYR A   1     -13.067  10.519  72.440  1.00  0.00    -0.525 OA 
ATOM     17  HH  TYR A   1     -13.590  11.273  72.686  1.00  0.00     0.000 HD 
ATOM     18  CD2 TYR A   1     -11.847  11.565  69.176  1.00  0.00    -0.406 A  
ENDBRANCH  10  11
ENDBRANCH   6  10
ENDBRANCH   3   6
TORSDOF 3
ENDMDL
MODEL      164
REMARK 921   NORMALIZED FREE ENERGY PREDICTED BY IDOCK:   -3.37 KCAL/MOL
REMARK 922        TOTAL FREE ENERGY PREDICTED BY IDOCK:   -4.40 KCAL/MOL
REMARK 923 INTER-LIGAND FREE ENERGY PREDICTED BY IDOCK:   -4.48 KCAL/MOL
REMARK 924 INTRA-LIGAND FREE ENERGY PREDICTED BY IDOCK:    0.08 KCAL/MOL
REMARK 927      BINDING AFFINITY PREDICTED BY RF-SCORE:    0.00 PKD
ROOT
HETATM    1  C   UNK A   0     -13.716  13.520  72.412  1.00  0.00    -0.704 C  
HETATM    2  C   UNK A   0     -12.832  12.852  71.400  1.00  0.00    -0.283 C  
ATOM      3  N   TYR A   1     -12.483  13.617  70.317  1.00  0.00    -0.299 N  
HETATM    4  O   UNK A   0     -12.390  11.714  71.550  1.00  0.00    -0.176 OA 
ATOM      5  H   TYR A   1     -12.883  14.549  70.204  1.00  0.00     0.000 HD 
ENDROOT
BRANCH   3   6
ATOM      6  CA  TYR A   1     -11.538  13.101  69.319  1.00  0.00    -0.314 C  
ATOM      7  C   TYR A   1     -11.286  14.179  68.245  1.00  0.00    -0.272 C  
ATOM      8  O   TYR A   1     -10.592  15.248  68.716  1.00  0.00    -0.227 OA 
ATOM      9  OXT TYR A   1     -11.677  14.131  67.087  1.00  0.00    -0.361 OA 
BRANCH   6  10
ATOM     10  CB  TYR A   1     -12.035  11.779  68.702  1.00  0.00    -0.299 C  
BRANCH  10  11
ATOM     11  CG  TYR A   1     -10.972  10.720  68.504  1.00  0.00    -0.291 A  
ATOM     12  CD1 TYR A   1     -10.829  10.022  67.294  1.00  0.00    -0.284 A  
ATOM     13  CE1 TYR A   1      -9.927   8.959  67.185  1.00  0.00    -0.289 A  
ATOM     14  CZ  TYR A   1      -9.133   8.622  68.272  1.00  0.00    -0.141 A  
ATOM     15  CE2 TYR A   1      -9.192   9.356  69.448  1.00  0.00    -0.167 A  
ATOM     16  OH  TYR A   1      -8.286   7.555  68.223  1.00  0.00    -0.124 OA 
ATOM     17  HH  TYR A   1      -7.742   7.324  68.967  1.00  0.00     0.000 HD 
ATOM     18  CD2 TYR A   1     -10.108  10.404  69.563  1.00  0.00    -0.246 A  
ENDBRANCH  10  11
ENDBRANCH   6  10
ENDBRANCH   3   6
TORSDOF 3
ENDMDL
MODEL      165
REMARK 921   NORMALIZED FREE ENERGY PREDICTED BY IDOCK:   -3.34 KCAL/MOL
REMARK 922        TOTAL FREE ENERGY PREDICTED BY IDOCK:   -4.37 KCAL/MOL
REMARK 923 INTER-LIGAND FREE ENERGY PREDICTED BY IDOCK:   -4.00 KCAL/MOL
REMARK 924 INTRA-LIGAND FREE ENERGY PREDICTED BY IDOCK:   -0.36 KCAL/MOL
REMARK 927      BINDING AFFINITY PREDICTED BY RF-SCORE:    0.00 PKD
ROOT
HETATM    1  C   UNK A   0     -10.296   9.181  71.491  1.00  0.00    -0.414 C  
HETATM    2  C   UNK A   0     -11.056   8.120  70.750  1.00  0.00    -0.259 C  
ATOM      3  N   TYR A   1     -10.385   7.523  69.713  1.00  0.00    -0.215 N  
HETATM    4  O   UNK A   0     -12.182   7.754  71.080  1.00  0.00    -0.308 OA 
ATOM      5  H   TYR A   1      -9.461   7.860  69.444  1.00  0.00     0.000 HD 
ENDROOT
BRANCH   3   6
ATOM      6  CA  TYR A   1     -10.994   6.399  68.988  1.00  0.00    -0.348 C  
ATOM      7  C   TYR A   1     -10.165   5.122  69.233  1.00  0.00    -0.206 C  
ATOM      8  O   TYR A   1     -10.251   4.669  70.511  1.00  0.00    -0.223 OA 
ATOM      9  OXT TYR A   1      -9.467   4.560  68.401  1.00  0.00    -0.134 OA 
BRANCH   6  10
ATOM     10  CB  TYR A   1     -11.140   6.712  67.486  1.00  0.00    -0.374 C  
BRANCH  10  11
ATOM     11  CG  TYR A   1     -10.319   7.881  66.987  1.00  0.00    -0.411 A  
ATOM     12  CD1 TYR A   1      -9.014   7.723  66.495  1.00  0.00    -0.191 A  
ATOM     13  CE1 TYR A   1      -8.234   8.835  66.168  1.00  0.00    -0.117 A  
ATOM     14  CZ  TYR A   1      -8.774  10.109  66.288  1.00  0.00    -0.141 A  
ATOM     15  CE2 TYR A   1     -10.092  10.285  66.686  1.00  0.00    -0.281 A  
ATOM     16  OH  TYR A   1      -8.025  11.219  66.036  1.00  0.00    -0.324 OA 
ATOM     17  HH  TYR A   1      -8.394  12.090  66.118  1.00  0.00     0.000 HD 
ATOM     18  CD2 TYR A   1     -10.863   9.174  67.033  1.00  0.00    -0.056 A  
ENDBRANCH  10  11
ENDBRANCH   6  10
ENDBRANCH   3   6
TORSDOF 3
ENDMDL
MODEL      166
REMARK 921   NORMALIZED FREE ENERGY PREDICTED BY IDOCK:   -3.34 KCAL/MOL
REMARK 922        TOTAL FREE ENERGY PREDICTED BY IDOCK:   -4.37 KCAL/MOL
REMARK 923 INTER-LIGAND FREE ENERGY PREDICTED BY IDOCK:   -4.07 KCAL/MOL
REMARK 924 INTRA-LIGAND FREE ENERGY PREDICTED BY IDOCK:   -0.29 KCAL/MOL
REMARK 927      BINDING AFFINITY PREDICTED BY RF-SCORE:    0.00 PKD
ROOT
HETATM    1  C   UNK A   0      -7.772   3.787  70.081  1.00  0.00    -0.048 C  
HETATM    2  C   UNK A   0      -8.751   4.885  69.786  1.00  0.00    -0.086 C  
ATOM      3  N   TYR A   1      -8.203   6.093  69.438  1.00  0.00    -0.111 N  
HETATM    4  O   UNK A   0      -9.968   4.710  69.789  1.00  0.00    -0.217 OA 
ATOM      5  H   TYR A   1      -7.191   6.219  69.466  1.00  0.00     0.000 HD 
ENDROOT
BRANCH   3   6
ATOM      6  CA  TYR A   1      -9.068   7.207  69.026  1.00  0.00    -0.132 C  
ATOM      7  C   TYR A   1      -8.515   7.832  67.727  1.00  0.00    -0.121 C  
ATOM      8  O   TYR A   1      -8.633   7.012  66.650  1.00  0.00    -0.116 OA 
ATOM      9  OXT TYR A   1      -7.992   8.933  67.639  1.00  0.00    -0.101 OA 
BRANCH   6  10
ATOM     10  CB  TYR A   1      -9.216   8.251  70.150  1.00  0.00    -0.155 C  
BRANCH  10  11
ATOM     11  CG  TYR A   1     -10.611   8.387  70.722  1.00  0.00    -0.240 A  
ATOM     12  CD1 TYR A   1     -11.197   9.637  70.973  1.00  0.00    -0.445 A  
ATOM     13  CE1 TYR A   1     -12.430   9.731  71.625  1.00  0.00    -0.500 A  
ATOM     14  CZ  TYR A   1     -13.102   8.571  71.987  1.00  0.00    -0.371 A  
ATOM     15  CE2 TYR A   1     -12.584   7.324  71.667  1.00  0.00    -0.403 A  
ATOM     16  OH  TYR A   1     -14.276   8.622  72.676  1.00  0.00    -0.724 OA 
ATOM     17  HH  TYR A   1     -14.736   7.828  72.924  1.00  0.00     0.000 HD 
ATOM     18  CD2 TYR A   1     -11.342   7.232  71.036  1.00  0.00    -0.301 A  
ENDBRANCH  10  11
ENDBRANCH   6  10
ENDBRANCH   3   6
TORSDOF 3
ENDMDL
MODEL      167
REMARK 921   NORMALIZED FREE ENERGY PREDICTED BY IDOCK:   -3.33 KCAL/MOL
REMARK 922        TOTAL FREE ENERGY PREDICTED BY IDOCK:   -4.35 KCAL/MOL
REMARK 923 INTER-LIGAND FREE ENERGY PREDICTED BY IDOCK:   -4.71 KCAL/MOL
REMARK 924 INTRA-LIGAND FREE ENERGY PREDICTED BY IDOCK:    0.36 KCAL/MOL
REMARK 927      BINDING AFFINITY PREDICTED BY RF-SCORE:    0.00 PKD
ROOT
HETATM    1  C   UNK A   0     -11.648  10.752  70.264  1.00  0.00    -0.427 C  
HETATM    2  C   UNK A   0     -10.948  11.268  69.041  1.00  0.00    -0.236 C  
ATOM      3  N   TYR A   1     -11.502  12.383  68.465  1.00  0.00    -0.280 N  
HETATM    4  O   UNK A   0      -9.908  10.773  68.610  1.00  0.00    -0.169 OA 
ATOM      5  H   TYR A   1     -12.378  12.760  68.827  1.00  0.00     0.000 HD 
ENDROOT
BRANCH   3   6
ATOM      6  CA  TYR A   1     -10.839  13.035  67.327  1.00  0.00    -0.252 C  
ATOM      7  C   TYR A   1     -11.001  12.158  66.068  1.00  0.00    -0.293 C  
ATOM      8  O   TYR A   1     -12.282  12.108  65.616  1.00  0.00    -0.571 OA 
ATOM      9  OXT TYR A   1     -10.104  11.534  65.520  1.00  0.00    -0.223 OA 
BRANCH   6  10
ATOM     10  CB  TYR A   1      -9.359  13.335  67.634  1.00  0.00    -0.212 C  
BRANCH  10  11
ATOM     11  CG  TYR A   1      -8.846  14.656  67.102  1.00  0.00    -0.238 A  
ATOM     12  CD1 TYR A   1      -7.534  15.097  67.336  1.00  0.00    -0.239 A  
ATOM     13  CE1 TYR A   1      -7.130  16.378  66.948  1.00  0.00    -0.256 A  
ATOM     14  CZ  TYR A   1      -8.025  17.204  66.282  1.00  0.00    -0.304 A  
ATOM     15  CE2 TYR A   1      -9.298  16.755  65.960  1.00  0.00    -0.245 A  
ATOM     16  OH  TYR A   1      -7.687  18.479  65.941  1.00  0.00    -0.459 OA 
ATOM     17  HH  TYR A   1      -8.300  19.045  65.486  1.00  0.00     0.000 HD 
ATOM     18  CD2 TYR A   1      -9.707  15.484  66.367  1.00  0.00    -0.306 A  
ENDBRANCH  10  11
ENDBRANCH   6  10
ENDBRANCH   3   6
TORSDOF 3
ENDMDL
MODEL      168
REMARK 921   NORMALIZED FREE ENERGY PREDICTED BY IDOCK:   -3.31 KCAL/MOL
REMARK 922        TOTAL FREE ENERGY PREDICTED BY IDOCK:   -4.33 KCAL/MOL
REMARK 923 INTER-LIGAND FREE ENERGY PREDICTED BY IDOCK:   -4.24 KCAL/MOL
REMARK 924 INTRA-LIGAND FREE ENERGY PREDICTED BY IDOCK:   -0.09 KCAL/MOL
REMARK 927      BINDING AFFINITY PREDICTED BY RF-SCORE:    0.00 PKD
ROOT
HETATM    1  C   UNK A   0     -10.086  10.261  69.671  1.00  0.00    -0.257 C  
HETATM    2  C   UNK A   0     -10.635   9.521  70.854  1.00  0.00    -0.325 C  
ATOM      3  N   TYR A   1      -9.937   8.402  71.233  1.00  0.00    -0.191 N  
HETATM    4  O   UNK A   0     -11.609   9.915  71.493  1.00  0.00    -0.373 OA 
ATOM      5  H   TYR A   1      -9.147   8.083  70.672  1.00  0.00     0.000 HD 
ENDROOT
BRANCH   3   6
ATOM      6  CA  TYR A   1     -10.324   7.661  72.441  1.00  0.00    -0.238 C  
ATOM      7  C   TYR A   1      -9.077   7.426  73.319  1.00  0.00    -0.174 C  
ATOM      8  O   TYR A   1      -8.591   8.568  73.871  1.00  0.00    -0.279 OA 
ATOM      9  OXT TYR A   1      -8.535   6.346  73.501  1.00  0.00    -0.120 OA 
BRANCH   6  10
ATOM     10  CB  TYR A   1     -11.039   6.343  72.090  1.00  0.00    -0.302 C  
BRANCH  10  11
ATOM     11  CG  TYR A   1     -10.752   5.803  70.705  1.00  0.00    -0.342 A  
ATOM     12  CD1 TYR A   1      -9.873   4.730  70.489  1.00  0.00    -0.301 A  
ATOM     13  CE1 TYR A   1      -9.526   4.341  69.192  1.00  0.00    -0.245 A  
ATOM     14  CZ  TYR A   1     -10.093   4.995  68.107  1.00  0.00    -0.103 A  
ATOM     15  CE2 TYR A   1     -11.033   5.998  68.297  1.00  0.00    -0.347 A  
ATOM     16  OH  TYR A   1      -9.733   4.684  66.830  1.00  0.00    -0.165 OA 
ATOM     17  HH  TYR A   1     -10.121   5.132  66.087  1.00  0.00     0.000 HD 
ATOM     18  CD2 TYR A   1     -11.363   6.400  69.593  1.00  0.00    -0.479 A  
ENDBRANCH  10  11
ENDBRANCH   6  10
ENDBRANCH   3   6
TORSDOF 3
ENDMDL
MODEL      169
REMARK 921   NORMALIZED FREE ENERGY PREDICTED BY IDOCK:   -3.31 KCAL/MOL
REMARK 922        TOTAL FREE ENERGY PREDICTED BY IDOCK:   -4.33 KCAL/MOL
REMARK 923 INTER-LIGAND FREE ENERGY PREDICTED BY IDOCK:   -3.92 KCAL/MOL
REMARK 924 INTRA-LIGAND FREE ENERGY PREDICTED BY IDOCK:   -0.41 KCAL/MOL
REMARK 927      BINDING AFFINITY PREDICTED BY RF-SCORE:    0.00 PKD
ROOT
HETATM    1  C   UNK A   0      -8.615   6.591  66.803  1.00  0.00    -0.117 C  
HETATM    2  C   UNK A   0      -9.652   7.582  67.245  1.00  0.00    -0.156 C  
ATOM      3  N   TYR A   1      -9.196   8.612  68.027  1.00  0.00    -0.140 N  
HETATM    4  O   UNK A   0     -10.826   7.522  66.884  1.00  0.00    -0.345 OA 
ATOM      5  H   TYR A   1      -8.222   8.626  68.331  1.00  0.00     0.000 HD 
ENDROOT
BRANCH   3   6
ATOM      6  CA  TYR A   1     -10.103   9.696  68.427  1.00  0.00    -0.176 C  
ATOM      7  C   TYR A   1      -9.768  10.969  67.622  1.00  0.00    -0.168 C  
ATOM      8  O   TYR A   1     -10.074  10.861  66.303  1.00  0.00    -0.218 OA 
ATOM      9  OXT TYR A   1      -9.253  11.979  68.079  1.00  0.00    -0.179 OA 
BRANCH   6  10
ATOM     10  CB  TYR A   1     -10.049   9.943  69.947  1.00  0.00    -0.297 C  
BRANCH  10  11
ATOM     11  CG  TYR A   1     -10.604   8.824  70.802  1.00  0.00    -0.269 A  
ATOM     12  CD1 TYR A   1      -9.784   7.823  71.347  1.00  0.00    -0.194 A  
ATOM     13  CE1 TYR A   1     -10.340   6.731  72.019  1.00  0.00    -0.217 A  
ATOM     14  CZ  TYR A   1     -11.715   6.661  72.189  1.00  0.00    -0.304 A  
ATOM     15  CE2 TYR A   1     -12.538   7.685  71.739  1.00  0.00    -0.359 A  
ATOM     16  OH  TYR A   1     -12.298   5.584  72.786  1.00  0.00    -0.486 OA 
ATOM     17  HH  TYR A   1     -13.240   5.536  72.902  1.00  0.00     0.000 HD 
ATOM     18  CD2 TYR A   1     -11.983   8.764  71.048  1.00  0.00    -0.291 A  
ENDBRANCH  10  11
ENDBRANCH   6  10
ENDBRANCH   3   6
TORSDOF 3
ENDMDL
MODEL      170
REMARK 921   NORMALIZED FREE ENERGY PREDICTED BY IDOCK:   -3.26 KCAL/MOL
REMARK 922        TOTAL FREE ENERGY PREDICTED BY IDOCK:   -4.27 KCAL/MOL
REMARK 923 INTER-LIGAND FREE ENERGY PREDICTED BY IDOCK:   -3.72 KCAL/MOL
REMARK 924 INTRA-LIGAND FREE ENERGY PREDICTED BY IDOCK:   -0.55 KCAL/MOL
REMARK 927      BINDING AFFINITY PREDICTED BY RF-SCORE:    0.00 PKD
ROOT
HETATM    1  C   UNK A   0      -9.050   5.228  68.360  1.00  0.00    -0.125 C  
HETATM    2  C   UNK A   0      -8.951   6.713  68.553  1.00  0.00    -0.120 C  
ATOM      3  N   TYR A   1      -8.018   7.133  69.467  1.00  0.00    -0.125 N  
HETATM    4  O   UNK A   0      -9.611   7.516  67.897  1.00  0.00    -0.140 OA 
ATOM      5  H   TYR A   1      -7.500   6.446  70.016  1.00  0.00     0.000 HD 
ENDROOT
BRANCH   3   6
ATOM      6  CA  TYR A   1      -7.762   8.566  69.659  1.00  0.00    -0.093 C  
ATOM      7  C   TYR A   1      -6.307   8.886  69.254  1.00  0.00    -0.042 C  
ATOM      8  O   TYR A   1      -6.089   8.770  67.918  1.00  0.00    -0.049 OA 
ATOM      9  OXT TYR A   1      -5.409   9.187  70.026  1.00  0.00    -0.028 OA 
BRANCH   6  10
ATOM     10  CB  TYR A   1      -8.068   9.005  71.104  1.00  0.00    -0.185 C  
BRANCH  10  11
ATOM     11  CG  TYR A   1      -9.511   8.849  71.533  1.00  0.00    -0.347 A  
ATOM     12  CD1 TYR A   1      -9.893   7.986  72.572  1.00  0.00    -0.330 A  
ATOM     13  CE1 TYR A   1     -11.243   7.763  72.856  1.00  0.00    -0.434 A  
ATOM     14  CZ  TYR A   1     -12.215   8.439  72.131  1.00  0.00    -0.374 A  
ATOM     15  CE2 TYR A   1     -11.859   9.365  71.161  1.00  0.00    -0.413 A  
ATOM     16  OH  TYR A   1     -13.541   8.203  72.339  1.00  0.00    -0.535 OA 
ATOM     17  HH  TYR A   1     -14.206   8.666  71.843  1.00  0.00     0.000 HD 
ATOM     18  CD2 TYR A   1     -10.510   9.571  70.864  1.00  0.00    -0.382 A  
ENDBRANCH  10  11
ENDBRANCH   6  10
ENDBRANCH   3   6
TORSDOF 3
ENDMDL
MODEL      171
REMARK 921   NORMALIZED FREE ENERGY PREDICTED BY IDOCK:   -3.26 KCAL/MOL
REMARK 922        TOTAL FREE ENERGY PREDICTED BY IDOCK:   -4.26 KCAL/MOL
REMARK 923 INTER-LIGAND FREE ENERGY PREDICTED BY IDOCK:   -3.87 KCAL/MOL
REMARK 924 INTRA-LIGAND FREE ENERGY PREDICTED BY IDOCK:   -0.40 KCAL/MOL
REMARK 927      BINDING AFFINITY PREDICTED BY RF-SCORE:    0.00 PKD
ROOT
HETATM    1  C   UNK A   0     -12.698  12.061  63.637  1.00  0.00    -0.550 C  
HETATM    2  C   UNK A   0     -11.284  12.237  64.106  1.00  0.00    -0.369 C  
ATOM      3  N   TYR A   1     -10.980  11.655  65.311  1.00  0.00    -0.290 N  
HETATM    4  O   UNK A   0     -10.425  12.808  63.436  1.00  0.00    -0.286 OA 
ATOM      5  H   TYR A   1     -11.715  11.208  65.859  1.00  0.00     0.000 HD 
ENDROOT
BRANCH   3   6
ATOM      6  CA  TYR A   1      -9.600  11.674  65.815  1.00  0.00    -0.232 C  
ATOM      7  C   TYR A   1      -8.957  10.288  65.599  1.00  0.00    -0.172 C  
ATOM      8  O   TYR A   1      -8.740  10.000  64.289  1.00  0.00    -0.172 OA 
ATOM      9  OXT TYR A   1      -8.682   9.491  66.484  1.00  0.00    -0.131 OA 
BRANCH   6  10
ATOM     10  CB  TYR A   1      -9.546  12.111  67.292  1.00  0.00    -0.185 C  
BRANCH  10  11
ATOM     11  CG  TYR A   1      -9.363  13.597  67.518  1.00  0.00    -0.223 A  
ATOM     12  CD1 TYR A   1     -10.239  14.343  68.322  1.00  0.00    -0.241 A  
ATOM     13  CE1 TYR A   1     -10.123  15.734  68.404  1.00  0.00    -0.222 A  
ATOM     14  CZ  TYR A   1      -9.102  16.377  67.718  1.00  0.00    -0.199 A  
ATOM     15  CE2 TYR A   1      -8.171  15.650  66.990  1.00  0.00    -0.268 A  
ATOM     16  OH  TYR A   1      -8.994  17.735  67.726  1.00  0.00    -0.243 OA 
ATOM     17  HH  TYR A   1      -8.295  18.176  67.256  1.00  0.00     0.000 HD 
ATOM     18  CD2 TYR A   1      -8.300  14.263  66.891  1.00  0.00    -0.084 A  
ENDBRANCH  10  11
ENDBRANCH   6  10
ENDBRANCH   3   6
TORSDOF 3
ENDMDL
MODEL      172
REMARK 921   NORMALIZED FREE ENERGY PREDICTED BY IDOCK:   -3.24 KCAL/MOL
REMARK 922        TOTAL FREE ENERGY PREDICTED BY IDOCK:   -4.25 KCAL/MOL
REMARK 923 INTER-LIGAND FREE ENERGY PREDICTED BY IDOCK:   -3.75 KCAL/MOL
REMARK 924 INTRA-LIGAND FREE ENERGY PREDICTED BY IDOCK:   -0.49 KCAL/MOL
REMARK 927      BINDING AFFINITY PREDICTED BY RF-SCORE:    0.00 PKD
ROOT
HETATM    1  C   UNK A   0     -12.279  11.154  69.232  1.00  0.00    -0.295 C  
HETATM    2  C   UNK A   0     -11.492  11.990  68.267  1.00  0.00    -0.303 C  
ATOM      3  N   TYR A   1     -11.277  11.431  67.033  1.00  0.00    -0.303 N  
HETATM    4  O   UNK A   0     -11.112  13.131  68.528  1.00  0.00    -0.241 OA 
ATOM      5  H   TYR A   1     -11.581  10.474  66.849  1.00  0.00     0.000 HD 
ENDROOT
BRANCH   3   6
ATOM      6  CA  TYR A   1     -10.611  12.203  65.975  1.00  0.00    -0.257 C  
ATOM      7  C   TYR A   1     -11.430  12.099  64.672  1.00  0.00    -0.328 C  
ATOM      8  O   TYR A   1     -12.623  12.747  64.740  1.00  0.00    -0.556 OA 
ATOM      9  OXT TYR A   1     -11.092  11.485  63.670  1.00  0.00    -0.397 OA 
BRANCH   6  10
ATOM     10  CB  TYR A   1      -9.153  11.745  65.777  1.00  0.00    -0.088 C  
BRANCH  10  11
ATOM     11  CG  TYR A   1      -8.235  11.991  66.955  1.00  0.00    -0.169 A  
ATOM     12  CD1 TYR A   1      -7.824  10.957  67.811  1.00  0.00    -0.109 A  
ATOM     13  CE1 TYR A   1      -7.086  11.236  68.965  1.00  0.00    -0.116 A  
ATOM     14  CZ  TYR A   1      -6.717  12.545  69.242  1.00  0.00    -0.060 A  
ATOM     15  CE2 TYR A   1      -7.035  13.571  68.363  1.00  0.00    -0.105 A  
ATOM     16  OH  TYR A   1      -6.050  12.863  70.387  1.00  0.00    -0.310 OA 
ATOM     17  HH  TYR A   1      -5.798  13.759  70.576  1.00  0.00     0.000 HD 
ATOM     18  CD2 TYR A   1      -7.790  13.295  67.222  1.00  0.00    -0.118 A  
ENDBRANCH  10  11
ENDBRANCH   6  10
ENDBRANCH   3   6
TORSDOF 3
ENDMDL
MODEL      173
REMARK 921   NORMALIZED FREE ENERGY PREDICTED BY IDOCK:   -3.23 KCAL/MOL
REMARK 922        TOTAL FREE ENERGY PREDICTED BY IDOCK:   -4.23 KCAL/MOL
REMARK 923 INTER-LIGAND FREE ENERGY PREDICTED BY IDOCK:   -4.81 KCAL/MOL
REMARK 924 INTRA-LIGAND FREE ENERGY PREDICTED BY IDOCK:    0.58 KCAL/MOL
REMARK 927      BINDING AFFINITY PREDICTED BY RF-SCORE:    0.00 PKD
ROOT
HETATM    1  C   UNK A   0      -7.230  13.232  68.350  1.00  0.00    -0.110 C  
HETATM    2  C   UNK A   0      -8.510  13.865  67.889  1.00  0.00    -0.177 C  
ATOM      3  N   TYR A   1      -8.703  13.897  66.531  1.00  0.00    -0.452 N  
HETATM    4  O   UNK A   0      -9.369  14.274  68.668  1.00  0.00    -0.202 OA 
ATOM      5  H   TYR A   1      -7.965  13.573  65.906  1.00  0.00     0.000 HD 
ENDROOT
BRANCH   3   6
ATOM      6  CA  TYR A   1      -9.967  14.397  65.975  1.00  0.00    -0.317 C  
ATOM      7  C   TYR A   1     -10.210  15.838  66.468  1.00  0.00    -0.286 C  
ATOM      8  O   TYR A   1      -9.334  16.735  65.943  1.00  0.00    -0.476 OA 
ATOM      9  OXT TYR A   1     -11.070  16.177  67.268  1.00  0.00    -0.231 OA 
BRANCH   6  10
ATOM     10  CB  TYR A   1     -11.143  13.463  66.321  1.00  0.00    -0.305 C  
BRANCH  10  11
ATOM     11  CG  TYR A   1     -10.846  11.984  66.207  1.00  0.00    -0.316 A  
ATOM     12  CD1 TYR A   1     -11.074  11.092  67.267  1.00  0.00    -0.359 A  
ATOM     13  CE1 TYR A   1     -10.667   9.758  67.179  1.00  0.00    -0.273 A  
ATOM     14  CZ  TYR A   1     -10.072   9.300  66.012  1.00  0.00    -0.192 A  
ATOM     15  CE2 TYR A   1      -9.919  10.141  64.918  1.00  0.00    -0.358 A  
ATOM     16  OH  TYR A   1      -9.608   8.023  65.911  1.00  0.00    -0.427 OA 
ATOM     17  HH  TYR A   1      -9.200   7.710  65.111  1.00  0.00     0.000 HD 
ATOM     18  CD2 TYR A   1     -10.307  11.479  65.015  1.00  0.00    -0.333 A  
ENDBRANCH  10  11
ENDBRANCH   6  10
ENDBRANCH   3   6
TORSDOF 3
ENDMDL
MODEL      174
REMARK 921   NORMALIZED FREE ENERGY PREDICTED BY IDOCK:   -3.22 KCAL/MOL
REMARK 922        TOTAL FREE ENERGY PREDICTED BY IDOCK:   -4.22 KCAL/MOL
REMARK 923 INTER-LIGAND FREE ENERGY PREDICTED BY IDOCK:   -3.74 KCAL/MOL
REMARK 924 INTRA-LIGAND FREE ENERGY PREDICTED BY IDOCK:   -0.47 KCAL/MOL
REMARK 927      BINDING AFFINITY PREDICTED BY RF-SCORE:    0.00 PKD
ROOT
HETATM    1  C   UNK A   0     -11.919  10.252  70.746  1.00  0.00    -0.456 C  
HETATM    2  C   UNK A   0     -10.819   9.922  69.781  1.00  0.00    -0.269 C  
ATOM      3  N   TYR A   1      -9.665  10.651  69.922  1.00  0.00    -0.370 N  
HETATM    4  O   UNK A   0     -10.908   9.017  68.953  1.00  0.00    -0.163 OA 
ATOM      5  H   TYR A   1      -9.625  11.412  70.600  1.00  0.00     0.000 HD 
ENDROOT
BRANCH   3   6
ATOM      6  CA  TYR A   1      -8.488  10.339  69.101  1.00  0.00    -0.162 C  
ATOM      7  C   TYR A   1      -7.254  10.179  70.014  1.00  0.00    -0.161 C  
ATOM      8  O   TYR A   1      -7.312   9.071  70.797  1.00  0.00    -0.081 OA 
ATOM      9  OXT TYR A   1      -6.315  10.960  70.078  1.00  0.00    -0.113 OA 
BRANCH   6  10
ATOM     10  CB  TYR A   1      -8.263  11.405  68.011  1.00  0.00    -0.140 C  
BRANCH  10  11
ATOM     11  CG  TYR A   1      -8.518  10.939  66.593  1.00  0.00    -0.151 A  
ATOM     12  CD1 TYR A   1      -9.759  11.114  65.960  1.00  0.00    -0.263 A  
ATOM     13  CE1 TYR A   1     -10.004  10.556  64.702  1.00  0.00    -0.415 A  
ATOM     14  CZ  TYR A   1      -8.993   9.861  64.053  1.00  0.00    -0.243 A  
ATOM     15  CE2 TYR A   1      -7.730   9.754  64.620  1.00  0.00    -0.136 A  
ATOM     16  OH  TYR A   1      -9.213   9.252  62.854  1.00  0.00    -0.484 OA 
ATOM     17  HH  TYR A   1      -8.520   8.776  62.410  1.00  0.00     0.000 HD 
ATOM     18  CD2 TYR A   1      -7.493  10.293  65.886  1.00  0.00    -0.135 A  
ENDBRANCH  10  11
ENDBRANCH   6  10
ENDBRANCH   3   6
TORSDOF 3
ENDMDL
MODEL      175
REMARK 921   NORMALIZED FREE ENERGY PREDICTED BY IDOCK:   -3.21 KCAL/MOL
REMARK 922        TOTAL FREE ENERGY PREDICTED BY IDOCK:   -4.21 KCAL/MOL
REMARK 923 INTER-LIGAND FREE ENERGY PREDICTED BY IDOCK:   -3.86 KCAL/MOL
REMARK 924 INTRA-LIGAND FREE ENERGY PREDICTED BY IDOCK:   -0.35 KCAL/MOL
REMARK 927      BINDING AFFINITY PREDICTED BY RF-SCORE:    0.00 PKD
ROOT
HETATM    1  C   UNK A   0      -9.098   5.100  69.582  1.00  0.00    -0.153 C  
HETATM    2  C   UNK A   0      -9.536   5.849  70.806  1.00  0.00    -0.165 C  
ATOM      3  N   TYR A   1     -10.314   6.956  70.579  1.00  0.00    -0.203 N  
HETATM    4  O   UNK A   0      -9.277   5.471  71.947  1.00  0.00    -0.141 OA 
ATOM      5  H   TYR A   1     -10.495   7.262  69.623  1.00  0.00     0.000 HD 
ENDROOT
BRANCH   3   6
ATOM      6  CA  TYR A   1     -10.886   7.702  71.707  1.00  0.00    -0.229 C  
ATOM      7  C   TYR A   1     -12.416   7.505  71.729  1.00  0.00    -0.330 C  
ATOM      8  O   TYR A   1     -12.785   6.238  72.055  1.00  0.00    -0.226 OA 
ATOM      9  OXT TYR A   1     -13.244   8.363  71.459  1.00  0.00    -0.327 OA 
BRANCH   6  10
ATOM     10  CB  TYR A   1     -10.498   9.192  71.652  1.00  0.00    -0.403 C  
BRANCH  10  11
ATOM     11  CG  TYR A   1     -10.173   9.724  70.273  1.00  0.00    -0.346 A  
ATOM     12  CD1 TYR A   1      -8.861   9.759  69.776  1.00  0.00    -0.241 A  
ATOM     13  CE1 TYR A   1      -8.576  10.377  68.554  1.00  0.00    -0.134 A  
ATOM     14  CZ  TYR A   1      -9.610  10.920  67.805  1.00  0.00    -0.164 A  
ATOM     15  CE2 TYR A   1     -10.926  10.816  68.234  1.00  0.00    -0.307 A  
ATOM     16  OH  TYR A   1      -9.365  11.582  66.640  1.00  0.00    -0.179 OA 
ATOM     17  HH  TYR A   1     -10.073  11.954  66.127  1.00  0.00     0.000 HD 
ATOM     18  CD2 TYR A   1     -11.207  10.218  69.464  1.00  0.00    -0.314 A  
ENDBRANCH  10  11
ENDBRANCH   6  10
ENDBRANCH   3   6
TORSDOF 3
ENDMDL
MODEL      176
REMARK 921   NORMALIZED FREE ENERGY PREDICTED BY IDOCK:   -3.20 KCAL/MOL
REMARK 922        TOTAL FREE ENERGY PREDICTED BY IDOCK:   -4.19 KCAL/MOL
REMARK 923 INTER-LIGAND FREE ENERGY PREDICTED BY IDOCK:   -3.91 KCAL/MOL
REMARK 924 INTRA-LIGAND FREE ENERGY PREDICTED BY IDOCK:   -0.28 KCAL/MOL
REMARK 927      BINDING AFFINITY PREDICTED BY RF-SCORE:    0.00 PKD
ROOT
HETATM    1  C   UNK A   0      -7.662  13.248  68.198  1.00  0.00    -0.143 C  
HETATM    2  C   UNK A   0      -9.073  12.915  67.812  1.00  0.00    -0.197 C  
ATOM      3  N   TYR A   1      -9.674  11.925  68.549  1.00  0.00    -0.290 N  
HETATM    4  O   UNK A   0      -9.687  13.525  66.938  1.00  0.00    -0.245 OA 
ATOM      5  H   TYR A   1      -9.136  11.419  69.252  1.00  0.00     0.000 HD 
ENDROOT
BRANCH   3   6
ATOM      6  CA  TYR A   1     -11.087  11.592  68.327  1.00  0.00    -0.239 C  
ATOM      7  C   TYR A   1     -11.901  11.942  69.591  1.00  0.00    -0.337 C  
ATOM      8  O   TYR A   1     -11.991  13.280  69.812  1.00  0.00    -0.313 OA 
ATOM      9  OXT TYR A   1     -12.403  11.132  70.356  1.00  0.00    -0.320 OA 
BRANCH   6  10
ATOM     10  CB  TYR A   1     -11.261  10.116  67.921  1.00  0.00    -0.234 C  
BRANCH  10  11
ATOM     11  CG  TYR A   1     -10.296   9.620  66.866  1.00  0.00    -0.307 A  
ATOM     12  CD1 TYR A   1     -10.041  10.341  65.688  1.00  0.00    -0.341 A  
ATOM     13  CE1 TYR A   1      -9.249   9.795  64.674  1.00  0.00    -0.312 A  
ATOM     14  CZ  TYR A   1      -8.673   8.546  64.854  1.00  0.00    -0.054 A  
ATOM     15  CE2 TYR A   1      -8.837   7.854  66.046  1.00  0.00    -0.191 A  
ATOM     16  OH  TYR A   1      -7.945   7.956  63.864  1.00  0.00    -0.142 OA 
ATOM     17  HH  TYR A   1      -7.550   7.100  63.988  1.00  0.00     0.000 HD 
ATOM     18  CD2 TYR A   1      -9.646   8.391  67.050  1.00  0.00    -0.248 A  
ENDBRANCH  10  11
ENDBRANCH   6  10
ENDBRANCH   3   6
TORSDOF 3
ENDMDL
MODEL      177
REMARK 921   NORMALIZED FREE ENERGY PREDICTED BY IDOCK:   -3.19 KCAL/MOL
REMARK 922        TOTAL FREE ENERGY PREDICTED BY IDOCK:   -4.19 KCAL/MOL
REMARK 923 INTER-LIGAND FREE ENERGY PREDICTED BY IDOCK:   -3.74 KCAL/MOL
REMARK 924 INTRA-LIGAND FREE ENERGY PREDICTED BY IDOCK:   -0.45 KCAL/MOL
REMARK 927      BINDING AFFINITY PREDICTED BY RF-SCORE:    0.00 PKD
ROOT
HETATM    1  C   UNK A   0     -11.014   6.043  68.339  1.00  0.00    -0.340 C  
HETATM    2  C   UNK A   0     -10.383   7.397  68.486  1.00  0.00    -0.198 C  
ATOM      3  N   TYR A   1     -11.227   8.408  68.870  1.00  0.00    -0.265 N  
HETATM    4  O   UNK A   0      -9.178   7.590  68.337  1.00  0.00    -0.140 OA 
ATOM      5  H   TYR A   1     -12.227   8.226  68.964  1.00  0.00     0.000 HD 
ENDROOT
BRANCH   3   6
ATOM      6  CA  TYR A   1     -10.697   9.749  69.147  1.00  0.00    -0.221 C  
ATOM      7  C   TYR A   1     -11.422  10.344  70.372  1.00  0.00    -0.337 C  
ATOM      8  O   TYR A   1     -11.114   9.710  71.533  1.00  0.00    -0.370 OA 
ATOM      9  OXT TYR A   1     -12.221  11.270  70.341  1.00  0.00    -0.325 OA 
BRANCH   6  10
ATOM     10  CB  TYR A   1     -10.807  10.664  67.912  1.00  0.00    -0.328 C  
BRANCH  10  11
ATOM     11  CG  TYR A   1      -9.661  11.635  67.725  1.00  0.00    -0.177 A  
ATOM     12  CD1 TYR A   1      -8.432  11.244  67.170  1.00  0.00    -0.149 A  
ATOM     13  CE1 TYR A   1      -7.351  12.129  67.134  1.00  0.00    -0.124 A  
ATOM     14  CZ  TYR A   1      -7.509  13.422  67.610  1.00  0.00    -0.178 A  
ATOM     15  CE2 TYR A   1      -8.740  13.859  68.080  1.00  0.00    -0.183 A  
ATOM     16  OH  TYR A   1      -6.462  14.294  67.647  1.00  0.00    -0.179 OA 
ATOM     17  HH  TYR A   1      -6.570  15.180  67.973  1.00  0.00     0.000 HD 
ATOM     18  CD2 TYR A   1      -9.814  12.968  68.135  1.00  0.00    -0.228 A  
ENDBRANCH  10  11
ENDBRANCH   6  10
ENDBRANCH   3   6
TORSDOF 3
ENDMDL
MODEL      178
REMARK 921   NORMALIZED FREE ENERGY PREDICTED BY IDOCK:   -3.19 KCAL/MOL
REMARK 922        TOTAL FREE ENERGY PREDICTED BY IDOCK:   -4.18 KCAL/MOL
REMARK 923 INTER-LIGAND FREE ENERGY PREDICTED BY IDOCK:   -3.79 KCAL/MOL
REMARK 924 INTRA-LIGAND FREE ENERGY PREDICTED BY IDOCK:   -0.40 KCAL/MOL
REMARK 927      BINDING AFFINITY PREDICTED BY RF-SCORE:    0.00 PKD
ROOT
HETATM    1  C   UNK A   0      -6.601   8.383  71.099  1.00  0.00    -0.050 C  
HETATM    2  C   UNK A   0      -8.056   8.490  71.451  1.00  0.00    -0.140 C  
ATOM      3  N   TYR A   1      -8.936   8.172  70.448  1.00  0.00    -0.144 N  
HETATM    4  O   UNK A   0      -8.448   8.780  72.580  1.00  0.00    -0.403 OA 
ATOM      5  H   TYR A   1      -8.585   7.958  69.514  1.00  0.00     0.000 HD 
ENDROOT
BRANCH   3   6
ATOM      6  CA  TYR A   1     -10.380   8.140  70.713  1.00  0.00    -0.196 C  
ATOM      7  C   TYR A   1     -10.921   6.723  70.432  1.00  0.00    -0.283 C  
ATOM      8  O   TYR A   1     -10.483   5.798  71.326  1.00  0.00    -0.217 OA 
ATOM      9  OXT TYR A   1     -11.646   6.415  69.497  1.00  0.00    -0.404 OA 
BRANCH   6  10
ATOM     10  CB  TYR A   1     -11.127   9.214  69.898  1.00  0.00    -0.175 C  
BRANCH  10  11
ATOM     11  CG  TYR A   1     -10.347   9.805  68.743  1.00  0.00    -0.227 A  
ATOM     12  CD1 TYR A   1      -9.568  10.965  68.883  1.00  0.00    -0.192 A  
ATOM     13  CE1 TYR A   1      -8.968  11.561  67.770  1.00  0.00    -0.160 A  
ATOM     14  CZ  TYR A   1      -9.107  10.972  66.521  1.00  0.00    -0.173 A  
ATOM     15  CE2 TYR A   1      -9.797   9.777  66.374  1.00  0.00    -0.298 A  
ATOM     16  OH  TYR A   1      -8.588  11.556  65.405  1.00  0.00    -0.391 OA 
ATOM     17  HH  TYR A   1      -8.684  11.153  64.549  1.00  0.00     0.000 HD 
ATOM     18  CD2 TYR A   1     -10.414   9.194  67.483  1.00  0.00    -0.335 A  
ENDBRANCH  10  11
ENDBRANCH   6  10
ENDBRANCH   3   6
TORSDOF 3
ENDMDL
MODEL      179
REMARK 921   NORMALIZED FREE ENERGY PREDICTED BY IDOCK:   -3.16 KCAL/MOL
REMARK 922        TOTAL FREE ENERGY PREDICTED BY IDOCK:   -4.15 KCAL/MOL
REMARK 923 INTER-LIGAND FREE ENERGY PREDICTED BY IDOCK:   -3.85 KCAL/MOL
REMARK 924 INTRA-LIGAND FREE ENERGY PREDICTED BY IDOCK:   -0.31 KCAL/MOL
REMARK 927      BINDING AFFINITY PREDICTED BY RF-SCORE:    0.00 PKD
ROOT
HETATM    1  C   UNK A   0      -7.246   8.718  68.732  1.00  0.00    -0.075 C  
HETATM    2  C   UNK A   0      -7.377   7.271  68.359  1.00  0.00    -0.103 C  
ATOM      3  N   TYR A   1      -8.661   6.795  68.265  1.00  0.00    -0.124 N  
HETATM    4  O   UNK A   0      -6.410   6.562  68.088  1.00  0.00    -0.036 OA 
ATOM      5  H   TYR A   1      -9.445   7.397  68.517  1.00  0.00     0.000 HD 
ENDROOT
BRANCH   3   6
ATOM      6  CA  TYR A   1      -8.910   5.423  67.803  1.00  0.00    -0.105 C  
ATOM      7  C   TYR A   1      -9.678   5.464  66.466  1.00  0.00    -0.164 C  
ATOM      8  O   TYR A   1      -8.931   5.942  65.437  1.00  0.00    -0.115 OA 
ATOM      9  OXT TYR A   1     -10.846   5.138  66.311  1.00  0.00    -0.296 OA 
BRANCH   6  10
ATOM     10  CB  TYR A   1      -9.652   4.596  68.870  1.00  0.00    -0.233 C  
BRANCH  10  11
ATOM     11  CG  TYR A   1     -10.317   5.402  69.964  1.00  0.00    -0.366 A  
ATOM     12  CD1 TYR A   1     -11.399   6.261  69.709  1.00  0.00    -0.506 A  
ATOM     13  CE1 TYR A   1     -11.904   7.092  70.712  1.00  0.00    -0.401 A  
ATOM     14  CZ  TYR A   1     -11.360   7.033  71.987  1.00  0.00    -0.264 A  
ATOM     15  CE2 TYR A   1     -10.351   6.128  72.286  1.00  0.00    -0.221 A  
ATOM     16  OH  TYR A   1     -11.785   7.870  72.975  1.00  0.00    -0.604 OA 
ATOM     17  HH  TYR A   1     -11.412   7.830  73.848  1.00  0.00     0.000 HD 
ATOM     18  CD2 TYR A   1      -9.832   5.314  71.277  1.00  0.00    -0.232 A  
ENDBRANCH  10  11
ENDBRANCH   6  10
ENDBRANCH   3   6
TORSDOF 3
ENDMDL
MODEL      180
REMARK 921   NORMALIZED FREE ENERGY PREDICTED BY IDOCK:   -3.13 KCAL/MOL
REMARK 922        TOTAL FREE ENERGY PREDICTED BY IDOCK:   -4.11 KCAL/MOL
REMARK 923 INTER-LIGAND FREE ENERGY PREDICTED BY IDOCK:   -3.74 KCAL/MOL
REMARK 924 INTRA-LIGAND FREE ENERGY PREDICTED BY IDOCK:   -0.37 KCAL/MOL
REMARK 927      BINDING AFFINITY PREDICTED BY RF-SCORE:    0.00 PKD
ROOT
HETATM    1  C   UNK A   0      -5.369  19.711  66.840  1.00  0.00    -0.163 C  
HETATM    2  C   UNK A   0      -6.658  19.014  66.519  1.00  0.00    -0.193 C  
ATOM      3  N   TYR A   1      -7.557  18.922  67.551  1.00  0.00    -0.228 N  
HETATM    4  O   UNK A   0      -6.931  18.604  65.393  1.00  0.00    -0.499 OA 
ATOM      5  H   TYR A   1      -7.297  19.248  68.482  1.00  0.00     0.000 HD 
ENDROOT
BRANCH   3   6
ATOM      6  CA  TYR A   1      -8.893  18.354  67.321  1.00  0.00    -0.259 C  
ATOM      7  C   TYR A   1      -9.942  19.484  67.355  1.00  0.00    -0.383 C  
ATOM      8  O   TYR A   1      -9.846  20.332  66.297  1.00  0.00    -0.422 OA 
ATOM      9  OXT TYR A   1     -10.773  19.653  68.236  1.00  0.00    -0.310 OA 
BRANCH   6  10
ATOM     10  CB  TYR A   1      -9.213  17.239  68.335  1.00  0.00    -0.268 C  
BRANCH  10  11
ATOM     11  CG  TYR A   1      -8.262  16.063  68.321  1.00  0.00    -0.159 A  
ATOM     12  CD1 TYR A   1      -7.114  16.020  69.129  1.00  0.00    -0.197 A  
ATOM     13  CE1 TYR A   1      -6.185  14.984  68.997  1.00  0.00    -0.098 A  
ATOM     14  CZ  TYR A   1      -6.426  13.962  68.090  1.00  0.00    -0.125 A  
ATOM     15  CE2 TYR A   1      -7.597  13.935  67.346  1.00  0.00    -0.160 A  
ATOM     16  OH  TYR A   1      -5.516  12.967  67.891  1.00  0.00    -0.091 OA 
ATOM     17  HH  TYR A   1      -5.680  12.267  67.269  1.00  0.00     0.000 HD 
ATOM     18  CD2 TYR A   1      -8.514  14.982  67.463  1.00  0.00    -0.188 A  
ENDBRANCH  10  11
ENDBRANCH   6  10
ENDBRANCH   3   6
TORSDOF 3
ENDMDL
MODEL      181
REMARK 921   NORMALIZED FREE ENERGY PREDICTED BY IDOCK:   -3.11 KCAL/MOL
REMARK 922        TOTAL FREE ENERGY PREDICTED BY IDOCK:   -4.09 KCAL/MOL
REMARK 923 INTER-LIGAND FREE ENERGY PREDICTED BY IDOCK:   -3.86 KCAL/MOL
REMARK 924 INTRA-LIGAND FREE ENERGY PREDICTED BY IDOCK:   -0.23 KCAL/MOL
REMARK 927      BINDING AFFINITY PREDICTED BY RF-SCORE:    0.00 PKD
ROOT
HETATM    1  C   UNK A   0      -9.996   4.806  70.004  1.00  0.00    -0.314 C  
HETATM    2  C   UNK A   0     -10.724   6.117  69.950  1.00  0.00    -0.301 C  
ATOM      3  N   TYR A   1     -10.005   7.177  69.458  1.00  0.00    -0.162 N  
HETATM    4  O   UNK A   0     -11.907   6.236  70.262  1.00  0.00    -0.344 OA 
ATOM      5  H   TYR A   1      -9.018   7.057  69.228  1.00  0.00     0.000 HD 
ENDROOT
BRANCH   3   6
ATOM      6  CA  TYR A   1     -10.650   8.482  69.261  1.00  0.00    -0.181 C  
ATOM      7  C   TYR A   1     -10.144   9.110  67.946  1.00  0.00    -0.199 C  
ATOM      8  O   TYR A   1     -10.576   8.449  66.840  1.00  0.00    -0.305 OA 
ATOM      9  OXT TYR A   1      -9.408  10.083  67.864  1.00  0.00    -0.140 OA 
BRANCH   6  10
ATOM     10  CB  TYR A   1     -10.422   9.411  70.469  1.00  0.00    -0.335 C  
BRANCH  10  11
ATOM     11  CG  TYR A   1      -9.533   8.848  71.557  1.00  0.00    -0.347 A  
ATOM     12  CD1 TYR A   1      -8.134   8.826  71.442  1.00  0.00    -0.189 A  
ATOM     13  CE1 TYR A   1      -7.348   8.180  72.401  1.00  0.00    -0.130 A  
ATOM     14  CZ  TYR A   1      -7.957   7.594  73.502  1.00  0.00    -0.141 A  
ATOM     15  CE2 TYR A   1      -9.330   7.681  73.682  1.00  0.00    -0.344 A  
ATOM     16  OH  TYR A   1      -7.230   6.904  74.425  1.00  0.00    -0.096 OA 
ATOM     17  HH  TYR A   1      -7.647   6.502  75.179  1.00  0.00     0.000 HD 
ATOM     18  CD2 TYR A   1     -10.116   8.308  72.713  1.00  0.00    -0.333 A  
ENDBRANCH  10  11
ENDBRANCH   6  10
ENDBRANCH   3   6
TORSDOF 3
ENDMDL
MODEL      182
REMARK 921   NORMALIZED FREE ENERGY PREDICTED BY IDOCK:   -3.10 KCAL/MOL
REMARK 922        TOTAL FREE ENERGY PREDICTED BY IDOCK:   -4.08 KCAL/MOL
REMARK 923 INTER-LIGAND FREE ENERGY PREDICTED BY IDOCK:   -3.67 KCAL/MOL
REMARK 924 INTRA-LIGAND FREE ENERGY PREDICTED BY IDOCK:   -0.41 KCAL/MOL
REMARK 927      BINDING AFFINITY PREDICTED BY RF-SCORE:    0.00 PKD
ROOT
HETATM    1  C   UNK A   0     -11.917  10.974  69.252  1.00  0.00    -0.410 C  
HETATM    2  C   UNK A   0     -10.885  10.261  68.428  1.00  0.00    -0.245 C  
ATOM      3  N   TYR A   1      -9.666  10.883  68.334  1.00  0.00    -0.169 N  
HETATM    4  O   UNK A   0     -11.084   9.160  67.918  1.00  0.00    -0.066 OA 
ATOM      5  H   TYR A   1      -9.534  11.807  68.746  1.00  0.00     0.000 HD 
ENDROOT
BRANCH   3   6
ATOM      6  CA  TYR A   1      -8.550  10.224  67.641  1.00  0.00    -0.118 C  
ATOM      7  C   TYR A   1      -7.488   9.794  68.674  1.00  0.00    -0.075 C  
ATOM      8  O   TYR A   1      -7.909   8.787  69.483  1.00  0.00    -0.087 OA 
ATOM      9  OXT TYR A   1      -6.383  10.300  68.804  1.00  0.00    -0.047 OA 
BRANCH   6  10
ATOM     10  CB  TYR A   1      -7.955  11.128  66.544  1.00  0.00    -0.158 C  
BRANCH  10  11
ATOM     11  CG  TYR A   1      -8.964  11.743  65.598  1.00  0.00     0.045 A  
ATOM     12  CD1 TYR A   1      -9.456  13.046  65.773  1.00  0.00     0.015 A  
ATOM     13  CE1 TYR A   1     -10.483  13.537  64.963  1.00  0.00    -0.390 A  
ATOM     14  CZ  TYR A   1     -10.990  12.742  63.944  1.00  0.00    -0.417 A  
ATOM     15  CE2 TYR A   1     -10.457  11.485  63.695  1.00  0.00    -0.483 A  
ATOM     16  OH  TYR A   1     -12.032  13.162  63.173  1.00  0.00    -0.796 OA 
ATOM     17  HH  TYR A   1     -12.379  12.618  62.476  1.00  0.00     0.000 HD 
ATOM     18  CD2 TYR A   1      -9.446  10.987  64.519  1.00  0.00    -0.269 A  
ENDBRANCH  10  11
ENDBRANCH   6  10
ENDBRANCH   3   6
TORSDOF 3
ENDMDL
MODEL      183
REMARK 921   NORMALIZED FREE ENERGY PREDICTED BY IDOCK:   -3.09 KCAL/MOL
REMARK 922        TOTAL FREE ENERGY PREDICTED BY IDOCK:   -4.07 KCAL/MOL
REMARK 923 INTER-LIGAND FREE ENERGY PREDICTED BY IDOCK:   -3.95 KCAL/MOL
REMARK 924 INTRA-LIGAND FREE ENERGY PREDICTED BY IDOCK:   -0.13 KCAL/MOL
REMARK 927      BINDING AFFINITY PREDICTED BY RF-SCORE:    0.00 PKD
ROOT
HETATM    1  C   UNK A   0     -13.257  10.541  71.818  1.00  0.00    -0.522 C  
HETATM    2  C   UNK A   0     -12.113  10.557  70.848  1.00  0.00    -0.383 C  
ATOM      3  N   TYR A   1     -12.365  11.156  69.640  1.00  0.00    -0.268 N  
HETATM    4  O   UNK A   0     -10.996  10.123  71.127  1.00  0.00    -0.245 OA 
ATOM      5  H   TYR A   1     -13.306  11.487  69.424  1.00  0.00     0.000 HD 
ENDROOT
BRANCH   3   6
ATOM      6  CA  TYR A   1     -11.287  11.322  68.656  1.00  0.00    -0.273 C  
ATOM      7  C   TYR A   1     -11.740  12.310  67.561  1.00  0.00    -0.332 C  
ATOM      8  O   TYR A   1     -11.863  13.585  68.013  1.00  0.00    -0.341 OA 
ATOM      9  OXT TYR A   1     -11.999  12.013  66.404  1.00  0.00    -0.611 OA 
BRANCH   6  10
ATOM     10  CB  TYR A   1     -10.850   9.967  68.065  1.00  0.00    -0.311 C  
BRANCH  10  11
ATOM     11  CG  TYR A   1      -9.406   9.590  68.318  1.00  0.00    -0.139 A  
ATOM     12  CD1 TYR A   1      -9.031   8.301  68.729  1.00  0.00    -0.144 A  
ATOM     13  CE1 TYR A   1      -7.709   8.020  69.083  1.00  0.00    -0.099 A  
ATOM     14  CZ  TYR A   1      -6.747   9.016  68.981  1.00  0.00    -0.051 A  
ATOM     15  CE2 TYR A   1      -7.077  10.272  68.490  1.00  0.00    -0.074 A  
ATOM     16  OH  TYR A   1      -5.461   8.797  69.373  1.00  0.00    -0.034 OA 
ATOM     17  HH  TYR A   1      -4.803   9.479  69.303  1.00  0.00     0.000 HD 
ATOM     18  CD2 TYR A   1      -8.403  10.557  68.158  1.00  0.00    -0.119 A  
ENDBRANCH  10  11
ENDBRANCH   6  10
ENDBRANCH   3   6
TORSDOF 3
ENDMDL
MODEL      184
REMARK 921   NORMALIZED FREE ENERGY PREDICTED BY IDOCK:   -3.08 KCAL/MOL
REMARK 922        TOTAL FREE ENERGY PREDICTED BY IDOCK:   -4.06 KCAL/MOL
REMARK 923 INTER-LIGAND FREE ENERGY PREDICTED BY IDOCK:   -3.80 KCAL/MOL
REMARK 924 INTRA-LIGAND FREE ENERGY PREDICTED BY IDOCK:   -0.26 KCAL/MOL
REMARK 927      BINDING AFFINITY PREDICTED BY RF-SCORE:    0.00 PKD
ROOT
HETATM    1  C   UNK A   0      -6.860   7.169  69.756  1.00  0.00    -0.050 C  
HETATM    2  C   UNK A   0      -8.257   7.324  69.230  1.00  0.00    -0.131 C  
ATOM      3  N   TYR A   1      -9.210   7.655  70.161  1.00  0.00    -0.154 N  
HETATM    4  O   UNK A   0      -8.534   7.228  68.036  1.00  0.00    -0.122 OA 
ATOM      5  H   TYR A   1      -8.959   7.705  71.148  1.00  0.00     0.000 HD 
ENDROOT
BRANCH   3   6
ATOM      6  CA  TYR A   1     -10.589   7.935  69.741  1.00  0.00    -0.242 C  
ATOM      7  C   TYR A   1     -11.105   9.188  70.479  1.00  0.00    -0.260 C  
ATOM      8  O   TYR A   1     -10.486  10.331  70.083  1.00  0.00    -0.271 OA 
ATOM      9  OXT TYR A   1     -11.958   9.192  71.354  1.00  0.00    -0.297 OA 
BRANCH   6  10
ATOM     10  CB  TYR A   1     -11.505   6.716  69.964  1.00  0.00    -0.434 C  
BRANCH  10  11
ATOM     11  CG  TYR A   1     -11.046   5.753  71.038  1.00  0.00    -0.264 A  
ATOM     12  CD1 TYR A   1     -10.115   4.734  70.779  1.00  0.00    -0.286 A  
ATOM     13  CE1 TYR A   1      -9.812   3.780  71.754  1.00  0.00    -0.244 A  
ATOM     14  CZ  TYR A   1     -10.405   3.868  73.006  1.00  0.00    -0.166 A  
ATOM     15  CE2 TYR A   1     -11.259   4.919  73.313  1.00  0.00    -0.423 A  
ATOM     16  OH  TYR A   1     -10.181   2.923  73.961  1.00  0.00    -0.112 OA 
ATOM     17  HH  TYR A   1     -10.587   2.983  74.818  1.00  0.00     0.000 HD 
ATOM     18  CD2 TYR A   1     -11.577   5.860  72.331  1.00  0.00    -0.341 A  
ENDBRANCH  10  11
ENDBRANCH   6  10
ENDBRANCH   3   6
TORSDOF 3
ENDMDL
MODEL      185
REMARK 921   NORMALIZED FREE ENERGY PREDICTED BY IDOCK:   -3.04 KCAL/MOL
REMARK 922        TOTAL FREE ENERGY PREDICTED BY IDOCK:   -4.01 KCAL/MOL
REMARK 923 INTER-LIGAND FREE ENERGY PREDICTED BY IDOCK:   -3.56 KCAL/MOL
REMARK 924 INTRA-LIGAND FREE ENERGY PREDICTED BY IDOCK:   -0.45 KCAL/MOL
REMARK 927      BINDING AFFINITY PREDICTED BY RF-SCORE:    0.00 PKD
ROOT
HETATM    1  C   UNK A   0      -8.486   9.390  70.706  1.00  0.00    -0.188 C  
HETATM    2  C   UNK A   0      -9.636   8.506  70.321  1.00  0.00    -0.167 C  
ATOM      3  N   TYR A   1      -9.709   7.305  70.980  1.00  0.00    -0.169 N  
HETATM    4  O   UNK A   0     -10.500   8.849  69.516  1.00  0.00    -0.219 OA 
ATOM      5  H   TYR A   1      -8.967   7.034  71.626  1.00  0.00     0.000 HD 
ENDROOT
BRANCH   3   6
ATOM      6  CA  TYR A   1     -10.851   6.408  70.759  1.00  0.00    -0.267 C  
ATOM      7  C   TYR A   1     -11.711   6.349  72.039  1.00  0.00    -0.329 C  
ATOM      8  O   TYR A   1     -12.358   7.516  72.300  1.00  0.00    -0.253 OA 
ATOM      9  OXT TYR A   1     -11.807   5.384  72.783  1.00  0.00    -0.268 OA 
BRANCH   6  10
ATOM     10  CB  TYR A   1     -10.389   5.008  70.310  1.00  0.00    -0.299 C  
BRANCH  10  11
ATOM     11  CG  TYR A   1     -10.057   4.880  68.840  1.00  0.00    -0.185 A  
ATOM     12  CD1 TYR A   1      -9.231   3.857  68.346  1.00  0.00    -0.210 A  
ATOM     13  CE1 TYR A   1      -8.834   3.843  67.006  1.00  0.00    -0.135 A  
ATOM     14  CZ  TYR A   1      -9.300   4.826  66.144  1.00  0.00    -0.152 A  
ATOM     15  CE2 TYR A   1     -10.190   5.795  66.589  1.00  0.00    -0.261 A  
ATOM     16  OH  TYR A   1      -8.888   4.880  64.847  1.00  0.00    -0.150 OA 
ATOM     17  HH  TYR A   1      -9.207   5.554  64.257  1.00  0.00     0.000 HD 
ATOM     18  CD2 TYR A   1     -10.568   5.820  67.933  1.00  0.00    -0.304 A  
ENDBRANCH  10  11
ENDBRANCH   6  10
ENDBRANCH   3   6
TORSDOF 3
ENDMDL
MODEL      186
REMARK 921   NORMALIZED FREE ENERGY PREDICTED BY IDOCK:   -3.04 KCAL/MOL
REMARK 922        TOTAL FREE ENERGY PREDICTED BY IDOCK:   -4.00 KCAL/MOL
REMARK 923 INTER-LIGAND FREE ENERGY PREDICTED BY IDOCK:   -3.49 KCAL/MOL
REMARK 924 INTRA-LIGAND FREE ENERGY PREDICTED BY IDOCK:   -0.51 KCAL/MOL
REMARK 927      BINDING AFFINITY PREDICTED BY RF-SCORE:    0.00 PKD
ROOT
HETATM    1  C   UNK A   0      -6.431   5.491  70.534  1.00  0.00    -0.035 C  
HETATM    2  C   UNK A   0      -7.327   6.694  70.536  1.00  0.00    -0.081 C  
ATOM      3  N   TYR A   1      -8.554   6.522  71.125  1.00  0.00    -0.130 N  
HETATM    4  O   UNK A   0      -6.975   7.788  70.098  1.00  0.00    -0.049 OA 
ATOM      5  H   TYR A   1      -8.831   5.599  71.459  1.00  0.00     0.000 HD 
ENDROOT
BRANCH   3   6
ATOM      6  CA  TYR A   1      -9.469   7.661  71.277  1.00  0.00    -0.153 C  
ATOM      7  C   TYR A   1      -9.846   7.820  72.765  1.00  0.00    -0.246 C  
ATOM      8  O   TYR A   1      -8.806   8.231  73.537  1.00  0.00    -0.252 OA 
ATOM      9  OXT TYR A   1     -10.946   7.585  73.245  1.00  0.00    -0.393 OA 
BRANCH   6  10
ATOM     10  CB  TYR A   1     -10.712   7.508  70.380  1.00  0.00    -0.248 C  
BRANCH  10  11
ATOM     11  CG  TYR A   1     -10.525   7.935  68.940  1.00  0.00    -0.205 A  
ATOM     12  CD1 TYR A   1     -10.484   7.009  67.885  1.00  0.00    -0.267 A  
ATOM     13  CE1 TYR A   1     -10.176   7.420  66.585  1.00  0.00    -0.247 A  
ATOM     14  CZ  TYR A   1      -9.954   8.766  66.328  1.00  0.00    -0.245 A  
ATOM     15  CE2 TYR A   1     -10.078   9.710  67.338  1.00  0.00    -0.257 A  
ATOM     16  OH  TYR A   1      -9.593   9.197  65.087  1.00  0.00    -0.456 OA 
ATOM     17  HH  TYR A   1      -9.441  10.118  64.911  1.00  0.00     0.000 HD 
ATOM     18  CD2 TYR A   1     -10.365   9.296  68.640  1.00  0.00    -0.229 A  
ENDBRANCH  10  11
ENDBRANCH   6  10
ENDBRANCH   3   6
TORSDOF 3
ENDMDL
MODEL      187
REMARK 921   NORMALIZED FREE ENERGY PREDICTED BY IDOCK:   -3.03 KCAL/MOL
REMARK 922        TOTAL FREE ENERGY PREDICTED BY IDOCK:   -3.99 KCAL/MOL
REMARK 923 INTER-LIGAND FREE ENERGY PREDICTED BY IDOCK:   -3.53 KCAL/MOL
REMARK 924 INTRA-LIGAND FREE ENERGY PREDICTED BY IDOCK:   -0.46 KCAL/MOL
REMARK 927      BINDING AFFINITY PREDICTED BY RF-SCORE:    0.00 PKD
ROOT
HETATM    1  C   UNK A   0      -6.304  18.672  67.034  1.00  0.00    -0.194 C  
HETATM    2  C   UNK A   0      -7.472  17.852  66.571  1.00  0.00    -0.246 C  
ATOM      3  N   TYR A   1      -8.285  17.361  67.561  1.00  0.00    -0.199 N  
HETATM    4  O   UNK A   0      -7.733  17.676  65.382  1.00  0.00    -0.197 OA 
ATOM      5  H   TYR A   1      -8.034  17.501  68.540  1.00  0.00     0.000 HD 
ENDROOT
BRANCH   3   6
ATOM      6  CA  TYR A   1      -9.515  16.636  67.218  1.00  0.00    -0.232 C  
ATOM      7  C   TYR A   1     -10.722  17.327  67.887  1.00  0.00    -0.351 C  
ATOM      8  O   TYR A   1     -10.996  18.548  67.358  1.00  0.00    -0.376 OA 
ATOM      9  OXT TYR A   1     -11.371  16.871  68.817  1.00  0.00    -0.167 OA 
BRANCH   6  10
ATOM     10  CB  TYR A   1      -9.418  15.147  67.602  1.00  0.00    -0.201 C  
BRANCH  10  11
ATOM     11  CG  TYR A   1      -9.945  14.178  66.566  1.00  0.00    -0.289 A  
ATOM     12  CD1 TYR A   1     -10.802  13.118  66.901  1.00  0.00    -0.278 A  
ATOM     13  CE1 TYR A   1     -11.165  12.163  65.948  1.00  0.00    -0.384 A  
ATOM     14  CZ  TYR A   1     -10.707  12.290  64.644  1.00  0.00    -0.308 A  
ATOM     15  CE2 TYR A   1      -9.932  13.379  64.268  1.00  0.00     0.210 A  
ATOM     16  OH  TYR A   1     -10.989  11.347  63.701  1.00  0.00    -0.426 OA 
ATOM     17  HH  TYR A   1     -10.676  11.435  62.808  1.00  0.00     0.000 HD 
ATOM     18  CD2 TYR A   1      -9.553  14.321  65.227  1.00  0.00     0.105 A  
ENDBRANCH  10  11
ENDBRANCH   6  10
ENDBRANCH   3   6
TORSDOF 3
ENDMDL
MODEL      188
REMARK 921   NORMALIZED FREE ENERGY PREDICTED BY IDOCK:   -2.97 KCAL/MOL
REMARK 922        TOTAL FREE ENERGY PREDICTED BY IDOCK:   -3.93 KCAL/MOL
REMARK 923 INTER-LIGAND FREE ENERGY PREDICTED BY IDOCK:   -4.26 KCAL/MOL
REMARK 924 INTRA-LIGAND FREE ENERGY PREDICTED BY IDOCK:    0.34 KCAL/MOL
REMARK 927      BINDING AFFINITY PREDICTED BY RF-SCORE:    0.00 PKD
ROOT
HETATM    1  C   UNK A   0     -11.232   6.230  68.957  1.00  0.00    -0.415 C  
HETATM    2  C   UNK A   0     -10.522   7.498  68.582  1.00  0.00    -0.183 C  
ATOM      3  N   TYR A   1     -10.662   7.895  67.277  1.00  0.00    -0.488 N  
HETATM    4  O   UNK A   0      -9.904   8.182  69.397  1.00  0.00    -0.176 OA 
ATOM      5  H   TYR A   1     -11.159   7.298  66.615  1.00  0.00     0.000 HD 
ENDROOT
BRANCH   3   6
ATOM      6  CA  TYR A   1     -10.098   9.174  66.827  1.00  0.00    -0.271 C  
ATOM      7  C   TYR A   1      -8.566   9.044  66.703  1.00  0.00    -0.127 C  
ATOM      8  O   TYR A   1      -8.181   8.231  65.685  1.00  0.00    -0.118 OA 
ATOM      9  OXT TYR A   1      -7.749   9.576  67.441  1.00  0.00    -0.095 OA 
BRANCH   6  10
ATOM     10  CB  TYR A   1     -10.505  10.329  67.762  1.00  0.00    -0.269 C  
BRANCH  10  11
ATOM     11  CG  TYR A   1     -10.497  11.704  67.130  1.00  0.00    -0.252 A  
ATOM     12  CD1 TYR A   1     -11.461  12.099  66.189  1.00  0.00    -0.429 A  
ATOM     13  CE1 TYR A   1     -11.350  13.324  65.524  1.00  0.00    -0.315 A  
ATOM     14  CZ  TYR A   1     -10.300  14.178  65.834  1.00  0.00    -0.316 A  
ATOM     15  CE2 TYR A   1      -9.387  13.847  66.826  1.00  0.00    -0.286 A  
ATOM     16  OH  TYR A   1     -10.126  15.352  65.165  1.00  0.00    -0.337 OA 
ATOM     17  HH  TYR A   1      -9.407  15.937  65.377  1.00  0.00     0.000 HD 
ATOM     18  CD2 TYR A   1      -9.487  12.614  67.473  1.00  0.00    -0.186 A  
ENDBRANCH  10  11
ENDBRANCH   6  10
ENDBRANCH   3   6
TORSDOF 3
ENDMDL
MODEL      189
REMARK 921   NORMALIZED FREE ENERGY PREDICTED BY IDOCK:   -2.97 KCAL/MOL
REMARK 922        TOTAL FREE ENERGY PREDICTED BY IDOCK:   -3.92 KCAL/MOL
REMARK 923 INTER-LIGAND FREE ENERGY PREDICTED BY IDOCK:   -3.54 KCAL/MOL
REMARK 924 INTRA-LIGAND FREE ENERGY PREDICTED BY IDOCK:   -0.39 KCAL/MOL
REMARK 927      BINDING AFFINITY PREDICTED BY RF-SCORE:    0.00 PKD
ROOT
HETATM    1  C   UNK A   0      -6.560  10.666  69.101  1.00  0.00    -0.061 C  
HETATM    2  C   UNK A   0      -7.310  11.347  67.994  1.00  0.00    -0.090 C  
ATOM      3  N   TYR A   1      -8.576  10.877  67.756  1.00  0.00    -0.127 N  
HETATM    4  O   UNK A   0      -6.856  12.308  67.375  1.00  0.00    -0.121 OA 
ATOM      5  H   TYR A   1      -8.921  10.064  68.267  1.00  0.00     0.000 HD 
ENDROOT
BRANCH   3   6
ATOM      6  CA  TYR A   1      -9.438  11.539  66.768  1.00  0.00    -0.189 C  
ATOM      7  C   TYR A   1     -10.685  12.110  67.476  1.00  0.00    -0.232 C  
ATOM      8  O   TYR A   1     -10.400  13.153  68.298  1.00  0.00    -0.240 OA 
ATOM      9  OXT TYR A   1     -11.823  11.679  67.360  1.00  0.00    -0.603 OA 
BRANCH   6  10
ATOM     10  CB  TYR A   1      -9.814  10.585  65.618  1.00  0.00    -0.311 C  
BRANCH  10  11
ATOM     11  CG  TYR A   1      -9.705   9.111  65.943  1.00  0.00    -0.336 A  
ATOM     12  CD1 TYR A   1     -10.635   8.456  66.766  1.00  0.00    -0.227 A  
ATOM     13  CE1 TYR A   1     -10.435   7.128  67.155  1.00  0.00    -0.389 A  
ATOM     14  CZ  TYR A   1      -9.327   6.437  66.684  1.00  0.00    -0.153 A  
ATOM     15  CE2 TYR A   1      -8.443   7.036  65.797  1.00  0.00    -0.154 A  
ATOM     16  OH  TYR A   1      -9.066   5.163  67.089  1.00  0.00    -0.112 OA 
ATOM     17  HH  TYR A   1      -8.308   4.690  66.766  1.00  0.00     0.000 HD 
ATOM     18  CD2 TYR A   1      -8.633   8.369  65.426  1.00  0.00    -0.193 A  
ENDBRANCH  10  11
ENDBRANCH   6  10
ENDBRANCH   3   6
TORSDOF 3
ENDMDL
MODEL      190
REMARK 921   NORMALIZED FREE ENERGY PREDICTED BY IDOCK:   -2.92 KCAL/MOL
REMARK 922        TOTAL FREE ENERGY PREDICTED BY IDOCK:   -3.86 KCAL/MOL
REMARK 923 INTER-LIGAND FREE ENERGY PREDICTED BY IDOCK:   -3.90 KCAL/MOL
REMARK 924 INTRA-LIGAND FREE ENERGY PREDICTED BY IDOCK:    0.03 KCAL/MOL
REMARK 927      BINDING AFFINITY PREDICTED BY RF-SCORE:    0.00 PKD
ROOT
HETATM    1  C   UNK A   0      -6.696  11.326  69.283  1.00  0.00    -0.110 C  
HETATM    2  C   UNK A   0      -7.539  10.796  68.161  1.00  0.00    -0.093 C  
ATOM      3  N   TYR A   1      -8.896  10.900  68.335  1.00  0.00    -0.141 N  
HETATM    4  O   UNK A   0      -7.060  10.353  67.118  1.00  0.00    -0.086 OA 
ATOM      5  H   TYR A   1      -9.269  11.249  69.218  1.00  0.00     0.000 HD 
ENDROOT
BRANCH   3   6
ATOM      6  CA  TYR A   1      -9.814  10.510  67.256  1.00  0.00    -0.177 C  
ATOM      7  C   TYR A   1     -10.706  11.713  66.884  1.00  0.00    -0.257 C  
ATOM      8  O   TYR A   1     -10.020  12.717  66.278  1.00  0.00    -0.254 OA 
ATOM      9  OXT TYR A   1     -11.902  11.805  67.117  1.00  0.00    -0.599 OA 
BRANCH   6  10
ATOM     10  CB  TYR A   1     -10.646   9.273  67.643  1.00  0.00    -0.324 C  
BRANCH  10  11
ATOM     11  CG  TYR A   1     -10.650   8.935  69.119  1.00  0.00    -0.211 A  
ATOM     12  CD1 TYR A   1     -10.854   9.909  70.108  1.00  0.00    -0.356 A  
ATOM     13  CE1 TYR A   1     -10.720   9.591  71.463  1.00  0.00    -0.269 A  
ATOM     14  CZ  TYR A   1     -10.427   8.286  71.833  1.00  0.00    -0.274 A  
ATOM     15  CE2 TYR A   1     -10.310   7.287  70.876  1.00  0.00    -0.210 A  
ATOM     16  OH  TYR A   1     -10.230   7.951  73.139  1.00  0.00    -0.312 OA 
ATOM     17  HH  TYR A   1     -10.029   7.057  73.392  1.00  0.00     0.000 HD 
ATOM     18  CD2 TYR A   1     -10.423   7.611  69.523  1.00  0.00    -0.227 A  
ENDBRANCH  10  11
ENDBRANCH   6  10
ENDBRANCH   3   6
TORSDOF 3
ENDMDL
MODEL      191
REMARK 921   NORMALIZED FREE ENERGY PREDICTED BY IDOCK:   -2.84 KCAL/MOL
REMARK 922        TOTAL FREE ENERGY PREDICTED BY IDOCK:   -3.77 KCAL/MOL
REMARK 923 INTER-LIGAND FREE ENERGY PREDICTED BY IDOCK:   -3.44 KCAL/MOL
REMARK 924 INTRA-LIGAND FREE ENERGY PREDICTED BY IDOCK:   -0.33 KCAL/MOL
REMARK 927      BINDING AFFINITY PREDICTED BY RF-SCORE:    0.00 PKD
ROOT
HETATM    1  C   UNK A   0      -7.511   8.040  73.374  1.00  0.00    -0.187 C  
HETATM    2  C   UNK A   0      -8.113   7.709  72.040  1.00  0.00    -0.101 C  
ATOM      3  N   TYR A   1      -9.216   8.444  71.686  1.00  0.00    -0.184 N  
HETATM    4  O   UNK A   0      -7.624   6.879  71.276  1.00  0.00    -0.085 OA 
ATOM      5  H   TYR A   1      -9.616   9.109  72.347  1.00  0.00     0.000 HD 
ENDROOT
BRANCH   3   6
ATOM      6  CA  TYR A   1      -9.821   8.277  70.358  1.00  0.00    -0.186 C  
ATOM      7  C   TYR A   1     -10.637   9.538  70.005  1.00  0.00    -0.244 C  
ATOM      8  O   TYR A   1      -9.861  10.632  69.789  1.00  0.00    -0.107 OA 
ATOM      9  OXT TYR A   1     -11.857   9.597  69.943  1.00  0.00    -0.057 OA 
BRANCH   6  10
ATOM     10  CB  TYR A   1     -10.677   6.998  70.285  1.00  0.00    -0.266 C  
BRANCH  10  11
ATOM     11  CG  TYR A   1     -10.434   6.128  69.071  1.00  0.00    -0.305 A  
ATOM     12  CD1 TYR A   1     -10.904   6.478  67.795  1.00  0.00    -0.395 A  
ATOM     13  CE1 TYR A   1     -10.780   5.592  66.720  1.00  0.00    -0.358 A  
ATOM     14  CZ  TYR A   1     -10.144   4.373  66.908  1.00  0.00    -0.120 A  
ATOM     15  CE2 TYR A   1      -9.591   4.045  68.139  1.00  0.00    -0.189 A  
ATOM     16  OH  TYR A   1     -10.058   3.460  65.901  1.00  0.00    -0.396 OA 
ATOM     17  HH  TYR A   1      -9.622   2.625  66.030  1.00  0.00     0.000 HD 
ATOM     18  CD2 TYR A   1      -9.734   4.921  69.216  1.00  0.00    -0.258 A  
ENDBRANCH  10  11
ENDBRANCH   6  10
ENDBRANCH   3   6
TORSDOF 3
ENDMDL
MODEL      192
REMARK 921   NORMALIZED FREE ENERGY PREDICTED BY IDOCK:   -2.80 KCAL/MOL
REMARK 922        TOTAL FREE ENERGY PREDICTED BY IDOCK:   -3.73 KCAL/MOL
REMARK 923 INTER-LIGAND FREE ENERGY PREDICTED BY IDOCK:   -3.64 KCAL/MOL
REMARK 924 INTRA-LIGAND FREE ENERGY PREDICTED BY IDOCK:   -0.10 KCAL/MOL
REMARK 927      BINDING AFFINITY PREDICTED BY RF-SCORE:    0.00 PKD
ROOT
HETATM    1  C   UNK A   0      -7.834  10.125  70.234  1.00  0.00     0.052 C  
HETATM    2  C   UNK A   0      -9.147   9.465  69.932  1.00  0.00    -0.204 C  
ATOM      3  N   TYR A   1      -9.974   9.264  71.008  1.00  0.00    -0.292 N  
HETATM    4  O   UNK A   0      -9.500   9.175  68.790  1.00  0.00    -0.145 OA 
ATOM      5  H   TYR A   1      -9.648   9.492  71.948  1.00  0.00     0.000 HD 
ENDROOT
BRANCH   3   6
ATOM      6  CA  TYR A   1     -11.325   8.723  70.813  1.00  0.00    -0.272 C  
ATOM      7  C   TYR A   1     -12.367   9.806  71.165  1.00  0.00    -0.359 C  
ATOM      8  O   TYR A   1     -12.381  10.838  70.281  1.00  0.00    -0.308 OA 
ATOM      9  OXT TYR A   1     -13.101   9.790  72.142  1.00  0.00    -0.424 OA 
BRANCH   6  10
ATOM     10  CB  TYR A   1     -11.539   7.432  71.627  1.00  0.00    -0.302 C  
BRANCH  10  11
ATOM     11  CG  TYR A   1     -10.751   6.231  71.149  1.00  0.00    -0.301 A  
ATOM     12  CD1 TYR A   1     -10.526   5.112  71.965  1.00  0.00    -0.278 A  
ATOM     13  CE1 TYR A   1      -9.684   4.078  71.545  1.00  0.00    -0.246 A  
ATOM     14  CZ  TYR A   1      -9.102   4.140  70.286  1.00  0.00    -0.105 A  
ATOM     15  CE2 TYR A   1      -9.383   5.193  69.426  1.00  0.00    -0.176 A  
ATOM     16  OH  TYR A   1      -8.230   3.181  69.865  1.00  0.00    -0.045 OA 
ATOM     17  HH  TYR A   1      -7.831   3.224  69.003  1.00  0.00     0.000 HD 
ATOM     18  CD2 TYR A   1     -10.207   6.235  69.856  1.00  0.00    -0.232 A  
ENDBRANCH  10  11
ENDBRANCH   6  10
ENDBRANCH   3   6
TORSDOF 3
ENDMDL
MODEL      193
REMARK 921   NORMALIZED FREE ENERGY PREDICTED BY IDOCK:   -2.80 KCAL/MOL
REMARK 922        TOTAL FREE ENERGY PREDICTED BY IDOCK:   -3.73 KCAL/MOL
REMARK 923 INTER-LIGAND FREE ENERGY PREDICTED BY IDOCK:   -3.39 KCAL/MOL
REMARK 924 INTRA-LIGAND FREE ENERGY PREDICTED BY IDOCK:   -0.34 KCAL/MOL
REMARK 927      BINDING AFFINITY PREDICTED BY RF-SCORE:    0.00 PKD
ROOT
HETATM    1  C   UNK A   0      -6.761   4.727  64.560  1.00  0.00    -0.044 C  
HETATM    2  C   UNK A   0      -7.706   4.494  65.702  1.00  0.00    -0.093 C  
ATOM      3  N   TYR A   1      -8.180   5.623  66.322  1.00  0.00    -0.106 N  
HETATM    4  O   UNK A   0      -8.089   3.373  66.032  1.00  0.00    -0.091 OA 
ATOM      5  H   TYR A   1      -7.828   6.539  66.045  1.00  0.00     0.000 HD 
ENDROOT
BRANCH   3   6
ATOM      6  CA  TYR A   1      -9.191   5.516  67.382  1.00  0.00    -0.110 C  
ATOM      7  C   TYR A   1     -10.588   5.787  66.786  1.00  0.00    -0.306 C  
ATOM      8  O   TYR A   1     -11.007   4.807  65.943  1.00  0.00    -0.247 OA 
ATOM      9  OXT TYR A   1     -11.268   6.779  67.002  1.00  0.00    -0.393 OA 
BRANCH   6  10
ATOM     10  CB  TYR A   1      -8.874   6.457  68.560  1.00  0.00    -0.119 C  
BRANCH  10  11
ATOM     11  CG  TYR A   1      -9.545   6.100  69.869  1.00  0.00    -0.183 A  
ATOM     12  CD1 TYR A   1      -9.388   4.841  70.470  1.00  0.00    -0.219 A  
ATOM     13  CE1 TYR A   1     -10.125   4.496  71.606  1.00  0.00    -0.249 A  
ATOM     14  CZ  TYR A   1     -10.986   5.426  72.172  1.00  0.00    -0.201 A  
ATOM     15  CE2 TYR A   1     -11.088   6.707  71.648  1.00  0.00    -0.290 A  
ATOM     16  OH  TYR A   1     -11.764   5.106  73.244  1.00  0.00    -0.518 OA 
ATOM     17  HH  TYR A   1     -12.354   5.743  73.631  1.00  0.00     0.000 HD 
ATOM     18  CD2 TYR A   1     -10.368   7.044  70.500  1.00  0.00    -0.218 A  
ENDBRANCH  10  11
ENDBRANCH   6  10
ENDBRANCH   3   6
TORSDOF 3
ENDMDL
MODEL      194
REMARK 921   NORMALIZED FREE ENERGY PREDICTED BY IDOCK:   -2.80 KCAL/MOL
REMARK 922        TOTAL FREE ENERGY PREDICTED BY IDOCK:   -3.73 KCAL/MOL
REMARK 923 INTER-LIGAND FREE ENERGY PREDICTED BY IDOCK:   -3.75 KCAL/MOL
REMARK 924 INTRA-LIGAND FREE ENERGY PREDICTED BY IDOCK:    0.03 KCAL/MOL
REMARK 927      BINDING AFFINITY PREDICTED BY RF-SCORE:    0.00 PKD
ROOT
HETATM    1  C   UNK A   0     -10.825   9.576  67.215  1.00  0.00    -0.188 C  
HETATM    2  C   UNK A   0     -10.272   9.789  68.593  1.00  0.00    -0.190 C  
ATOM      3  N   TYR A   1      -8.923   9.582  68.731  1.00  0.00    -0.131 N  
HETATM    4  O   UNK A   0     -10.959  10.187  69.533  1.00  0.00    -0.228 OA 
ATOM      5  H   TYR A   1      -8.380   9.230  67.942  1.00  0.00     0.000 HD 
ENDROOT
BRANCH   3   6
ATOM      6  CA  TYR A   1      -8.258   9.864  70.010  1.00  0.00    -0.168 C  
ATOM      7  C   TYR A   1      -6.856  10.448  69.740  1.00  0.00    -0.130 C  
ATOM      8  O   TYR A   1      -6.893  11.694  69.199  1.00  0.00    -0.098 OA 
ATOM      9  OXT TYR A   1      -5.797   9.873  69.950  1.00  0.00    -0.039 OA 
BRANCH   6  10
ATOM     10  CB  TYR A   1      -8.198   8.609  70.903  1.00  0.00    -0.165 C  
BRANCH  10  11
ATOM     11  CG  TYR A   1      -9.540   8.019  71.277  1.00  0.00    -0.191 A  
ATOM     12  CD1 TYR A   1     -10.354   8.583  72.272  1.00  0.00    -0.402 A  
ATOM     13  CE1 TYR A   1     -11.524   7.942  72.687  1.00  0.00    -0.454 A  
ATOM     14  CZ  TYR A   1     -11.908   6.757  72.076  1.00  0.00    -0.314 A  
ATOM     15  CE2 TYR A   1     -11.167   6.228  71.027  1.00  0.00    -0.372 A  
ATOM     16  OH  TYR A   1     -13.009   6.072  72.494  1.00  0.00    -0.486 OA 
ATOM     17  HH  TYR A   1     -13.272   5.260  72.075  1.00  0.00     0.000 HD 
ATOM     18  CD2 TYR A   1      -9.987   6.859  70.628  1.00  0.00    -0.198 A  
ENDBRANCH  10  11
ENDBRANCH   6  10
ENDBRANCH   3   6
TORSDOF 3
ENDMDL
MODEL      195
REMARK 921   NORMALIZED FREE ENERGY PREDICTED BY IDOCK:   -2.79 KCAL/MOL
REMARK 922        TOTAL FREE ENERGY PREDICTED BY IDOCK:   -3.71 KCAL/MOL
REMARK 923 INTER-LIGAND FREE ENERGY PREDICTED BY IDOCK:   -3.96 KCAL/MOL
REMARK 924 INTRA-LIGAND FREE ENERGY PREDICTED BY IDOCK:    0.24 KCAL/MOL
REMARK 927      BINDING AFFINITY PREDICTED BY RF-SCORE:    0.00 PKD
ROOT
HETATM    1  C   UNK A   0     -12.144  11.003  69.614  1.00  0.00    -0.411 C  
HETATM    2  C   UNK A   0     -11.604  12.007  68.638  1.00  0.00    -0.319 C  
ATOM      3  N   TYR A   1     -10.281  12.335  68.793  1.00  0.00    -0.390 N  
HETATM    4  O   UNK A   0     -12.274  12.465  67.715  1.00  0.00    -0.395 OA 
ATOM      5  H   TYR A   1      -9.754  11.959  69.581  1.00  0.00     0.000 HD 
ENDROOT
BRANCH   3   6
ATOM      6  CA  TYR A   1      -9.622  13.226  67.829  1.00  0.00    -0.214 C  
ATOM      7  C   TYR A   1     -10.210  14.647  67.958  1.00  0.00    -0.231 C  
ATOM      8  O   TYR A   1      -9.879  15.255  69.127  1.00  0.00    -0.215 OA 
ATOM      9  OXT TYR A   1     -10.927  15.194  67.133  1.00  0.00    -0.315 OA 
BRANCH   6  10
ATOM     10  CB  TYR A   1      -9.736  12.684  66.391  1.00  0.00    -0.259 C  
BRANCH  10  11
ATOM     11  CG  TYR A   1      -9.085  11.338  66.156  1.00  0.00    -0.216 A  
ATOM     12  CD1 TYR A   1      -9.819  10.215  65.741  1.00  0.00    -0.331 A  
ATOM     13  CE1 TYR A   1      -9.215   8.957  65.661  1.00  0.00    -0.268 A  
ATOM     14  CZ  TYR A   1      -7.865   8.826  65.953  1.00  0.00    -0.102 A  
ATOM     15  CE2 TYR A   1      -7.099   9.938  66.278  1.00  0.00    -0.101 A  
ATOM     16  OH  TYR A   1      -7.256   7.607  65.945  1.00  0.00    -0.067 OA 
ATOM     17  HH  TYR A   1      -6.331   7.518  66.145  1.00  0.00     0.000 HD 
ATOM     18  CD2 TYR A   1      -7.708  11.191  66.377  1.00  0.00    -0.124 A  
ENDBRANCH  10  11
ENDBRANCH   6  10
ENDBRANCH   3   6
TORSDOF 3
ENDMDL
MODEL      196
REMARK 921   NORMALIZED FREE ENERGY PREDICTED BY IDOCK:   -2.79 KCAL/MOL
REMARK 922        TOTAL FREE ENERGY PREDICTED BY IDOCK:   -3.71 KCAL/MOL
REMARK 923 INTER-LIGAND FREE ENERGY PREDICTED BY IDOCK:   -3.39 KCAL/MOL
REMARK 924 INTRA-LIGAND FREE ENERGY PREDICTED BY IDOCK:   -0.32 KCAL/MOL
REMARK 927      BINDING AFFINITY PREDICTED BY RF-SCORE:    0.00 PKD
ROOT
HETATM    1  C   UNK A   0     -10.994   6.623  66.832  1.00  0.00    -0.396 C  
HETATM    2  C   UNK A   0      -9.877   6.315  67.785  1.00  0.00    -0.121 C  
ATOM      3  N   TYR A   1     -10.231   6.226  69.107  1.00  0.00    -0.173 N  
HETATM    4  O   UNK A   0      -8.727   6.090  67.413  1.00  0.00    -0.107 OA 
ATOM      5  H   TYR A   1     -11.186   6.440  69.393  1.00  0.00     0.000 HD 
ENDROOT
BRANCH   3   6
ATOM      6  CA  TYR A   1      -9.239   5.826  70.114  1.00  0.00    -0.151 C  
ATOM      7  C   TYR A   1      -9.794   4.647  70.940  1.00  0.00    -0.202 C  
ATOM      8  O   TYR A   1      -9.901   3.498  70.223  1.00  0.00    -0.152 OA 
ATOM      9  OXT TYR A   1     -10.142   4.705  72.111  1.00  0.00    -0.181 OA 
BRANCH   6  10
ATOM     10  CB  TYR A   1      -8.830   7.013  71.006  1.00  0.00    -0.146 C  
BRANCH  10  11
ATOM     11  CG  TYR A   1      -9.499   8.330  70.674  1.00  0.00    -0.181 A  
ATOM     12  CD1 TYR A   1     -10.779   8.658  71.147  1.00  0.00    -0.303 A  
ATOM     13  CE1 TYR A   1     -11.424   9.820  70.715  1.00  0.00    -0.417 A  
ATOM     14  CZ  TYR A   1     -10.771  10.682  69.845  1.00  0.00    -0.204 A  
ATOM     15  CE2 TYR A   1      -9.470  10.423  69.436  1.00  0.00    -0.204 A  
ATOM     16  OH  TYR A   1     -11.389  11.793  69.355  1.00  0.00    -0.257 OA 
ATOM     17  HH  TYR A   1     -10.942  12.383  68.759  1.00  0.00     0.000 HD 
ATOM     18  CD2 TYR A   1      -8.835   9.251  69.851  1.00  0.00    -0.196 A  
ENDBRANCH  10  11
ENDBRANCH   6  10
ENDBRANCH   3   6
TORSDOF 3
ENDMDL
MODEL      197
REMARK 921   NORMALIZED FREE ENERGY PREDICTED BY IDOCK:   -2.76 KCAL/MOL
REMARK 922        TOTAL FREE ENERGY PREDICTED BY IDOCK:   -3.68 KCAL/MOL
REMARK 923 INTER-LIGAND FREE ENERGY PREDICTED BY IDOCK:   -3.28 KCAL/MOL
REMARK 924 INTRA-LIGAND FREE ENERGY PREDICTED BY IDOCK:   -0.40 KCAL/MOL
REMARK 927      BINDING AFFINITY PREDICTED BY RF-SCORE:    0.00 PKD
ROOT
HETATM    1  C   UNK A   0      -7.227   5.524  66.517  1.00  0.00    -0.077 C  
HETATM    2  C   UNK A   0      -7.770   6.741  67.206  1.00  0.00    -0.109 C  
ATOM      3  N   TYR A   1      -8.999   6.592  67.798  1.00  0.00    -0.116 N  
HETATM    4  O   UNK A   0      -7.139   7.792  67.298  1.00  0.00    -0.081 OA 
ATOM      5  H   TYR A   1      -9.513   5.717  67.688  1.00  0.00     0.000 HD 
ENDROOT
BRANCH   3   6
ATOM      6  CA  TYR A   1      -9.577   7.685  68.590  1.00  0.00    -0.152 C  
ATOM      7  C   TYR A   1     -10.169   7.115  69.896  1.00  0.00    -0.207 C  
ATOM      8  O   TYR A   1      -9.220   6.660  70.756  1.00  0.00    -0.154 OA 
ATOM      9  OXT TYR A   1     -11.360   7.037  70.158  1.00  0.00    -0.287 OA 
BRANCH   6  10
ATOM     10  CB  TYR A   1     -10.624   8.475  67.780  1.00  0.00    -0.242 C  
BRANCH  10  11
ATOM     11  CG  TYR A   1     -10.702   9.953  68.096  1.00  0.00    -0.279 A  
ATOM     12  CD1 TYR A   1     -11.454  10.449  69.173  1.00  0.00    -0.261 A  
ATOM     13  CE1 TYR A   1     -11.615  11.825  69.359  1.00  0.00    -0.386 A  
ATOM     14  CZ  TYR A   1     -10.985  12.710  68.496  1.00  0.00    -0.261 A  
ATOM     15  CE2 TYR A   1     -10.163  12.244  67.479  1.00  0.00    -0.212 A  
ATOM     16  OH  TYR A   1     -11.167  14.056  68.609  1.00  0.00    -0.242 OA 
ATOM     17  HH  TYR A   1     -10.736  14.662  68.018  1.00  0.00     0.000 HD 
ATOM     18  CD2 TYR A   1     -10.020  10.869  67.281  1.00  0.00    -0.216 A  
ENDBRANCH  10  11
ENDBRANCH   6  10
ENDBRANCH   3   6
TORSDOF 3
ENDMDL
MODEL      198
REMARK 921   NORMALIZED FREE ENERGY PREDICTED BY IDOCK:   -2.73 KCAL/MOL
REMARK 922        TOTAL FREE ENERGY PREDICTED BY IDOCK:   -3.64 KCAL/MOL
REMARK 923 INTER-LIGAND FREE ENERGY PREDICTED BY IDOCK:   -3.98 KCAL/MOL
REMARK 924 INTRA-LIGAND FREE ENERGY PREDICTED BY IDOCK:    0.33 KCAL/MOL
REMARK 927      BINDING AFFINITY PREDICTED BY RF-SCORE:    0.00 PKD
ROOT
HETATM    1  C   UNK A   0     -10.735   3.907  64.355  1.00  0.00    -0.200 C  
HETATM    2  C   UNK A   0     -10.193   4.417  65.657  1.00  0.00    -0.238 C  
ATOM      3  N   TYR A   1     -10.516   5.713  65.969  1.00  0.00    -0.464 N  
HETATM    4  O   UNK A   0      -9.554   3.711  66.435  1.00  0.00    -0.189 OA 
ATOM      5  H   TYR A   1     -11.027   6.285  65.296  1.00  0.00     0.000 HD 
ENDROOT
BRANCH   3   6
ATOM      6  CA  TYR A   1     -10.128   6.281  67.267  1.00  0.00    -0.163 C  
ATOM      7  C   TYR A   1      -8.621   6.613  67.252  1.00  0.00    -0.119 C  
ATOM      8  O   TYR A   1      -8.311   7.646  66.425  1.00  0.00    -0.117 OA 
ATOM      9  OXT TYR A   1      -7.759   6.015  67.880  1.00  0.00    -0.095 OA 
BRANCH   6  10
ATOM     10  CB  TYR A   1     -10.499   5.339  68.428  1.00  0.00    -0.143 C  
BRANCH  10  11
ATOM     11  CG  TYR A   1     -10.802   6.025  69.743  1.00  0.00    -0.433 A  
ATOM     12  CD1 TYR A   1     -10.628   5.381  70.979  1.00  0.00    -0.275 A  
ATOM     13  CE1 TYR A   1     -11.041   5.992  72.166  1.00  0.00    -0.328 A  
ATOM     14  CZ  TYR A   1     -11.587   7.267  72.126  1.00  0.00    -0.286 A  
ATOM     15  CE2 TYR A   1     -11.685   7.958  70.926  1.00  0.00    -0.271 A  
ATOM     16  OH  TYR A   1     -12.056   7.870  73.254  1.00  0.00    -0.555 OA 
ATOM     17  HH  TYR A   1     -12.430   8.743  73.227  1.00  0.00     0.000 HD 
ATOM     18  CD2 TYR A   1     -11.292   7.339  69.738  1.00  0.00    -0.098 A  
ENDBRANCH  10  11
ENDBRANCH   6  10
ENDBRANCH   3   6
TORSDOF 3
ENDMDL
MODEL      199
REMARK 921   NORMALIZED FREE ENERGY PREDICTED BY IDOCK:   -2.73 KCAL/MOL
REMARK 922        TOTAL FREE ENERGY PREDICTED BY IDOCK:   -3.64 KCAL/MOL
REMARK 923 INTER-LIGAND FREE ENERGY PREDICTED BY IDOCK:   -3.89 KCAL/MOL
REMARK 924 INTRA-LIGAND FREE ENERGY PREDICTED BY IDOCK:    0.25 KCAL/MOL
REMARK 927      BINDING AFFINITY PREDICTED BY RF-SCORE:    0.00 PKD
ROOT
HETATM    1  C   UNK A   0      -7.239   6.865  65.641  1.00  0.00    -0.073 C  
HETATM    2  C   UNK A   0      -7.271   7.852  66.771  1.00  0.00    -0.088 C  
ATOM      3  N   TYR A   1      -8.353   8.695  66.794  1.00  0.00    -0.107 N  
HETATM    4  O   UNK A   0      -6.423   7.873  67.661  1.00  0.00    -0.053 OA 
ATOM      5  H   TYR A   1      -9.030   8.673  66.031  1.00  0.00     0.000 HD 
ENDROOT
BRANCH   3   6
ATOM      6  CA  TYR A   1      -8.540   9.628  67.913  1.00  0.00    -0.122 C  
ATOM      7  C   TYR A   1      -9.784   9.211  68.725  1.00  0.00    -0.162 C  
ATOM      8  O   TYR A   1      -9.613   8.044  69.400  1.00  0.00    -0.160 OA 
ATOM      9  OXT TYR A   1     -10.842   9.823  68.763  1.00  0.00    -0.220 OA 
BRANCH   6  10
ATOM     10  CB  TYR A   1      -8.634  11.086  67.422  1.00  0.00    -0.132 C  
BRANCH  10  11
ATOM     11  CG  TYR A   1      -9.510  11.301  66.206  1.00  0.00    -0.227 A  
ATOM     12  CD1 TYR A   1     -10.642  12.130  66.238  1.00  0.00    -0.285 A  
ATOM     13  CE1 TYR A   1     -11.505  12.204  65.141  1.00  0.00    -0.376 A  
ATOM     14  CZ  TYR A   1     -11.213  11.483  63.991  1.00  0.00    -0.333 A  
ATOM     15  CE2 TYR A   1     -10.052  10.727  63.905  1.00  0.00    -0.397 A  
ATOM     16  OH  TYR A   1     -12.061  11.483  62.925  1.00  0.00    -0.913 OA 
ATOM     17  HH  TYR A   1     -11.861  10.989  62.138  1.00  0.00     0.000 HD 
ATOM     18  CD2 TYR A   1      -9.202  10.638  65.009  1.00  0.00    -0.245 A  
ENDBRANCH  10  11
ENDBRANCH   6  10
ENDBRANCH   3   6
TORSDOF 3
ENDMDL
MODEL      200
REMARK 921   NORMALIZED FREE ENERGY PREDICTED BY IDOCK:   -2.71 KCAL/MOL
REMARK 922        TOTAL FREE ENERGY PREDICTED BY IDOCK:   -3.62 KCAL/MOL
REMARK 923 INTER-LIGAND FREE ENERGY PREDICTED BY IDOCK:   -3.32 KCAL/MOL
REMARK 924 INTRA-LIGAND FREE ENERGY PREDICTED BY IDOCK:   -0.30 KCAL/MOL
REMARK 927      BINDING AFFINITY PREDICTED BY RF-SCORE:    0.00 PKD
ROOT
HETATM    1  C   UNK A   0      -8.766   2.930  70.577  1.00  0.00    -0.126 C  
HETATM    2  C   UNK A   0      -8.892   4.387  70.914  1.00  0.00    -0.105 C  
ATOM      3  N   TYR A   1      -9.960   5.038  70.350  1.00  0.00    -0.228 N  
HETATM    4  O   UNK A   0      -8.134   4.958  71.696  1.00  0.00    -0.107 OA 
ATOM      5  H   TYR A   1     -10.560   4.547  69.687  1.00  0.00     0.000 HD 
ENDROOT
BRANCH   3   6
ATOM      6  CA  TYR A   1     -10.241   6.437  70.696  1.00  0.00    -0.190 C  
ATOM      7  C   TYR A   1     -11.634   6.534  71.351  1.00  0.00    -0.318 C  
ATOM      8  O   TYR A   1     -11.685   5.958  72.581  1.00  0.00    -0.280 OA 
ATOM      9  OXT TYR A   1     -12.623   7.040  70.840  1.00  0.00    -0.353 OA 
BRANCH   6  10
ATOM     10  CB  TYR A   1     -10.117   7.358  69.466  1.00  0.00    -0.187 C  
BRANCH  10  11
ATOM     11  CG  TYR A   1      -9.818   6.652  68.160  1.00  0.00    -0.135 A  
ATOM     12  CD1 TYR A   1      -8.532   6.635  67.598  1.00  0.00    -0.121 A  
ATOM     13  CE1 TYR A   1      -8.315   6.092  66.328  1.00  0.00    -0.122 A  
ATOM     14  CZ  TYR A   1      -9.375   5.522  65.638  1.00  0.00    -0.047 A  
ATOM     15  CE2 TYR A   1     -10.637   5.447  66.213  1.00  0.00    -0.268 A  
ATOM     16  OH  TYR A   1      -9.215   5.036  64.375  1.00  0.00    -0.337 OA 
ATOM     17  HH  TYR A   1      -9.941   4.646  63.902  1.00  0.00     0.000 HD 
ATOM     18  CD2 TYR A   1     -10.857   6.009  67.471  1.00  0.00    -0.393 A  
ENDBRANCH  10  11
ENDBRANCH   6  10
ENDBRANCH   3   6
TORSDOF 3
ENDMDL
MODEL      201
REMARK 921   NORMALIZED FREE ENERGY PREDICTED BY IDOCK:   -2.69 KCAL/MOL
REMARK 922        TOTAL FREE ENERGY PREDICTED BY IDOCK:   -3.60 KCAL/MOL
REMARK 923 INTER-LIGAND FREE ENERGY PREDICTED BY IDOCK:   -3.84 KCAL/MOL
REMARK 924 INTRA-LIGAND FREE ENERGY PREDICTED BY IDOCK:    0.24 KCAL/MOL
REMARK 927      BINDING AFFINITY PREDICTED BY RF-SCORE:    0.00 PKD
ROOT
HETATM    1  C   UNK A   0     -12.323  11.002  70.635  1.00  0.00    -0.480 C  
HETATM    2  C   UNK A   0     -11.383   9.832  70.659  1.00  0.00    -0.330 C  
ATOM      3  N   TYR A   1     -11.293   9.117  69.492  1.00  0.00    -0.435 N  
HETATM    4  O   UNK A   0     -10.684   9.559  71.633  1.00  0.00    -0.320 OA 
ATOM      5  H   TYR A   1     -11.901   9.349  68.706  1.00  0.00     0.000 HD 
ENDROOT
BRANCH   3   6
ATOM      6  CA  TYR A   1     -10.327   8.018  69.370  1.00  0.00    -0.217 C  
ATOM      7  C   TYR A   1     -10.788   6.830  70.240  1.00  0.00    -0.270 C  
ATOM      8  O   TYR A   1     -11.911   6.228  69.768  1.00  0.00    -0.319 OA 
ATOM      9  OXT TYR A   1     -10.246   6.455  71.270  1.00  0.00    -0.196 OA 
BRANCH   6  10
ATOM     10  CB  TYR A   1      -8.901   8.478  69.731  1.00  0.00    -0.137 C  
BRANCH  10  11
ATOM     11  CG  TYR A   1      -8.218   9.338  68.689  1.00  0.00    -0.113 A  
ATOM     12  CD1 TYR A   1      -7.662   8.795  67.520  1.00  0.00    -0.101 A  
ATOM     13  CE1 TYR A   1      -6.922   9.594  66.644  1.00  0.00    -0.085 A  
ATOM     14  CZ  TYR A   1      -6.776  10.949  66.911  1.00  0.00    -0.106 A  
ATOM     15  CE2 TYR A   1      -7.394  11.524  68.012  1.00  0.00    -0.091 A  
ATOM     16  OH  TYR A   1      -6.013  11.746  66.112  1.00  0.00    -0.491 OA 
ATOM     17  HH  TYR A   1      -5.913  12.674  66.295  1.00  0.00     0.000 HD 
ATOM     18  CD2 TYR A   1      -8.114  10.721  68.899  1.00  0.00    -0.145 A  
ENDBRANCH  10  11
ENDBRANCH   6  10
ENDBRANCH   3   6
TORSDOF 3
ENDMDL
MODEL      202
REMARK 921   NORMALIZED FREE ENERGY PREDICTED BY IDOCK:   -2.68 KCAL/MOL
REMARK 922        TOTAL FREE ENERGY PREDICTED BY IDOCK:   -3.58 KCAL/MOL
REMARK 923 INTER-LIGAND FREE ENERGY PREDICTED BY IDOCK:   -3.26 KCAL/MOL
REMARK 924 INTRA-LIGAND FREE ENERGY PREDICTED BY IDOCK:   -0.33 KCAL/MOL
REMARK 927      BINDING AFFINITY PREDICTED BY RF-SCORE:    0.00 PKD
ROOT
HETATM    1  C   UNK A   0      -6.911   7.829  67.691  1.00  0.00    -0.081 C  
HETATM    2  C   UNK A   0      -7.778   6.629  67.937  1.00  0.00    -0.108 C  
ATOM      3  N   TYR A   1      -8.630   6.719  69.008  1.00  0.00    -0.130 N  
HETATM    4  O   UNK A   0      -7.782   5.646  67.197  1.00  0.00    -0.098 OA 
ATOM      5  H   TYR A   1      -8.591   7.535  69.620  1.00  0.00     0.000 HD 
ENDROOT
BRANCH   3   6
ATOM      6  CA  TYR A   1      -9.597   5.647  69.278  1.00  0.00    -0.138 C  
ATOM      7  C   TYR A   1     -11.025   6.164  69.001  1.00  0.00    -0.367 C  
ATOM      8  O   TYR A   1     -11.263   6.389  67.682  1.00  0.00    -0.337 OA 
ATOM      9  OXT TYR A   1     -11.873   6.388  69.851  1.00  0.00    -0.384 OA 
BRANCH   6  10
ATOM     10  CB  TYR A   1      -9.450   5.102  70.712  1.00  0.00    -0.224 C  
BRANCH  10  11
ATOM     11  CG  TYR A   1      -8.894   6.084  71.721  1.00  0.00    -0.138 A  
ATOM     12  CD1 TYR A   1      -9.720   6.958  72.446  1.00  0.00    -0.168 A  
ATOM     13  CE1 TYR A   1      -9.168   7.943  73.270  1.00  0.00    -0.346 A  
ATOM     14  CZ  TYR A   1      -7.789   8.027  73.407  1.00  0.00    -0.175 A  
ATOM     15  CE2 TYR A   1      -6.958   7.116  72.770  1.00  0.00    -0.068 A  
ATOM     16  OH  TYR A   1      -7.213   9.011  74.154  1.00  0.00    -0.397 OA 
ATOM     17  HH  TYR A   1      -6.269   9.068  74.247  1.00  0.00     0.000 HD 
ATOM     18  CD2 TYR A   1      -7.509   6.146  71.931  1.00  0.00    -0.095 A  
ENDBRANCH  10  11
ENDBRANCH   6  10
ENDBRANCH   3   6
TORSDOF 3
ENDMDL
MODEL      203
REMARK 921   NORMALIZED FREE ENERGY PREDICTED BY IDOCK:   -2.64 KCAL/MOL
REMARK 922        TOTAL FREE ENERGY PREDICTED BY IDOCK:   -3.54 KCAL/MOL
REMARK 923 INTER-LIGAND FREE ENERGY PREDICTED BY IDOCK:   -3.21 KCAL/MOL
REMARK 924 INTRA-LIGAND FREE ENERGY PREDICTED BY IDOCK:   -0.33 KCAL/MOL
REMARK 927      BINDING AFFINITY PREDICTED BY RF-SCORE:    0.00 PKD
ROOT
HETATM    1  C   UNK A   0     -12.348  12.931  64.213  1.00  0.00    -0.458 C  
HETATM    2  C   UNK A   0     -11.631  12.531  65.468  1.00  0.00    -0.386 C  
ATOM      3  N   TYR A   1     -11.541  13.499  66.436  1.00  0.00    -0.335 N  
HETATM    4  O   UNK A   0     -11.203  11.394  65.658  1.00  0.00    -0.205 OA 
ATOM      5  H   TYR A   1     -11.883  14.441  66.245  1.00  0.00     0.000 HD 
ENDROOT
BRANCH   3   6
ATOM      6  CA  TYR A   1     -10.955  13.185  67.746  1.00  0.00    -0.251 C  
ATOM      7  C   TYR A   1     -11.432  14.222  68.783  1.00  0.00    -0.296 C  
ATOM      8  O   TYR A   1     -12.756  14.116  69.072  1.00  0.00     0.105 OA 
ATOM      9  OXT TYR A   1     -10.733  15.084  69.296  1.00  0.00    -0.231 OA 
BRANCH   6  10
ATOM     10  CB  TYR A   1      -9.417  13.110  67.671  1.00  0.00    -0.207 C  
BRANCH  10  11
ATOM     11  CG  TYR A   1      -8.789  11.973  68.449  1.00  0.00    -0.149 A  
ATOM     12  CD1 TYR A   1      -7.406  11.898  68.675  1.00  0.00    -0.115 A  
ATOM     13  CE1 TYR A   1      -6.841  10.771  69.279  1.00  0.00    -0.092 A  
ATOM     14  CZ  TYR A   1      -7.664   9.736  69.701  1.00  0.00    -0.136 A  
ATOM     15  CE2 TYR A   1      -9.043   9.829  69.570  1.00  0.00    -0.227 A  
ATOM     16  OH  TYR A   1      -7.146   8.597  70.239  1.00  0.00    -0.038 OA 
ATOM     17  HH  TYR A   1      -7.710   7.888  70.528  1.00  0.00     0.000 HD 
ATOM     18  CD2 TYR A   1      -9.604  10.946  68.946  1.00  0.00    -0.192 A  
ENDBRANCH  10  11
ENDBRANCH   6  10
ENDBRANCH   3   6
TORSDOF 3
ENDMDL
MODEL      204
REMARK 921   NORMALIZED FREE ENERGY PREDICTED BY IDOCK:   -2.64 KCAL/MOL
REMARK 922        TOTAL FREE ENERGY PREDICTED BY IDOCK:   -3.53 KCAL/MOL
REMARK 923 INTER-LIGAND FREE ENERGY PREDICTED BY IDOCK:   -3.20 KCAL/MOL
REMARK 924 INTRA-LIGAND FREE ENERGY PREDICTED BY IDOCK:   -0.34 KCAL/MOL
REMARK 927      BINDING AFFINITY PREDICTED BY RF-SCORE:    0.00 PKD
ROOT
HETATM    1  C   UNK A   0      -8.135   7.825  62.335  1.00  0.00    -0.154 C  
HETATM    2  C   UNK A   0      -8.471   8.740  63.475  1.00  0.00    -0.105 C  
ATOM      3  N   TYR A   1      -8.245   8.235  64.730  1.00  0.00    -0.180 N  
HETATM    4  O   UNK A   0      -8.865   9.894  63.311  1.00  0.00    -0.205 OA 
ATOM      5  H   TYR A   1      -7.941   7.267  64.840  1.00  0.00     0.000 HD 
ENDROOT
BRANCH   3   6
ATOM      6  CA  TYR A   1      -8.438   9.081  65.915  1.00  0.00    -0.140 C  
ATOM      7  C   TYR A   1      -7.063   9.503  66.474  1.00  0.00    -0.085 C  
ATOM      8  O   TYR A   1      -6.399  10.364  65.658  1.00  0.00    -0.109 OA 
ATOM      9  OXT TYR A   1      -6.573   9.107  67.521  1.00  0.00    -0.063 OA 
BRANCH   6  10
ATOM     10  CB  TYR A   1      -9.299   8.372  66.979  1.00  0.00    -0.202 C  
BRANCH  10  11
ATOM     11  CG  TYR A   1      -9.929   9.284  68.010  1.00  0.00    -0.216 A  
ATOM     12  CD1 TYR A   1     -10.259   8.838  69.300  1.00  0.00    -0.215 A  
ATOM     13  CE1 TYR A   1     -10.960   9.664  70.183  1.00  0.00    -0.320 A  
ATOM     14  CZ  TYR A   1     -11.292  10.954  69.796  1.00  0.00    -0.301 A  
ATOM     15  CE2 TYR A   1     -10.897  11.447  68.560  1.00  0.00    -0.251 A  
ATOM     16  OH  TYR A   1     -12.027  11.767  70.606  1.00  0.00    -0.423 OA 
ATOM     17  HH  TYR A   1     -12.255  12.651  70.341  1.00  0.00     0.000 HD 
ATOM     18  CD2 TYR A   1     -10.216  10.614  67.670  1.00  0.00    -0.229 A  
ENDBRANCH  10  11
ENDBRANCH   6  10
ENDBRANCH   3   6
TORSDOF 3
ENDMDL
MODEL      205
REMARK 921   NORMALIZED FREE ENERGY PREDICTED BY IDOCK:   -2.60 KCAL/MOL
REMARK 922        TOTAL FREE ENERGY PREDICTED BY IDOCK:   -3.49 KCAL/MOL
REMARK 923 INTER-LIGAND FREE ENERGY PREDICTED BY IDOCK:   -3.08 KCAL/MOL
REMARK 924 INTRA-LIGAND FREE ENERGY PREDICTED BY IDOCK:   -0.41 KCAL/MOL
REMARK 927      BINDING AFFINITY PREDICTED BY RF-SCORE:    0.00 PKD
ROOT
HETATM    1  C   UNK A   0      -8.818   5.869  66.823  1.00  0.00    -0.118 C  
HETATM    2  C   UNK A   0      -9.870   6.938  66.854  1.00  0.00    -0.183 C  
ATOM      3  N   TYR A   1      -9.407   8.227  66.916  1.00  0.00    -0.164 N  
HETATM    4  O   UNK A   0     -11.072   6.693  66.765  1.00  0.00    -0.354 OA 
ATOM      5  H   TYR A   1      -8.407   8.403  67.013  1.00  0.00     0.000 HD 
ENDROOT
BRANCH   3   6
ATOM      6  CA  TYR A   1     -10.345   9.356  66.845  1.00  0.00    -0.238 C  
ATOM      7  C   TYR A   1      -9.848  10.369  65.793  1.00  0.00    -0.239 C  
ATOM      8  O   TYR A   1      -9.927   9.898  64.521  1.00  0.00    -0.221 OA 
ATOM      9  OXT TYR A   1      -9.396  11.479  66.038  1.00  0.00    -0.215 OA 
BRANCH   6  10
ATOM     10  CB  TYR A   1     -10.546  10.010  68.225  1.00  0.00    -0.264 C  
BRANCH  10  11
ATOM     11  CG  TYR A   1      -9.490   9.676  69.257  1.00  0.00    -0.184 A  
ATOM     12  CD1 TYR A   1      -9.663   8.651  70.200  1.00  0.00    -0.182 A  
ATOM     13  CE1 TYR A   1      -8.730   8.455  71.222  1.00  0.00    -0.203 A  
ATOM     14  CZ  TYR A   1      -7.597   9.255  71.276  1.00  0.00     0.055 A  
ATOM     15  CE2 TYR A   1      -7.360  10.215  70.302  1.00  0.00    -0.108 A  
ATOM     16  OH  TYR A   1      -6.696   9.134  72.292  1.00  0.00    -0.305 OA 
ATOM     17  HH  TYR A   1      -5.921   9.682  72.329  1.00  0.00     0.000 HD 
ATOM     18  CD2 TYR A   1      -8.304  10.424  69.294  1.00  0.00    -0.161 A  
ENDBRANCH  10  11
ENDBRANCH   6  10
ENDBRANCH   3   6
TORSDOF 3
ENDMDL
MODEL      206
REMARK 921   NORMALIZED FREE ENERGY PREDICTED BY IDOCK:   -2.59 KCAL/MOL
REMARK 922        TOTAL FREE ENERGY PREDICTED BY IDOCK:   -3.48 KCAL/MOL
REMARK 923 INTER-LIGAND FREE ENERGY PREDICTED BY IDOCK:   -3.25 KCAL/MOL
REMARK 924 INTRA-LIGAND FREE ENERGY PREDICTED BY IDOCK:   -0.23 KCAL/MOL
REMARK 927      BINDING AFFINITY PREDICTED BY RF-SCORE:    0.00 PKD
ROOT
HETATM    1  C   UNK A   0     -10.756  10.907  66.471  1.00  0.00    -0.270 C  
HETATM    2  C   UNK A   0     -10.588   9.663  67.293  1.00  0.00    -0.247 C  
ATOM      3  N   TYR A   1     -10.738   9.820  68.647  1.00  0.00    -0.252 N  
HETATM    4  O   UNK A   0     -10.392   8.556  66.794  1.00  0.00    -0.295 OA 
ATOM      5  H   TYR A   1     -10.876  10.752  69.038  1.00  0.00     0.000 HD 
ENDROOT
BRANCH   3   6
ATOM      6  CA  TYR A   1     -10.700   8.652  69.537  1.00  0.00    -0.182 C  
ATOM      7  C   TYR A   1     -11.312   9.027  70.903  1.00  0.00    -0.293 C  
ATOM      8  O   TYR A   1     -12.650   9.252  70.843  1.00  0.00    -0.231 OA 
ATOM      9  OXT TYR A   1     -10.689   9.150  71.947  1.00  0.00    -0.357 OA 
BRANCH   6  10
ATOM     10  CB  TYR A   1      -9.269   8.098  69.679  1.00  0.00    -0.155 C  
BRANCH  10  11
ATOM     11  CG  TYR A   1      -9.101   6.642  69.304  1.00  0.00    -0.138 A  
ATOM     12  CD1 TYR A   1     -10.137   5.706  69.457  1.00  0.00    -0.292 A  
ATOM     13  CE1 TYR A   1      -9.910   4.346  69.229  1.00  0.00    -0.218 A  
ATOM     14  CZ  TYR A   1      -8.660   3.923  68.801  1.00  0.00    -0.089 A  
ATOM     15  CE2 TYR A   1      -7.647   4.840  68.556  1.00  0.00    -0.073 A  
ATOM     16  OH  TYR A   1      -8.384   2.600  68.626  1.00  0.00    -0.062 OA 
ATOM     17  HH  TYR A   1      -7.528   2.310  68.333  1.00  0.00     0.000 HD 
ATOM     18  CD2 TYR A   1      -7.868   6.196  68.805  1.00  0.00    -0.101 A  
ENDBRANCH  10  11
ENDBRANCH   6  10
ENDBRANCH   3   6
TORSDOF 3
ENDMDL
MODEL      207
REMARK 921   NORMALIZED FREE ENERGY PREDICTED BY IDOCK:   -2.59 KCAL/MOL
REMARK 922        TOTAL FREE ENERGY PREDICTED BY IDOCK:   -3.48 KCAL/MOL
REMARK 923 INTER-LIGAND FREE ENERGY PREDICTED BY IDOCK:   -3.27 KCAL/MOL
REMARK 924 INTRA-LIGAND FREE ENERGY PREDICTED BY IDOCK:   -0.21 KCAL/MOL
REMARK 927      BINDING AFFINITY PREDICTED BY RF-SCORE:    0.00 PKD
ROOT
HETATM    1  C   UNK A   0     -12.167  10.254  71.577  1.00  0.00    -0.449 C  
HETATM    2  C   UNK A   0     -11.191   9.405  70.815  1.00  0.00    -0.302 C  
ATOM      3  N   TYR A   1      -9.932   9.930  70.671  1.00  0.00    -0.360 N  
HETATM    4  O   UNK A   0     -11.469   8.283  70.396  1.00  0.00    -0.232 OA 
ATOM      5  H   TYR A   1      -9.733  10.873  71.007  1.00  0.00     0.000 HD 
ENDROOT
BRANCH   3   6
ATOM      6  CA  TYR A   1      -8.868   9.140  70.036  1.00  0.00    -0.182 C  
ATOM      7  C   TYR A   1      -8.025   8.446  71.126  1.00  0.00    -0.112 C  
ATOM      8  O   TYR A   1      -8.703   7.469  71.782  1.00  0.00    -0.114 OA 
ATOM      9  OXT TYR A   1      -6.874   8.734  71.419  1.00  0.00    -0.072 OA 
BRANCH   6  10
ATOM     10  CB  TYR A   1      -8.003  10.008  69.102  1.00  0.00    -0.116 C  
BRANCH  10  11
ATOM     11  CG  TYR A   1      -8.734  11.139  68.411  1.00  0.00    -0.157 A  
ATOM     12  CD1 TYR A   1      -8.376  12.484  68.595  1.00  0.00     0.021 A  
ATOM     13  CE1 TYR A   1      -9.152  13.511  68.050  1.00  0.00    -0.201 A  
ATOM     14  CZ  TYR A   1     -10.264  13.194  67.281  1.00  0.00    -0.243 A  
ATOM     15  CE2 TYR A   1     -10.584  11.871  67.011  1.00  0.00    -0.260 A  
ATOM     16  OH  TYR A   1     -11.078  14.167  66.784  1.00  0.00    -0.299 OA 
ATOM     17  HH  TYR A   1     -11.839  13.950  66.258  1.00  0.00     0.000 HD 
ATOM     18  CD2 TYR A   1      -9.821  10.846  67.574  1.00  0.00    -0.192 A  
ENDBRANCH  10  11
ENDBRANCH   6  10
ENDBRANCH   3   6
TORSDOF 3
ENDMDL
MODEL      208
REMARK 921   NORMALIZED FREE ENERGY PREDICTED BY IDOCK:   -2.59 KCAL/MOL
REMARK 922        TOTAL FREE ENERGY PREDICTED BY IDOCK:   -3.48 KCAL/MOL
REMARK 923 INTER-LIGAND FREE ENERGY PREDICTED BY IDOCK:   -4.10 KCAL/MOL
REMARK 924 INTRA-LIGAND FREE ENERGY PREDICTED BY IDOCK:    0.62 KCAL/MOL
REMARK 927      BINDING AFFINITY PREDICTED BY RF-SCORE:    0.00 PKD
ROOT
HETATM    1  C   UNK A   0      -6.799   8.197  69.927  1.00  0.00    -0.044 C  
HETATM    2  C   UNK A   0      -7.688   7.009  69.700  1.00  0.00    -0.110 C  
ATOM      3  N   TYR A   1      -8.996   7.293  69.400  1.00  0.00    -0.140 N  
HETATM    4  O   UNK A   0      -7.270   5.852  69.715  1.00  0.00    -0.066 OA 
ATOM      5  H   TYR A   1      -9.322   8.259  69.417  1.00  0.00     0.000 HD 
ENDROOT
BRANCH   3   6
ATOM      6  CA  TYR A   1      -9.928   6.211  69.055  1.00  0.00    -0.153 C  
ATOM      7  C   TYR A   1     -10.298   6.311  67.560  1.00  0.00    -0.200 C  
ATOM      8  O   TYR A   1      -9.259   6.018  66.735  1.00  0.00    -0.128 OA 
ATOM      9  OXT TYR A   1     -11.389   6.642  67.122  1.00  0.00    -0.343 OA 
BRANCH   6  10
ATOM     10  CB  TYR A   1     -11.175   6.232  69.960  1.00  0.00    -0.480 C  
BRANCH  10  11
ATOM     11  CG  TYR A   1     -11.551   7.592  70.509  1.00  0.00    -0.224 A  
ATOM     12  CD1 TYR A   1     -12.427   7.743  71.595  1.00  0.00    -0.352 A  
ATOM     13  CE1 TYR A   1     -12.859   9.012  71.994  1.00  0.00    -0.468 A  
ATOM     14  CZ  TYR A   1     -12.378  10.135  71.336  1.00  0.00    -0.416 A  
ATOM     15  CE2 TYR A   1     -11.441  10.014  70.319  1.00  0.00    -0.372 A  
ATOM     16  OH  TYR A   1     -12.821  11.383  71.656  1.00  0.00    -0.420 OA 
ATOM     17  HH  TYR A   1     -12.492  12.153  71.206  1.00  0.00     0.000 HD 
ATOM     18  CD2 TYR A   1     -11.028   8.746  69.907  1.00  0.00    -0.184 A  
ENDBRANCH  10  11
ENDBRANCH   6  10
ENDBRANCH   3   6
TORSDOF 3
ENDMDL
MODEL      209
REMARK 921   NORMALIZED FREE ENERGY PREDICTED BY IDOCK:   -2.57 KCAL/MOL
REMARK 922        TOTAL FREE ENERGY PREDICTED BY IDOCK:   -3.46 KCAL/MOL
REMARK 923 INTER-LIGAND FREE ENERGY PREDICTED BY IDOCK:   -3.13 KCAL/MOL
REMARK 924 INTRA-LIGAND FREE ENERGY PREDICTED BY IDOCK:   -0.33 KCAL/MOL
REMARK 927      BINDING AFFINITY PREDICTED BY RF-SCORE:    0.00 PKD
ROOT
HETATM    1  C   UNK A   0      -7.562   4.706  69.154  1.00  0.00    -0.056 C  
HETATM    2  C   UNK A   0      -8.388   5.623  68.301  1.00  0.00    -0.102 C  
ATOM      3  N   TYR A   1      -7.689   6.569  67.594  1.00  0.00    -0.105 N  
HETATM    4  O   UNK A   0      -9.606   5.506  68.183  1.00  0.00    -0.111 OA 
ATOM      5  H   TYR A   1      -6.682   6.660  67.728  1.00  0.00     0.000 HD 
ENDROOT
BRANCH   3   6
ATOM      6  CA  TYR A   1      -8.385   7.449  66.647  1.00  0.00    -0.124 C  
ATOM      7  C   TYR A   1      -8.137   6.952  65.208  1.00  0.00    -0.134 C  
ATOM      8  O   TYR A   1      -8.747   5.768  64.941  1.00  0.00    -0.107 OA 
ATOM      9  OXT TYR A   1      -7.447   7.519  64.373  1.00  0.00    -0.082 OA 
BRANCH   6  10
ATOM     10  CB  TYR A   1      -7.962   8.920  66.830  1.00  0.00    -0.101 C  
BRANCH  10  11
ATOM     11  CG  TYR A   1      -9.058   9.939  66.600  1.00  0.00    -0.171 A  
ATOM     12  CD1 TYR A   1      -9.719  10.578  67.661  1.00  0.00    -0.187 A  
ATOM     13  CE1 TYR A   1     -10.814  11.412  67.422  1.00  0.00    -0.301 A  
ATOM     14  CZ  TYR A   1     -11.223  11.646  66.116  1.00  0.00    -0.254 A  
ATOM     15  CE2 TYR A   1     -10.528  11.097  65.047  1.00  0.00    -0.357 A  
ATOM     16  OH  TYR A   1     -12.322  12.405  65.846  1.00  0.00    -0.638 OA 
ATOM     17  HH  TYR A   1     -12.602  12.565  64.952  1.00  0.00     0.000 HD 
ATOM     18  CD2 TYR A   1      -9.447  10.247  65.289  1.00  0.00    -0.296 A  
ENDBRANCH  10  11
ENDBRANCH   6  10
ENDBRANCH   3   6
TORSDOF 3
ENDMDL
MODEL      210
REMARK 921   NORMALIZED FREE ENERGY PREDICTED BY IDOCK:   -2.50 KCAL/MOL
REMARK 922        TOTAL FREE ENERGY PREDICTED BY IDOCK:   -3.38 KCAL/MOL
REMARK 923 INTER-LIGAND FREE ENERGY PREDICTED BY IDOCK:   -3.00 KCAL/MOL
REMARK 924 INTRA-LIGAND FREE ENERGY PREDICTED BY IDOCK:   -0.38 KCAL/MOL
REMARK 927      BINDING AFFINITY PREDICTED BY RF-SCORE:    0.00 PKD
ROOT
HETATM    1  C   UNK A   0     -11.468   6.271  69.596  1.00  0.00    -0.425 C  
HETATM    2  C   UNK A   0     -10.083   6.313  70.173  1.00  0.00    -0.179 C  
ATOM      3  N   TYR A   1      -9.321   7.396  69.812  1.00  0.00    -0.148 N  
HETATM    4  O   UNK A   0      -9.667   5.474  70.969  1.00  0.00    -0.165 OA 
ATOM      5  H   TYR A   1      -9.681   8.065  69.131  1.00  0.00     0.000 HD 
ENDROOT
BRANCH   3   6
ATOM      6  CA  TYR A   1      -7.990   7.593  70.401  1.00  0.00    -0.097 C  
ATOM      7  C   TYR A   1      -8.003   8.860  71.282  1.00  0.00    -0.129 C  
ATOM      8  O   TYR A   1      -8.754   8.720  72.405  1.00  0.00    -0.392 OA 
ATOM      9  OXT TYR A   1      -7.434   9.910  71.019  1.00  0.00    -0.289 OA 
BRANCH   6  10
ATOM     10  CB  TYR A   1      -6.898   7.657  69.316  1.00  0.00    -0.052 C  
BRANCH  10  11
ATOM     11  CG  TYR A   1      -7.378   8.066  67.940  1.00  0.00    -0.093 A  
ATOM     12  CD1 TYR A   1      -7.686   9.398  67.622  1.00  0.00    -0.088 A  
ATOM     13  CE1 TYR A   1      -8.254   9.725  66.387  1.00  0.00    -0.120 A  
ATOM     14  CZ  TYR A   1      -8.472   8.725  65.449  1.00  0.00    -0.170 A  
ATOM     15  CE2 TYR A   1      -8.091   7.415  65.707  1.00  0.00    -0.129 A  
ATOM     16  OH  TYR A   1      -9.077   8.995  64.258  1.00  0.00    -0.427 OA 
ATOM     17  HH  TYR A   1      -9.226   8.311  63.616  1.00  0.00     0.000 HD 
ATOM     18  CD2 TYR A   1      -7.545   7.087  66.949  1.00  0.00    -0.094 A  
ENDBRANCH  10  11
ENDBRANCH   6  10
ENDBRANCH   3   6
TORSDOF 3
ENDMDL
MODEL      211
REMARK 921   NORMALIZED FREE ENERGY PREDICTED BY IDOCK:   -2.48 KCAL/MOL
REMARK 922        TOTAL FREE ENERGY PREDICTED BY IDOCK:   -3.34 KCAL/MOL
REMARK 923 INTER-LIGAND FREE ENERGY PREDICTED BY IDOCK:   -2.87 KCAL/MOL
REMARK 924 INTRA-LIGAND FREE ENERGY PREDICTED BY IDOCK:   -0.47 KCAL/MOL
REMARK 927      BINDING AFFINITY PREDICTED BY RF-SCORE:    0.00 PKD
ROOT
HETATM    1  C   UNK A   0     -12.525  15.751  69.210  1.00  0.00     0.165 C  
HETATM    2  C   UNK A   0     -11.085  16.137  69.382  1.00  0.00    -0.335 C  
ATOM      3  N   TYR A   1     -10.527  16.834  68.339  1.00  0.00    -0.319 N  
HETATM    4  O   UNK A   0     -10.451  15.907  70.410  1.00  0.00    -0.257 OA 
ATOM      5  H   TYR A   1     -11.067  16.991  67.488  1.00  0.00     0.000 HD 
ENDROOT
BRANCH   3   6
ATOM      6  CA  TYR A   1      -9.157  17.353  68.445  1.00  0.00    -0.274 C  
ATOM      7  C   TYR A   1      -9.107  18.785  67.873  1.00  0.00    -0.291 C  
ATOM      8  O   TYR A   1      -9.776  19.688  68.638  1.00  0.00    -0.380 OA 
ATOM      9  OXT TYR A   1      -8.559  19.112  66.830  1.00  0.00    -0.285 OA 
BRANCH   6  10
ATOM     10  CB  TYR A   1      -8.146  16.420  67.752  1.00  0.00    -0.167 C  
BRANCH  10  11
ATOM     11  CG  TYR A   1      -7.605  15.301  68.615  1.00  0.00    -0.129 A  
ATOM     12  CD1 TYR A   1      -6.931  15.547  69.822  1.00  0.00    -0.132 A  
ATOM     13  CE1 TYR A   1      -6.327  14.503  70.529  1.00  0.00    -0.125 A  
ATOM     14  CZ  TYR A   1      -6.436  13.203  70.054  1.00  0.00     0.079 A  
ATOM     15  CE2 TYR A   1      -7.175  12.925  68.912  1.00  0.00    -0.042 A  
ATOM     16  OH  TYR A   1      -5.811  12.168  70.683  1.00  0.00    -0.239 OA 
ATOM     17  HH  TYR A   1      -5.886  11.278  70.358  1.00  0.00     0.000 HD 
ATOM     18  CD2 TYR A   1      -7.759  13.971  68.195  1.00  0.00    -0.143 A  
ENDBRANCH  10  11
ENDBRANCH   6  10
ENDBRANCH   3   6
TORSDOF 3
ENDMDL
MODEL      212
REMARK 921   NORMALIZED FREE ENERGY PREDICTED BY IDOCK:   -2.46 KCAL/MOL
REMARK 922        TOTAL FREE ENERGY PREDICTED BY IDOCK:   -3.33 KCAL/MOL
REMARK 923 INTER-LIGAND FREE ENERGY PREDICTED BY IDOCK:   -3.19 KCAL/MOL
REMARK 924 INTRA-LIGAND FREE ENERGY PREDICTED BY IDOCK:   -0.14 KCAL/MOL
REMARK 927      BINDING AFFINITY PREDICTED BY RF-SCORE:    0.00 PKD
ROOT
HETATM    1  C   UNK A   0      -7.347   4.347  69.966  1.00  0.00    -0.046 C  
HETATM    2  C   UNK A   0      -7.473   5.841  69.928  1.00  0.00    -0.079 C  
ATOM      3  N   TYR A   1      -8.015   6.422  71.047  1.00  0.00    -0.114 N  
HETATM    4  O   UNK A   0      -7.064   6.521  68.988  1.00  0.00    -0.079 OA 
ATOM      5  H   TYR A   1      -8.369   5.834  71.802  1.00  0.00     0.000 HD 
ENDROOT
BRANCH   3   6
ATOM      6  CA  TYR A   1      -8.088   7.884  71.161  1.00  0.00    -0.092 C  
ATOM      7  C   TYR A   1      -7.641   8.310  72.575  1.00  0.00    -0.115 C  
ATOM      8  O   TYR A   1      -6.316   8.108  72.798  1.00  0.00    -0.068 OA 
ATOM      9  OXT TYR A   1      -8.374   8.760  73.443  1.00  0.00    -0.374 OA 
BRANCH   6  10
ATOM     10  CB  TYR A   1      -9.496   8.407  70.820  1.00  0.00    -0.199 C  
BRANCH  10  11
ATOM     11  CG  TYR A   1     -10.138   7.781  69.600  1.00  0.00    -0.196 A  
ATOM     12  CD1 TYR A   1     -10.902   6.606  69.677  1.00  0.00    -0.336 A  
ATOM     13  CE1 TYR A   1     -11.369   5.980  68.517  1.00  0.00     0.060 A  
ATOM     14  CZ  TYR A   1     -11.112   6.554  67.280  1.00  0.00    -0.350 A  
ATOM     15  CE2 TYR A   1     -10.436   7.763  67.186  1.00  0.00    -0.413 A  
ATOM     16  OH  TYR A   1     -11.498   5.942  66.125  1.00  0.00    -0.578 OA 
ATOM     17  HH  TYR A   1     -11.322   6.335  65.278  1.00  0.00     0.000 HD 
ATOM     18  CD2 TYR A   1      -9.952   8.376  68.343  1.00  0.00    -0.208 A  
ENDBRANCH  10  11
ENDBRANCH   6  10
ENDBRANCH   3   6
TORSDOF 3
ENDMDL
MODEL      213
REMARK 921   NORMALIZED FREE ENERGY PREDICTED BY IDOCK:   -2.42 KCAL/MOL
REMARK 922        TOTAL FREE ENERGY PREDICTED BY IDOCK:   -3.28 KCAL/MOL
REMARK 923 INTER-LIGAND FREE ENERGY PREDICTED BY IDOCK:   -3.42 KCAL/MOL
REMARK 924 INTRA-LIGAND FREE ENERGY PREDICTED BY IDOCK:    0.14 KCAL/MOL
REMARK 927      BINDING AFFINITY PREDICTED BY RF-SCORE:    0.00 PKD
ROOT
HETATM    1  C   UNK A   0     -13.466  13.520  71.886  1.00  0.00    -0.528 C  
HETATM    2  C   UNK A   0     -12.334  13.473  70.903  1.00  0.00    -0.356 C  
ATOM      3  N   TYR A   1     -12.402  12.473  69.965  1.00  0.00    -0.148 N  
HETATM    4  O   UNK A   0     -11.431  14.307  70.885  1.00  0.00    -0.166 OA 
ATOM      5  H   TYR A   1     -13.149  11.780  70.016  1.00  0.00     0.000 HD 
ENDROOT
BRANCH   3   6
ATOM      6  CA  TYR A   1     -11.404  12.398  68.890  1.00  0.00    -0.294 C  
ATOM      7  C   TYR A   1     -11.818  13.339  67.740  1.00  0.00    -0.353 C  
ATOM      8  O   TYR A   1     -11.730  14.654  68.070  1.00  0.00    -0.330 OA 
ATOM      9  OXT TYR A   1     -12.217  12.981  66.641  1.00  0.00    -0.375 OA 
BRANCH   6  10
ATOM     10  CB  TYR A   1     -11.206  10.948  68.406  1.00  0.00    -0.347 C  
BRANCH  10  11
ATOM     11  CG  TYR A   1     -10.939   9.935  69.497  1.00  0.00    -0.274 A  
ATOM     12  CD1 TYR A   1     -11.732   8.788  69.663  1.00  0.00     0.584 A  
ATOM     13  CE1 TYR A   1     -11.544   7.941  70.759  1.00  0.00    -0.258 A  
ATOM     14  CZ  TYR A   1     -10.532   8.215  71.668  1.00  0.00    -0.228 A  
ATOM     15  CE2 TYR A   1      -9.678   9.292  71.476  1.00  0.00    -0.210 A  
ATOM     16  OH  TYR A   1     -10.357   7.447  72.781  1.00  0.00    -0.212 OA 
ATOM     17  HH  TYR A   1      -9.664   7.634  73.403  1.00  0.00     0.000 HD 
ATOM     18  CD2 TYR A   1      -9.880  10.149  70.392  1.00  0.00     0.073 A  
ENDBRANCH  10  11
ENDBRANCH   6  10
ENDBRANCH   3   6
TORSDOF 3
ENDMDL
MODEL      214
REMARK 921   NORMALIZED FREE ENERGY PREDICTED BY IDOCK:   -2.39 KCAL/MOL
REMARK 922        TOTAL FREE ENERGY PREDICTED BY IDOCK:   -3.24 KCAL/MOL
REMARK 923 INTER-LIGAND FREE ENERGY PREDICTED BY IDOCK:   -2.76 KCAL/MOL
REMARK 924 INTRA-LIGAND FREE ENERGY PREDICTED BY IDOCK:   -0.48 KCAL/MOL
REMARK 927      BINDING AFFINITY PREDICTED BY RF-SCORE:    0.00 PKD
ROOT
HETATM    1  C   UNK A   0      -9.393   9.750  69.936  1.00  0.00    -0.262 C  
HETATM    2  C   UNK A   0     -10.098   8.507  70.392  1.00  0.00    -0.189 C  
ATOM      3  N   TYR A   1      -9.364   7.664  71.188  1.00  0.00    -0.154 N  
HETATM    4  O   UNK A   0     -11.277   8.275  70.131  1.00  0.00    -0.231 OA 
ATOM      5  H   TYR A   1      -8.381   7.867  71.371  1.00  0.00     0.000 HD 
ENDROOT
BRANCH   3   6
ATOM      6  CA  TYR A   1      -9.987   6.472  71.778  1.00  0.00    -0.176 C  
ATOM      7  C   TYR A   1     -10.256   6.722  73.276  1.00  0.00    -0.247 C  
ATOM      8  O   TYR A   1     -11.228   7.646  73.495  1.00  0.00    -0.283 OA 
ATOM      9  OXT TYR A   1      -9.660   6.188  74.200  1.00  0.00    -0.154 OA 
BRANCH   6  10
ATOM     10  CB  TYR A   1      -9.126   5.215  71.548  1.00  0.00    -0.169 C  
BRANCH  10  11
ATOM     11  CG  TYR A   1      -8.798   4.913  70.102  1.00  0.00    -0.134 A  
ATOM     12  CD1 TYR A   1      -9.795   4.741  69.129  1.00  0.00    -0.254 A  
ATOM     13  CE1 TYR A   1      -9.467   4.333  67.833  1.00  0.00    -0.216 A  
ATOM     14  CZ  TYR A   1      -8.135   4.139  67.494  1.00  0.00    -0.095 A  
ATOM     15  CE2 TYR A   1      -7.126   4.391  68.414  1.00  0.00    -0.056 A  
ATOM     16  OH  TYR A   1      -7.781   3.684  66.260  1.00  0.00    -0.086 OA 
ATOM     17  HH  TYR A   1      -6.869   3.551  66.028  1.00  0.00     0.000 HD 
ATOM     18  CD2 TYR A   1      -7.457   4.778  69.714  1.00  0.00    -0.055 A  
ENDBRANCH  10  11
ENDBRANCH   6  10
ENDBRANCH   3   6
TORSDOF 3
ENDMDL
MODEL      215
REMARK 921   NORMALIZED FREE ENERGY PREDICTED BY IDOCK:   -2.38 KCAL/MOL
REMARK 922        TOTAL FREE ENERGY PREDICTED BY IDOCK:   -3.23 KCAL/MOL
REMARK 923 INTER-LIGAND FREE ENERGY PREDICTED BY IDOCK:   -3.03 KCAL/MOL
REMARK 924 INTRA-LIGAND FREE ENERGY PREDICTED BY IDOCK:   -0.20 KCAL/MOL
REMARK 927      BINDING AFFINITY PREDICTED BY RF-SCORE:    0.00 PKD
ROOT
HETATM    1  C   UNK A   0      -6.064   6.565  69.406  1.00  0.00    -0.022 C  
HETATM    2  C   UNK A   0      -7.408   7.232  69.419  1.00  0.00    -0.089 C  
ATOM      3  N   TYR A   1      -8.211   6.933  70.490  1.00  0.00    -0.119 N  
HETATM    4  O   UNK A   0      -7.756   8.046  68.565  1.00  0.00    -0.102 OA 
ATOM      5  H   TYR A   1      -7.908   6.237  71.172  1.00  0.00     0.000 HD 
ENDROOT
BRANCH   3   6
ATOM      6  CA  TYR A   1      -9.503   7.611  70.659  1.00  0.00    -0.163 C  
ATOM      7  C   TYR A   1      -9.746   7.884  72.158  1.00  0.00    -0.199 C  
ATOM      8  O   TYR A   1      -8.905   8.820  72.672  1.00  0.00    -0.394 OA 
ATOM      9  OXT TYR A   1     -10.577   7.321  72.855  1.00  0.00    -0.242 OA 
BRANCH   6  10
ATOM     10  CB  TYR A   1     -10.651   6.800  70.028  1.00  0.00    -0.256 C  
BRANCH  10  11
ATOM     11  CG  TYR A   1     -10.258   5.445  69.481  1.00  0.00    -0.336 A  
ATOM     12  CD1 TYR A   1      -9.951   4.361  70.319  1.00  0.00    -0.248 A  
ATOM     13  CE1 TYR A   1      -9.464   3.163  69.788  1.00  0.00    -0.198 A  
ATOM     14  CZ  TYR A   1      -9.326   3.030  68.413  1.00  0.00    -0.187 A  
ATOM     15  CE2 TYR A   1      -9.709   4.056  67.560  1.00  0.00    -0.177 A  
ATOM     16  OH  TYR A   1      -8.798   1.901  67.863  1.00  0.00    -0.094 OA 
ATOM     17  HH  TYR A   1      -8.703   1.810  66.922  1.00  0.00     0.000 HD 
ATOM     18  CD2 TYR A   1     -10.175   5.260  68.093  1.00  0.00    -0.204 A  
ENDBRANCH  10  11
ENDBRANCH   6  10
ENDBRANCH   3   6
TORSDOF 3
ENDMDL
MODEL      216
REMARK 921   NORMALIZED FREE ENERGY PREDICTED BY IDOCK:   -2.37 KCAL/MOL
REMARK 922        TOTAL FREE ENERGY PREDICTED BY IDOCK:   -3.22 KCAL/MOL
REMARK 923 INTER-LIGAND FREE ENERGY PREDICTED BY IDOCK:   -2.82 KCAL/MOL
REMARK 924 INTRA-LIGAND FREE ENERGY PREDICTED BY IDOCK:   -0.40 KCAL/MOL
REMARK 927      BINDING AFFINITY PREDICTED BY RF-SCORE:    0.00 PKD
ROOT
HETATM    1  C   UNK A   0      -5.758  11.583  68.900  1.00  0.00    -0.046 C  
HETATM    2  C   UNK A   0      -6.481  11.673  67.588  1.00  0.00    -0.075 C  
ATOM      3  N   TYR A   1      -7.849  11.590  67.656  1.00  0.00    -0.119 N  
HETATM    4  O   UNK A   0      -5.903  11.871  66.521  1.00  0.00    -0.234 OA 
ATOM      5  H   TYR A   1      -8.302  11.401  68.550  1.00  0.00     0.000 HD 
ENDROOT
BRANCH   3   6
ATOM      6  CA  TYR A   1      -8.662  11.771  66.446  1.00  0.00    -0.147 C  
ATOM      7  C   TYR A   1      -9.635  12.951  66.655  1.00  0.00    -0.257 C  
ATOM      8  O   TYR A   1      -9.007  14.154  66.716  1.00  0.00    -0.242 OA 
ATOM      9  OXT TYR A   1     -10.846  12.854  66.785  1.00  0.00    -0.262 OA 
BRANCH   6  10
ATOM     10  CB  TYR A   1      -9.402  10.475  66.065  1.00  0.00    -0.215 C  
BRANCH  10  11
ATOM     11  CG  TYR A   1      -9.471   9.427  67.155  1.00  0.00    -0.185 A  
ATOM     12  CD1 TYR A   1      -8.619   8.312  67.176  1.00  0.00    -0.123 A  
ATOM     13  CE1 TYR A   1      -8.796   7.295  68.119  1.00  0.00    -0.126 A  
ATOM     14  CZ  TYR A   1      -9.797   7.414  69.073  1.00  0.00    -0.168 A  
ATOM     15  CE2 TYR A   1     -10.592   8.550  69.128  1.00  0.00    -0.188 A  
ATOM     16  OH  TYR A   1     -10.038   6.417  69.970  1.00  0.00    -0.167 OA 
ATOM     17  HH  TYR A   1     -10.723   6.498  70.624  1.00  0.00     0.000 HD 
ATOM     18  CD2 TYR A   1     -10.429   9.555  68.172  1.00  0.00    -0.268 A  
ENDBRANCH  10  11
ENDBRANCH   6  10
ENDBRANCH   3   6
TORSDOF 3
ENDMDL
MODEL      217
REMARK 921   NORMALIZED FREE ENERGY PREDICTED BY IDOCK:   -2.36 KCAL/MOL
REMARK 922        TOTAL FREE ENERGY PREDICTED BY IDOCK:   -3.21 KCAL/MOL
REMARK 923 INTER-LIGAND FREE ENERGY PREDICTED BY IDOCK:   -3.44 KCAL/MOL
REMARK 924 INTRA-LIGAND FREE ENERGY PREDICTED BY IDOCK:    0.23 KCAL/MOL
REMARK 927      BINDING AFFINITY PREDICTED BY RF-SCORE:    0.00 PKD
ROOT
HETATM    1  C   UNK A   0      -9.174   9.678  70.207  1.00  0.00    -0.285 C  
HETATM    2  C   UNK A   0      -9.558   8.458  69.423  1.00  0.00    -0.170 C  
ATOM      3  N   TYR A   1      -8.664   7.418  69.466  1.00  0.00    -0.137 N  
HETATM    4  O   UNK A   0     -10.630   8.356  68.829  1.00  0.00    -0.203 OA 
ATOM      5  H   TYR A   1      -7.771   7.535  69.947  1.00  0.00     0.000 HD 
ENDROOT
BRANCH   3   6
ATOM      6  CA  TYR A   1      -8.986   6.137  68.823  1.00  0.00    -0.123 C  
ATOM      7  C   TYR A   1      -8.948   6.309  67.291  1.00  0.00    -0.113 C  
ATOM      8  O   TYR A   1      -7.694   6.521  66.810  1.00  0.00    -0.096 OA 
ATOM      9  OXT TYR A   1      -9.922   6.292  66.552  1.00  0.00    -0.166 OA 
BRANCH   6  10
ATOM     10  CB  TYR A   1     -10.342   5.588  69.308  1.00  0.00    -0.335 C  
BRANCH  10  11
ATOM     11  CG  TYR A   1     -10.339   5.006  70.705  1.00  0.00    -0.265 A  
ATOM     12  CD1 TYR A   1      -9.785   3.748  70.990  1.00  0.00    -0.248 A  
ATOM     13  CE1 TYR A   1      -9.916   3.180  72.261  1.00  0.00    -0.236 A  
ATOM     14  CZ  TYR A   1     -10.562   3.890  73.263  1.00  0.00    -0.188 A  
ATOM     15  CE2 TYR A   1     -11.038   5.173  73.030  1.00  0.00    -0.379 A  
ATOM     16  OH  TYR A   1     -10.762   3.346  74.496  1.00  0.00    -0.177 OA 
ATOM     17  HH  TYR A   1     -11.204   3.832  75.183  1.00  0.00     0.000 HD 
ATOM     18  CD2 TYR A   1     -10.925   5.730  71.754  1.00  0.00    -0.317 A  
ENDBRANCH  10  11
ENDBRANCH   6  10
ENDBRANCH   3   6
TORSDOF 3
ENDMDL
MODEL      218
REMARK 921   NORMALIZED FREE ENERGY PREDICTED BY IDOCK:   -2.26 KCAL/MOL
REMARK 922        TOTAL FREE ENERGY PREDICTED BY IDOCK:   -3.10 KCAL/MOL
REMARK 923 INTER-LIGAND FREE ENERGY PREDICTED BY IDOCK:   -3.36 KCAL/MOL
REMARK 924 INTRA-LIGAND FREE ENERGY PREDICTED BY IDOCK:    0.26 KCAL/MOL
REMARK 927      BINDING AFFINITY PREDICTED BY RF-SCORE:    0.00 PKD
ROOT
HETATM    1  C   UNK A   0      -9.911   9.385  66.200  1.00  0.00    -0.356 C  
HETATM    2  C   UNK A   0      -9.108   8.169  66.557  1.00  0.00    -0.176 C  
ATOM      3  N   TYR A   1      -8.396   8.249  67.728  1.00  0.00    -0.127 N  
HETATM    4  O   UNK A   0      -9.128   7.137  65.889  1.00  0.00    -0.122 OA 
ATOM      5  H   TYR A   1      -8.378   9.124  68.252  1.00  0.00     0.000 HD 
ENDROOT
BRANCH   3   6
ATOM      6  CA  TYR A   1      -7.661   7.080  68.228  1.00  0.00    -0.111 C  
ATOM      7  C   TYR A   1      -6.432   6.824  67.330  1.00  0.00    -0.049 C  
ATOM      8  O   TYR A   1      -5.480   7.787  67.446  1.00  0.00    -0.033 OA 
ATOM      9  OXT TYR A   1      -6.302   5.884  66.561  1.00  0.00    -0.036 OA 
BRANCH   6  10
ATOM     10  CB  TYR A   1      -8.571   5.840  68.325  1.00  0.00    -0.112 C  
BRANCH  10  11
ATOM     11  CG  TYR A   1      -9.589   5.874  69.445  1.00  0.00    -0.171 A  
ATOM     12  CD1 TYR A   1     -10.902   6.330  69.249  1.00  0.00    -0.406 A  
ATOM     13  CE1 TYR A   1     -11.777   6.475  70.329  1.00  0.00    -0.430 A  
ATOM     14  CZ  TYR A   1     -11.356   6.120  71.603  1.00  0.00    -0.284 A  
ATOM     15  CE2 TYR A   1     -10.093   5.581  71.807  1.00  0.00    -0.247 A  
ATOM     16  OH  TYR A   1     -12.159   6.303  72.688  1.00  0.00    -0.514 OA 
ATOM     17  HH  TYR A   1     -11.870   6.060  73.560  1.00  0.00     0.000 HD 
ATOM     18  CD2 TYR A   1      -9.212   5.457  70.730  1.00  0.00    -0.183 A  
ENDBRANCH  10  11
ENDBRANCH   6  10
ENDBRANCH   3   6
TORSDOF 3
ENDMDL
MODEL      219
REMARK 921   NORMALIZED FREE ENERGY PREDICTED BY IDOCK:   -2.24 KCAL/MOL
REMARK 922        TOTAL FREE ENERGY PREDICTED BY IDOCK:   -3.07 KCAL/MOL
REMARK 923 INTER-LIGAND FREE ENERGY PREDICTED BY IDOCK:   -3.78 KCAL/MOL
REMARK 924 INTRA-LIGAND FREE ENERGY PREDICTED BY IDOCK:    0.71 KCAL/MOL
REMARK 927      BINDING AFFINITY PREDICTED BY RF-SCORE:    0.00 PKD
ROOT
HETATM    1  C   UNK A   0      -9.999  12.232  65.193  1.00  0.00    -0.236 C  
HETATM    2  C   UNK A   0     -10.729  11.874  66.454  1.00  0.00    -0.266 C  
ATOM      3  N   TYR A   1      -9.940  11.629  67.549  1.00  0.00    -0.186 N  
HETATM    4  O   UNK A   0     -11.957  11.862  66.533  1.00  0.00    -0.588 OA 
ATOM      5  H   TYR A   1      -8.925  11.622  67.452  1.00  0.00     0.000 HD 
ENDROOT
BRANCH   3   6
ATOM      6  CA  TYR A   1     -10.552  11.374  68.860  1.00  0.00    -0.202 C  
ATOM      7  C   TYR A   1     -10.705   9.853  69.068  1.00  0.00    -0.222 C  
ATOM      8  O   TYR A   1      -9.515   9.214  69.219  1.00  0.00    -0.153 OA 
ATOM      9  OXT TYR A   1     -11.764   9.242  69.073  1.00  0.00     0.474 OA 
BRANCH   6  10
ATOM     10  CB  TYR A   1     -11.895  12.114  69.009  1.00  0.00    -0.361 C  
BRANCH  10  11
ATOM     11  CG  TYR A   1     -11.790  13.564  69.430  1.00  0.00    -0.389 A  
ATOM     12  CD1 TYR A   1     -11.608  14.601  68.501  1.00  0.00    -0.346 A  
ATOM     13  CE1 TYR A   1     -11.380  15.912  68.929  1.00  0.00    -0.377 A  
ATOM     14  CZ  TYR A   1     -11.381  16.197  70.287  1.00  0.00    -0.353 A  
ATOM     15  CE2 TYR A   1     -11.649  15.205  71.220  1.00  0.00    -0.406 A  
ATOM     16  OH  TYR A   1     -11.104  17.451  70.744  1.00  0.00     0.092 OA 
ATOM     17  HH  TYR A   1     -11.104  17.646  71.674  1.00  0.00     0.000 HD 
ATOM     18  CD2 TYR A   1     -11.854  13.892  70.792  1.00  0.00    -0.257 A  
ENDBRANCH  10  11
ENDBRANCH   6  10
ENDBRANCH   3   6
TORSDOF 3
ENDMDL
MODEL      220
REMARK 921   NORMALIZED FREE ENERGY PREDICTED BY IDOCK:   -2.21 KCAL/MOL
REMARK 922        TOTAL FREE ENERGY PREDICTED BY IDOCK:   -3.04 KCAL/MOL
REMARK 923 INTER-LIGAND FREE ENERGY PREDICTED BY IDOCK:   -2.59 KCAL/MOL
REMARK 924 INTRA-LIGAND FREE ENERGY PREDICTED BY IDOCK:   -0.45 KCAL/MOL
REMARK 927      BINDING AFFINITY PREDICTED BY RF-SCORE:    0.00 PKD
ROOT
HETATM    1  C   UNK A   0      -6.262   8.517  62.752  1.00  0.00    -0.087 C  
HETATM    2  C   UNK A   0      -6.995   8.423  64.058  1.00  0.00    -0.075 C  
ATOM      3  N   TYR A   1      -6.282   7.893  65.104  1.00  0.00    -0.041 N  
HETATM    4  O   UNK A   0      -8.138   8.848  64.212  1.00  0.00    -0.142 OA 
ATOM      5  H   TYR A   1      -5.344   7.526  64.944  1.00  0.00     0.000 HD 
ENDROOT
BRANCH   3   6
ATOM      6  CA  TYR A   1      -6.865   7.853  66.452  1.00  0.00    -0.062 C  
ATOM      7  C   TYR A   1      -5.826   8.358  67.475  1.00  0.00    -0.043 C  
ATOM      8  O   TYR A   1      -5.565   9.686  67.356  1.00  0.00    -0.040 OA 
ATOM      9  OXT TYR A   1      -5.253   7.665  68.303  1.00  0.00    -0.024 OA 
BRANCH   6  10
ATOM     10  CB  TYR A   1      -7.379   6.443  66.801  1.00  0.00    -0.079 C  
BRANCH  10  11
ATOM     11  CG  TYR A   1      -8.676   6.404  67.580  1.00  0.00    -0.113 A  
ATOM     12  CD1 TYR A   1      -9.929   6.472  66.950  1.00  0.00    -0.227 A  
ATOM     13  CE1 TYR A   1     -11.103   6.568  67.702  1.00  0.00    -0.380 A  
ATOM     14  CZ  TYR A   1     -11.030   6.551  69.088  1.00  0.00    -0.323 A  
ATOM     15  CE2 TYR A   1      -9.810   6.394  69.732  1.00  0.00    -0.189 A  
ATOM     16  OH  TYR A   1     -12.146   6.704  69.855  1.00  0.00    -0.641 OA 
ATOM     17  HH  TYR A   1     -12.097   6.692  70.804  1.00  0.00     0.000 HD 
ATOM     18  CD2 TYR A   1      -8.637   6.319  68.979  1.00  0.00    -0.123 A  
ENDBRANCH  10  11
ENDBRANCH   6  10
ENDBRANCH   3   6
TORSDOF 3
ENDMDL
MODEL      221
REMARK 921   NORMALIZED FREE ENERGY PREDICTED BY IDOCK:   -2.19 KCAL/MOL
REMARK 922        TOTAL FREE ENERGY PREDICTED BY IDOCK:   -3.01 KCAL/MOL
REMARK 923 INTER-LIGAND FREE ENERGY PREDICTED BY IDOCK:   -2.58 KCAL/MOL
REMARK 924 INTRA-LIGAND FREE ENERGY PREDICTED BY IDOCK:   -0.42 KCAL/MOL
REMARK 927      BINDING AFFINITY PREDICTED BY RF-SCORE:    0.00 PKD
ROOT
HETATM    1  C   UNK A   0     -10.658   9.327  67.365  1.00  0.00    -0.324 C  
HETATM    2  C   UNK A   0      -9.975   8.635  68.507  1.00  0.00    -0.183 C  
ATOM      3  N   TYR A   1      -8.631   8.409  68.348  1.00  0.00    -0.138 N  
HETATM    4  O   UNK A   0     -10.555   8.340  69.551  1.00  0.00    -0.227 OA 
ATOM      5  H   TYR A   1      -8.179   8.641  67.464  1.00  0.00     0.000 HD 
ENDROOT
BRANCH   3   6
ATOM      6  CA  TYR A   1      -7.842   7.834  69.445  1.00  0.00    -0.115 C  
ATOM      7  C   TYR A   1      -6.829   8.882  69.952  1.00  0.00    -0.046 C  
ATOM      8  O   TYR A   1      -7.419   9.927  70.590  1.00  0.00    -0.284 OA 
ATOM      9  OXT TYR A   1      -5.618   8.830  69.792  1.00  0.00    -0.029 OA 
BRANCH   6  10
ATOM     10  CB  TYR A   1      -7.151   6.525  69.017  1.00  0.00    -0.085 C  
BRANCH  10  11
ATOM     11  CG  TYR A   1      -7.939   5.666  68.052  1.00  0.00    -0.097 A  
ATOM     12  CD1 TYR A   1      -8.997   4.845  68.473  1.00  0.00    -0.131 A  
ATOM     13  CE1 TYR A   1      -9.617   3.965  67.582  1.00  0.00    -0.205 A  
ATOM     14  CZ  TYR A   1      -9.212   3.937  66.255  1.00  0.00    -0.163 A  
ATOM     15  CE2 TYR A   1      -8.230   4.804  65.796  1.00  0.00    -0.112 A  
ATOM     16  OH  TYR A   1      -9.751   3.050  65.372  1.00  0.00    -0.352 OA 
ATOM     17  HH  TYR A   1      -9.474   3.031  64.463  1.00  0.00     0.000 HD 
ATOM     18  CD2 TYR A   1      -7.597   5.667  66.691  1.00  0.00    -0.092 A  
ENDBRANCH  10  11
ENDBRANCH   6  10
ENDBRANCH   3   6
TORSDOF 3
ENDMDL
MODEL      222
REMARK 921   NORMALIZED FREE ENERGY PREDICTED BY IDOCK:   -2.19 KCAL/MOL
REMARK 922        TOTAL FREE ENERGY PREDICTED BY IDOCK:   -3.01 KCAL/MOL
REMARK 923 INTER-LIGAND FREE ENERGY PREDICTED BY IDOCK:   -2.57 KCAL/MOL
REMARK 924 INTRA-LIGAND FREE ENERGY PREDICTED BY IDOCK:   -0.44 KCAL/MOL
REMARK 927      BINDING AFFINITY PREDICTED BY RF-SCORE:    0.00 PKD
ROOT
HETATM    1  C   UNK A   0      -5.652   2.502  67.016  1.00  0.00    -0.018 C  
HETATM    2  C   UNK A   0      -6.802   3.420  67.308  1.00  0.00    -0.046 C  
ATOM      3  N   TYR A   1      -6.480   4.744  67.469  1.00  0.00    -0.044 N  
HETATM    4  O   UNK A   0      -7.970   3.036  67.341  1.00  0.00    -0.076 OA 
ATOM      5  H   TYR A   1      -5.502   5.033  67.461  1.00  0.00     0.000 HD 
ENDROOT
BRANCH   3   6
ATOM      6  CA  TYR A   1      -7.538   5.746  67.654  1.00  0.00    -0.089 C  
ATOM      7  C   TYR A   1      -7.270   6.950  66.727  1.00  0.00    -0.076 C  
ATOM      8  O   TYR A   1      -7.433   6.655  65.410  1.00  0.00    -0.073 OA 
ATOM      9  OXT TYR A   1      -6.919   8.062  67.095  1.00  0.00    -0.071 OA 
BRANCH   6  10
ATOM     10  CB  TYR A   1      -7.661   6.171  69.130  1.00  0.00    -0.100 C  
BRANCH  10  11
ATOM     11  CG  TYR A   1      -9.041   6.624  69.557  1.00  0.00    -0.144 A  
ATOM     12  CD1 TYR A   1      -9.233   7.644  70.502  1.00  0.00    -0.159 A  
ATOM     13  CE1 TYR A   1     -10.513   7.949  70.974  1.00  0.00    -0.223 A  
ATOM     14  CZ  TYR A   1     -11.609   7.265  70.468  1.00  0.00    -0.258 A  
ATOM     15  CE2 TYR A   1     -11.452   6.315  69.468  1.00  0.00    -0.387 A  
ATOM     16  OH  TYR A   1     -12.865   7.492  70.948  1.00  0.00    -0.559 OA 
ATOM     17  HH  TYR A   1     -13.615   7.023  70.601  1.00  0.00     0.000 HD 
ATOM     18  CD2 TYR A   1     -10.171   5.997  69.012  1.00  0.00    -0.245 A  
ENDBRANCH  10  11
ENDBRANCH   6  10
ENDBRANCH   3   6
TORSDOF 3
ENDMDL
MODEL      223
REMARK 921   NORMALIZED FREE ENERGY PREDICTED BY IDOCK:   -2.19 KCAL/MOL
REMARK 922        TOTAL FREE ENERGY PREDICTED BY IDOCK:   -3.01 KCAL/MOL
REMARK 923 INTER-LIGAND FREE ENERGY PREDICTED BY IDOCK:   -2.62 KCAL/MOL
REMARK 924 INTRA-LIGAND FREE ENERGY PREDICTED BY IDOCK:   -0.39 KCAL/MOL
REMARK 927      BINDING AFFINITY PREDICTED BY RF-SCORE:    0.00 PKD
ROOT
HETATM    1  C   UNK A   0      -9.732   3.570  70.638  1.00  0.00    -0.196 C  
HETATM    2  C   UNK A   0      -9.854   4.718  71.596  1.00  0.00    -0.184 C  
ATOM      3  N   TYR A   1     -10.188   5.926  71.037  1.00  0.00    -0.202 N  
HETATM    4  O   UNK A   0      -9.730   4.588  72.812  1.00  0.00    -0.135 OA 
ATOM      5  H   TYR A   1     -10.262   6.014  70.024  1.00  0.00     0.000 HD 
ENDROOT
BRANCH   3   6
ATOM      6  CA  TYR A   1     -10.438   7.094  71.893  1.00  0.00    -0.197 C  
ATOM      7  C   TYR A   1     -11.745   7.784  71.449  1.00  0.00    -0.282 C  
ATOM      8  O   TYR A   1     -12.854   7.042  71.708  1.00  0.00    -0.353 OA 
ATOM      9  OXT TYR A   1     -11.817   8.870  70.893  1.00  0.00    -0.282 OA 
BRANCH   6  10
ATOM     10  CB  TYR A   1      -9.242   8.065  71.886  1.00  0.00    -0.222 C  
BRANCH  10  11
ATOM     11  CG  TYR A   1      -8.351   7.981  70.665  1.00  0.00    -0.123 A  
ATOM     12  CD1 TYR A   1      -7.160   7.238  70.658  1.00  0.00    -0.065 A  
ATOM     13  CE1 TYR A   1      -6.293   7.287  69.563  1.00  0.00    -0.035 A  
ATOM     14  CZ  TYR A   1      -6.637   8.045  68.452  1.00  0.00    -0.059 A  
ATOM     15  CE2 TYR A   1      -7.852   8.715  68.400  1.00  0.00    -0.105 A  
ATOM     16  OH  TYR A   1      -5.791   8.166  67.391  1.00  0.00    -0.040 OA 
ATOM     17  HH  TYR A   1      -6.027   8.684  66.630  1.00  0.00     0.000 HD 
ATOM     18  CD2 TYR A   1      -8.707   8.682  69.503  1.00  0.00    -0.139 A  
ENDBRANCH  10  11
ENDBRANCH   6  10
ENDBRANCH   3   6
TORSDOF 3
ENDMDL
MODEL      224
REMARK 921   NORMALIZED FREE ENERGY PREDICTED BY IDOCK:   -2.18 KCAL/MOL
REMARK 922        TOTAL FREE ENERGY PREDICTED BY IDOCK:   -3.00 KCAL/MOL
REMARK 923 INTER-LIGAND FREE ENERGY PREDICTED BY IDOCK:   -3.07 KCAL/MOL
REMARK 924 INTRA-LIGAND FREE ENERGY PREDICTED BY IDOCK:    0.07 KCAL/MOL
REMARK 927      BINDING AFFINITY PREDICTED BY RF-SCORE:    0.00 PKD
ROOT
HETATM    1  C   UNK A   0      -8.078   5.833  67.759  1.00  0.00    -0.102 C  
HETATM    2  C   UNK A   0      -8.382   7.294  67.914  1.00  0.00    -0.119 C  
ATOM      3  N   TYR A   1      -7.524   7.998  68.721  1.00  0.00    -0.089 N  
HETATM    4  O   UNK A   0      -9.298   7.851  67.312  1.00  0.00    -0.140 OA 
ATOM      5  H   TYR A   1      -6.786   7.508  69.228  1.00  0.00     0.000 HD 
ENDROOT
BRANCH   3   6
ATOM      6  CA  TYR A   1      -7.664   9.453  68.859  1.00  0.00    -0.076 C  
ATOM      7  C   TYR A   1      -6.533   9.994  69.758  1.00  0.00    -0.064 C  
ATOM      8  O   TYR A   1      -5.307   9.916  69.176  1.00  0.00    -0.036 OA 
ATOM      9  OXT TYR A   1      -6.676  10.430  70.891  1.00  0.00    -0.341 OA 
BRANCH   6  10
ATOM     10  CB  TYR A   1      -9.058   9.837  69.393  1.00  0.00    -0.209 C  
BRANCH  10  11
ATOM     11  CG  TYR A   1      -9.680  11.059  68.752  1.00  0.00    -0.199 A  
ATOM     12  CD1 TYR A   1      -8.917  12.177  68.378  1.00  0.00    -0.146 A  
ATOM     13  CE1 TYR A   1      -9.536  13.341  67.912  1.00  0.00    -0.217 A  
ATOM     14  CZ  TYR A   1     -10.917  13.373  67.775  1.00  0.00    -0.262 A  
ATOM     15  CE2 TYR A   1     -11.683  12.249  68.052  1.00  0.00    -0.417 A  
ATOM     16  OH  TYR A   1     -11.560  14.508  67.381  1.00  0.00    -0.353 OA 
ATOM     17  HH  TYR A   1     -12.506  14.530  67.287  1.00  0.00     0.000 HD 
ATOM     18  CD2 TYR A   1     -11.066  11.095  68.538  1.00  0.00    -0.298 A  
ENDBRANCH  10  11
ENDBRANCH   6  10
ENDBRANCH   3   6
TORSDOF 3
ENDMDL
MODEL      225
REMARK 921   NORMALIZED FREE ENERGY PREDICTED BY IDOCK:   -2.17 KCAL/MOL
REMARK 922        TOTAL FREE ENERGY PREDICTED BY IDOCK:   -2.99 KCAL/MOL
REMARK 923 INTER-LIGAND FREE ENERGY PREDICTED BY IDOCK:   -3.39 KCAL/MOL
REMARK 924 INTRA-LIGAND FREE ENERGY PREDICTED BY IDOCK:    0.40 KCAL/MOL
REMARK 927      BINDING AFFINITY PREDICTED BY RF-SCORE:    0.00 PKD
ROOT
HETATM    1  C   UNK A   0     -11.707  11.306  69.496  1.00  0.00    -0.415 C  
HETATM    2  C   UNK A   0     -10.995  10.022  69.809  1.00  0.00    -0.276 C  
ATOM      3  N   TYR A   1     -11.225   8.987  68.939  1.00  0.00    -0.409 N  
HETATM    4  O   UNK A   0     -10.205   9.910  70.744  1.00  0.00    -0.240 OA 
ATOM      5  H   TYR A   1     -11.904   9.098  68.185  1.00  0.00     0.000 HD 
ENDROOT
BRANCH   3   6
ATOM      6  CA  TYR A   1     -10.500   7.718  69.089  1.00  0.00    -0.211 C  
ATOM      7  C   TYR A   1     -10.817   7.106  70.469  1.00  0.00    -0.246 C  
ATOM      8  O   TYR A   1     -12.101   6.673  70.577  1.00  0.00    -0.390 OA 
ATOM      9  OXT TYR A   1     -10.034   7.026  71.405  1.00  0.00    -0.185 OA 
BRANCH   6  10
ATOM     10  CB  TYR A   1      -8.985   7.907  68.877  1.00  0.00    -0.141 C  
BRANCH  10  11
ATOM     11  CG  TYR A   1      -8.546   8.020  67.433  1.00  0.00    -0.125 A  
ATOM     12  CD1 TYR A   1      -8.209   9.251  66.848  1.00  0.00    -0.119 A  
ATOM     13  CE1 TYR A   1      -7.937   9.341  65.480  1.00  0.00    -0.104 A  
ATOM     14  CZ  TYR A   1      -7.955   8.192  64.702  1.00  0.00    -0.149 A  
ATOM     15  CE2 TYR A   1      -8.196   6.951  65.276  1.00  0.00    -0.129 A  
ATOM     16  OH  TYR A   1      -7.753   8.249  63.355  1.00  0.00    -0.127 OA 
ATOM     17  HH  TYR A   1      -7.766   7.462  62.822  1.00  0.00     0.000 HD 
ATOM     18  CD2 TYR A   1      -8.489   6.866  66.638  1.00  0.00    -0.121 A  
ENDBRANCH  10  11
ENDBRANCH   6  10
ENDBRANCH   3   6
TORSDOF 3
ENDMDL
MODEL      226
REMARK 921   NORMALIZED FREE ENERGY PREDICTED BY IDOCK:   -2.17 KCAL/MOL
REMARK 922        TOTAL FREE ENERGY PREDICTED BY IDOCK:   -2.99 KCAL/MOL
REMARK 923 INTER-LIGAND FREE ENERGY PREDICTED BY IDOCK:   -2.56 KCAL/MOL
REMARK 924 INTRA-LIGAND FREE ENERGY PREDICTED BY IDOCK:   -0.42 KCAL/MOL
REMARK 927      BINDING AFFINITY PREDICTED BY RF-SCORE:    0.00 PKD
ROOT
HETATM    1  C   UNK A   0     -10.476   9.437  67.396  1.00  0.00    -0.343 C  
HETATM    2  C   UNK A   0     -10.192   8.911  68.773  1.00  0.00    -0.206 C  
ATOM      3  N   TYR A   1      -9.099   8.089  68.882  1.00  0.00    -0.145 N  
HETATM    4  O   UNK A   0     -10.849   9.238  69.760  1.00  0.00    -0.230 OA 
ATOM      5  H   TYR A   1      -8.585   7.814  68.044  1.00  0.00     0.000 HD 
ENDROOT
BRANCH   3   6
ATOM      6  CA  TYR A   1      -8.666   7.603  70.199  1.00  0.00    -0.141 C  
ATOM      7  C   TYR A   1      -7.348   8.301  70.595  1.00  0.00    -0.057 C  
ATOM      8  O   TYR A   1      -7.505   9.625  70.856  1.00  0.00    -0.302 OA 
ATOM      9  OXT TYR A   1      -6.252   7.763  70.651  1.00  0.00    -0.037 OA 
BRANCH   6  10
ATOM     10  CB  TYR A   1      -8.534   6.068  70.218  1.00  0.00    -0.124 C  
BRANCH  10  11
ATOM     11  CG  TYR A   1      -9.115   5.386  71.437  1.00  0.00    -0.163 A  
ATOM     12  CD1 TYR A   1      -8.320   5.000  72.528  1.00  0.00    -0.117 A  
ATOM     13  CE1 TYR A   1      -8.861   4.254  73.579  1.00  0.00    -0.093 A  
ATOM     14  CZ  TYR A   1     -10.211   3.932  73.564  1.00  0.00    -0.143 A  
ATOM     15  CE2 TYR A   1     -11.036   4.381  72.541  1.00  0.00    -0.044 A  
ATOM     16  OH  TYR A   1     -10.762   3.156  74.539  1.00  0.00    -0.163 OA 
ATOM     17  HH  TYR A   1     -11.686   2.936  74.529  1.00  0.00     0.000 HD 
ATOM     18  CD2 TYR A   1     -10.489   5.107  71.481  1.00  0.00    -0.256 A  
ENDBRANCH  10  11
ENDBRANCH   6  10
ENDBRANCH   3   6
TORSDOF 3
ENDMDL
MODEL      227
REMARK 921   NORMALIZED FREE ENERGY PREDICTED BY IDOCK:   -2.17 KCAL/MOL
REMARK 922        TOTAL FREE ENERGY PREDICTED BY IDOCK:   -2.98 KCAL/MOL
REMARK 923 INTER-LIGAND FREE ENERGY PREDICTED BY IDOCK:   -3.38 KCAL/MOL
REMARK 924 INTRA-LIGAND FREE ENERGY PREDICTED BY IDOCK:    0.40 KCAL/MOL
REMARK 927      BINDING AFFINITY PREDICTED BY RF-SCORE:    0.00 PKD
ROOT
HETATM    1  C   UNK A   0     -10.215   3.881  64.758  1.00  0.00    -0.196 C  
HETATM    2  C   UNK A   0      -9.611   4.691  65.867  1.00  0.00    -0.185 C  
ATOM      3  N   TYR A   1      -9.587   6.048  65.669  1.00  0.00    -0.363 N  
HETATM    4  O   UNK A   0      -9.218   4.190  66.920  1.00  0.00    -0.132 OA 
ATOM      5  H   TYR A   1      -9.897   6.436  64.778  1.00  0.00     0.000 HD 
ENDROOT
BRANCH   3   6
ATOM      6  CA  TYR A   1      -9.116   6.944  66.733  1.00  0.00    -0.145 C  
ATOM      7  C   TYR A   1      -7.622   6.673  67.007  1.00  0.00    -0.095 C  
ATOM      8  O   TYR A   1      -6.815   7.056  65.983  1.00  0.00    -0.054 OA 
ATOM      9  OXT TYR A   1      -7.172   6.145  68.014  1.00  0.00    -0.079 OA 
BRANCH   6  10
ATOM     10  CB  TYR A   1      -9.971   6.803  68.007  1.00  0.00    -0.162 C  
BRANCH  10  11
ATOM     11  CG  TYR A   1     -10.410   8.108  68.636  1.00  0.00    -0.224 A  
ATOM     12  CD1 TYR A   1     -10.563   8.255  70.024  1.00  0.00    -0.235 A  
ATOM     13  CE1 TYR A   1     -11.096   9.428  70.564  1.00  0.00    -0.330 A  
ATOM     14  CZ  TYR A   1     -11.436  10.477  69.721  1.00  0.00    -0.294 A  
ATOM     15  CE2 TYR A   1     -11.209  10.388  68.354  1.00  0.00    -0.318 A  
ATOM     16  OH  TYR A   1     -12.014  11.612  70.204  1.00  0.00    -0.327 OA 
ATOM     17  HH  TYR A   1     -12.246  12.330  69.626  1.00  0.00     0.000 HD 
ATOM     18  CD2 TYR A   1     -10.696   9.207  67.814  1.00  0.00    -0.243 A  
ENDBRANCH  10  11
ENDBRANCH   6  10
ENDBRANCH   3   6
TORSDOF 3
ENDMDL
MODEL      228
REMARK 921   NORMALIZED FREE ENERGY PREDICTED BY IDOCK:   -2.14 KCAL/MOL
REMARK 922        TOTAL FREE ENERGY PREDICTED BY IDOCK:   -2.95 KCAL/MOL
REMARK 923 INTER-LIGAND FREE ENERGY PREDICTED BY IDOCK:   -2.52 KCAL/MOL
REMARK 924 INTRA-LIGAND FREE ENERGY PREDICTED BY IDOCK:   -0.43 KCAL/MOL
REMARK 927      BINDING AFFINITY PREDICTED BY RF-SCORE:    0.00 PKD
ROOT
HETATM    1  C   UNK A   0      -6.438   3.089  67.147  1.00  0.00    -0.036 C  
HETATM    2  C   UNK A   0      -7.422   4.203  66.939  1.00  0.00    -0.077 C  
ATOM      3  N   TYR A   1      -7.147   5.053  65.898  1.00  0.00    -0.066 N  
HETATM    4  O   UNK A   0      -8.446   4.321  67.609  1.00  0.00    -0.098 OA 
ATOM      5  H   TYR A   1      -6.279   4.948  65.373  1.00  0.00     0.000 HD 
ENDROOT
BRANCH   3   6
ATOM      6  CA  TYR A   1      -8.097   6.114  65.538  1.00  0.00    -0.131 C  
ATOM      7  C   TYR A   1      -8.334   6.094  64.014  1.00  0.00     0.059 C  
ATOM      8  O   TYR A   1      -9.016   4.996  63.596  1.00  0.00    -0.088 OA 
ATOM      9  OXT TYR A   1      -7.942   6.942  63.226  1.00  0.00    -0.117 OA 
BRANCH   6  10
ATOM     10  CB  TYR A   1      -7.615   7.493  66.029  1.00  0.00    -0.088 C  
BRANCH  10  11
ATOM     11  CG  TYR A   1      -8.710   8.506  66.284  1.00  0.00    -0.164 A  
ATOM     12  CD1 TYR A   1      -8.960   9.573  65.406  1.00  0.00    -0.244 A  
ATOM     13  CE1 TYR A   1      -9.887  10.566  65.735  1.00  0.00    -0.295 A  
ATOM     14  CZ  TYR A   1     -10.601  10.470  66.922  1.00  0.00    -0.243 A  
ATOM     15  CE2 TYR A   1     -10.435   9.377  67.761  1.00  0.00    -0.310 A  
ATOM     16  OH  TYR A   1     -11.468  11.448  67.304  1.00  0.00    -0.441 OA 
ATOM     17  HH  TYR A   1     -11.956  11.383  68.117  1.00  0.00     0.000 HD 
ATOM     18  CD2 TYR A   1      -9.493   8.397  67.442  1.00  0.00    -0.185 A  
ENDBRANCH  10  11
ENDBRANCH   6  10
ENDBRANCH   3   6
TORSDOF 3
ENDMDL
MODEL      229
REMARK 921   NORMALIZED FREE ENERGY PREDICTED BY IDOCK:   -2.13 KCAL/MOL
REMARK 922        TOTAL FREE ENERGY PREDICTED BY IDOCK:   -2.94 KCAL/MOL
REMARK 923 INTER-LIGAND FREE ENERGY PREDICTED BY IDOCK:   -3.57 KCAL/MOL
REMARK 924 INTRA-LIGAND FREE ENERGY PREDICTED BY IDOCK:    0.63 KCAL/MOL
REMARK 927      BINDING AFFINITY PREDICTED BY RF-SCORE:    0.00 PKD
ROOT
HETATM    1  C   UNK A   0      -5.149   8.373  72.650  1.00  0.00    -0.039 C  
HETATM    2  C   UNK A   0      -6.436   8.457  71.883  1.00  0.00    -0.067 C  
ATOM      3  N   TYR A   1      -7.546   7.977  72.529  1.00  0.00    -0.106 N  
HETATM    4  O   UNK A   0      -6.516   8.977  70.771  1.00  0.00    -0.045 OA 
ATOM      5  H   TYR A   1      -7.449   7.529  73.441  1.00  0.00     0.000 HD 
ENDROOT
BRANCH   3   6
ATOM      6  CA  TYR A   1      -8.874   8.106  71.915  1.00  0.00    -0.159 C  
ATOM      7  C   TYR A   1      -9.817   7.036  72.504  1.00  0.00    -0.154 C  
ATOM      8  O   TYR A   1     -10.124   7.257  73.809  1.00  0.00    -0.326 OA 
ATOM      9  OXT TYR A   1     -10.244   6.061  71.903  1.00  0.00    -0.193 OA 
BRANCH   6  10
ATOM     10  CB  TYR A   1      -8.795   8.021  70.378  1.00  0.00    -0.141 C  
BRANCH  10  11
ATOM     11  CG  TYR A   1      -9.759   8.918  69.633  1.00  0.00    -0.175 A  
ATOM     12  CD1 TYR A   1      -9.877   8.890  68.234  1.00  0.00    -0.187 A  
ATOM     13  CE1 TYR A   1     -10.677   9.822  67.566  1.00  0.00    -0.327 A  
ATOM     14  CZ  TYR A   1     -11.397  10.755  68.298  1.00  0.00    -0.309 A  
ATOM     15  CE2 TYR A   1     -11.366  10.744  69.685  1.00  0.00    -0.362 A  
ATOM     16  OH  TYR A   1     -12.139  11.716  67.679  1.00  0.00    -0.615 OA 
ATOM     17  HH  TYR A   1     -12.632  12.355  68.181  1.00  0.00     0.000 HD 
ATOM     18  CD2 TYR A   1     -10.550   9.827  70.351  1.00  0.00    -0.365 A  
ENDBRANCH  10  11
ENDBRANCH   6  10
ENDBRANCH   3   6
TORSDOF 3
ENDMDL
MODEL      230
REMARK 921   NORMALIZED FREE ENERGY PREDICTED BY IDOCK:   -2.11 KCAL/MOL
REMARK 922        TOTAL FREE ENERGY PREDICTED BY IDOCK:   -2.92 KCAL/MOL
REMARK 923 INTER-LIGAND FREE ENERGY PREDICTED BY IDOCK:   -3.92 KCAL/MOL
REMARK 924 INTRA-LIGAND FREE ENERGY PREDICTED BY IDOCK:    1.00 KCAL/MOL
REMARK 927      BINDING AFFINITY PREDICTED BY RF-SCORE:    0.00 PKD
ROOT
HETATM    1  C   UNK A   0     -10.190  18.044  66.442  1.00  0.00    -0.393 C  
HETATM    2  C   UNK A   0     -10.045  16.554  66.539  1.00  0.00    -0.299 C  
ATOM      3  N   TYR A   1      -9.809  16.060  67.797  1.00  0.00    -0.229 N  
HETATM    4  O   UNK A   0     -10.191  15.806  65.574  1.00  0.00    -0.344 OA 
ATOM      5  H   TYR A   1      -9.669  16.703  68.577  1.00  0.00     0.000 HD 
ENDROOT
BRANCH   3   6
ATOM      6  CA  TYR A   1      -9.756  14.610  68.025  1.00  0.00    -0.216 C  
ATOM      7  C   TYR A   1      -8.579  14.008  67.230  1.00  0.00    -0.216 C  
ATOM      8  O   TYR A   1      -7.365  14.381  67.714  1.00  0.00    -0.138 OA 
ATOM      9  OXT TYR A   1      -8.683  13.291  66.246  1.00  0.00     0.108 OA 
BRANCH   6  10
ATOM     10  CB  TYR A   1     -11.096  13.935  67.671  1.00  0.00    -0.295 C  
BRANCH  10  11
ATOM     11  CG  TYR A   1     -11.296  12.554  68.258  1.00  0.00    -0.331 A  
ATOM     12  CD1 TYR A   1     -12.162  12.320  69.339  1.00  0.00    -0.120 A  
ATOM     13  CE1 TYR A   1     -12.225  11.061  69.944  1.00  0.00    -0.408 A  
ATOM     14  CZ  TYR A   1     -11.457  10.021  69.440  1.00  0.00    -0.083 A  
ATOM     15  CE2 TYR A   1     -10.663  10.206  68.316  1.00  0.00    -0.277 A  
ATOM     16  OH  TYR A   1     -11.446   8.797  70.039  1.00  0.00    -0.449 OA 
ATOM     17  HH  TYR A   1     -10.920   8.085  69.694  1.00  0.00     0.000 HD 
ATOM     18  CD2 TYR A   1     -10.584  11.469  67.726  1.00  0.00    -0.227 A  
ENDBRANCH  10  11
ENDBRANCH   6  10
ENDBRANCH   3   6
TORSDOF 3
ENDMDL
MODEL      231
REMARK 921   NORMALIZED FREE ENERGY PREDICTED BY IDOCK:   -2.09 KCAL/MOL
REMARK 922        TOTAL FREE ENERGY PREDICTED BY IDOCK:   -2.89 KCAL/MOL
REMARK 923 INTER-LIGAND FREE ENERGY PREDICTED BY IDOCK:   -2.50 KCAL/MOL
REMARK 924 INTRA-LIGAND FREE ENERGY PREDICTED BY IDOCK:   -0.39 KCAL/MOL
REMARK 927      BINDING AFFINITY PREDICTED BY RF-SCORE:    0.00 PKD
ROOT
HETATM    1  C   UNK A   0      -7.624   4.049  70.042  1.00  0.00    -0.049 C  
HETATM    2  C   UNK A   0      -8.246   5.412  70.118  1.00  0.00    -0.100 C  
ATOM      3  N   TYR A   1      -9.331   5.617  69.304  1.00  0.00    -0.119 N  
HETATM    4  O   UNK A   0      -7.859   6.278  70.900  1.00  0.00    -0.102 OA 
ATOM      5  H   TYR A   1      -9.618   4.891  68.647  1.00  0.00     0.000 HD 
ENDROOT
BRANCH   3   6
ATOM      6  CA  TYR A   1     -10.082   6.878  69.375  1.00  0.00    -0.167 C  
ATOM      7  C   TYR A   1     -11.377   6.658  70.184  1.00  0.00    -0.382 C  
ATOM      8  O   TYR A   1     -11.149   6.430  71.503  1.00  0.00    -0.252 OA 
ATOM      9  OXT TYR A   1     -12.509   6.654  69.720  1.00  0.00     0.336 OA 
BRANCH   6  10
ATOM     10  CB  TYR A   1     -10.368   7.443  67.970  1.00  0.00    -0.247 C  
BRANCH  10  11
ATOM     11  CG  TYR A   1      -9.810   8.824  67.704  1.00  0.00    -0.228 A  
ATOM     12  CD1 TYR A   1      -8.936   9.461  68.599  1.00  0.00    -0.132 A  
ATOM     13  CE1 TYR A   1      -8.543  10.787  68.392  1.00  0.00    -0.141 A  
ATOM     14  CZ  TYR A   1      -8.988  11.464  67.265  1.00  0.00    -0.159 A  
ATOM     15  CE2 TYR A   1      -9.780  10.825  66.321  1.00  0.00    -0.248 A  
ATOM     16  OH  TYR A   1      -8.676  12.775  67.061  1.00  0.00    -0.202 OA 
ATOM     17  HH  TYR A   1      -8.980  13.238  66.289  1.00  0.00     0.000 HD 
ATOM     18  CD2 TYR A   1     -10.188   9.508  66.540  1.00  0.00    -0.307 A  
ENDBRANCH  10  11
ENDBRANCH   6  10
ENDBRANCH   3   6
TORSDOF 3
ENDMDL
MODEL      232
REMARK 921   NORMALIZED FREE ENERGY PREDICTED BY IDOCK:   -2.06 KCAL/MOL
REMARK 922        TOTAL FREE ENERGY PREDICTED BY IDOCK:   -2.86 KCAL/MOL
REMARK 923 INTER-LIGAND FREE ENERGY PREDICTED BY IDOCK:   -2.43 KCAL/MOL
REMARK 924 INTRA-LIGAND FREE ENERGY PREDICTED BY IDOCK:   -0.43 KCAL/MOL
REMARK 927      BINDING AFFINITY PREDICTED BY RF-SCORE:    0.00 PKD
ROOT
HETATM    1  C   UNK A   0      -9.529   2.567  69.716  1.00  0.00    -0.130 C  
HETATM    2  C   UNK A   0      -8.721   3.592  70.457  1.00  0.00    -0.074 C  
ATOM      3  N   TYR A   1      -9.442   4.544  71.133  1.00  0.00    -0.149 N  
HETATM    4  O   UNK A   0      -7.493   3.557  70.516  1.00  0.00    -0.040 OA 
ATOM      5  H   TYR A   1     -10.459   4.565  71.048  1.00  0.00     0.000 HD 
ENDROOT
BRANCH   3   6
ATOM      6  CA  TYR A   1      -8.757   5.531  71.977  1.00  0.00    -0.131 C  
ATOM      7  C   TYR A   1      -9.175   5.326  73.448  1.00  0.00    -0.131 C  
ATOM      8  O   TYR A   1      -8.699   4.170  73.980  1.00  0.00    -0.096 OA 
ATOM      9  OXT TYR A   1      -9.882   6.085  74.095  1.00  0.00    -0.176 OA 
BRANCH   6  10
ATOM     10  CB  TYR A   1      -9.029   6.970  71.495  1.00  0.00    -0.139 C  
BRANCH  10  11
ATOM     11  CG  TYR A   1      -9.173   7.131  69.998  1.00  0.00    -0.144 A  
ATOM     12  CD1 TYR A   1      -8.095   6.947  69.118  1.00  0.00    -0.121 A  
ATOM     13  CE1 TYR A   1      -8.226   7.233  67.756  1.00  0.00    -0.119 A  
ATOM     14  CZ  TYR A   1      -9.451   7.661  67.263  1.00  0.00    -0.148 A  
ATOM     15  CE2 TYR A   1     -10.555   7.764  68.098  1.00  0.00    -0.182 A  
ATOM     16  OH  TYR A   1      -9.601   8.007  65.953  1.00  0.00    -0.427 OA 
ATOM     17  HH  TYR A   1     -10.440   8.300  65.615  1.00  0.00     0.000 HD 
ATOM     18  CD2 TYR A   1     -10.417   7.498  69.461  1.00  0.00    -0.227 A  
ENDBRANCH  10  11
ENDBRANCH   6  10
ENDBRANCH   3   6
TORSDOF 3
ENDMDL
MODEL      233
REMARK 921   NORMALIZED FREE ENERGY PREDICTED BY IDOCK:   -2.00 KCAL/MOL
REMARK 922        TOTAL FREE ENERGY PREDICTED BY IDOCK:   -2.79 KCAL/MOL
REMARK 923 INTER-LIGAND FREE ENERGY PREDICTED BY IDOCK:   -2.98 KCAL/MOL
REMARK 924 INTRA-LIGAND FREE ENERGY PREDICTED BY IDOCK:    0.19 KCAL/MOL
REMARK 927      BINDING AFFINITY PREDICTED BY RF-SCORE:    0.00 PKD
ROOT
HETATM    1  C   UNK A   0     -11.734  12.025  63.466  1.00  0.00    -0.566 C  
HETATM    2  C   UNK A   0     -10.794  11.552  64.536  1.00  0.00    -0.327 C  
ATOM      3  N   TYR A   1     -10.388  12.505  65.435  1.00  0.00    -0.278 N  
HETATM    4  O   UNK A   0     -10.452  10.376  64.650  1.00  0.00    -0.259 OA 
ATOM      5  H   TYR A   1     -10.667  13.478  65.304  1.00  0.00     0.000 HD 
ENDROOT
BRANCH   3   6
ATOM      6  CA  TYR A   1      -9.554  12.131  66.584  1.00  0.00    -0.220 C  
ATOM      7  C   TYR A   1      -9.179  13.399  67.379  1.00  0.00    -0.213 C  
ATOM      8  O   TYR A   1     -10.239  13.963  68.014  1.00  0.00    -0.234 OA 
ATOM      9  OXT TYR A   1      -8.062  13.895  67.435  1.00  0.00    -0.170 OA 
BRANCH   6  10
ATOM     10  CB  TYR A   1      -8.309  11.338  66.143  1.00  0.00    -0.111 C  
BRANCH  10  11
ATOM     11  CG  TYR A   1      -7.999  10.110  66.971  1.00  0.00    -0.110 A  
ATOM     12  CD1 TYR A   1      -8.314  10.031  68.337  1.00  0.00    -0.111 A  
ATOM     13  CE1 TYR A   1      -7.897   8.940  69.105  1.00  0.00    -0.093 A  
ATOM     14  CZ  TYR A   1      -7.204   7.902  68.498  1.00  0.00    -0.085 A  
ATOM     15  CE2 TYR A   1      -6.961   7.916  67.131  1.00  0.00    -0.074 A  
ATOM     16  OH  TYR A   1      -6.729   6.851  69.224  1.00  0.00    -0.046 OA 
ATOM     17  HH  TYR A   1      -6.254   6.140  68.808  1.00  0.00     0.000 HD 
ATOM     18  CD2 TYR A   1      -7.359   9.017  66.370  1.00  0.00    -0.088 A  
ENDBRANCH  10  11
ENDBRANCH   6  10
ENDBRANCH   3   6
TORSDOF 3
ENDMDL
MODEL      234
REMARK 921   NORMALIZED FREE ENERGY PREDICTED BY IDOCK:   -1.99 KCAL/MOL
REMARK 922        TOTAL FREE ENERGY PREDICTED BY IDOCK:   -2.78 KCAL/MOL
REMARK 923 INTER-LIGAND FREE ENERGY PREDICTED BY IDOCK:   -2.52 KCAL/MOL
REMARK 924 INTRA-LIGAND FREE ENERGY PREDICTED BY IDOCK:   -0.25 KCAL/MOL
REMARK 927      BINDING AFFINITY PREDICTED BY RF-SCORE:    0.00 PKD
ROOT
HETATM    1  C   UNK A   0      -9.040   9.673  69.776  1.00  0.00    -0.232 C  
HETATM    2  C   UNK A   0      -9.727   8.427  69.301  1.00  0.00    -0.177 C  
ATOM      3  N   TYR A   1      -9.173   7.245  69.723  1.00  0.00    -0.141 N  
HETATM    4  O   UNK A   0     -10.758   8.448  68.631  1.00  0.00    -0.155 OA 
ATOM      5  H   TYR A   1      -8.305   7.254  70.259  1.00  0.00     0.000 HD 
ENDROOT
BRANCH   3   6
ATOM      6  CA  TYR A   1      -9.825   5.967  69.407  1.00  0.00    -0.163 C  
ATOM      7  C   TYR A   1     -10.505   5.411  70.675  1.00  0.00    -0.259 C  
ATOM      8  O   TYR A   1     -11.577   6.146  71.071  1.00  0.00    -0.303 OA 
ATOM      9  OXT TYR A   1     -10.134   4.431  71.305  1.00  0.00    -0.186 OA 
BRANCH   6  10
ATOM     10  CB  TYR A   1      -8.829   4.961  68.798  1.00  0.00    -0.114 C  
BRANCH  10  11
ATOM     11  CG  TYR A   1      -8.615   5.089  67.305  1.00  0.00    -0.104 A  
ATOM     12  CD1 TYR A   1      -8.560   6.335  66.662  1.00  0.00    -0.119 A  
ATOM     13  CE1 TYR A   1      -8.495   6.417  65.268  1.00  0.00    -0.102 A  
ATOM     14  CZ  TYR A   1      -8.440   5.252  64.516  1.00  0.00    -0.133 A  
ATOM     15  CE2 TYR A   1      -8.402   4.010  65.135  1.00  0.00    -0.105 A  
ATOM     16  OH  TYR A   1      -8.437   5.291  63.154  1.00  0.00    -0.126 OA 
ATOM     17  HH  TYR A   1      -8.399   4.493  62.639  1.00  0.00     0.000 HD 
ATOM     18  CD2 TYR A   1      -8.488   3.929  66.527  1.00  0.00    -0.105 A  
ENDBRANCH  10  11
ENDBRANCH   6  10
ENDBRANCH   3   6
TORSDOF 3
ENDMDL
MODEL      235
REMARK 921   NORMALIZED FREE ENERGY PREDICTED BY IDOCK:   -1.99 KCAL/MOL
REMARK 922        TOTAL FREE ENERGY PREDICTED BY IDOCK:   -2.78 KCAL/MOL
REMARK 923 INTER-LIGAND FREE ENERGY PREDICTED BY IDOCK:   -3.04 KCAL/MOL
REMARK 924 INTRA-LIGAND FREE ENERGY PREDICTED BY IDOCK:    0.26 KCAL/MOL
REMARK 927      BINDING AFFINITY PREDICTED BY RF-SCORE:    0.00 PKD
ROOT
HETATM    1  C   UNK A   0     -10.537   3.370  63.763  1.00  0.00    -0.265 C  
HETATM    2  C   UNK A   0      -9.275   4.019  64.252  1.00  0.00    -0.147 C  
ATOM      3  N   TYR A   1      -9.266   5.391  64.232  1.00  0.00    -0.314 N  
HETATM    4  O   UNK A   0      -8.327   3.379  64.703  1.00  0.00    -0.092 OA 
ATOM      5  H   TYR A   1     -10.055   5.898  63.830  1.00  0.00     0.000 HD 
ENDROOT
BRANCH   3   6
ATOM      6  CA  TYR A   1      -8.125   6.132  64.785  1.00  0.00    -0.132 C  
ATOM      7  C   TYR A   1      -6.915   5.994  63.837  1.00  0.00    -0.050 C  
ATOM      8  O   TYR A   1      -7.087   6.646  62.657  1.00  0.00    -0.045 OA 
ATOM      9  OXT TYR A   1      -5.902   5.352  64.071  1.00  0.00    -0.020 OA 
BRANCH   6  10
ATOM     10  CB  TYR A   1      -7.791   5.667  66.216  1.00  0.00    -0.100 C  
BRANCH  10  11
ATOM     11  CG  TYR A   1      -8.867   5.930  67.247  1.00  0.00    -0.106 A  
ATOM     12  CD1 TYR A   1      -9.311   4.938  68.135  1.00  0.00    -0.164 A  
ATOM     13  CE1 TYR A   1     -10.396   5.172  68.984  1.00  0.00    -0.205 A  
ATOM     14  CZ  TYR A   1     -11.013   6.415  68.979  1.00  0.00    -0.348 A  
ATOM     15  CE2 TYR A   1     -10.534   7.440  68.174  1.00  0.00    -0.241 A  
ATOM     16  OH  TYR A   1     -12.110   6.661  69.748  1.00  0.00    -0.638 OA 
ATOM     17  HH  TYR A   1     -12.532   7.513  69.745  1.00  0.00     0.000 HD 
ATOM     18  CD2 TYR A   1      -9.463   7.198  67.312  1.00  0.00    -0.169 A  
ENDBRANCH  10  11
ENDBRANCH   6  10
ENDBRANCH   3   6
TORSDOF 3
ENDMDL
MODEL      236
REMARK 921   NORMALIZED FREE ENERGY PREDICTED BY IDOCK:   -1.97 KCAL/MOL
REMARK 922        TOTAL FREE ENERGY PREDICTED BY IDOCK:   -2.75 KCAL/MOL
REMARK 923 INTER-LIGAND FREE ENERGY PREDICTED BY IDOCK:   -2.94 KCAL/MOL
REMARK 924 INTRA-LIGAND FREE ENERGY PREDICTED BY IDOCK:    0.19 KCAL/MOL
REMARK 927      BINDING AFFINITY PREDICTED BY RF-SCORE:    0.00 PKD
ROOT
HETATM    1  C   UNK A   0      -7.349   3.875  70.252  1.00  0.00    -0.042 C  
HETATM    2  C   UNK A   0      -7.968   5.163  70.710  1.00  0.00    -0.096 C  
ATOM      3  N   TYR A   1      -8.971   5.657  69.914  1.00  0.00    -0.127 N  
HETATM    4  O   UNK A   0      -7.652   5.718  71.760  1.00  0.00    -0.092 OA 
ATOM      5  H   TYR A   1      -9.198   5.191  69.035  1.00  0.00     0.000 HD 
ENDROOT
BRANCH   3   6
ATOM      6  CA  TYR A   1      -9.718   6.854  70.322  1.00  0.00    -0.172 C  
ATOM      7  C   TYR A   1     -11.161   6.455  70.695  1.00  0.00    -0.317 C  
ATOM      8  O   TYR A   1     -11.231   5.718  71.834  1.00  0.00    -0.264 OA 
ATOM      9  OXT TYR A   1     -12.161   6.729  70.047  1.00  0.00    -0.242 OA 
BRANCH   6  10
ATOM     10  CB  TYR A   1      -9.685   7.939  69.228  1.00  0.00    -0.159 C  
BRANCH  10  11
ATOM     11  CG  TYR A   1     -10.477   9.191  69.538  1.00  0.00    -0.226 A  
ATOM     12  CD1 TYR A   1     -10.715   9.619  70.854  1.00  0.00    -0.402 A  
ATOM     13  CE1 TYR A   1     -11.561  10.701  71.111  1.00  0.00    -0.127 A  
ATOM     14  CZ  TYR A   1     -12.133  11.389  70.050  1.00  0.00    -0.340 A  
ATOM     15  CE2 TYR A   1     -11.840  11.041  68.739  1.00  0.00    -0.352 A  
ATOM     16  OH  TYR A   1     -13.009  12.411  70.263  1.00  0.00     0.248 OA 
ATOM     17  HH  TYR A   1     -13.401  12.882  69.537  1.00  0.00     0.000 HD 
ATOM     18  CD2 TYR A   1     -11.012   9.946  68.484  1.00  0.00    -0.226 A  
ENDBRANCH  10  11
ENDBRANCH   6  10
ENDBRANCH   3   6
TORSDOF 3
ENDMDL
MODEL      237
REMARK 921   NORMALIZED FREE ENERGY PREDICTED BY IDOCK:   -1.94 KCAL/MOL
REMARK 922        TOTAL FREE ENERGY PREDICTED BY IDOCK:   -2.71 KCAL/MOL
REMARK 923 INTER-LIGAND FREE ENERGY PREDICTED BY IDOCK:   -3.49 KCAL/MOL
REMARK 924 INTRA-LIGAND FREE ENERGY PREDICTED BY IDOCK:    0.78 KCAL/MOL
REMARK 927      BINDING AFFINITY PREDICTED BY RF-SCORE:    0.00 PKD
ROOT
HETATM    1  C   UNK A   0      -7.814   8.885  62.399  1.00  0.00    -0.127 C  
HETATM    2  C   UNK A   0      -8.379   8.942  63.788  1.00  0.00    -0.161 C  
ATOM      3  N   TYR A   1      -9.286   9.944  64.021  1.00  0.00    -0.352 N  
HETATM    4  O   UNK A   0      -8.105   8.112  64.653  1.00  0.00    -0.145 OA 
ATOM      5  H   TYR A   1      -9.478  10.634  63.293  1.00  0.00     0.000 HD 
ENDROOT
BRANCH   3   6
ATOM      6  CA  TYR A   1      -9.981  10.029  65.312  1.00  0.00    -0.298 C  
ATOM      7  C   TYR A   1     -10.581  11.441  65.479  1.00  0.00    -0.271 C  
ATOM      8  O   TYR A   1     -11.610  11.686  64.626  1.00  0.00    -0.239 OA 
ATOM      9  OXT TYR A   1     -10.185  12.290  66.264  1.00  0.00    -0.221 OA 
BRANCH   6  10
ATOM     10  CB  TYR A   1      -9.047   9.658  66.480  1.00  0.00    -0.185 C  
BRANCH  10  11
ATOM     11  CG  TYR A   1      -9.461   8.438  67.274  1.00  0.00    -0.196 A  
ATOM     12  CD1 TYR A   1     -10.737   7.864  67.152  1.00  0.00    -0.306 A  
ATOM     13  CE1 TYR A   1     -11.135   6.822  67.993  1.00  0.00    -0.246 A  
ATOM     14  CZ  TYR A   1     -10.242   6.319  68.929  1.00  0.00    -0.181 A  
ATOM     15  CE2 TYR A   1      -8.946   6.810  69.006  1.00  0.00    -0.131 A  
ATOM     16  OH  TYR A   1     -10.614   5.345  69.807  1.00  0.00    -0.309 OA 
ATOM     17  HH  TYR A   1     -10.002   5.001  70.447  1.00  0.00     0.000 HD 
ATOM     18  CD2 TYR A   1      -8.556   7.865  68.179  1.00  0.00    -0.123 A  
ENDBRANCH  10  11
ENDBRANCH   6  10
ENDBRANCH   3   6
TORSDOF 3
ENDMDL
MODEL      238
REMARK 921   NORMALIZED FREE ENERGY PREDICTED BY IDOCK:   -1.91 KCAL/MOL
REMARK 922        TOTAL FREE ENERGY PREDICTED BY IDOCK:   -2.68 KCAL/MOL
REMARK 923 INTER-LIGAND FREE ENERGY PREDICTED BY IDOCK:   -2.31 KCAL/MOL
REMARK 924 INTRA-LIGAND FREE ENERGY PREDICTED BY IDOCK:   -0.37 KCAL/MOL
REMARK 927      BINDING AFFINITY PREDICTED BY RF-SCORE:    0.00 PKD
ROOT
HETATM    1  C   UNK A   0      -9.767   8.335  67.454  1.00  0.00    -0.225 C  
HETATM    2  C   UNK A   0      -8.392   8.032  66.935  1.00  0.00    -0.116 C  
ATOM      3  N   TYR A   1      -8.306   7.773  65.591  1.00  0.00    -0.134 N  
HETATM    4  O   UNK A   0      -7.388   8.073  67.645  1.00  0.00    -0.089 OA 
ATOM      5  H   TYR A   1      -9.156   7.723  65.029  1.00  0.00     0.000 HD 
ENDROOT
BRANCH   3   6
ATOM      6  CA  TYR A   1      -6.996   7.569  64.958  1.00  0.00    -0.058 C  
ATOM      7  C   TYR A   1      -6.914   8.410  63.667  1.00  0.00    -0.084 C  
ATOM      8  O   TYR A   1      -6.871   9.747  63.904  1.00  0.00    -0.109 OA 
ATOM      9  OXT TYR A   1      -6.915   7.962  62.530  1.00  0.00    -0.083 OA 
BRANCH   6  10
ATOM     10  CB  TYR A   1      -6.725   6.076  64.692  1.00  0.00    -0.046 C  
BRANCH  10  11
ATOM     11  CG  TYR A   1      -7.960   5.215  64.536  1.00  0.00    -0.106 A  
ATOM     12  CD1 TYR A   1      -8.528   4.520  65.616  1.00  0.00    -0.116 A  
ATOM     13  CE1 TYR A   1      -9.586   3.629  65.416  1.00  0.00    -0.156 A  
ATOM     14  CZ  TYR A   1     -10.109   3.465  64.141  1.00  0.00    -0.192 A  
ATOM     15  CE2 TYR A   1      -9.624   4.209  63.074  1.00  0.00    -0.136 A  
ATOM     16  OH  TYR A   1     -11.100   2.562  63.896  1.00  0.00    -0.543 OA 
ATOM     17  HH  TYR A   1     -11.458   2.449  63.023  1.00  0.00     0.000 HD 
ATOM     18  CD2 TYR A   1      -8.553   5.082  63.272  1.00  0.00    -0.112 A  
ENDBRANCH  10  11
ENDBRANCH   6  10
ENDBRANCH   3   6
TORSDOF 3
ENDMDL
MODEL      239
REMARK 921   NORMALIZED FREE ENERGY PREDICTED BY IDOCK:   -1.89 KCAL/MOL
REMARK 922        TOTAL FREE ENERGY PREDICTED BY IDOCK:   -2.66 KCAL/MOL
REMARK 923 INTER-LIGAND FREE ENERGY PREDICTED BY IDOCK:   -3.47 KCAL/MOL
REMARK 924 INTRA-LIGAND FREE ENERGY PREDICTED BY IDOCK:    0.81 KCAL/MOL
REMARK 927      BINDING AFFINITY PREDICTED BY RF-SCORE:    0.00 PKD
ROOT
HETATM    1  C   UNK A   0     -12.100  12.275  69.671  1.00  0.00    -0.277 C  
HETATM    2  C   UNK A   0     -12.202  11.058  70.544  1.00  0.00    -0.381 C  
ATOM      3  N   TYR A   1     -12.057   9.853  69.905  1.00  0.00    -0.470 N  
HETATM    4  O   UNK A   0     -12.340  11.123  71.765  1.00  0.00    -0.149 OA 
ATOM      5  H   TYR A   1     -11.967   9.825  68.889  1.00  0.00     0.000 HD 
ENDROOT
BRANCH   3   6
ATOM      6  CA  TYR A   1     -12.033   8.604  70.676  1.00  0.00    -0.039 C  
ATOM      7  C   TYR A   1     -13.160   8.630  71.730  1.00  0.00    -0.361 C  
ATOM      8  O   TYR A   1     -14.402   8.561  71.183  1.00  0.00    -0.283 OA 
ATOM      9  OXT TYR A   1     -12.997   8.730  72.937  1.00  0.00    -0.314 OA 
BRANCH   6  10
ATOM     10  CB  TYR A   1     -10.652   8.363  71.316  1.00  0.00    -0.279 C  
BRANCH  10  11
ATOM     11  CG  TYR A   1      -9.485   8.369  70.351  1.00  0.00    -0.179 A  
ATOM     12  CD1 TYR A   1      -8.393   9.237  70.504  1.00  0.00    -0.237 A  
ATOM     13  CE1 TYR A   1      -7.397   9.313  69.526  1.00  0.00    -0.070 A  
ATOM     14  CZ  TYR A   1      -7.468   8.486  68.414  1.00  0.00    -0.095 A  
ATOM     15  CE2 TYR A   1      -8.490   7.555  68.286  1.00  0.00    -0.125 A  
ATOM     16  OH  TYR A   1      -6.549   8.573  67.411  1.00  0.00    -0.057 OA 
ATOM     17  HH  TYR A   1      -6.597   8.006  66.649  1.00  0.00     0.000 HD 
ATOM     18  CD2 TYR A   1      -9.495   7.496  69.253  1.00  0.00    -0.154 A  
ENDBRANCH  10  11
ENDBRANCH   6  10
ENDBRANCH   3   6
TORSDOF 3
ENDMDL
MODEL      240
REMARK 921   NORMALIZED FREE ENERGY PREDICTED BY IDOCK:   -1.86 KCAL/MOL
REMARK 922        TOTAL FREE ENERGY PREDICTED BY IDOCK:   -2.63 KCAL/MOL
REMARK 923 INTER-LIGAND FREE ENERGY PREDICTED BY IDOCK:   -2.28 KCAL/MOL
REMARK 924 INTRA-LIGAND FREE ENERGY PREDICTED BY IDOCK:   -0.34 KCAL/MOL
REMARK 927      BINDING AFFINITY PREDICTED BY RF-SCORE:    0.00 PKD
ROOT
HETATM    1  C   UNK A   0      -6.280   3.216  68.717  1.00  0.00    -0.029 C  
HETATM    2  C   UNK A   0      -6.830   4.592  68.955  1.00  0.00    -0.051 C  
ATOM      3  N   TYR A   1      -8.129   4.790  68.560  1.00  0.00    -0.084 N  
HETATM    4  O   UNK A   0      -6.191   5.476  69.523  1.00  0.00    -0.026 OA 
ATOM      5  H   TYR A   1      -8.629   4.049  68.070  1.00  0.00     0.000 HD 
ENDROOT
BRANCH   3   6
ATOM      6  CA  TYR A   1      -8.802   6.065  68.841  1.00  0.00    -0.120 C  
ATOM      7  C   TYR A   1      -9.850   5.857  69.954  1.00  0.00    -0.174 C  
ATOM      8  O   TYR A   1      -9.294   5.596  71.167  1.00  0.00    -0.150 OA 
ATOM      9  OXT TYR A   1     -11.062   5.888  69.799  1.00  0.00    -0.377 OA 
BRANCH   6  10
ATOM     10  CB  TYR A   1      -9.426   6.666  67.567  1.00  0.00    -0.135 C  
BRANCH  10  11
ATOM     11  CG  TYR A   1      -9.464   5.741  66.370  1.00  0.00    -0.172 A  
ATOM     12  CD1 TYR A   1      -8.404   5.661  65.453  1.00  0.00    -0.144 A  
ATOM     13  CE1 TYR A   1      -8.523   4.899  64.287  1.00  0.00    -0.137 A  
ATOM     14  CZ  TYR A   1      -9.686   4.177  64.059  1.00  0.00    -0.131 A  
ATOM     15  CE2 TYR A   1     -10.711   4.169  64.995  1.00  0.00    -0.120 A  
ATOM     16  OH  TYR A   1      -9.863   3.471  62.907  1.00  0.00    -0.112 OA 
ATOM     17  HH  TYR A   1     -10.660   2.976  62.750  1.00  0.00     0.000 HD 
ATOM     18  CD2 TYR A   1     -10.599   4.948  66.148  1.00  0.00    -0.322 A  
ENDBRANCH  10  11
ENDBRANCH   6  10
ENDBRANCH   3   6
TORSDOF 3
ENDMDL
MODEL      241
REMARK 921   NORMALIZED FREE ENERGY PREDICTED BY IDOCK:   -1.86 KCAL/MOL
REMARK 922        TOTAL FREE ENERGY PREDICTED BY IDOCK:   -2.62 KCAL/MOL
REMARK 923 INTER-LIGAND FREE ENERGY PREDICTED BY IDOCK:   -2.94 KCAL/MOL
REMARK 924 INTRA-LIGAND FREE ENERGY PREDICTED BY IDOCK:    0.32 KCAL/MOL
REMARK 927      BINDING AFFINITY PREDICTED BY RF-SCORE:    0.00 PKD
ROOT
HETATM    1  C   UNK A   0      -8.136   5.501  62.999  1.00  0.00    -0.102 C  
HETATM    2  C   UNK A   0      -7.823   6.640  63.924  1.00  0.00    -0.109 C  
ATOM      3  N   TYR A   1      -8.604   7.758  63.778  1.00  0.00    -0.320 N  
HETATM    4  O   UNK A   0      -6.966   6.567  64.804  1.00  0.00    -0.051 OA 
ATOM      5  H   TYR A   1      -9.291   7.802  63.025  1.00  0.00     0.000 HD 
ENDROOT
BRANCH   3   6
ATOM      6  CA  TYR A   1      -8.455   8.891  64.700  1.00  0.00    -0.168 C  
ATOM      7  C   TYR A   1      -7.153   9.652  64.372  1.00  0.00    -0.118 C  
ATOM      8  O   TYR A   1      -7.203  10.304  63.181  1.00  0.00    -0.138 OA 
ATOM      9  OXT TYR A   1      -6.149   9.668  65.068  1.00  0.00    -0.075 OA 
BRANCH   6  10
ATOM     10  CB  TYR A   1      -8.499   8.431  66.170  1.00  0.00    -0.139 C  
BRANCH  10  11
ATOM     11  CG  TYR A   1      -9.215   9.369  67.118  1.00  0.00    -0.159 A  
ATOM     12  CD1 TYR A   1     -10.608   9.543  67.087  1.00  0.00    -0.295 A  
ATOM     13  CE1 TYR A   1     -11.225  10.513  67.882  1.00  0.00    -0.358 A  
ATOM     14  CZ  TYR A   1     -10.455  11.280  68.745  1.00  0.00    -0.208 A  
ATOM     15  CE2 TYR A   1      -9.089  11.063  68.859  1.00  0.00    -0.132 A  
ATOM     16  OH  TYR A   1     -11.012  12.275  69.491  1.00  0.00    -0.449 OA 
ATOM     17  HH  TYR A   1     -10.485  12.801  70.082  1.00  0.00     0.000 HD 
ATOM     18  CD2 TYR A   1      -8.471  10.109  68.048  1.00  0.00    -0.118 A  
ENDBRANCH  10  11
ENDBRANCH   6  10
ENDBRANCH   3   6
TORSDOF 3
ENDMDL
MODEL      242
REMARK 921   NORMALIZED FREE ENERGY PREDICTED BY IDOCK:   -1.84 KCAL/MOL
REMARK 922        TOTAL FREE ENERGY PREDICTED BY IDOCK:   -2.60 KCAL/MOL
REMARK 923 INTER-LIGAND FREE ENERGY PREDICTED BY IDOCK:   -2.24 KCAL/MOL
REMARK 924 INTRA-LIGAND FREE ENERGY PREDICTED BY IDOCK:   -0.36 KCAL/MOL
REMARK 927      BINDING AFFINITY PREDICTED BY RF-SCORE:    0.00 PKD
ROOT
HETATM    1  C   UNK A   0     -10.335   3.889  64.322  1.00  0.00    -0.245 C  
HETATM    2  C   UNK A   0      -9.833   4.513  65.591  1.00  0.00    -0.216 C  
ATOM      3  N   TYR A   1      -9.272   5.757  65.461  1.00  0.00    -0.351 N  
HETATM    4  O   UNK A   0      -9.968   3.983  66.693  1.00  0.00    -0.199 OA 
ATOM      5  H   TYR A   1      -9.150   6.165  64.533  1.00  0.00     0.000 HD 
ENDROOT
BRANCH   3   6
ATOM      6  CA  TYR A   1      -8.844   6.505  66.651  1.00  0.00    -0.132 C  
ATOM      7  C   TYR A   1      -8.815   8.013  66.326  1.00  0.00    -0.162 C  
ATOM      8  O   TYR A   1     -10.053   8.539  66.132  1.00  0.00    -0.221 OA 
ATOM      9  OXT TYR A   1      -7.806   8.694  66.216  1.00  0.00    -0.098 OA 
BRANCH   6  10
ATOM     10  CB  TYR A   1      -7.484   6.002  67.174  1.00  0.00    -0.084 C  
BRANCH  10  11
ATOM     11  CG  TYR A   1      -7.366   5.913  68.680  1.00  0.00    -0.085 A  
ATOM     12  CD1 TYR A   1      -6.129   5.991  69.339  1.00  0.00    -0.029 A  
ATOM     13  CE1 TYR A   1      -6.037   5.772  70.716  1.00  0.00    -0.030 A  
ATOM     14  CZ  TYR A   1      -7.191   5.519  71.446  1.00  0.00    -0.073 A  
ATOM     15  CE2 TYR A   1      -8.435   5.527  70.831  1.00  0.00    -0.123 A  
ATOM     16  OH  TYR A   1      -7.135   5.241  72.779  1.00  0.00    -0.083 OA 
ATOM     17  HH  TYR A   1      -7.924   5.068  73.279  1.00  0.00     0.000 HD 
ATOM     18  CD2 TYR A   1      -8.522   5.725  69.451  1.00  0.00    -0.112 A  
ENDBRANCH  10  11
ENDBRANCH   6  10
ENDBRANCH   3   6
TORSDOF 3
ENDMDL
MODEL      243
REMARK 921   NORMALIZED FREE ENERGY PREDICTED BY IDOCK:   -1.79 KCAL/MOL
REMARK 922        TOTAL FREE ENERGY PREDICTED BY IDOCK:   -2.54 KCAL/MOL
REMARK 923 INTER-LIGAND FREE ENERGY PREDICTED BY IDOCK:   -2.70 KCAL/MOL
REMARK 924 INTRA-LIGAND FREE ENERGY PREDICTED BY IDOCK:    0.15 KCAL/MOL
REMARK 927      BINDING AFFINITY PREDICTED BY RF-SCORE:    0.00 PKD
ROOT
HETATM    1  C   UNK A   0     -10.855  10.981  66.327  1.00  0.00    -0.234 C  
HETATM    2  C   UNK A   0      -9.498  10.352  66.448  1.00  0.00    -0.169 C  
ATOM      3  N   TYR A   1      -9.487   9.022  66.786  1.00  0.00    -0.169 N  
HETATM    4  O   UNK A   0      -8.458  10.959  66.201  1.00  0.00    -0.163 OA 
ATOM      5  H   TYR A   1     -10.362   8.547  67.008  1.00  0.00     0.000 HD 
ENDROOT
BRANCH   3   6
ATOM      6  CA  TYR A   1      -8.221   8.279  66.829  1.00  0.00    -0.103 C  
ATOM      7  C   TYR A   1      -8.270   7.123  65.809  1.00  0.00    -0.132 C  
ATOM      8  O   TYR A   1      -8.265   7.550  64.519  1.00  0.00    -0.122 OA 
ATOM      9  OXT TYR A   1      -8.336   5.935  66.089  1.00  0.00    -0.115 OA 
BRANCH   6  10
ATOM     10  CB  TYR A   1      -7.908   7.780  68.252  1.00  0.00    -0.121 C  
BRANCH  10  11
ATOM     11  CG  TYR A   1      -9.113   7.590  69.148  1.00  0.00    -0.138 A  
ATOM     12  CD1 TYR A   1     -10.339   7.112  68.660  1.00  0.00    -0.200 A  
ATOM     13  CE1 TYR A   1     -11.469   7.074  69.482  1.00  0.00    -0.078 A  
ATOM     14  CZ  TYR A   1     -11.364   7.472  70.808  1.00  0.00    -0.280 A  
ATOM     15  CE2 TYR A   1     -10.142   7.862  71.336  1.00  0.00    -0.212 A  
ATOM     16  OH  TYR A   1     -12.457   7.505  71.622  1.00  0.00    -0.316 OA 
ATOM     17  HH  TYR A   1     -12.385   7.778  72.530  1.00  0.00     0.000 HD 
ATOM     18  CD2 TYR A   1      -9.019   7.920  70.508  1.00  0.00    -0.145 A  
ENDBRANCH  10  11
ENDBRANCH   6  10
ENDBRANCH   3   6
TORSDOF 3
ENDMDL
MODEL      244
REMARK 921   NORMALIZED FREE ENERGY PREDICTED BY IDOCK:   -1.71 KCAL/MOL
REMARK 922        TOTAL FREE ENERGY PREDICTED BY IDOCK:   -2.44 KCAL/MOL
REMARK 923 INTER-LIGAND FREE ENERGY PREDICTED BY IDOCK:   -1.99 KCAL/MOL
REMARK 924 INTRA-LIGAND FREE ENERGY PREDICTED BY IDOCK:   -0.45 KCAL/MOL
REMARK 927      BINDING AFFINITY PREDICTED BY RF-SCORE:    0.00 PKD
ROOT
HETATM    1  C   UNK A   0     -10.323   8.411  69.013  1.00  0.00    -0.231 C  
HETATM    2  C   UNK A   0      -9.061   7.912  68.373  1.00  0.00    -0.135 C  
ATOM      3  N   TYR A   1      -9.214   6.885  67.476  1.00  0.00    -0.123 N  
HETATM    4  O   UNK A   0      -7.962   8.424  68.579  1.00  0.00    -0.117 OA 
ATOM      5  H   TYR A   1     -10.133   6.463  67.340  1.00  0.00     0.000 HD 
ENDROOT
BRANCH   3   6
ATOM      6  CA  TYR A   1      -8.061   6.391  66.712  1.00  0.00    -0.109 C  
ATOM      7  C   TYR A   1      -8.315   6.604  65.205  1.00  0.00    -0.111 C  
ATOM      8  O   TYR A   1      -8.311   7.913  64.844  1.00  0.00    -0.142 OA 
ATOM      9  OXT TYR A   1      -8.531   5.716  64.392  1.00  0.00    -0.129 OA 
BRANCH   6  10
ATOM     10  CB  TYR A   1      -7.755   4.918  67.043  1.00  0.00    -0.092 C  
BRANCH  10  11
ATOM     11  CG  TYR A   1      -8.003   4.515  68.480  1.00  0.00    -0.079 A  
ATOM     12  CD1 TYR A   1      -9.105   3.729  68.857  1.00  0.00    -0.201 A  
ATOM     13  CE1 TYR A   1      -9.381   3.486  70.205  1.00  0.00    -0.242 A  
ATOM     14  CZ  TYR A   1      -8.530   3.989  71.179  1.00  0.00    -0.076 A  
ATOM     15  CE2 TYR A   1      -7.386   4.691  70.827  1.00  0.00    -0.052 A  
ATOM     16  OH  TYR A   1      -8.800   3.823  72.505  1.00  0.00    -0.096 OA 
ATOM     17  HH  TYR A   1      -8.217   4.168  73.172  1.00  0.00     0.000 HD 
ATOM     18  CD2 TYR A   1      -7.123   4.952  69.481  1.00  0.00    -0.055 A  
ENDBRANCH  10  11
ENDBRANCH   6  10
ENDBRANCH   3   6
TORSDOF 3
ENDMDL
MODEL      245
REMARK 921   NORMALIZED FREE ENERGY PREDICTED BY IDOCK:   -1.69 KCAL/MOL
REMARK 922        TOTAL FREE ENERGY PREDICTED BY IDOCK:   -2.42 KCAL/MOL
REMARK 923 INTER-LIGAND FREE ENERGY PREDICTED BY IDOCK:   -2.97 KCAL/MOL
REMARK 924 INTRA-LIGAND FREE ENERGY PREDICTED BY IDOCK:    0.55 KCAL/MOL
REMARK 927      BINDING AFFINITY PREDICTED BY RF-SCORE:    0.00 PKD
ROOT
HETATM    1  C   UNK A   0      -5.618   6.277  70.291  1.00  0.00    -0.014 C  
HETATM    2  C   UNK A   0      -6.927   7.001  70.406  1.00  0.00    -0.062 C  
ATOM      3  N   TYR A   1      -7.668   6.718  71.525  1.00  0.00    -0.096 N  
HETATM    4  O   UNK A   0      -7.296   7.844  69.590  1.00  0.00    -0.084 OA 
ATOM      5  H   TYR A   1      -7.351   5.997  72.175  1.00  0.00     0.000 HD 
ENDROOT
BRANCH   3   6
ATOM      6  CA  TYR A   1      -8.915   7.447  71.792  1.00  0.00    -0.122 C  
ATOM      7  C   TYR A   1      -9.015   7.756  73.301  1.00  0.00    -0.231 C  
ATOM      8  O   TYR A   1      -8.098   8.667  73.719  1.00  0.00    -0.400 OA 
ATOM      9  OXT TYR A   1      -9.802   7.237  74.078  1.00  0.00    -0.292 OA 
BRANCH   6  10
ATOM     10  CB  TYR A   1     -10.143   6.670  71.280  1.00  0.00    -0.207 C  
BRANCH  10  11
ATOM     11  CG  TYR A   1     -10.355   5.311  71.911  1.00  0.00    -0.275 A  
ATOM     12  CD1 TYR A   1     -11.386   5.068  72.833  1.00  0.00    -0.329 A  
ATOM     13  CE1 TYR A   1     -11.474   3.842  73.498  1.00  0.00    -0.180 A  
ATOM     14  CZ  TYR A   1     -10.559   2.839  73.209  1.00  0.00    -0.165 A  
ATOM     15  CE2 TYR A   1      -9.588   3.026  72.235  1.00  0.00    -0.204 A  
ATOM     16  OH  TYR A   1     -10.577   1.653  73.879  1.00  0.00    -0.093 OA 
ATOM     17  HH  TYR A   1      -9.951   0.966  73.681  1.00  0.00     0.000 HD 
ATOM     18  CD2 TYR A   1      -9.487   4.258  71.587  1.00  0.00    -0.211 A  
ENDBRANCH  10  11
ENDBRANCH   6  10
ENDBRANCH   3   6
TORSDOF 3
ENDMDL
MODEL      246
REMARK 921   NORMALIZED FREE ENERGY PREDICTED BY IDOCK:   -1.68 KCAL/MOL
REMARK 922        TOTAL FREE ENERGY PREDICTED BY IDOCK:   -2.41 KCAL/MOL
REMARK 923 INTER-LIGAND FREE ENERGY PREDICTED BY IDOCK:   -2.32 KCAL/MOL
REMARK 924 INTRA-LIGAND FREE ENERGY PREDICTED BY IDOCK:   -0.09 KCAL/MOL
REMARK 927      BINDING AFFINITY PREDICTED BY RF-SCORE:    0.00 PKD
ROOT
HETATM    1  C   UNK A   0     -10.712  11.222  66.280  1.00  0.00    -0.312 C  
HETATM    2  C   UNK A   0     -10.312   9.849  66.733  1.00  0.00    -0.217 C  
ATOM      3  N   TYR A   1      -9.918   9.747  68.043  1.00  0.00    -0.152 N  
HETATM    4  O   UNK A   0     -10.389   8.859  66.008  1.00  0.00    -0.101 OA 
ATOM      5  H   TYR A   1      -9.840  10.587  68.617  1.00  0.00     0.000 HD 
ENDROOT
BRANCH   3   6
ATOM      6  CA  TYR A   1      -9.607   8.433  68.623  1.00  0.00    -0.149 C  
ATOM      7  C   TYR A   1      -9.831   8.480  70.149  1.00  0.00    -0.178 C  
ATOM      8  O   TYR A   1     -11.140   8.600  70.491  1.00  0.00    -0.240 OA 
ATOM      9  OXT TYR A   1      -8.949   8.445  70.994  1.00  0.00    -0.143 OA 
BRANCH   6  10
ATOM     10  CB  TYR A   1      -8.178   7.983  68.263  1.00  0.00    -0.123 C  
BRANCH  10  11
ATOM     11  CG  TYR A   1      -8.091   6.730  67.418  1.00  0.00    -0.118 A  
ATOM     12  CD1 TYR A   1      -7.971   5.452  67.987  1.00  0.00    -0.096 A  
ATOM     13  CE1 TYR A   1      -7.759   4.329  67.182  1.00  0.00    -0.092 A  
ATOM     14  CZ  TYR A   1      -7.712   4.475  65.803  1.00  0.00    -0.094 A  
ATOM     15  CE2 TYR A   1      -7.918   5.715  65.214  1.00  0.00    -0.114 A  
ATOM     16  OH  TYR A   1      -7.447   3.414  64.990  1.00  0.00    -0.070 OA 
ATOM     17  HH  TYR A   1      -7.414   3.514  64.045  1.00  0.00     0.000 HD 
ATOM     18  CD2 TYR A   1      -8.109   6.839  66.020  1.00  0.00    -0.119 A  
ENDBRANCH  10  11
ENDBRANCH   6  10
ENDBRANCH   3   6
TORSDOF 3
ENDMDL
MODEL      247
REMARK 921   NORMALIZED FREE ENERGY PREDICTED BY IDOCK:   -1.62 KCAL/MOL
REMARK 922        TOTAL FREE ENERGY PREDICTED BY IDOCK:   -2.33 KCAL/MOL
REMARK 923 INTER-LIGAND FREE ENERGY PREDICTED BY IDOCK:   -3.18 KCAL/MOL
REMARK 924 INTRA-LIGAND FREE ENERGY PREDICTED BY IDOCK:    0.85 KCAL/MOL
REMARK 927      BINDING AFFINITY PREDICTED BY RF-SCORE:    0.00 PKD
ROOT
HETATM    1  C   UNK A   0      -7.830  15.198  66.939  1.00  0.00    -0.110 C  
HETATM    2  C   UNK A   0      -6.895  14.104  67.364  1.00  0.00    -0.007 C  
ATOM      3  N   TYR A   1      -7.396  12.829  67.286  1.00  0.00    -0.304 N  
HETATM    4  O   UNK A   0      -5.731  14.315  67.701  1.00  0.00    -0.306 OA 
ATOM      5  H   TYR A   1      -8.372  12.682  67.026  1.00  0.00     0.000 HD 
ENDROOT
BRANCH   3   6
ATOM      6  CA  TYR A   1      -6.534  11.676  67.575  1.00  0.00    -0.087 C  
ATOM      7  C   TYR A   1      -6.376  10.821  66.300  1.00  0.00    -0.129 C  
ATOM      8  O   TYR A   1      -5.649  11.439  65.332  1.00  0.00    -0.085 OA 
ATOM      9  OXT TYR A   1      -6.861   9.713  66.127  1.00  0.00    -0.087 OA 
BRANCH   6  10
ATOM     10  CB  TYR A   1      -7.074  10.850  68.759  1.00  0.00    -0.083 C  
BRANCH  10  11
ATOM     11  CG  TYR A   1      -8.579  10.868  68.923  1.00  0.00    -0.143 A  
ATOM     12  CD1 TYR A   1      -9.229  10.149  69.939  1.00  0.00    -0.119 A  
ATOM     13  CE1 TYR A   1     -10.624  10.077  69.984  1.00  0.00    -0.344 A  
ATOM     14  CZ  TYR A   1     -11.374  10.762  69.038  1.00  0.00    -0.284 A  
ATOM     15  CE2 TYR A   1     -10.755  11.552  68.079  1.00  0.00    -0.241 A  
ATOM     16  OH  TYR A   1     -12.733  10.667  69.013  1.00  0.00    -0.675 OA 
ATOM     17  HH  TYR A   1     -13.247  11.136  68.366  1.00  0.00     0.000 HD 
ATOM     18  CD2 TYR A   1      -9.361  11.606  68.023  1.00  0.00    -0.178 A  
ENDBRANCH  10  11
ENDBRANCH   6  10
ENDBRANCH   3   6
TORSDOF 3
ENDMDL
MODEL      248
REMARK 921   NORMALIZED FREE ENERGY PREDICTED BY IDOCK:   -1.58 KCAL/MOL
REMARK 922        TOTAL FREE ENERGY PREDICTED BY IDOCK:   -2.29 KCAL/MOL
REMARK 923 INTER-LIGAND FREE ENERGY PREDICTED BY IDOCK:   -1.92 KCAL/MOL
REMARK 924 INTRA-LIGAND FREE ENERGY PREDICTED BY IDOCK:   -0.37 KCAL/MOL
REMARK 927      BINDING AFFINITY PREDICTED BY RF-SCORE:    0.00 PKD
ROOT
HETATM    1  C   UNK A   0     -13.389  15.610  70.715  1.00  0.00    -0.170 C  
HETATM    2  C   UNK A   0     -12.091  14.859  70.677  1.00  0.00    -0.307 C  
ATOM      3  N   TYR A   1     -11.468  14.809  69.456  1.00  0.00    -0.282 N  
HETATM    4  O   UNK A   0     -11.575  14.369  71.680  1.00  0.00    -0.122 OA 
ATOM      5  H   TYR A   1     -11.928  15.203  68.635  1.00  0.00     0.000 HD 
ENDROOT
BRANCH   3   6
ATOM      6  CA  TYR A   1     -10.142  14.191  69.326  1.00  0.00     0.082 C  
ATOM      7  C   TYR A   1      -9.066  15.295  69.267  1.00  0.00    -0.240 C  
ATOM      8  O   TYR A   1      -8.918  15.958  70.444  1.00  0.00     0.809 OA 
ATOM      9  OXT TYR A   1      -8.412  15.595  68.278  1.00  0.00    -0.151 OA 
BRANCH   6  10
ATOM     10  CB  TYR A   1     -10.074  13.255  68.104  1.00  0.00    -0.241 C  
BRANCH  10  11
ATOM     11  CG  TYR A   1     -10.206  11.779  68.415  1.00  0.00    -0.208 A  
ATOM     12  CD1 TYR A   1     -11.444  11.185  68.709  1.00  0.00    -0.366 A  
ATOM     13  CE1 TYR A   1     -11.517   9.852  69.122  1.00  0.00    -0.017 A  
ATOM     14  CZ  TYR A   1     -10.356   9.095  69.197  1.00  0.00    -0.212 A  
ATOM     15  CE2 TYR A   1      -9.133   9.635  68.825  1.00  0.00    -0.134 A  
ATOM     16  OH  TYR A   1     -10.380   7.811  69.653  1.00  0.00    -0.202 OA 
ATOM     17  HH  TYR A   1      -9.584   7.293  69.705  1.00  0.00     0.000 HD 
ATOM     18  CD2 TYR A   1      -9.058  10.973  68.433  1.00  0.00    -0.161 A  
ENDBRANCH  10  11
ENDBRANCH   6  10
ENDBRANCH   3   6
TORSDOF 3
ENDMDL
MODEL      249
REMARK 921   NORMALIZED FREE ENERGY PREDICTED BY IDOCK:   -1.53 KCAL/MOL
REMARK 922        TOTAL FREE ENERGY PREDICTED BY IDOCK:   -2.23 KCAL/MOL
REMARK 923 INTER-LIGAND FREE ENERGY PREDICTED BY IDOCK:   -2.30 KCAL/MOL
REMARK 924 INTRA-LIGAND FREE ENERGY PREDICTED BY IDOCK:    0.07 KCAL/MOL
REMARK 927      BINDING AFFINITY PREDICTED BY RF-SCORE:    0.00 PKD
ROOT
HETATM    1  C   UNK A   0      -7.770   8.943  62.517  1.00  0.00    -0.115 C  
HETATM    2  C   UNK A   0      -7.762   9.093  64.010  1.00  0.00    -0.122 C  
ATOM      3  N   TYR A   1      -8.534  10.110  64.510  1.00  0.00    -0.169 N  
HETATM    4  O   UNK A   0      -7.157   8.322  64.753  1.00  0.00    -0.076 OA 
ATOM      5  H   TYR A   1      -9.007  10.750  63.871  1.00  0.00     0.000 HD 
ENDROOT
BRANCH   3   6
ATOM      6  CA  TYR A   1      -8.684  10.282  65.961  1.00  0.00    -0.150 C  
ATOM      7  C   TYR A   1      -9.827   9.378  66.469  1.00  0.00    -0.258 C  
ATOM      8  O   TYR A   1      -9.528   8.054  66.404  1.00  0.00    -0.198 OA 
ATOM      9  OXT TYR A   1     -10.913   9.770  66.869  1.00  0.00    -0.117 OA 
BRANCH   6  10
ATOM     10  CB  TYR A   1      -8.908  11.760  66.334  1.00  0.00    -0.170 C  
BRANCH  10  11
ATOM     11  CG  TYR A   1      -8.052  12.276  67.470  1.00  0.00    -0.170 A  
ATOM     12  CD1 TYR A   1      -7.300  11.418  68.288  1.00  0.00    -0.089 A  
ATOM     13  CE1 TYR A   1      -6.626  11.909  69.410  1.00  0.00    -0.108 A  
ATOM     14  CZ  TYR A   1      -6.664  13.267  69.690  1.00  0.00     0.071 A  
ATOM     15  CE2 TYR A   1      -7.326  14.147  68.845  1.00  0.00    -0.122 A  
ATOM     16  OH  TYR A   1      -6.070  13.774  70.807  1.00  0.00    -0.331 OA 
ATOM     17  HH  TYR A   1      -6.097  14.704  70.999  1.00  0.00     0.000 HD 
ATOM     18  CD2 TYR A   1      -8.017  13.652  67.737  1.00  0.00    -0.172 A  
ENDBRANCH  10  11
ENDBRANCH   6  10
ENDBRANCH   3   6
TORSDOF 3
ENDMDL
MODEL      250
REMARK 921   NORMALIZED FREE ENERGY PREDICTED BY IDOCK:   -1.50 KCAL/MOL
REMARK 922        TOTAL FREE ENERGY PREDICTED BY IDOCK:   -2.20 KCAL/MOL
REMARK 923 INTER-LIGAND FREE ENERGY PREDICTED BY IDOCK:   -1.99 KCAL/MOL
REMARK 924 INTRA-LIGAND FREE ENERGY PREDICTED BY IDOCK:   -0.21 KCAL/MOL
REMARK 927      BINDING AFFINITY PREDICTED BY RF-SCORE:    0.00 PKD
ROOT
HETATM    1  C   UNK A   0      -9.806  10.326  66.191  1.00  0.00    -0.284 C  
HETATM    2  C   UNK A   0      -8.570   9.568  65.806  1.00  0.00    -0.138 C  
ATOM      3  N   TYR A   1      -8.445   8.316  66.353  1.00  0.00    -0.116 N  
HETATM    4  O   UNK A   0      -7.745  10.002  65.004  1.00  0.00    -0.128 OA 
ATOM      5  H   TYR A   1      -9.131   7.989  67.033  1.00  0.00     0.000 HD 
ENDROOT
BRANCH   3   6
ATOM      6  CA  TYR A   1      -7.329   7.446  65.962  1.00  0.00    -0.075 C  
ATOM      7  C   TYR A   1      -7.851   6.324  65.041  1.00  0.00    -0.111 C  
ATOM      8  O   TYR A   1      -8.252   6.777  63.824  1.00  0.00    -0.042 OA 
ATOM      9  OXT TYR A   1      -7.940   5.143  65.344  1.00  0.00    -0.103 OA 
BRANCH   6  10
ATOM     10  CB  TYR A   1      -6.594   6.884  67.194  1.00  0.00    -0.051 C  
BRANCH  10  11
ATOM     11  CG  TYR A   1      -7.162   7.308  68.532  1.00  0.00    -0.094 A  
ATOM     12  CD1 TYR A   1      -8.371   6.795  69.027  1.00  0.00    -0.124 A  
ATOM     13  CE1 TYR A   1      -8.936   7.303  70.200  1.00  0.00    -0.148 A  
ATOM     14  CZ  TYR A   1      -8.269   8.295  70.907  1.00  0.00    -0.117 A  
ATOM     15  CE2 TYR A   1      -7.028   8.753  70.484  1.00  0.00    -0.048 A  
ATOM     16  OH  TYR A   1      -8.816   8.857  72.021  1.00  0.00    -0.367 OA 
ATOM     17  HH  TYR A   1      -8.359   9.536  72.504  1.00  0.00     0.000 HD 
ATOM     18  CD2 TYR A   1      -6.476   8.259  69.301  1.00  0.00    -0.039 A  
ENDBRANCH  10  11
ENDBRANCH   6  10
ENDBRANCH   3   6
TORSDOF 3
ENDMDL
MODEL      251
REMARK 921   NORMALIZED FREE ENERGY PREDICTED BY IDOCK:   -1.37 KCAL/MOL
REMARK 922        TOTAL FREE ENERGY PREDICTED BY IDOCK:   -2.04 KCAL/MOL
REMARK 923 INTER-LIGAND FREE ENERGY PREDICTED BY IDOCK:   -2.41 KCAL/MOL
REMARK 924 INTRA-LIGAND FREE ENERGY PREDICTED BY IDOCK:    0.36 KCAL/MOL
REMARK 927      BINDING AFFINITY PREDICTED BY RF-SCORE:    0.00 PKD
ROOT
HETATM    1  C   UNK A   0     -10.579   3.508  64.003  1.00  0.00    -0.245 C  
HETATM    2  C   UNK A   0      -9.476   4.089  64.838  1.00  0.00    -0.171 C  
ATOM      3  N   TYR A   1      -9.413   5.459  64.871  1.00  0.00    -0.338 N  
HETATM    4  O   UNK A   0      -8.710   3.396  65.506  1.00  0.00    -0.112 OA 
ATOM      5  H   TYR A   1     -10.045   6.010  64.290  1.00  0.00     0.000 HD 
ENDROOT
BRANCH   3   6
ATOM      6  CA  TYR A   1      -8.440   6.135  65.740  1.00  0.00    -0.147 C  
ATOM      7  C   TYR A   1      -7.016   5.898  65.195  1.00  0.00    -0.059 C  
ATOM      8  O   TYR A   1      -6.784   6.535  64.018  1.00  0.00    -0.042 OA 
ATOM      9  OXT TYR A   1      -6.165   5.196  65.722  1.00  0.00    -0.032 OA 
BRANCH   6  10
ATOM     10  CB  TYR A   1      -8.581   5.679  67.205  1.00  0.00    -0.109 C  
BRANCH  10  11
ATOM     11  CG  TYR A   1      -8.966   6.767  68.184  1.00  0.00    -0.118 A  
ATOM     12  CD1 TYR A   1      -8.724   8.125  67.926  1.00  0.00    -0.128 A  
ATOM     13  CE1 TYR A   1      -8.969   9.093  68.904  1.00  0.00    -0.139 A  
ATOM     14  CZ  TYR A   1      -9.500   8.710  70.128  1.00  0.00    -0.164 A  
ATOM     15  CE2 TYR A   1      -9.831   7.384  70.372  1.00  0.00    -0.183 A  
ATOM     16  OH  TYR A   1      -9.696   9.616  71.127  1.00  0.00    -0.265 OA 
ATOM     17  HH  TYR A   1     -10.059   9.353  71.965  1.00  0.00     0.000 HD 
ATOM     18  CD2 TYR A   1      -9.567   6.415  69.402  1.00  0.00    -0.152 A  
ENDBRANCH  10  11
ENDBRANCH   6  10
ENDBRANCH   3   6
TORSDOF 3
ENDMDL
MODEL      252
REMARK 921   NORMALIZED FREE ENERGY PREDICTED BY IDOCK:   -1.35 KCAL/MOL
REMARK 922        TOTAL FREE ENERGY PREDICTED BY IDOCK:   -2.02 KCAL/MOL
REMARK 923 INTER-LIGAND FREE ENERGY PREDICTED BY IDOCK:   -2.29 KCAL/MOL
REMARK 924 INTRA-LIGAND FREE ENERGY PREDICTED BY IDOCK:    0.27 KCAL/MOL
REMARK 927      BINDING AFFINITY PREDICTED BY RF-SCORE:    0.00 PKD
ROOT
HETATM    1  C   UNK A   0      -6.709   4.715  64.523  1.00  0.00    -0.044 C  
HETATM    2  C   UNK A   0      -7.693   4.501  65.635  1.00  0.00    -0.093 C  
ATOM      3  N   TYR A   1      -8.250   5.638  66.163  1.00  0.00    -0.107 N  
HETATM    4  O   UNK A   0      -8.036   3.383  66.015  1.00  0.00    -0.090 OA 
ATOM      5  H   TYR A   1      -7.932   6.554  65.846  1.00  0.00     0.000 HD 
ENDROOT
BRANCH   3   6
ATOM      6  CA  TYR A   1      -9.303   5.541  67.182  1.00  0.00    -0.115 C  
ATOM      7  C   TYR A   1     -10.681   5.739  66.516  1.00  0.00    -0.204 C  
ATOM      8  O   TYR A   1     -11.030   4.711  65.699  1.00  0.00    -0.253 OA 
ATOM      9  OXT TYR A   1     -11.402   6.716  66.659  1.00  0.00    -0.150 OA 
BRANCH   6  10
ATOM     10  CB  TYR A   1      -9.070   6.541  68.331  1.00  0.00    -0.123 C  
BRANCH  10  11
ATOM     11  CG  TYR A   1      -8.683   7.940  67.899  1.00  0.00    -0.124 A  
ATOM     12  CD1 TYR A   1      -9.640   8.917  67.587  1.00  0.00    -0.181 A  
ATOM     13  CE1 TYR A   1      -9.254  10.155  67.064  1.00  0.00    -0.166 A  
ATOM     14  CZ  TYR A   1      -7.905  10.435  66.896  1.00  0.00    -0.114 A  
ATOM     15  CE2 TYR A   1      -6.937   9.518  67.283  1.00  0.00    -0.085 A  
ATOM     16  OH  TYR A   1      -7.493  11.606  66.334  1.00  0.00    -0.349 OA 
ATOM     17  HH  TYR A   1      -6.569  11.797  66.219  1.00  0.00     0.000 HD 
ATOM     18  CD2 TYR A   1      -7.325   8.274  67.785  1.00  0.00    -0.093 A  
ENDBRANCH  10  11
ENDBRANCH   6  10
ENDBRANCH   3   6
TORSDOF 3
ENDMDL
MODEL      253
REMARK 921   NORMALIZED FREE ENERGY PREDICTED BY IDOCK:   -1.26 KCAL/MOL
REMARK 922        TOTAL FREE ENERGY PREDICTED BY IDOCK:   -1.91 KCAL/MOL
REMARK 923 INTER-LIGAND FREE ENERGY PREDICTED BY IDOCK:   -1.61 KCAL/MOL
REMARK 924 INTRA-LIGAND FREE ENERGY PREDICTED BY IDOCK:   -0.30 KCAL/MOL
REMARK 927      BINDING AFFINITY PREDICTED BY RF-SCORE:    0.00 PKD
ROOT
HETATM    1  C   UNK A   0     -10.548   9.139  68.481  1.00  0.00    -0.209 C  
HETATM    2  C   UNK A   0      -9.201   9.215  69.137  1.00  0.00    -0.144 C  
ATOM      3  N   TYR A   1      -8.284   8.283  68.722  1.00  0.00    -0.116 N  
HETATM    4  O   UNK A   0      -8.903  10.090  69.949  1.00  0.00    -0.205 OA 
ATOM      5  H   TYR A   1      -8.562   7.554  68.066  1.00  0.00     0.000 HD 
ENDROOT
BRANCH   3   6
ATOM      6  CA  TYR A   1      -6.902   8.331  69.219  1.00  0.00    -0.050 C  
ATOM      7  C   TYR A   1      -6.022   9.103  68.214  1.00  0.00    -0.045 C  
ATOM      8  O   TYR A   1      -6.315  10.429  68.159  1.00  0.00    -0.051 OA 
ATOM      9  OXT TYR A   1      -5.162   8.608  67.501  1.00  0.00    -0.033 OA 
BRANCH   6  10
ATOM     10  CB  TYR A   1      -6.354   6.919  69.499  1.00  0.00    -0.039 C  
BRANCH  10  11
ATOM     11  CG  TYR A   1      -7.211   6.063  70.407  1.00  0.00    -0.083 A  
ATOM     12  CD1 TYR A   1      -7.672   4.794  70.023  1.00  0.00    -0.055 A  
ATOM     13  CE1 TYR A   1      -8.570   4.086  70.827  1.00  0.00    -0.106 A  
ATOM     14  CZ  TYR A   1      -8.972   4.625  72.041  1.00  0.00    -0.126 A  
ATOM     15  CE2 TYR A   1      -8.458   5.837  72.484  1.00  0.00    -0.117 A  
ATOM     16  OH  TYR A   1      -9.891   3.993  72.824  1.00  0.00    -0.135 OA 
ATOM     17  HH  TYR A   1     -10.166   4.362  73.655  1.00  0.00     0.000 HD 
ATOM     18  CD2 TYR A   1      -7.579   6.553  71.669  1.00  0.00    -0.094 A  
ENDBRANCH  10  11
ENDBRANCH   6  10
ENDBRANCH   3   6
TORSDOF 3
ENDMDL
MODEL      254
REMARK 921   NORMALIZED FREE ENERGY PREDICTED BY IDOCK:   -1.19 KCAL/MOL
REMARK 922        TOTAL FREE ENERGY PREDICTED BY IDOCK:   -1.83 KCAL/MOL
REMARK 923 INTER-LIGAND FREE ENERGY PREDICTED BY IDOCK:   -1.65 KCAL/MOL
REMARK 924 INTRA-LIGAND FREE ENERGY PREDICTED BY IDOCK:   -0.18 KCAL/MOL
REMARK 927      BINDING AFFINITY PREDICTED BY RF-SCORE:    0.00 PKD
ROOT
HETATM    1  C   UNK A   0      -6.884   3.769  63.456  1.00  0.00    -0.044 C  
HETATM    2  C   UNK A   0      -7.971   4.680  63.947  1.00  0.00    -0.095 C  
ATOM      3  N   TYR A   1      -7.681   5.394  65.082  1.00  0.00    -0.083 N  
HETATM    4  O   UNK A   0      -9.032   4.836  63.345  1.00  0.00    -0.139 OA 
ATOM      5  H   TYR A   1      -6.803   5.229  65.575  1.00  0.00     0.000 HD 
ENDROOT
BRANCH   3   6
ATOM      6  CA  TYR A   1      -8.629   6.394  65.590  1.00  0.00    -0.133 C  
ATOM      7  C   TYR A   1      -7.872   7.697  65.921  1.00  0.00    -0.103 C  
ATOM      8  O   TYR A   1      -7.404   8.335  64.817  1.00  0.00    -0.082 OA 
ATOM      9  OXT TYR A   1      -7.667   8.130  67.046  1.00  0.00    -0.094 OA 
BRANCH   6  10
ATOM     10  CB  TYR A   1      -9.415   5.860  66.804  1.00  0.00    -0.154 C  
BRANCH  10  11
ATOM     11  CG  TYR A   1      -8.802   4.658  67.490  1.00  0.00    -0.112 A  
ATOM     12  CD1 TYR A   1      -9.481   3.434  67.603  1.00  0.00    -0.231 A  
ATOM     13  CE1 TYR A   1      -8.946   2.386  68.357  1.00  0.00    -0.179 A  
ATOM     14  CZ  TYR A   1      -7.707   2.543  68.962  1.00  0.00    -0.046 A  
ATOM     15  CE2 TYR A   1      -6.976   3.711  68.789  1.00  0.00    -0.046 A  
ATOM     16  OH  TYR A   1      -7.180   1.567  69.753  1.00  0.00    -0.036 OA 
ATOM     17  HH  TYR A   1      -6.331   1.674  70.168  1.00  0.00     0.000 HD 
ATOM     18  CD2 TYR A   1      -7.522   4.765  68.053  1.00  0.00    -0.074 A  
ENDBRANCH  10  11
ENDBRANCH   6  10
ENDBRANCH   3   6
TORSDOF 3
ENDMDL
MODEL      255
REMARK 921   NORMALIZED FREE ENERGY PREDICTED BY IDOCK:   -1.17 KCAL/MOL
REMARK 922        TOTAL FREE ENERGY PREDICTED BY IDOCK:   -1.81 KCAL/MOL
REMARK 923 INTER-LIGAND FREE ENERGY PREDICTED BY IDOCK:   -2.57 KCAL/MOL
REMARK 924 INTRA-LIGAND FREE ENERGY PREDICTED BY IDOCK:    0.76 KCAL/MOL
REMARK 927      BINDING AFFINITY PREDICTED BY RF-SCORE:    0.00 PKD
ROOT
HETATM    1  C   UNK A   0      -7.002   5.386  65.497  1.00  0.00    -0.065 C  
HETATM    2  C   UNK A   0      -7.620   5.198  66.851  1.00  0.00    -0.088 C  
ATOM      3  N   TYR A   1      -7.028   5.891  67.877  1.00  0.00    -0.064 N  
HETATM    4  O   UNK A   0      -8.629   4.520  67.035  1.00  0.00    -0.105 OA 
ATOM      5  H   TYR A   1      -6.178   6.427  67.703  1.00  0.00     0.000 HD 
ENDROOT
BRANCH   3   6
ATOM      6  CA  TYR A   1      -7.614   5.864  69.223  1.00  0.00    -0.089 C  
ATOM      7  C   TYR A   1      -6.789   4.919  70.122  1.00  0.00    -0.044 C  
ATOM      8  O   TYR A   1      -5.547   5.398  70.400  1.00  0.00    -0.007 OA 
ATOM      9  OXT TYR A   1      -7.163   3.833  70.539  1.00  0.00    -0.040 OA 
BRANCH   6  10
ATOM     10  CB  TYR A   1      -9.102   5.467  69.183  1.00  0.00    -0.131 C  
BRANCH  10  11
ATOM     11  CG  TYR A   1      -9.982   6.160  70.200  1.00  0.00    -0.218 A  
ATOM     12  CD1 TYR A   1     -11.292   5.733  70.471  1.00  0.00    -0.088 A  
ATOM     13  CE1 TYR A   1     -12.124   6.472  71.316  1.00  0.00    -0.328 A  
ATOM     14  CZ  TYR A   1     -11.634   7.617  71.928  1.00  0.00    -0.280 A  
ATOM     15  CE2 TYR A   1     -10.315   8.009  71.747  1.00  0.00    -0.275 A  
ATOM     16  OH  TYR A   1     -12.434   8.396  72.710  1.00  0.00    -0.589 OA 
ATOM     17  HH  TYR A   1     -12.098   9.180  73.129  1.00  0.00     0.000 HD 
ATOM     18  CD2 TYR A   1      -9.491   7.281  70.886  1.00  0.00    -0.159 A  
ENDBRANCH  10  11
ENDBRANCH   6  10
ENDBRANCH   3   6
TORSDOF 3
ENDMDL
MODEL      256
REMARK 921   NORMALIZED FREE ENERGY PREDICTED BY IDOCK:   -1.13 KCAL/MOL
REMARK 922        TOTAL FREE ENERGY PREDICTED BY IDOCK:   -1.76 KCAL/MOL
REMARK 923 INTER-LIGAND FREE ENERGY PREDICTED BY IDOCK:   -2.24 KCAL/MOL
REMARK 924 INTRA-LIGAND FREE ENERGY PREDICTED BY IDOCK:    0.48 KCAL/MOL
REMARK 927      BINDING AFFINITY PREDICTED BY RF-SCORE:    0.00 PKD
ROOT
HETATM    1  C   UNK A   0     -10.670  11.285  66.884  1.00  0.00    -0.319 C  
HETATM    2  C   UNK A   0      -9.207  11.351  67.211  1.00  0.00    -0.165 C  
ATOM      3  N   TYR A   1      -8.442  12.113  66.363  1.00  0.00    -0.396 N  
HETATM    4  O   UNK A   0      -8.721  10.816  68.205  1.00  0.00    -0.125 OA 
ATOM      5  H   TYR A   1      -8.865  12.527  65.532  1.00  0.00     0.000 HD 
ENDROOT
BRANCH   3   6
ATOM      6  CA  TYR A   1      -7.018  12.334  66.648  1.00  0.00     0.362 C  
ATOM      7  C   TYR A   1      -6.270  10.985  66.600  1.00  0.00    -0.124 C  
ATOM      8  O   TYR A   1      -6.196  10.462  65.348  1.00  0.00    -0.115 OA 
ATOM      9  OXT TYR A   1      -5.804  10.400  67.566  1.00  0.00    -0.045 OA 
BRANCH   6  10
ATOM     10  CB  TYR A   1      -6.818  13.056  67.994  1.00  0.00    -0.113 C  
BRANCH  10  11
ATOM     11  CG  TYR A   1      -6.725  14.564  67.909  1.00  0.00    -0.176 A  
ATOM     12  CD1 TYR A   1      -5.599  15.271  68.360  1.00  0.00    -0.108 A  
ATOM     13  CE1 TYR A   1      -5.598  16.668  68.391  1.00  0.00    -0.121 A  
ATOM     14  CZ  TYR A   1      -6.706  17.364  67.928  1.00  0.00    -0.173 A  
ATOM     15  CE2 TYR A   1      -7.794  16.688  67.393  1.00  0.00    -0.188 A  
ATOM     16  OH  TYR A   1      -6.765  18.724  67.998  1.00  0.00    -0.218 OA 
ATOM     17  HH  TYR A   1      -7.524  19.200  67.680  1.00  0.00     0.000 HD 
ATOM     18  CD2 TYR A   1      -7.803  15.292  67.382  1.00  0.00    -0.220 A  
ENDBRANCH  10  11
ENDBRANCH   6  10
ENDBRANCH   3   6
TORSDOF 3
ENDMDL
MODEL      257
REMARK 921   NORMALIZED FREE ENERGY PREDICTED BY IDOCK:   -0.83 KCAL/MOL
REMARK 922        TOTAL FREE ENERGY PREDICTED BY IDOCK:   -1.41 KCAL/MOL
REMARK 923 INTER-LIGAND FREE ENERGY PREDICTED BY IDOCK:   -2.21 KCAL/MOL
REMARK 924 INTRA-LIGAND FREE ENERGY PREDICTED BY IDOCK:    0.80 KCAL/MOL
REMARK 927      BINDING AFFINITY PREDICTED BY RF-SCORE:    0.00 PKD
ROOT
HETATM    1  C   UNK A   0     -10.487  11.018  66.778  1.00  0.00    -0.300 C  
HETATM    2  C   UNK A   0      -9.224  11.530  67.405  1.00  0.00    -0.166 C  
ATOM      3  N   TYR A   1      -8.603  12.556  66.740  1.00  0.00    -0.348 N  
HETATM    4  O   UNK A   0      -8.795  11.110  68.479  1.00  0.00    -0.151 OA 
ATOM      5  H   TYR A   1      -8.965  12.870  65.840  1.00  0.00     0.000 HD 
ENDROOT
BRANCH   3   6
ATOM      6  CA  TYR A   1      -7.419  13.204  67.319  1.00  0.00    -0.064 C  
ATOM      7  C   TYR A   1      -6.293  12.162  67.483  1.00  0.00    -0.129 C  
ATOM      8  O   TYR A   1      -5.788  11.733  66.297  1.00  0.00    -0.192 OA 
ATOM      9  OXT TYR A   1      -5.888  11.720  68.549  1.00  0.00    -0.049 OA 
BRANCH   6  10
ATOM     10  CB  TYR A   1      -7.754  13.906  68.650  1.00  0.00    -0.128 C  
BRANCH  10  11
ATOM     11  CG  TYR A   1      -9.124  14.545  68.714  1.00  0.00    -0.158 A  
ATOM     12  CD1 TYR A   1      -9.650  15.294  67.650  1.00  0.00    -0.206 A  
ATOM     13  CE1 TYR A   1     -10.859  15.983  67.789  1.00  0.00    -0.324 A  
ATOM     14  CZ  TYR A   1     -11.568  15.885  68.978  1.00  0.00    -0.389 A  
ATOM     15  CE2 TYR A   1     -11.112  15.078  70.011  1.00  0.00    -0.290 A  
ATOM     16  OH  TYR A   1     -12.718  16.589  69.173  1.00  0.00     0.058 OA 
ATOM     17  HH  TYR A   1     -13.204  16.523  69.987  1.00  0.00     0.000 HD 
ATOM     18  CD2 TYR A   1      -9.894  14.408  69.878  1.00  0.00     0.627 A  
ENDBRANCH  10  11
ENDBRANCH   6  10
ENDBRANCH   3   6
TORSDOF 3
ENDMDL
MODEL      258
REMARK 921   NORMALIZED FREE ENERGY PREDICTED BY IDOCK:    0.14 KCAL/MOL
REMARK 922        TOTAL FREE ENERGY PREDICTED BY IDOCK:   -0.27 KCAL/MOL
REMARK 923 INTER-LIGAND FREE ENERGY PREDICTED BY IDOCK:   -0.67 KCAL/MOL
REMARK 924 INTRA-LIGAND FREE ENERGY PREDICTED BY IDOCK:    0.40 KCAL/MOL
REMARK 927      BINDING AFFINITY PREDICTED BY RF-SCORE:    0.00 PKD
ROOT
HETATM    1  C   UNK A   0     -12.542  13.181  64.696  1.00  0.00    -0.384 C  
HETATM    2  C   UNK A   0     -11.556  12.992  65.811  1.00  0.00    -0.356 C  
ATOM      3  N   TYR A   1     -10.244  13.238  65.493  1.00  0.00    -0.294 N  
HETATM    4  O   UNK A   0     -11.893  12.699  66.956  1.00  0.00    -0.376 OA 
ATOM      5  H   TYR A   1      -9.988  13.457  64.530  1.00  0.00     0.000 HD 
ENDROOT
BRANCH   3   6
ATOM      6  CA  TYR A   1      -9.208  13.188  66.532  1.00  0.00    -0.177 C  
ATOM      7  C   TYR A   1      -8.984  11.723  66.962  1.00  0.00    -0.186 C  
ATOM      8  O   TYR A   1      -8.404  10.967  65.994  1.00  0.00    -0.164 OA 
ATOM      9  OXT TYR A   1      -9.307  11.245  68.040  1.00  0.00    -0.156 OA 
BRANCH   6  10
ATOM     10  CB  TYR A   1      -9.565  14.091  67.728  1.00  0.00    -0.216 C  
BRANCH  10  11
ATOM     11  CG  TYR A   1      -8.405  14.454  68.631  1.00  0.00    -0.147 A  
ATOM     12  CD1 TYR A   1      -7.081  14.495  68.167  1.00  0.00    -0.125 A  
ATOM     13  CE1 TYR A   1      -6.020  14.702  69.052  1.00  0.00    -0.089 A  
ATOM     14  CZ  TYR A   1      -6.283  14.915  70.398  1.00  0.00    -0.127 A  
ATOM     15  CE2 TYR A   1      -7.590  14.969  70.864  1.00  0.00     1.629 A  
ATOM     16  OH  TYR A   1      -5.273  15.060  71.300  1.00  0.00    -0.137 OA 
ATOM     17  HH  TYR A   1      -5.453  15.206  72.222  1.00  0.00     0.000 HD 
ATOM     18  CD2 TYR A   1      -8.648  14.741  69.982  1.00  0.00     0.630 A  
ENDBRANCH  10  11
ENDBRANCH   6  10
ENDBRANCH   3   6
TORSDOF 3
ENDMDL
MODEL      259
REMARK 921   NORMALIZED FREE ENERGY PREDICTED BY IDOCK:   15.03 KCAL/MOL
REMARK 922        TOTAL FREE ENERGY PREDICTED BY IDOCK:   17.23 KCAL/MOL
REMARK 923 INTER-LIGAND FREE ENERGY PREDICTED BY IDOCK:   13.51 KCAL/MOL
REMARK 924 INTRA-LIGAND FREE ENERGY PREDICTED BY IDOCK:    3.73 KCAL/MOL
REMARK 927      BINDING AFFINITY PREDICTED BY RF-SCORE:    0.00 PKD
ROOT
HETATM    1  C   UNK A   0      -9.360  11.823  71.310  1.00  0.00    10.900 C  
HETATM    2  C   UNK A   0      -9.081  12.492  69.996  1.00  0.00     3.591 C  
ATOM      3  N   TYR A   1      -7.815  12.320  69.498  1.00  0.00     0.096 N  
HETATM    4  O   UNK A   0      -9.940  13.106  69.365  1.00  0.00     0.424 OA 
ATOM      5  H   TYR A   1      -7.114  11.827  70.052  1.00  0.00     0.000 HD 
ENDROOT
BRANCH   3   6
ATOM      6  CA  TYR A   1      -7.464  12.841  68.170  1.00  0.00    -0.124 C  
ATOM      7  C   TYR A   1      -5.935  13.029  68.081  1.00  0.00    -0.092 C  
ATOM      8  O   TYR A   1      -5.254  11.854  68.075  1.00  0.00    -0.045 OA 
ATOM      9  OXT TYR A   1      -5.356  14.105  68.046  1.00  0.00    -0.114 OA 
BRANCH   6  10
ATOM     10  CB  TYR A   1      -8.225  14.144  67.858  1.00  0.00    -0.155 C  
BRANCH  10  11
ATOM     11  CG  TYR A   1      -7.397  15.409  67.938  1.00  0.00    -0.155 A  
ATOM     12  CD1 TYR A   1      -7.444  16.264  69.050  1.00  0.00    -0.220 A  
ATOM     13  CE1 TYR A   1      -6.772  17.489  69.038  1.00  0.00    -0.247 A  
ATOM     14  CZ  TYR A   1      -6.012  17.842  67.931  1.00  0.00    -0.156 A  
ATOM     15  CE2 TYR A   1      -5.878  16.972  66.858  1.00  0.00    -0.225 A  
ATOM     16  OH  TYR A   1      -5.392  19.053  67.858  1.00  0.00    -0.176 OA 
ATOM     17  HH  TYR A   1      -4.872  19.295  67.100  1.00  0.00     0.000 HD 
ATOM     18  CD2 TYR A   1      -6.567  15.758  66.862  1.00  0.00     0.206 A  
ENDBRANCH  10  11
ENDBRANCH   6  10
ENDBRANCH   3   6
TORSDOF 3
ENDMDL
