MODEL        1
REMARK 921   NORMALIZED FREE ENERGY PREDICTED BY IDOCK:   -6.46 KCAL/MOL
REMARK 922        TOTAL FREE ENERGY PREDICTED BY IDOCK:   -8.65 KCAL/MOL
REMARK 923 INTER-LIGAND FREE ENERGY PREDICTED BY IDOCK:   -7.98 KCAL/MOL
REMARK 924 INTRA-LIGAND FREE ENERGY PREDICTED BY IDOCK:   -0.67 KCAL/MOL
REMARK 927      BINDING AFFINITY PREDICTED BY RF-SCORE:    0.00 PKD
ROOT
HETATM    1  C   UNL     1      -9.696  20.242  67.559  1.00  0.00    -0.575 C  
HETATM    2  C   UNL     1     -10.770  19.584  66.699  1.00  0.00    -0.552 C  
HETATM    3  C   UNL     1     -10.321  18.227  66.165  1.00  0.00    -0.414 C  
HETATM    4  C   UNL     1      -9.813  17.286  67.266  1.00  0.00    -0.267 C  
HETATM    5  C   UNL     1      -8.714  17.972  68.090  1.00  0.00    -0.277 C  
HETATM    6  C   UNL     1      -9.176  19.316  68.654  1.00  0.00    -0.436 C  
ENDROOT
BRANCH   4   7
HETATM    7  N   UNL     1     -10.907  16.889  68.159  1.00  0.00    -0.370 NA 
HETATM    8  H   UNL     1     -11.404  17.610  68.682  1.00  0.00     0.000 HD 
BRANCH   7   9
HETATM    9  C   UNL     1     -11.287  15.557  68.311  1.00  0.00    -0.357 A  
HETATM   10  C   UNL     1     -11.688  15.001  69.525  1.00  0.00    -0.350 A  
HETATM   11  C   UNL     1     -11.959  13.638  69.637  1.00  0.00    -0.402 A  
HETATM   12  C   UNL     1     -11.906  12.799  68.525  1.00  0.00    -0.306 A  
HETATM   13  C   UNL     1     -11.657  13.367  67.277  1.00  0.00    -0.400 A  
HETATM   14  C   UNL     1     -11.336  14.731  67.178  1.00  0.00    -0.363 A  
BRANCH  12  15
HETATM   15  N   UNL     1     -12.058  11.424  68.746  1.00  0.00    -0.514 NA 
HETATM   16  H   UNL     1     -12.479  10.922  67.964  1.00  0.00     0.000 HD 
BRANCH  15  17
HETATM   17  C   UNL     1     -11.741  10.609  69.840  1.00  0.00    -0.317 A  
HETATM   18  C   UNL     1     -12.719  10.362  70.812  1.00  0.00    -0.460 A  
HETATM   19  C   UNL     1     -12.474   9.484  71.869  1.00  0.00    -0.465 A  
HETATM   20  C   UNL     1     -11.244   8.840  71.962  1.00  0.00    -0.443 A  
HETATM   21  C   UNL     1     -10.251   9.099  71.019  1.00  0.00    -0.372 A  
HETATM   22  C   UNL     1     -10.492   9.994  69.972  1.00  0.00    -0.337 A  
ENDBRANCH  15  17
ENDBRANCH  12  15
ENDBRANCH   7   9
ENDBRANCH   4   7
TORSDOF 4
ENDMDL
MODEL        2
REMARK 921   NORMALIZED FREE ENERGY PREDICTED BY IDOCK:   -6.46 KCAL/MOL
REMARK 922        TOTAL FREE ENERGY PREDICTED BY IDOCK:   -8.65 KCAL/MOL
REMARK 923 INTER-LIGAND FREE ENERGY PREDICTED BY IDOCK:   -7.96 KCAL/MOL
REMARK 924 INTRA-LIGAND FREE ENERGY PREDICTED BY IDOCK:   -0.69 KCAL/MOL
REMARK 927      BINDING AFFINITY PREDICTED BY RF-SCORE:    0.00 PKD
ROOT
HETATM    1  C   UNL     1      -8.306   9.883  63.185  1.00  0.00    -0.166 C  
HETATM    2  C   UNL     1      -8.944  11.173  62.678  1.00  0.00    -0.347 C  
HETATM    3  C   UNL     1     -10.357  11.362  63.222  1.00  0.00    -0.422 C  
HETATM    4  C   UNL     1     -10.433  11.247  64.751  1.00  0.00    -0.323 C  
HETATM    5  C   UNL     1      -9.809   9.926  65.220  1.00  0.00    -0.373 C  
HETATM    6  C   UNL     1      -8.380   9.752  64.703  1.00  0.00    -0.165 C  
ENDROOT
BRANCH   4   7
HETATM    7  N   UNL     1      -9.733  12.365  65.392  1.00  0.00    -0.424 NA 
HETATM    8  H   UNL     1      -8.777  12.579  65.108  1.00  0.00     0.000 HD 
BRANCH   7   9
HETATM    9  C   UNL     1     -10.336  13.144  66.379  1.00  0.00    -0.287 A  
HETATM   10  C   UNL     1     -11.253  12.648  67.304  1.00  0.00    -0.346 A  
HETATM   11  C   UNL     1     -11.900  13.495  68.201  1.00  0.00    -0.400 A  
HETATM   12  C   UNL     1     -11.598  14.856  68.252  1.00  0.00    -0.334 A  
HETATM   13  C   UNL     1     -10.574  15.339  67.440  1.00  0.00    -0.282 A  
HETATM   14  C   UNL     1      -9.962  14.490  66.504  1.00  0.00    -0.290 A  
BRANCH  12  15
HETATM   15  N   UNL     1     -12.387  15.661  69.086  1.00  0.00    -0.587 NA 
HETATM   16  H   UNL     1     -12.864  16.420  68.599  1.00  0.00     0.000 HD 
BRANCH  15  17
HETATM   17  C   UNL     1     -12.643  15.618  70.462  1.00  0.00    -0.379 A  
HETATM   18  C   UNL     1     -11.645  16.032  71.353  1.00  0.00    -0.520 A  
HETATM   19  C   UNL     1     -11.889  16.092  72.726  1.00  0.00    -0.584 A  
HETATM   20  C   UNL     1     -13.140  15.739  73.222  1.00  0.00    -0.692 A  
HETATM   21  C   UNL     1     -14.134  15.297  72.349  1.00  0.00    -0.622 A  
HETATM   22  C   UNL     1     -13.880  15.220  70.977  1.00  0.00    -0.414 A  
ENDBRANCH  15  17
ENDBRANCH  12  15
ENDBRANCH   7   9
ENDBRANCH   4   7
TORSDOF 4
ENDMDL
MODEL        3
REMARK 921   NORMALIZED FREE ENERGY PREDICTED BY IDOCK:   -6.37 KCAL/MOL
REMARK 922        TOTAL FREE ENERGY PREDICTED BY IDOCK:   -8.54 KCAL/MOL
REMARK 923 INTER-LIGAND FREE ENERGY PREDICTED BY IDOCK:   -7.81 KCAL/MOL
REMARK 924 INTRA-LIGAND FREE ENERGY PREDICTED BY IDOCK:   -0.73 KCAL/MOL
REMARK 927      BINDING AFFINITY PREDICTED BY RF-SCORE:    0.00 PKD
ROOT
HETATM    1  C   UNL     1     -13.016  14.903  73.572  1.00  0.00    -0.518 C  
HETATM    2  C   UNL     1     -13.659  14.179  72.392  1.00  0.00    -0.632 C  
HETATM    3  C   UNL     1     -13.717  15.057  71.146  1.00  0.00    -0.484 C  
HETATM    4  C   UNL     1     -12.356  15.664  70.774  1.00  0.00    -0.419 C  
HETATM    5  C   UNL     1     -11.756  16.408  71.975  1.00  0.00    -0.434 C  
HETATM    6  C   UNL     1     -11.666  15.517  73.215  1.00  0.00    -0.396 C  
ENDROOT
BRANCH   4   7
HETATM    7  N   UNL     1     -11.423  14.620  70.339  1.00  0.00    -0.379 NA 
HETATM    8  H   UNL     1     -10.624  14.392  70.932  1.00  0.00     0.000 HD 
BRANCH   7   9
HETATM    9  C   UNL     1     -11.595  13.929  69.140  1.00  0.00    -0.313 A  
HETATM   10  C   UNL     1     -11.703  12.543  69.054  1.00  0.00    -0.368 A  
HETATM   11  C   UNL     1     -11.772  11.901  67.819  1.00  0.00    -0.362 A  
HETATM   12  C   UNL     1     -11.807  12.630  66.630  1.00  0.00    -0.380 A  
HETATM   13  C   UNL     1     -11.855  14.020  66.706  1.00  0.00    -0.450 A  
HETATM   14  C   UNL     1     -11.735  14.660  67.951  1.00  0.00    -0.379 A  
BRANCH  12  15
HETATM   15  N   UNL     1     -11.740  11.910  65.430  1.00  0.00    -0.294 NA 
HETATM   16  H   UNL     1     -12.642  11.779  64.973  1.00  0.00     0.000 HD 
BRANCH  15  17
HETATM   17  C   UNL     1     -10.664  11.336  64.739  1.00  0.00    -0.285 A  
HETATM   18  C   UNL     1     -10.004  10.237  65.301  1.00  0.00    -0.387 A  
HETATM   19  C   UNL     1      -8.988   9.579  64.605  1.00  0.00    -0.266 A  
HETATM   20  C   UNL     1      -8.625  10.015  63.335  1.00  0.00    -0.204 A  
HETATM   21  C   UNL     1      -9.254  11.127  62.776  1.00  0.00    -0.374 A  
HETATM   22  C   UNL     1     -10.257  11.795  63.483  1.00  0.00    -0.483 A  
ENDBRANCH  15  17
ENDBRANCH  12  15
ENDBRANCH   7   9
ENDBRANCH   4   7
TORSDOF 4
ENDMDL
MODEL        4
REMARK 921   NORMALIZED FREE ENERGY PREDICTED BY IDOCK:   -6.25 KCAL/MOL
REMARK 922        TOTAL FREE ENERGY PREDICTED BY IDOCK:   -8.39 KCAL/MOL
REMARK 923 INTER-LIGAND FREE ENERGY PREDICTED BY IDOCK:   -7.90 KCAL/MOL
REMARK 924 INTRA-LIGAND FREE ENERGY PREDICTED BY IDOCK:   -0.48 KCAL/MOL
REMARK 927      BINDING AFFINITY PREDICTED BY RF-SCORE:    0.00 PKD
ROOT
HETATM    1  C   UNL     1     -12.051  16.334  72.693  1.00  0.00    -0.628 C  
HETATM    2  C   UNL     1     -12.435  15.051  73.424  1.00  0.00    -0.603 C  
HETATM    3  C   UNL     1     -13.543  14.292  72.701  1.00  0.00    -0.601 C  
HETATM    4  C   UNL     1     -13.228  14.035  71.220  1.00  0.00    -0.303 C  
HETATM    5  C   UNL     1     -12.876  15.351  70.513  1.00  0.00    -0.425 C  
HETATM    6  C   UNL     1     -11.742  16.096  71.218  1.00  0.00    -0.480 C  
ENDROOT
BRANCH   4   7
HETATM    7  N   UNL     1     -12.108  13.099  71.081  1.00  0.00    -0.360 NA 
HETATM    8  H   UNL     1     -11.160  13.469  71.007  1.00  0.00     0.000 HD 
BRANCH   7   9
HETATM    9  C   UNL     1     -12.301  11.719  71.046  1.00  0.00    -0.282 A  
HETATM   10  C   UNL     1     -13.270  11.054  71.795  1.00  0.00    -0.505 A  
HETATM   11  C   UNL     1     -13.349   9.662  71.797  1.00  0.00    -0.505 A  
HETATM   12  C   UNL     1     -12.507   8.892  70.995  1.00  0.00    -0.140 A  
HETATM   13  C   UNL     1     -11.637   9.548  70.126  1.00  0.00    -0.156 A  
HETATM   14  C   UNL     1     -11.528  10.947  70.165  1.00  0.00    -0.405 A  
BRANCH  12  15
HETATM   15  N   UNL     1     -12.558   7.501  71.155  1.00  0.00    -0.492 NA 
HETATM   16  H   UNL     1     -13.481   7.146  71.402  1.00  0.00     0.000 HD 
BRANCH  15  17
HETATM   17  C   UNL     1     -11.577   6.507  71.040  1.00  0.00    -0.348 A  
HETATM   18  C   UNL     1     -11.085   5.899  72.202  1.00  0.00    -0.333 A  
HETATM   19  C   UNL     1     -10.175   4.843  72.128  1.00  0.00    -0.257 A  
HETATM   20  C   UNL     1      -9.751   4.381  70.886  1.00  0.00    -0.267 A  
HETATM   21  C   UNL     1     -10.211   4.997  69.722  1.00  0.00    -0.336 A  
HETATM   22  C   UNL     1     -11.106   6.067  69.800  1.00  0.00    -0.476 A  
ENDBRANCH  15  17
ENDBRANCH  12  15
ENDBRANCH   7   9
ENDBRANCH   4   7
TORSDOF 4
ENDMDL
MODEL        5
REMARK 921   NORMALIZED FREE ENERGY PREDICTED BY IDOCK:   -6.24 KCAL/MOL
REMARK 922        TOTAL FREE ENERGY PREDICTED BY IDOCK:   -8.37 KCAL/MOL
REMARK 923 INTER-LIGAND FREE ENERGY PREDICTED BY IDOCK:   -7.50 KCAL/MOL
REMARK 924 INTRA-LIGAND FREE ENERGY PREDICTED BY IDOCK:   -0.87 KCAL/MOL
REMARK 927      BINDING AFFINITY PREDICTED BY RF-SCORE:    0.00 PKD
ROOT
HETATM    1  C   UNL     1     -12.347  12.149  63.571  1.00  0.00    -0.682 C  
HETATM    2  C   UNL     1     -12.525  12.610  65.014  1.00  0.00    -0.556 C  
HETATM    3  C   UNL     1     -11.526  11.943  65.954  1.00  0.00    -0.340 C  
HETATM    4  C   UNL     1     -10.071  12.085  65.483  1.00  0.00    -0.252 C  
HETATM    5  C   UNL     1      -9.926  11.583  64.040  1.00  0.00    -0.341 C  
HETATM    6  C   UNL     1     -10.904  12.277  63.091  1.00  0.00    -0.184 C  
ENDROOT
BRANCH   4   7
HETATM    7  N   UNL     1      -9.635  13.483  65.554  1.00  0.00    -0.508 NA 
HETATM    8  H   UNL     1      -9.120  13.881  64.768  1.00  0.00     0.000 HD 
BRANCH   7   9
HETATM    9  C   UNL     1      -9.902  14.284  66.663  1.00  0.00    -0.281 A  
HETATM   10  C   UNL     1      -9.426  14.014  67.945  1.00  0.00    -0.210 A  
HETATM   11  C   UNL     1      -9.811  14.794  69.034  1.00  0.00    -0.206 A  
HETATM   12  C   UNL     1     -10.627  15.912  68.867  1.00  0.00    -0.244 A  
HETATM   13  C   UNL     1     -10.985  16.284  67.573  1.00  0.00    -0.207 A  
HETATM   14  C   UNL     1     -10.636  15.466  66.486  1.00  0.00    -0.306 A  
BRANCH  12  15
HETATM   15  N   UNL     1     -11.077  16.561  70.025  1.00  0.00    -0.426 NA 
HETATM   16  H   UNL     1     -10.676  17.489  70.162  1.00  0.00     0.000 HD 
BRANCH  15  17
HETATM   17  C   UNL     1     -11.975  16.175  71.028  1.00  0.00    -0.268 A  
HETATM   18  C   UNL     1     -13.109  15.433  70.677  1.00  0.00    -0.405 A  
HETATM   19  C   UNL     1     -13.981  14.950  71.655  1.00  0.00    -0.573 A  
HETATM   20  C   UNL     1     -13.722  15.204  72.998  1.00  0.00    -0.390 A  
HETATM   21  C   UNL     1     -12.612  15.966  73.360  1.00  0.00    -0.666 A  
HETATM   22  C   UNL     1     -11.752  16.465  72.377  1.00  0.00    -0.459 A  
ENDBRANCH  15  17
ENDBRANCH  12  15
ENDBRANCH   7   9
ENDBRANCH   4   7
TORSDOF 4
ENDMDL
MODEL        6
REMARK 921   NORMALIZED FREE ENERGY PREDICTED BY IDOCK:   -6.24 KCAL/MOL
REMARK 922        TOTAL FREE ENERGY PREDICTED BY IDOCK:   -8.37 KCAL/MOL
REMARK 923 INTER-LIGAND FREE ENERGY PREDICTED BY IDOCK:   -7.64 KCAL/MOL
REMARK 924 INTRA-LIGAND FREE ENERGY PREDICTED BY IDOCK:   -0.73 KCAL/MOL
REMARK 927      BINDING AFFINITY PREDICTED BY RF-SCORE:    0.00 PKD
ROOT
HETATM    1  C   UNL     1      -9.399   6.606  66.280  1.00  0.00    -0.144 C  
HETATM    2  C   UNL     1     -10.740   6.476  66.997  1.00  0.00    -0.434 C  
HETATM    3  C   UNL     1     -10.704   7.094  68.391  1.00  0.00    -0.192 C  
HETATM    4  C   UNL     1     -10.190   8.541  68.394  1.00  0.00    -0.203 C  
HETATM    5  C   UNL     1      -8.828   8.626  67.691  1.00  0.00    -0.138 C  
HETATM    6  C   UNL     1      -8.873   8.037  66.281  1.00  0.00    -0.191 C  
ENDROOT
BRANCH   4   7
HETATM    7  N   UNL     1     -11.137   9.432  67.716  1.00  0.00    -0.487 NA 
HETATM    8  H   UNL     1     -11.652   9.083  66.907  1.00  0.00     0.000 HD 
BRANCH   7   9
HETATM    9  C   UNL     1     -11.356  10.740  68.145  1.00  0.00    -0.308 A  
HETATM   10  C   UNL     1     -11.492  11.102  69.484  1.00  0.00    -0.374 A  
HETATM   11  C   UNL     1     -11.811  12.410  69.846  1.00  0.00    -0.376 A  
HETATM   12  C   UNL     1     -11.934  13.414  68.886  1.00  0.00    -0.324 A  
HETATM   13  C   UNL     1     -11.649  13.100  67.559  1.00  0.00    -0.398 A  
HETATM   14  C   UNL     1     -11.378  11.771  67.194  1.00  0.00    -0.387 A  
BRANCH  12  15
HETATM   15  N   UNL     1     -12.388  14.668  69.318  1.00  0.00    -0.560 NA 
HETATM   16  H   UNL     1     -12.498  15.350  68.568  1.00  0.00     0.000 HD 
BRANCH  15  17
HETATM   17  C   UNL     1     -12.720  15.159  70.587  1.00  0.00    -0.398 A  
HETATM   18  C   UNL     1     -14.013  14.950  71.081  1.00  0.00    -0.403 A  
HETATM   19  C   UNL     1     -14.358  15.342  72.376  1.00  0.00    -0.489 A  
HETATM   20  C   UNL     1     -13.407  15.948  73.191  1.00  0.00    -0.681 A  
HETATM   21  C   UNL     1     -12.125  16.189  72.702  1.00  0.00    -0.652 A  
HETATM   22  C   UNL     1     -11.788  15.813  71.398  1.00  0.00    -0.503 A  
ENDBRANCH  15  17
ENDBRANCH  12  15
ENDBRANCH   7   9
ENDBRANCH   4   7
TORSDOF 4
ENDMDL
MODEL        7
REMARK 921   NORMALIZED FREE ENERGY PREDICTED BY IDOCK:   -6.16 KCAL/MOL
REMARK 922        TOTAL FREE ENERGY PREDICTED BY IDOCK:   -8.27 KCAL/MOL
REMARK 923 INTER-LIGAND FREE ENERGY PREDICTED BY IDOCK:   -7.44 KCAL/MOL
REMARK 924 INTRA-LIGAND FREE ENERGY PREDICTED BY IDOCK:   -0.83 KCAL/MOL
REMARK 927      BINDING AFFINITY PREDICTED BY RF-SCORE:    0.00 PKD
ROOT
HETATM    1  C   UNL     1      -8.383  19.503  66.645  1.00  0.00    -0.340 C  
HETATM    2  C   UNL     1      -8.130  18.041  67.001  1.00  0.00    -0.241 C  
HETATM    3  C   UNL     1      -8.645  17.695  68.395  1.00  0.00    -0.284 C  
HETATM    4  C   UNL     1     -10.114  18.091  68.608  1.00  0.00    -0.394 C  
HETATM    5  C   UNL     1     -10.322  19.573  68.268  1.00  0.00    -0.524 C  
HETATM    6  C   UNL     1      -9.837  19.912  66.858  1.00  0.00    -0.540 C  
ENDROOT
BRANCH   4   7
HETATM    7  N   UNL     1     -11.000  17.276  67.770  1.00  0.00    -0.258 NA 
HETATM    8  H   UNL     1     -11.503  17.721  67.003  1.00  0.00     0.000 HD 
BRANCH   7   9
HETATM    9  C   UNL     1     -11.173  15.910  67.991  1.00  0.00    -0.319 A  
HETATM   10  C   UNL     1     -11.013  14.940  67.004  1.00  0.00    -0.327 A  
HETATM   11  C   UNL     1     -11.300  13.600  67.259  1.00  0.00    -0.346 A  
HETATM   12  C   UNL     1     -11.687  13.175  68.530  1.00  0.00    -0.352 A  
HETATM   13  C   UNL     1     -11.702  14.109  69.564  1.00  0.00    -0.364 A  
HETATM   14  C   UNL     1     -11.461  15.465  69.290  1.00  0.00    -0.344 A  
BRANCH  12  15
HETATM   15  N   UNL     1     -12.086  11.839  68.670  1.00  0.00    -0.421 NA 
HETATM   16  H   UNL     1     -12.673  11.500  67.908  1.00  0.00     0.000 HD 
BRANCH  15  17
HETATM   17  C   UNL     1     -11.831  10.883  69.661  1.00  0.00    -0.344 A  
HETATM   18  C   UNL     1     -10.576  10.262  69.700  1.00  0.00    -0.288 A  
HETATM   19  C   UNL     1     -10.249   9.371  70.724  1.00  0.00    -0.368 A  
HETATM   20  C   UNL     1     -11.176   9.096  71.723  1.00  0.00    -0.451 A  
HETATM   21  C   UNL     1     -12.439   9.684  71.681  1.00  0.00    -0.494 A  
HETATM   22  C   UNL     1     -12.771  10.560  70.644  1.00  0.00    -0.441 A  
ENDBRANCH  15  17
ENDBRANCH  12  15
ENDBRANCH   7   9
ENDBRANCH   4   7
TORSDOF 4
ENDMDL
MODEL        8
REMARK 921   NORMALIZED FREE ENERGY PREDICTED BY IDOCK:   -6.14 KCAL/MOL
REMARK 922        TOTAL FREE ENERGY PREDICTED BY IDOCK:   -8.25 KCAL/MOL
REMARK 923 INTER-LIGAND FREE ENERGY PREDICTED BY IDOCK:   -7.42 KCAL/MOL
REMARK 924 INTRA-LIGAND FREE ENERGY PREDICTED BY IDOCK:   -0.82 KCAL/MOL
REMARK 927      BINDING AFFINITY PREDICTED BY RF-SCORE:    0.00 PKD
ROOT
HETATM    1  C   UNL     1     -12.598  11.968  63.679  1.00  0.00    -0.605 C  
HETATM    2  C   UNL     1     -12.774  13.060  64.729  1.00  0.00    -0.409 C  
HETATM    3  C   UNL     1     -11.917  12.806  65.966  1.00  0.00    -0.491 C  
HETATM    4  C   UNL     1     -10.437  12.566  65.631  1.00  0.00    -0.273 C  
HETATM    5  C   UNL     1     -10.299  11.442  64.595  1.00  0.00    -0.362 C  
HETATM    6  C   UNL     1     -11.132  11.713  63.341  1.00  0.00    -0.422 C  
ENDROOT
BRANCH   4   7
HETATM    7  N   UNL     1      -9.817  13.786  65.104  1.00  0.00    -0.587 NA 
HETATM    8  H   UNL     1      -9.398  13.766  64.174  1.00  0.00     0.000 HD 
BRANCH   7   9
HETATM    9  C   UNL     1      -9.785  14.972  65.836  1.00  0.00    -0.342 A  
HETATM   10  C   UNL     1     -10.531  16.103  65.510  1.00  0.00    -0.407 A  
HETATM   11  C   UNL     1     -10.380  17.293  66.220  1.00  0.00    -0.323 A  
HETATM   12  C   UNL     1      -9.531  17.372  67.323  1.00  0.00    -0.251 A  
HETATM   13  C   UNL     1      -8.896  16.209  67.755  1.00  0.00    -0.184 A  
HETATM   14  C   UNL     1      -9.013  15.026  67.006  1.00  0.00    -0.255 A  
BRANCH  12  15
HETATM   15  N   UNL     1      -9.333  18.635  67.897  1.00  0.00    -0.292 NA 
HETATM   16  H   UNL     1     -10.175  19.042  68.304  1.00  0.00     0.000 HD 
BRANCH  15  17
HETATM   17  C   UNL     1      -8.195  19.443  68.016  1.00  0.00    -0.318 A  
HETATM   18  C   UNL     1      -7.406  19.342  69.168  1.00  0.00    -0.364 A  
HETATM   19  C   UNL     1      -6.216  20.062  69.287  1.00  0.00    -0.360 A  
HETATM   20  C   UNL     1      -5.802  20.890  68.249  1.00  0.00    -0.386 A  
HETATM   21  C   UNL     1      -6.593  21.023  67.108  1.00  0.00    -0.424 A  
HETATM   22  C   UNL     1      -7.793  20.316  67.000  1.00  0.00    -0.368 A  
ENDBRANCH  15  17
ENDBRANCH  12  15
ENDBRANCH   7   9
ENDBRANCH   4   7
TORSDOF 4
ENDMDL
MODEL        9
REMARK 921   NORMALIZED FREE ENERGY PREDICTED BY IDOCK:   -6.12 KCAL/MOL
REMARK 922        TOTAL FREE ENERGY PREDICTED BY IDOCK:   -8.23 KCAL/MOL
REMARK 923 INTER-LIGAND FREE ENERGY PREDICTED BY IDOCK:   -7.56 KCAL/MOL
REMARK 924 INTRA-LIGAND FREE ENERGY PREDICTED BY IDOCK:   -0.67 KCAL/MOL
REMARK 927      BINDING AFFINITY PREDICTED BY RF-SCORE:    0.00 PKD
ROOT
HETATM    1  C   UNL     1     -12.964   6.647  71.829  1.00  0.00    -0.191 C  
HETATM    2  C   UNL     1     -14.078   7.660  71.583  1.00  0.00    -0.547 C  
HETATM    3  C   UNL     1     -13.780   9.006  72.236  1.00  0.00    -0.550 C  
HETATM    4  C   UNL     1     -12.401   9.566  71.855  1.00  0.00    -0.373 C  
HETATM    5  C   UNL     1     -11.306   8.531  72.145  1.00  0.00    -0.442 C  
HETATM    6  C   UNL     1     -11.587   7.192  71.462  1.00  0.00    -0.310 C  
ENDROOT
BRANCH   4   7
HETATM    7  N   UNL     1     -12.360   9.927  70.434  1.00  0.00    -0.483 NA 
HETATM    8  H   UNL     1     -12.447   9.190  69.734  1.00  0.00     0.000 HD 
BRANCH   7   9
HETATM    9  C   UNL     1     -12.204  11.247  70.013  1.00  0.00    -0.314 A  
HETATM   10  C   UNL     1     -12.330  12.348  70.858  1.00  0.00    -0.358 A  
HETATM   11  C   UNL     1     -12.265  13.648  70.359  1.00  0.00    -0.434 A  
HETATM   12  C   UNL     1     -12.001  13.891  69.012  1.00  0.00    -0.364 A  
HETATM   13  C   UNL     1     -11.721  12.804  68.185  1.00  0.00    -0.392 A  
HETATM   14  C   UNL     1     -11.837  11.496  68.682  1.00  0.00    -0.382 A  
BRANCH  12  15
HETATM   15  N   UNL     1     -12.087  15.216  68.565  1.00  0.00    -0.581 NA 
HETATM   16  H   UNL     1     -13.030  15.602  68.590  1.00  0.00     0.000 HD 
BRANCH  15  17
HETATM   17  C   UNL     1     -11.118  16.111  68.092  1.00  0.00    -0.332 A  
HETATM   18  C   UNL     1     -10.740  16.055  66.745  1.00  0.00    -0.259 A  
HETATM   19  C   UNL     1      -9.847  16.985  66.212  1.00  0.00    -0.310 A  
HETATM   20  C   UNL     1      -9.325  17.987  67.024  1.00  0.00    -0.265 A  
HETATM   21  C   UNL     1      -9.669  18.037  68.374  1.00  0.00    -0.348 A  
HETATM   22  C   UNL     1     -10.549  17.092  68.909  1.00  0.00    -0.328 A  
ENDBRANCH  15  17
ENDBRANCH  12  15
ENDBRANCH   7   9
ENDBRANCH   4   7
TORSDOF 4
ENDMDL
MODEL       10
REMARK 921   NORMALIZED FREE ENERGY PREDICTED BY IDOCK:   -6.12 KCAL/MOL
REMARK 922        TOTAL FREE ENERGY PREDICTED BY IDOCK:   -8.22 KCAL/MOL
REMARK 923 INTER-LIGAND FREE ENERGY PREDICTED BY IDOCK:   -7.54 KCAL/MOL
REMARK 924 INTRA-LIGAND FREE ENERGY PREDICTED BY IDOCK:   -0.68 KCAL/MOL
REMARK 927      BINDING AFFINITY PREDICTED BY RF-SCORE:    0.00 PKD
ROOT
HETATM    1  C   UNL     1     -12.914   6.621  71.872  1.00  0.00    -0.163 C  
HETATM    2  C   UNL     1     -14.064   7.572  71.556  1.00  0.00    -0.550 C  
HETATM    3  C   UNL     1     -13.853   8.950  72.176  1.00  0.00    -0.531 C  
HETATM    4  C   UNL     1     -12.489   9.563  71.825  1.00  0.00    -0.401 C  
HETATM    5  C   UNL     1     -11.357   8.591  72.184  1.00  0.00    -0.442 C  
HETATM    6  C   UNL     1     -11.552   7.220  71.535  1.00  0.00    -0.306 C  
ENDROOT
BRANCH   4   7
HETATM    7  N   UNL     1     -12.414   9.883  70.395  1.00  0.00    -0.501 NA 
HETATM    8  H   UNL     1     -12.482   9.126  69.715  1.00  0.00     0.000 HD 
BRANCH   7   9
HETATM    9  C   UNL     1     -12.253  11.191  69.940  1.00  0.00    -0.314 A  
HETATM   10  C   UNL     1     -12.410  12.316  70.747  1.00  0.00    -0.383 A  
HETATM   11  C   UNL     1     -12.337  13.601  70.213  1.00  0.00    -0.392 A  
HETATM   12  C   UNL     1     -12.034  13.805  68.866  1.00  0.00    -0.359 A  
HETATM   13  C   UNL     1     -11.724  12.696  68.082  1.00  0.00    -0.396 A  
HETATM   14  C   UNL     1     -11.848  11.402  68.614  1.00  0.00    -0.377 A  
BRANCH  12  15
HETATM   15  N   UNL     1     -12.113  15.116  68.379  1.00  0.00    -0.569 NA 
HETATM   16  H   UNL     1     -13.065  15.474  68.305  1.00  0.00     0.000 HD 
BRANCH  15  17
HETATM   17  C   UNL     1     -11.129  16.027  67.974  1.00  0.00    -0.334 A  
HETATM   18  C   UNL     1     -10.648  16.965  68.896  1.00  0.00    -0.353 A  
HETATM   19  C   UNL     1      -9.605  17.830  68.562  1.00  0.00    -0.322 A  
HETATM   20  C   UNL     1      -9.029  17.762  67.298  1.00  0.00    -0.246 A  
HETATM   21  C   UNL     1      -9.517  16.854  66.359  1.00  0.00    -0.306 A  
HETATM   22  C   UNL     1     -10.575  16.002  66.691  1.00  0.00    -0.297 A  
ENDBRANCH  15  17
ENDBRANCH  12  15
ENDBRANCH   7   9
ENDBRANCH   4   7
TORSDOF 4
ENDMDL
MODEL       11
REMARK 921   NORMALIZED FREE ENERGY PREDICTED BY IDOCK:   -6.11 KCAL/MOL
REMARK 922        TOTAL FREE ENERGY PREDICTED BY IDOCK:   -8.21 KCAL/MOL
REMARK 923 INTER-LIGAND FREE ENERGY PREDICTED BY IDOCK:   -7.42 KCAL/MOL
REMARK 924 INTRA-LIGAND FREE ENERGY PREDICTED BY IDOCK:   -0.78 KCAL/MOL
REMARK 927      BINDING AFFINITY PREDICTED BY RF-SCORE:    0.00 PKD
ROOT
HETATM    1  C   UNL     1      -9.371   5.150  69.465  1.00  0.00    -0.181 C  
HETATM    2  C   UNL     1     -10.417   6.199  69.101  1.00  0.00    -0.310 C  
HETATM    3  C   UNL     1     -11.549   6.254  70.123  1.00  0.00    -0.385 C  
HETATM    4  C   UNL     1     -11.049   6.419  71.565  1.00  0.00    -0.273 C  
HETATM    5  C   UNL     1     -10.022   5.329  71.903  1.00  0.00    -0.240 C  
HETATM    6  C   UNL     1      -8.870   5.297  70.898  1.00  0.00    -0.151 C  
ENDROOT
BRANCH   4   7
HETATM    7  N   UNL     1     -10.433   7.736  71.756  1.00  0.00    -0.211 NA 
HETATM    8  H   UNL     1      -9.500   7.792  72.164  1.00  0.00     0.000 HD 
BRANCH   7   9
HETATM    9  C   UNL     1     -11.086   8.914  71.394  1.00  0.00    -0.306 A  
HETATM   10  C   UNL     1     -10.682   9.729  70.338  1.00  0.00    -0.368 A  
HETATM   11  C   UNL     1     -11.312  10.947  70.088  1.00  0.00    -0.367 A  
HETATM   12  C   UNL     1     -12.413  11.357  70.840  1.00  0.00    -0.379 A  
HETATM   13  C   UNL     1     -12.923  10.483  71.798  1.00  0.00    -0.582 A  
HETATM   14  C   UNL     1     -12.254   9.281  72.079  1.00  0.00    -0.418 A  
BRANCH  12  15
HETATM   15  N   UNL     1     -12.903  12.650  70.615  1.00  0.00    -0.030 NA 
HETATM   16  H   UNL     1     -13.499  12.730  69.792  1.00  0.00     0.000 HD 
BRANCH  15  17
HETATM   17  C   UNL     1     -12.727  13.854  71.310  1.00  0.00    -0.367 A  
HETATM   18  C   UNL     1     -13.346  14.017  72.556  1.00  0.00    -0.639 A  
HETATM   19  C   UNL     1     -13.124  15.163  73.322  1.00  0.00    -0.622 A  
HETATM   20  C   UNL     1     -12.275  16.158  72.848  1.00  0.00    -0.640 A  
HETATM   21  C   UNL     1     -11.677  16.022  71.596  1.00  0.00    -0.583 A  
HETATM   22  C   UNL     1     -11.916  14.883  70.823  1.00  0.00    -0.372 A  
ENDBRANCH  15  17
ENDBRANCH  12  15
ENDBRANCH   7   9
ENDBRANCH   4   7
TORSDOF 4
ENDMDL
MODEL       12
REMARK 921   NORMALIZED FREE ENERGY PREDICTED BY IDOCK:   -6.10 KCAL/MOL
REMARK 922        TOTAL FREE ENERGY PREDICTED BY IDOCK:   -8.19 KCAL/MOL
REMARK 923 INTER-LIGAND FREE ENERGY PREDICTED BY IDOCK:   -7.35 KCAL/MOL
REMARK 924 INTRA-LIGAND FREE ENERGY PREDICTED BY IDOCK:   -0.84 KCAL/MOL
REMARK 927      BINDING AFFINITY PREDICTED BY RF-SCORE:    0.00 PKD
ROOT
HETATM    1  C   UNL     1      -7.798   8.918  66.833  1.00  0.00    -0.101 C  
HETATM    2  C   UNL     1      -8.050  10.239  67.554  1.00  0.00    -0.110 C  
HETATM    3  C   UNL     1      -8.263  11.391  66.577  1.00  0.00    -0.152 C  
HETATM    4  C   UNL     1      -9.343  11.096  65.526  1.00  0.00    -0.223 C  
HETATM    5  C   UNL     1      -9.039   9.776  64.803  1.00  0.00    -0.290 C  
HETATM    6  C   UNL     1      -8.860   8.615  65.781  1.00  0.00    -0.231 C  
ENDROOT
BRANCH   4   7
HETATM    7  N   UNL     1     -10.667  11.008  66.151  1.00  0.00    -0.231 NA 
HETATM    8  H   UNL     1     -11.220  10.160  66.022  1.00  0.00     0.000 HD 
BRANCH   7   9
HETATM    9  C   UNL     1     -11.192  12.049  66.915  1.00  0.00    -0.320 A  
HETATM   10  C   UNL     1     -11.505  13.306  66.399  1.00  0.00    -0.364 A  
HETATM   11  C   UNL     1     -11.931  14.339  67.232  1.00  0.00    -0.439 A  
HETATM   12  C   UNL     1     -12.126  14.131  68.597  1.00  0.00    -0.285 A  
HETATM   13  C   UNL     1     -11.965  12.841  69.100  1.00  0.00    -0.296 A  
HETATM   14  C   UNL     1     -11.488  11.817  68.266  1.00  0.00    -0.370 A  
BRANCH  12  15
HETATM   15  N   UNL     1     -12.423  15.251  69.385  1.00  0.00    -0.601 NA 
HETATM   16  H   UNL     1     -12.471  16.125  68.862  1.00  0.00     0.000 HD 
BRANCH  15  17
HETATM   17  C   UNL     1     -12.667  15.395  70.757  1.00  0.00    -0.459 A  
HETATM   18  C   UNL     1     -11.704  16.021  71.558  1.00  0.00    -0.554 A  
HETATM   19  C   UNL     1     -11.946  16.266  72.911  1.00  0.00    -0.615 A  
HETATM   20  C   UNL     1     -13.159  15.888  73.476  1.00  0.00    -0.676 A  
HETATM   21  C   UNL     1     -14.116  15.237  72.697  1.00  0.00    -0.476 A  
HETATM   22  C   UNL     1     -13.863  14.975  71.348  1.00  0.00    -0.560 A  
ENDBRANCH  15  17
ENDBRANCH  12  15
ENDBRANCH   7   9
ENDBRANCH   4   7
TORSDOF 4
ENDMDL
MODEL       13
REMARK 921   NORMALIZED FREE ENERGY PREDICTED BY IDOCK:   -6.09 KCAL/MOL
REMARK 922        TOTAL FREE ENERGY PREDICTED BY IDOCK:   -8.19 KCAL/MOL
REMARK 923 INTER-LIGAND FREE ENERGY PREDICTED BY IDOCK:   -7.54 KCAL/MOL
REMARK 924 INTRA-LIGAND FREE ENERGY PREDICTED BY IDOCK:   -0.64 KCAL/MOL
REMARK 927      BINDING AFFINITY PREDICTED BY RF-SCORE:    0.00 PKD
ROOT
HETATM    1  C   UNL     1     -10.373   4.984  74.504  1.00  0.00    -0.315 C  
HETATM    2  C   UNL     1     -10.249   6.504  74.453  1.00  0.00    -0.334 C  
HETATM    3  C   UNL     1      -9.621   6.982  73.147  1.00  0.00    -0.196 C  
HETATM    4  C   UNL     1     -10.324   6.423  71.902  1.00  0.00    -0.202 C  
HETATM    5  C   UNL     1     -10.404   4.892  71.975  1.00  0.00    -0.263 C  
HETATM    6  C   UNL     1     -11.065   4.414  73.269  1.00  0.00    -0.368 C  
ENDROOT
BRANCH   4   7
HETATM    7  N   UNL     1     -11.680   6.970  71.780  1.00  0.00    -0.283 NA 
HETATM    8  H   UNL     1     -12.477   6.339  71.858  1.00  0.00     0.000 HD 
BRANCH   7   9
HETATM    9  C   UNL     1     -11.909   8.328  71.560  1.00  0.00    -0.293 A  
HETATM   10  C   UNL     1     -12.903   9.059  72.208  1.00  0.00    -0.474 A  
HETATM   11  C   UNL     1     -13.152  10.389  71.873  1.00  0.00    -0.563 A  
HETATM   12  C   UNL     1     -12.369  11.053  70.930  1.00  0.00    -0.402 A  
HETATM   13  C   UNL     1     -11.275  10.382  70.386  1.00  0.00    -0.399 A  
HETATM   14  C   UNL     1     -11.060   9.028  70.690  1.00  0.00    -0.314 A  
BRANCH  12  15
HETATM   15  N   UNL     1     -12.767  12.342  70.551  1.00  0.00    -0.058 NA 
HETATM   16  H   UNL     1     -13.213  12.386  69.635  1.00  0.00     0.000 HD 
BRANCH  15  17
HETATM   17  C   UNL     1     -12.669  13.581  71.196  1.00  0.00    -0.344 A  
HETATM   18  C   UNL     1     -13.415  13.805  72.360  1.00  0.00    -0.672 A  
HETATM   19  C   UNL     1     -13.278  14.990  73.083  1.00  0.00    -0.587 A  
HETATM   20  C   UNL     1     -12.386  15.966  72.650  1.00  0.00    -0.581 A  
HETATM   21  C   UNL     1     -11.658  15.769  71.477  1.00  0.00    -0.531 A  
HETATM   22  C   UNL     1     -11.812  14.589  70.744  1.00  0.00    -0.367 A  
ENDBRANCH  15  17
ENDBRANCH  12  15
ENDBRANCH   7   9
ENDBRANCH   4   7
TORSDOF 4
ENDMDL
MODEL       14
REMARK 921   NORMALIZED FREE ENERGY PREDICTED BY IDOCK:   -6.07 KCAL/MOL
REMARK 922        TOTAL FREE ENERGY PREDICTED BY IDOCK:   -8.16 KCAL/MOL
REMARK 923 INTER-LIGAND FREE ENERGY PREDICTED BY IDOCK:   -7.53 KCAL/MOL
REMARK 924 INTRA-LIGAND FREE ENERGY PREDICTED BY IDOCK:   -0.62 KCAL/MOL
REMARK 927      BINDING AFFINITY PREDICTED BY RF-SCORE:    0.00 PKD
ROOT
HETATM    1  C   UNL     1     -13.090  15.364  73.457  1.00  0.00    -0.589 C  
HETATM    2  C   UNL     1     -13.924  14.486  72.529  1.00  0.00    -0.510 C  
HETATM    3  C   UNL     1     -13.953  15.029  71.103  1.00  0.00    -0.451 C  
HETATM    4  C   UNL     1     -12.553  15.297  70.533  1.00  0.00    -0.399 C  
HETATM    5  C   UNL     1     -11.756  16.207  71.479  1.00  0.00    -0.533 C  
HETATM    6  C   UNL     1     -11.698  15.645  72.900  1.00  0.00    -0.512 C  
ENDROOT
BRANCH   4   7
HETATM    7  N   UNL     1     -11.819  14.042  70.342  1.00  0.00    -0.420 NA 
HETATM    8  H   UNL     1     -11.455  13.551  71.158  1.00  0.00     0.000 HD 
BRANCH   7   9
HETATM    9  C   UNL     1     -11.605  13.500  69.075  1.00  0.00    -0.311 A  
HETATM   10  C   UNL     1     -11.304  14.262  67.948  1.00  0.00    -0.320 A  
HETATM   11  C   UNL     1     -11.201  13.674  66.688  1.00  0.00    -0.324 A  
HETATM   12  C   UNL     1     -11.324  12.295  66.525  1.00  0.00    -0.351 A  
HETATM   13  C   UNL     1     -11.471  11.503  67.662  1.00  0.00    -0.357 A  
HETATM   14  C   UNL     1     -11.625  12.106  68.921  1.00  0.00    -0.377 A  
BRANCH  12  15
HETATM   15  N   UNL     1     -11.343  11.799  65.214  1.00  0.00    -0.267 NA 
HETATM   16  H   UNL     1     -12.191  12.030  64.696  1.00  0.00     0.000 HD 
BRANCH  15  17
HETATM   17  C   UNL     1     -10.416  11.047  64.482  1.00  0.00    -0.342 A  
HETATM   18  C   UNL     1     -10.034  11.489  63.210  1.00  0.00    -0.435 A  
HETATM   19  C   UNL     1      -9.046  10.820  62.485  1.00  0.00    -0.344 A  
HETATM   20  C   UNL     1      -8.427   9.700  63.031  1.00  0.00    -0.184 A  
HETATM   21  C   UNL     1      -8.818   9.231  64.284  1.00  0.00    -0.185 A  
HETATM   22  C   UNL     1      -9.821   9.892  64.999  1.00  0.00    -0.323 A  
ENDBRANCH  15  17
ENDBRANCH  12  15
ENDBRANCH   7   9
ENDBRANCH   4   7
TORSDOF 4
ENDMDL
MODEL       15
REMARK 921   NORMALIZED FREE ENERGY PREDICTED BY IDOCK:   -6.04 KCAL/MOL
REMARK 922        TOTAL FREE ENERGY PREDICTED BY IDOCK:   -8.12 KCAL/MOL
REMARK 923 INTER-LIGAND FREE ENERGY PREDICTED BY IDOCK:   -7.45 KCAL/MOL
REMARK 924 INTRA-LIGAND FREE ENERGY PREDICTED BY IDOCK:   -0.68 KCAL/MOL
REMARK 927      BINDING AFFINITY PREDICTED BY RF-SCORE:    0.00 PKD
ROOT
HETATM    1  C   UNL     1      -8.733   4.248  72.926  1.00  0.00    -0.105 C  
HETATM    2  C   UNL     1      -9.074   5.174  71.763  1.00  0.00    -0.157 C  
HETATM    3  C   UNL     1     -10.577   5.252  71.515  1.00  0.00    -0.254 C  
HETATM    4  C   UNL     1     -11.377   5.600  72.779  1.00  0.00    -0.299 C  
HETATM    5  C   UNL     1     -11.030   4.630  73.916  1.00  0.00    -0.333 C  
HETATM    6  C   UNL     1      -9.526   4.578  74.187  1.00  0.00    -0.129 C  
ENDROOT
BRANCH   4   7
HETATM    7  N   UNL     1     -11.092   6.972  73.214  1.00  0.00    -0.534 NA 
HETATM    8  H   UNL     1     -10.659   7.123  74.125  1.00  0.00     0.000 HD 
BRANCH   7   9
HETATM    9  C   UNL     1     -11.395   8.075  72.417  1.00  0.00    -0.382 A  
HETATM   10  C   UNL     1     -10.453   8.757  71.649  1.00  0.00    -0.387 A  
HETATM   11  C   UNL     1     -10.795   9.915  70.953  1.00  0.00    -0.357 A  
HETATM   12  C   UNL     1     -12.106  10.390  70.943  1.00  0.00    -0.374 A  
HETATM   13  C   UNL     1     -13.089   9.634  71.580  1.00  0.00    -0.488 A  
HETATM   14  C   UNL     1     -12.730   8.497  72.321  1.00  0.00    -0.420 A  
BRANCH  12  15
HETATM   15  N   UNL     1     -12.339  11.630  70.334  1.00  0.00    -0.312 NA 
HETATM   16  H   UNL     1     -12.283  11.609  69.316  1.00  0.00     0.000 HD 
BRANCH  15  17
HETATM   17  C   UNL     1     -12.636  12.894  70.861  1.00  0.00    -0.270 A  
HETATM   18  C   UNL     1     -12.311  14.035  70.117  1.00  0.00    -0.409 A  
HETATM   19  C   UNL     1     -12.670  15.308  70.563  1.00  0.00    -0.440 A  
HETATM   20  C   UNL     1     -13.363  15.451  71.761  1.00  0.00    -0.567 A  
HETATM   21  C   UNL     1     -13.666  14.326  72.527  1.00  0.00    -0.608 A  
HETATM   22  C   UNL     1     -13.289  13.054  72.087  1.00  0.00    -0.622 A  
ENDBRANCH  15  17
ENDBRANCH  12  15
ENDBRANCH   7   9
ENDBRANCH   4   7
TORSDOF 4
ENDMDL
MODEL       16
REMARK 921   NORMALIZED FREE ENERGY PREDICTED BY IDOCK:   -6.03 KCAL/MOL
REMARK 922        TOTAL FREE ENERGY PREDICTED BY IDOCK:   -8.11 KCAL/MOL
REMARK 923 INTER-LIGAND FREE ENERGY PREDICTED BY IDOCK:   -7.28 KCAL/MOL
REMARK 924 INTRA-LIGAND FREE ENERGY PREDICTED BY IDOCK:   -0.84 KCAL/MOL
REMARK 927      BINDING AFFINITY PREDICTED BY RF-SCORE:    0.00 PKD
ROOT
HETATM    1  C   UNL     1     -10.806   5.495  71.637  1.00  0.00    -0.271 C  
HETATM    2  C   UNL     1     -11.525   6.348  70.596  1.00  0.00    -0.426 C  
HETATM    3  C   UNL     1     -12.342   7.465  71.238  1.00  0.00    -0.380 C  
HETATM    4  C   UNL     1     -11.524   8.322  72.216  1.00  0.00    -0.384 C  
HETATM    5  C   UNL     1     -10.841   7.432  73.264  1.00  0.00    -0.417 C  
HETATM    6  C   UNL     1      -9.994   6.334  72.620  1.00  0.00    -0.183 C  
ENDROOT
BRANCH   4   7
HETATM    7  N   UNL     1     -10.503   9.095  71.502  1.00  0.00    -0.341 NA 
HETATM    8  H   UNL     1      -9.541   9.076  71.841  1.00  0.00     0.000 HD 
BRANCH   7   9
HETATM    9  C   UNL     1     -10.808   9.854  70.373  1.00  0.00    -0.319 A  
HETATM   10  C   UNL     1     -11.681  10.941  70.385  1.00  0.00    -0.444 A  
HETATM   11  C   UNL     1     -12.027  11.598  69.205  1.00  0.00    -0.382 A  
HETATM   12  C   UNL     1     -11.457  11.237  67.985  1.00  0.00    -0.298 A  
HETATM   13  C   UNL     1     -10.468  10.255  67.981  1.00  0.00    -0.234 A  
HETATM   14  C   UNL     1     -10.161   9.563  69.163  1.00  0.00    -0.200 A  
BRANCH  12  15
HETATM   15  N   UNL     1     -11.957  11.854  66.831  1.00  0.00    -0.591 NA 
HETATM   16  H   UNL     1     -12.758  11.377  66.419  1.00  0.00     0.000 HD 
BRANCH  15  17
HETATM   17  C   UNL     1     -11.562  13.005  66.137  1.00  0.00    -0.366 A  
HETATM   18  C   UNL     1     -12.383  13.500  65.116  1.00  0.00    -0.488 A  
HETATM   19  C   UNL     1     -12.073  14.693  64.461  1.00  0.00    -0.490 A  
HETATM   20  C   UNL     1     -10.935  15.407  64.825  1.00  0.00    -0.411 A  
HETATM   21  C   UNL     1     -10.093  14.911  65.819  1.00  0.00    -0.367 A  
HETATM   22  C   UNL     1     -10.396  13.706  66.460  1.00  0.00    -0.282 A  
ENDBRANCH  15  17
ENDBRANCH  12  15
ENDBRANCH   7   9
ENDBRANCH   4   7
TORSDOF 4
ENDMDL
MODEL       17
REMARK 921   NORMALIZED FREE ENERGY PREDICTED BY IDOCK:   -5.91 KCAL/MOL
REMARK 922        TOTAL FREE ENERGY PREDICTED BY IDOCK:   -7.96 KCAL/MOL
REMARK 923 INTER-LIGAND FREE ENERGY PREDICTED BY IDOCK:   -7.25 KCAL/MOL
REMARK 924 INTRA-LIGAND FREE ENERGY PREDICTED BY IDOCK:   -0.71 KCAL/MOL
REMARK 927      BINDING AFFINITY PREDICTED BY RF-SCORE:    0.00 PKD
ROOT
HETATM    1  C   UNL     1     -11.152   6.835  72.607  1.00  0.00    -0.301 C  
HETATM    2  C   UNL     1     -10.646   8.272  72.691  1.00  0.00    -0.378 C  
HETATM    3  C   UNL     1     -10.001   8.727  71.385  1.00  0.00    -0.354 C  
HETATM    4  C   UNL     1     -10.903   8.507  70.162  1.00  0.00    -0.233 C  
HETATM    5  C   UNL     1     -11.367   7.046  70.095  1.00  0.00    -0.321 C  
HETATM    6  C   UNL     1     -12.044   6.600  71.392  1.00  0.00    -0.400 C  
ENDROOT
BRANCH   4   7
HETATM    7  N   UNL     1     -12.078   9.383  70.216  1.00  0.00    -0.465 NA 
HETATM    8  H   UNL     1     -12.962   9.005  70.556  1.00  0.00     0.000 HD 
BRANCH   7   9
HETATM    9  C   UNL     1     -12.021  10.718  69.817  1.00  0.00    -0.325 A  
HETATM   10  C   UNL     1     -12.206  11.793  70.684  1.00  0.00    -0.443 A  
HETATM   11  C   UNL     1     -12.240  13.103  70.209  1.00  0.00    -0.376 A  
HETATM   12  C   UNL     1     -12.018  13.387  68.861  1.00  0.00    -0.324 A  
HETATM   13  C   UNL     1     -11.679  12.336  68.011  1.00  0.00    -0.417 A  
HETATM   14  C   UNL     1     -11.696  11.015  68.485  1.00  0.00    -0.348 A  
BRANCH  12  15
HETATM   15  N   UNL     1     -12.202  14.711  68.442  1.00  0.00    -0.610 NA 
HETATM   16  H   UNL     1     -13.157  15.051  68.551  1.00  0.00     0.000 HD 
BRANCH  15  17
HETATM   17  C   UNL     1     -11.320  15.654  67.900  1.00  0.00    -0.302 A  
HETATM   18  C   UNL     1     -10.889  15.502  66.576  1.00  0.00    -0.284 A  
HETATM   19  C   UNL     1     -10.084  16.466  65.968  1.00  0.00    -0.373 A  
HETATM   20  C   UNL     1      -9.702  17.598  66.682  1.00  0.00    -0.304 A  
HETATM   21  C   UNL     1     -10.099  17.748  68.010  1.00  0.00    -0.355 A  
HETATM   22  C   UNL     1     -10.889  16.771  68.622  1.00  0.00    -0.336 A  
ENDBRANCH  15  17
ENDBRANCH  12  15
ENDBRANCH   7   9
ENDBRANCH   4   7
TORSDOF 4
ENDMDL
MODEL       18
REMARK 921   NORMALIZED FREE ENERGY PREDICTED BY IDOCK:   -5.89 KCAL/MOL
REMARK 922        TOTAL FREE ENERGY PREDICTED BY IDOCK:   -7.94 KCAL/MOL
REMARK 923 INTER-LIGAND FREE ENERGY PREDICTED BY IDOCK:   -7.28 KCAL/MOL
REMARK 924 INTRA-LIGAND FREE ENERGY PREDICTED BY IDOCK:   -0.67 KCAL/MOL
REMARK 927      BINDING AFFINITY PREDICTED BY RF-SCORE:    0.00 PKD
ROOT
HETATM    1  C   UNL     1     -12.084   6.677  71.829  1.00  0.00    -0.400 C  
HETATM    2  C   UNL     1     -13.288   7.547  71.483  1.00  0.00    -0.409 C  
HETATM    3  C   UNL     1     -13.127   8.975  71.995  1.00  0.00    -0.474 C  
HETATM    4  C   UNL     1     -11.806   9.624  71.557  1.00  0.00    -0.407 C  
HETATM    5  C   UNL     1     -10.618   8.735  71.948  1.00  0.00    -0.425 C  
HETATM    6  C   UNL     1     -10.763   7.313  71.406  1.00  0.00    -0.247 C  
ENDROOT
BRANCH   4   7
HETATM    7  N   UNL     1     -11.788   9.841  70.106  1.00  0.00    -0.446 NA 
HETATM    8  H   UNL     1     -11.688   9.037  69.487  1.00  0.00     0.000 HD 
BRANCH   7   9
HETATM    9  C   UNL     1     -11.903  11.114  69.550  1.00  0.00    -0.353 A  
HETATM   10  C   UNL     1     -11.779  11.377  68.187  1.00  0.00    -0.355 A  
HETATM   11  C   UNL     1     -11.802  12.683  67.701  1.00  0.00    -0.390 A  
HETATM   12  C   UNL     1     -12.021  13.765  68.553  1.00  0.00    -0.367 A  
HETATM   13  C   UNL     1     -12.300  13.507  69.894  1.00  0.00    -0.287 A  
HETATM   14  C   UNL     1     -12.225  12.194  70.386  1.00  0.00    -0.378 A  
BRANCH  12  15
HETATM   15  N   UNL     1     -11.895  15.051  68.010  1.00  0.00    -0.489 NA 
HETATM   16  H   UNL     1     -12.784  15.489  67.771  1.00  0.00     0.000 HD 
BRANCH  15  17
HETATM   17  C   UNL     1     -10.776  15.847  67.734  1.00  0.00    -0.320 A  
HETATM   18  C   UNL     1     -10.050  15.617  66.559  1.00  0.00    -0.293 A  
HETATM   19  C   UNL     1      -8.984  16.444  66.201  1.00  0.00    -0.367 A  
HETATM   20  C   UNL     1      -8.636  17.516  67.017  1.00  0.00    -0.251 A  
HETATM   21  C   UNL     1      -9.331  17.739  68.205  1.00  0.00    -0.288 A  
HETATM   22  C   UNL     1     -10.385  16.897  68.571  1.00  0.00    -0.336 A  
ENDBRANCH  15  17
ENDBRANCH  12  15
ENDBRANCH   7   9
ENDBRANCH   4   7
TORSDOF 4
ENDMDL
MODEL       19
REMARK 921   NORMALIZED FREE ENERGY PREDICTED BY IDOCK:   -5.89 KCAL/MOL
REMARK 922        TOTAL FREE ENERGY PREDICTED BY IDOCK:   -7.94 KCAL/MOL
REMARK 923 INTER-LIGAND FREE ENERGY PREDICTED BY IDOCK:   -7.23 KCAL/MOL
REMARK 924 INTRA-LIGAND FREE ENERGY PREDICTED BY IDOCK:   -0.71 KCAL/MOL
REMARK 927      BINDING AFFINITY PREDICTED BY RF-SCORE:    0.00 PKD
ROOT
HETATM    1  C   UNL     1     -10.905   6.477  73.026  1.00  0.00    -0.291 C  
HETATM    2  C   UNL     1     -10.313   7.879  72.914  1.00  0.00    -0.413 C  
HETATM    3  C   UNL     1      -9.863   8.196  71.491  1.00  0.00    -0.233 C  
HETATM    4  C   UNL     1     -10.961   7.952  70.445  1.00  0.00    -0.249 C  
HETATM    5  C   UNL     1     -11.510   6.525  70.570  1.00  0.00    -0.448 C  
HETATM    6  C   UNL     1     -11.993   6.218  71.988  1.00  0.00    -0.353 C  
ENDROOT
BRANCH   4   7
HETATM    7  N   UNL     1     -12.061   8.908  70.613  1.00  0.00    -0.483 NA 
HETATM    8  H   UNL     1     -12.909   8.607  71.093  1.00  0.00     0.000 HD 
BRANCH   7   9
HETATM    9  C   UNL     1     -11.981  10.215  70.135  1.00  0.00    -0.185 A  
HETATM   10  C   UNL     1     -12.414  11.329  70.851  1.00  0.00    -0.493 A  
HETATM   11  C   UNL     1     -12.403  12.601  70.281  1.00  0.00    -0.269 A  
HETATM   12  C   UNL     1     -11.891  12.811  69.001  1.00  0.00    -0.297 A  
HETATM   13  C   UNL     1     -11.313  11.734  68.332  1.00  0.00    -0.328 A  
HETATM   14  C   UNL     1     -11.373  10.447  68.892  1.00  0.00    -0.278 A  
BRANCH  12  15
HETATM   15  N   UNL     1     -12.039  14.091  68.449  1.00  0.00    -0.508 NA 
HETATM   16  H   UNL     1     -12.375  14.791  69.110  1.00  0.00     0.000 HD 
BRANCH  15  17
HETATM   17  C   UNL     1     -11.813  14.588  67.159  1.00  0.00    -0.387 A  
HETATM   18  C   UNL     1     -10.842  15.579  66.973  1.00  0.00    -0.314 A  
HETATM   19  C   UNL     1     -10.521  16.037  65.694  1.00  0.00    -0.416 A  
HETATM   20  C   UNL     1     -11.169  15.503  64.585  1.00  0.00    -0.381 A  
HETATM   21  C   UNL     1     -12.160  14.537  64.758  1.00  0.00    -0.454 A  
HETATM   22  C   UNL     1     -12.492  14.094  66.041  1.00  0.00    -0.454 A  
ENDBRANCH  15  17
ENDBRANCH  12  15
ENDBRANCH   7   9
ENDBRANCH   4   7
TORSDOF 4
ENDMDL
MODEL       20
REMARK 921   NORMALIZED FREE ENERGY PREDICTED BY IDOCK:   -5.89 KCAL/MOL
REMARK 922        TOTAL FREE ENERGY PREDICTED BY IDOCK:   -7.93 KCAL/MOL
REMARK 923 INTER-LIGAND FREE ENERGY PREDICTED BY IDOCK:   -7.25 KCAL/MOL
REMARK 924 INTRA-LIGAND FREE ENERGY PREDICTED BY IDOCK:   -0.68 KCAL/MOL
REMARK 927      BINDING AFFINITY PREDICTED BY RF-SCORE:    0.00 PKD
ROOT
HETATM    1  C   UNL     1     -11.385   8.793  71.997  1.00  0.00    -0.441 C  
HETATM    2  C   UNL     1     -10.343   9.422  71.076  1.00  0.00    -0.382 C  
HETATM    3  C   UNL     1     -10.932   9.795  69.719  1.00  0.00    -0.287 C  
HETATM    4  C   UNL     1     -12.196  10.660  69.830  1.00  0.00    -0.275 C  
HETATM    5  C   UNL     1     -13.230   9.982  70.739  1.00  0.00    -0.270 C  
HETATM    6  C   UNL     1     -12.649   9.639  72.112  1.00  0.00    -0.388 C  
ENDROOT
BRANCH   4   7
HETATM    7  N   UNL     1     -11.874  11.985  70.372  1.00  0.00    -0.519 NA 
HETATM    8  H   UNL     1     -11.746  12.091  71.378  1.00  0.00     0.000 HD 
BRANCH   7   9
HETATM    9  C   UNL     1     -11.737  13.104  69.551  1.00  0.00    -0.319 A  
HETATM   10  C   UNL     1     -11.513  13.032  68.177  1.00  0.00    -0.356 A  
HETATM   11  C   UNL     1     -11.283  14.183  67.425  1.00  0.00    -0.334 A  
HETATM   12  C   UNL     1     -11.340  15.448  68.008  1.00  0.00    -0.341 A  
HETATM   13  C   UNL     1     -11.715  15.544  69.347  1.00  0.00    -0.382 A  
HETATM   14  C   UNL     1     -11.896  14.380  70.111  1.00  0.00    -0.380 A  
BRANCH  12  15
HETATM   15  N   UNL     1     -10.964  16.542  67.216  1.00  0.00    -0.162 NA 
HETATM   16  H   UNL     1     -11.297  16.490  66.254  1.00  0.00     0.000 HD 
BRANCH  15  17
HETATM   17  C   UNL     1     -10.217  17.692  67.499  1.00  0.00    -0.348 A  
HETATM   18  C   UNL     1      -8.921  17.553  68.011  1.00  0.00    -0.258 A  
HETATM   19  C   UNL     1      -8.110  18.670  68.221  1.00  0.00    -0.339 A  
HETATM   20  C   UNL     1      -8.589  19.940  67.917  1.00  0.00    -0.341 A  
HETATM   21  C   UNL     1      -9.888  20.095  67.434  1.00  0.00    -0.573 A  
HETATM   22  C   UNL     1     -10.705  18.977  67.244  1.00  0.00    -0.556 A  
ENDBRANCH  15  17
ENDBRANCH  12  15
ENDBRANCH   7   9
ENDBRANCH   4   7
TORSDOF 4
ENDMDL
MODEL       21
REMARK 921   NORMALIZED FREE ENERGY PREDICTED BY IDOCK:   -5.87 KCAL/MOL
REMARK 922        TOTAL FREE ENERGY PREDICTED BY IDOCK:   -7.91 KCAL/MOL
REMARK 923 INTER-LIGAND FREE ENERGY PREDICTED BY IDOCK:   -7.25 KCAL/MOL
REMARK 924 INTRA-LIGAND FREE ENERGY PREDICTED BY IDOCK:   -0.66 KCAL/MOL
REMARK 927      BINDING AFFINITY PREDICTED BY RF-SCORE:    0.00 PKD
ROOT
HETATM    1  C   UNL     1     -12.026  13.435  64.084  1.00  0.00    -0.505 C  
HETATM    2  C   UNL     1     -11.175  12.194  64.335  1.00  0.00    -0.400 C  
HETATM    3  C   UNL     1     -10.264  12.362  65.548  1.00  0.00    -0.297 C  
HETATM    4  C   UNL     1     -11.020  12.804  66.810  1.00  0.00    -0.270 C  
HETATM    5  C   UNL     1     -11.839  14.071  66.525  1.00  0.00    -0.439 C  
HETATM    6  C   UNL     1     -12.777  13.890  65.331  1.00  0.00    -0.525 C  
ENDROOT
BRANCH   4   7
HETATM    7  N   UNL     1     -11.919  11.744  67.277  1.00  0.00    -0.607 NA 
HETATM    8  H   UNL     1     -12.763  11.539  66.742  1.00  0.00     0.000 HD 
BRANCH   7   9
HETATM    9  C   UNL     1     -11.653  11.008  68.431  1.00  0.00    -0.302 A  
HETATM   10  C   UNL     1     -12.255  11.255  69.663  1.00  0.00    -0.340 A  
HETATM   11  C   UNL     1     -11.874  10.552  70.804  1.00  0.00    -0.465 A  
HETATM   12  C   UNL     1     -10.928   9.529  70.738  1.00  0.00    -0.321 A  
HETATM   13  C   UNL     1     -10.430   9.167  69.488  1.00  0.00    -0.226 A  
HETATM   14  C   UNL     1     -10.781   9.912  68.350  1.00  0.00    -0.271 A  
BRANCH  12  15
HETATM   15  N   UNL     1     -10.502   8.965  71.948  1.00  0.00    -0.347 NA 
HETATM   16  H   UNL     1     -10.009   9.617  72.558  1.00  0.00     0.000 HD 
BRANCH  15  17
HETATM   17  C   UNL     1     -10.627   7.674  72.477  1.00  0.00    -0.281 A  
HETATM   18  C   UNL     1      -9.944   7.352  73.656  1.00  0.00    -0.379 A  
HETATM   19  C   UNL     1     -10.113   6.108  74.266  1.00  0.00    -0.322 A  
HETATM   20  C   UNL     1     -10.972   5.171  73.700  1.00  0.00    -0.350 A  
HETATM   21  C   UNL     1     -11.635   5.467  72.510  1.00  0.00    -0.272 A  
HETATM   22  C   UNL     1     -11.450   6.707  71.891  1.00  0.00    -0.332 A  
ENDBRANCH  15  17
ENDBRANCH  12  15
ENDBRANCH   7   9
ENDBRANCH   4   7
TORSDOF 4
ENDMDL
MODEL       22
REMARK 921   NORMALIZED FREE ENERGY PREDICTED BY IDOCK:   -5.87 KCAL/MOL
REMARK 922        TOTAL FREE ENERGY PREDICTED BY IDOCK:   -7.91 KCAL/MOL
REMARK 923 INTER-LIGAND FREE ENERGY PREDICTED BY IDOCK:   -7.22 KCAL/MOL
REMARK 924 INTRA-LIGAND FREE ENERGY PREDICTED BY IDOCK:   -0.68 KCAL/MOL
REMARK 927      BINDING AFFINITY PREDICTED BY RF-SCORE:    0.00 PKD
ROOT
HETATM    1  C   UNL     1      -9.998  17.808  66.374  1.00  0.00    -0.345 C  
HETATM    2  C   UNL     1     -10.191  16.395  65.832  1.00  0.00    -0.379 C  
HETATM    3  C   UNL     1      -9.565  15.344  66.742  1.00  0.00    -0.257 C  
HETATM    4  C   UNL     1     -10.022  15.465  68.203  1.00  0.00    -0.221 C  
HETATM    5  C   UNL     1      -9.784  16.890  68.721  1.00  0.00    -0.265 C  
HETATM    6  C   UNL     1     -10.441  17.942  67.827  1.00  0.00    -0.409 C  
ENDROOT
BRANCH   4   7
HETATM    7  N   UNL     1     -11.446  15.137  68.333  1.00  0.00    -0.319 NA 
HETATM    8  H   UNL     1     -12.127  15.672  67.795  1.00  0.00     0.000 HD 
BRANCH   7   9
HETATM    9  C   UNL     1     -11.894  14.115  69.168  1.00  0.00    -0.341 A  
HETATM   10  C   UNL     1     -12.536  14.336  70.385  1.00  0.00    -0.426 A  
HETATM   11  C   UNL     1     -12.870  13.276  71.226  1.00  0.00    -0.398 A  
HETATM   12  C   UNL     1     -12.637  11.954  70.845  1.00  0.00    -0.266 A  
HETATM   13  C   UNL     1     -12.137  11.711  69.568  1.00  0.00    -0.336 A  
HETATM   14  C   UNL     1     -11.757  12.784  68.746  1.00  0.00    -0.363 A  
BRANCH  12  15
HETATM   15  N   UNL     1     -12.876  10.956  71.800  1.00  0.00    -0.436 NA 
HETATM   16  H   UNL     1     -13.161  11.314  72.711  1.00  0.00     0.000 HD 
BRANCH  15  17
HETATM   17  C   UNL     1     -12.796   9.559  71.736  1.00  0.00    -0.406 A  
HETATM   18  C   UNL     1     -11.546   8.942  71.866  1.00  0.00    -0.442 A  
HETATM   19  C   UNL     1     -11.433   7.551  71.900  1.00  0.00    -0.307 A  
HETATM   20  C   UNL     1     -12.575   6.762  71.807  1.00  0.00    -0.370 A  
HETATM   21  C   UNL     1     -13.823   7.362  71.647  1.00  0.00    -0.490 A  
HETATM   22  C   UNL     1     -13.931   8.755  71.594  1.00  0.00    -0.450 A  
ENDBRANCH  15  17
ENDBRANCH  12  15
ENDBRANCH   7   9
ENDBRANCH   4   7
TORSDOF 4
ENDMDL
MODEL       23
REMARK 921   NORMALIZED FREE ENERGY PREDICTED BY IDOCK:   -5.86 KCAL/MOL
REMARK 922        TOTAL FREE ENERGY PREDICTED BY IDOCK:   -7.90 KCAL/MOL
REMARK 923 INTER-LIGAND FREE ENERGY PREDICTED BY IDOCK:   -7.62 KCAL/MOL
REMARK 924 INTRA-LIGAND FREE ENERGY PREDICTED BY IDOCK:   -0.29 KCAL/MOL
REMARK 927      BINDING AFFINITY PREDICTED BY RF-SCORE:    0.00 PKD
ROOT
HETATM    1  C   UNL     1     -12.096  13.363  63.499  1.00  0.00    -0.497 C  
HETATM    2  C   UNL     1     -11.953  12.259  64.543  1.00  0.00    -0.459 C  
HETATM    3  C   UNL     1     -10.759  12.494  65.463  1.00  0.00    -0.303 C  
HETATM    4  C   UNL     1     -10.759  13.890  66.102  1.00  0.00    -0.283 C  
HETATM    5  C   UNL     1     -10.873  14.973  65.020  1.00  0.00    -0.439 C  
HETATM    6  C   UNL     1     -12.090  14.757  64.119  1.00  0.00    -0.323 C  
ENDROOT
BRANCH   4   7
HETATM    7  N   UNL     1     -11.873  14.032  67.045  1.00  0.00    -0.406 NA 
HETATM    8  H   UNL     1     -12.602  14.717  66.849  1.00  0.00     0.000 HD 
BRANCH   7   9
HETATM    9  C   UNL     1     -11.964  13.257  68.200  1.00  0.00    -0.304 A  
HETATM   10  C   UNL     1     -11.785  11.875  68.221  1.00  0.00    -0.385 A  
HETATM   11  C   UNL     1     -11.989  11.140  69.388  1.00  0.00    -0.420 A  
HETATM   12  C   UNL     1     -12.309  11.771  70.590  1.00  0.00    -0.328 A  
HETATM   13  C   UNL     1     -12.340  13.164  70.619  1.00  0.00    -0.405 A  
HETATM   14  C   UNL     1     -12.183  13.895  69.430  1.00  0.00    -0.338 A  
BRANCH  12  15
HETATM   15  N   UNL     1     -12.630  10.955  71.682  1.00  0.00    -0.364 NA 
HETATM   16  H   UNL     1     -12.901  11.470  72.519  1.00  0.00     0.000 HD 
BRANCH  15  17
HETATM   17  C   UNL     1     -12.648   9.563  71.839  1.00  0.00    -0.396 A  
HETATM   18  C   UNL     1     -13.838   8.866  71.597  1.00  0.00    -0.432 A  
HETATM   19  C   UNL     1     -13.876   7.471  71.654  1.00  0.00    -0.486 A  
HETATM   20  C   UNL     1     -12.719   6.759  71.951  1.00  0.00    -0.298 A  
HETATM   21  C   UNL     1     -11.534   7.442  72.224  1.00  0.00    -0.329 A  
HETATM   22  C   UNL     1     -11.503   8.838  72.185  1.00  0.00    -0.421 A  
ENDBRANCH  15  17
ENDBRANCH  12  15
ENDBRANCH   7   9
ENDBRANCH   4   7
TORSDOF 4
ENDMDL
MODEL       24
REMARK 921   NORMALIZED FREE ENERGY PREDICTED BY IDOCK:   -5.84 KCAL/MOL
REMARK 922        TOTAL FREE ENERGY PREDICTED BY IDOCK:   -7.88 KCAL/MOL
REMARK 923 INTER-LIGAND FREE ENERGY PREDICTED BY IDOCK:   -7.26 KCAL/MOL
REMARK 924 INTRA-LIGAND FREE ENERGY PREDICTED BY IDOCK:   -0.62 KCAL/MOL
REMARK 927      BINDING AFFINITY PREDICTED BY RF-SCORE:    0.00 PKD
ROOT
HETATM    1  C   UNL     1     -12.208  13.367  63.378  1.00  0.00    -0.419 C  
HETATM    2  C   UNL     1     -12.060  11.870  63.629  1.00  0.00    -0.580 C  
HETATM    3  C   UNL     1     -10.814  11.549  64.449  1.00  0.00    -0.405 C  
HETATM    4  C   UNL     1     -10.726  12.359  65.750  1.00  0.00    -0.267 C  
HETATM    5  C   UNL     1     -10.849  13.860  65.455  1.00  0.00    -0.321 C  
HETATM    6  C   UNL     1     -12.116  14.186  64.662  1.00  0.00    -0.469 C  
ENDROOT
BRANCH   4   7
HETATM    7  N   UNL     1     -11.787  11.963  66.683  1.00  0.00    -0.590 NA 
HETATM    8  H   UNL     1     -12.754  12.201  66.462  1.00  0.00     0.000 HD 
BRANCH   7   9
HETATM    9  C   UNL     1     -11.511  11.272  67.862  1.00  0.00    -0.288 A  
HETATM   10  C   UNL     1     -12.014  11.638  69.109  1.00  0.00    -0.378 A  
HETATM   11  C   UNL     1     -11.622  10.969  70.267  1.00  0.00    -0.414 A  
HETATM   12  C   UNL     1     -10.769   9.867  70.209  1.00  0.00    -0.310 A  
HETATM   13  C   UNL     1     -10.381   9.395  68.957  1.00  0.00    -0.224 A  
HETATM   14  C   UNL     1     -10.738  10.103  67.798  1.00  0.00    -0.328 A  
BRANCH  12  15
HETATM   15  N   UNL     1     -10.317   9.336  71.425  1.00  0.00    -0.335 NA 
HETATM   16  H   UNL     1      -9.658   9.937  71.919  1.00  0.00     0.000 HD 
BRANCH  15  17
HETATM   17  C   UNL     1     -10.601   8.135  72.088  1.00  0.00    -0.290 A  
HETATM   18  C   UNL     1     -11.521   7.246  71.520  1.00  0.00    -0.292 A  
HETATM   19  C   UNL     1     -11.765   5.999  72.100  1.00  0.00    -0.335 A  
HETATM   20  C   UNL     1     -11.084   5.629  73.255  1.00  0.00    -0.288 A  
HETATM   21  C   UNL     1     -10.187   6.517  73.847  1.00  0.00    -0.353 A  
HETATM   22  C   UNL     1      -9.960   7.772  73.275  1.00  0.00    -0.370 A  
ENDBRANCH  15  17
ENDBRANCH  12  15
ENDBRANCH   7   9
ENDBRANCH   4   7
TORSDOF 4
ENDMDL
MODEL       25
REMARK 921   NORMALIZED FREE ENERGY PREDICTED BY IDOCK:   -5.83 KCAL/MOL
REMARK 922        TOTAL FREE ENERGY PREDICTED BY IDOCK:   -7.87 KCAL/MOL
REMARK 923 INTER-LIGAND FREE ENERGY PREDICTED BY IDOCK:   -7.14 KCAL/MOL
REMARK 924 INTRA-LIGAND FREE ENERGY PREDICTED BY IDOCK:   -0.73 KCAL/MOL
REMARK 927      BINDING AFFINITY PREDICTED BY RF-SCORE:    0.00 PKD
ROOT
HETATM    1  C   UNL     1     -10.129  10.212  65.221  1.00  0.00    -0.344 C  
HETATM    2  C   UNL     1     -10.031  10.796  63.815  1.00  0.00    -0.411 C  
HETATM    3  C   UNL     1     -11.147  11.798  63.533  1.00  0.00    -0.503 C  
HETATM    4  C   UNL     1     -11.253  12.895  64.603  1.00  0.00    -0.320 C  
HETATM    5  C   UNL     1     -11.380  12.269  65.999  1.00  0.00    -0.398 C  
HETATM    6  C   UNL     1     -10.243  11.291  66.294  1.00  0.00    -0.280 C  
ENDROOT
BRANCH   4   7
HETATM    7  N   UNL     1     -10.075  13.768  64.572  1.00  0.00    -0.699 NA 
HETATM    8  H   UNL     1      -9.276  13.500  63.998  1.00  0.00     0.000 HD 
BRANCH   7   9
HETATM    9  C   UNL     1     -10.018  14.954  65.303  1.00  0.00    -0.293 A  
HETATM   10  C   UNL     1     -10.788  16.079  65.014  1.00  0.00    -0.421 A  
HETATM   11  C   UNL     1     -10.613  17.270  65.716  1.00  0.00    -0.198 A  
HETATM   12  C   UNL     1      -9.714  17.355  66.779  1.00  0.00    -0.290 A  
HETATM   13  C   UNL     1      -9.049  16.197  67.178  1.00  0.00    -0.218 A  
HETATM   14  C   UNL     1      -9.192  15.014  66.435  1.00  0.00    -0.328 A  
BRANCH  12  15
HETATM   15  N   UNL     1      -9.499  18.619  67.344  1.00  0.00    -0.294 NA 
HETATM   16  H   UNL     1     -10.356  19.133  67.548  1.00  0.00     0.000 HD 
BRANCH  15  17
HETATM   17  C   UNL     1      -8.327  19.309  67.680  1.00  0.00    -0.291 A  
HETATM   18  C   UNL     1      -7.866  20.322  66.831  1.00  0.00    -0.351 A  
HETATM   19  C   UNL     1      -6.756  21.096  67.173  1.00  0.00    -0.411 A  
HETATM   20  C   UNL     1      -6.096  20.863  68.376  1.00  0.00    -0.362 A  
HETATM   21  C   UNL     1      -6.526  19.838  69.217  1.00  0.00    -0.374 A  
HETATM   22  C   UNL     1      -7.626  19.053  68.862  1.00  0.00    -0.355 A  
ENDBRANCH  15  17
ENDBRANCH  12  15
ENDBRANCH   7   9
ENDBRANCH   4   7
TORSDOF 4
ENDMDL
MODEL       26
REMARK 921   NORMALIZED FREE ENERGY PREDICTED BY IDOCK:   -5.82 KCAL/MOL
REMARK 922        TOTAL FREE ENERGY PREDICTED BY IDOCK:   -7.86 KCAL/MOL
REMARK 923 INTER-LIGAND FREE ENERGY PREDICTED BY IDOCK:   -7.11 KCAL/MOL
REMARK 924 INTRA-LIGAND FREE ENERGY PREDICTED BY IDOCK:   -0.75 KCAL/MOL
REMARK 927      BINDING AFFINITY PREDICTED BY RF-SCORE:    0.00 PKD
ROOT
HETATM    1  C   UNL     1     -13.522  15.750  73.030  1.00  0.00    -0.672 C  
HETATM    2  C   UNL     1     -12.195  16.225  72.448  1.00  0.00    -0.538 C  
HETATM    3  C   UNL     1     -11.428  15.091  71.774  1.00  0.00    -0.376 C  
HETATM    4  C   UNL     1     -12.269  14.330  70.739  1.00  0.00    -0.353 C  
HETATM    5  C   UNL     1     -13.581  13.842  71.369  1.00  0.00    -0.287 C  
HETATM    6  C   UNL     1     -14.366  14.985  72.014  1.00  0.00    -0.666 C  
ENDROOT
BRANCH   4   7
HETATM    7  N   UNL     1     -12.576  15.184  69.588  1.00  0.00    -0.610 NA 
HETATM    8  H   UNL     1     -13.549  15.420  69.392  1.00  0.00     0.000 HD 
BRANCH   7   9
HETATM    9  C   UNL     1     -11.577  15.684  68.753  1.00  0.00    -0.384 A  
HETATM   10  C   UNL     1     -11.025  16.957  68.884  1.00  0.00    -0.207 A  
HETATM   11  C   UNL     1     -10.102  17.440  67.958  1.00  0.00    -0.326 A  
HETATM   12  C   UNL     1      -9.647  16.639  66.910  1.00  0.00    -0.249 A  
HETATM   13  C   UNL     1     -10.073  15.314  66.856  1.00  0.00    -0.257 A  
HETATM   14  C   UNL     1     -11.041  14.850  67.762  1.00  0.00    -0.313 A  
BRANCH  12  15
HETATM   15  N   UNL     1      -8.826  17.242  65.948  1.00  0.00    -0.541 NA 
HETATM   16  H   UNL     1      -9.099  17.042  64.986  1.00  0.00     0.000 HD 
BRANCH  15  17
HETATM   17  C   UNL     1      -7.699  18.067  66.060  1.00  0.00    -0.176 A  
HETATM   18  C   UNL     1      -6.454  17.487  66.332  1.00  0.00    -0.283 A  
HETATM   19  C   UNL     1      -5.293  18.261  66.361  1.00  0.00    -0.182 A  
HETATM   20  C   UNL     1      -5.367  19.628  66.115  1.00  0.00    -0.162 A  
HETATM   21  C   UNL     1      -6.604  20.225  65.872  1.00  0.00    -0.264 A  
HETATM   22  C   UNL     1      -7.768  19.450  65.862  1.00  0.00    -0.264 A  
ENDBRANCH  15  17
ENDBRANCH  12  15
ENDBRANCH   7   9
ENDBRANCH   4   7
TORSDOF 4
ENDMDL
MODEL       27
REMARK 921   NORMALIZED FREE ENERGY PREDICTED BY IDOCK:   -5.82 KCAL/MOL
REMARK 922        TOTAL FREE ENERGY PREDICTED BY IDOCK:   -7.85 KCAL/MOL
REMARK 923 INTER-LIGAND FREE ENERGY PREDICTED BY IDOCK:   -7.08 KCAL/MOL
REMARK 924 INTRA-LIGAND FREE ENERGY PREDICTED BY IDOCK:   -0.77 KCAL/MOL
REMARK 927      BINDING AFFINITY PREDICTED BY RF-SCORE:    0.00 PKD
ROOT
HETATM    1  C   UNL     1      -7.120   9.831  63.507  1.00  0.00    -0.115 C  
HETATM    2  C   UNL     1      -7.661  10.910  62.574  1.00  0.00    -0.082 C  
HETATM    3  C   UNL     1      -9.183  10.866  62.472  1.00  0.00    -0.339 C  
HETATM    4  C   UNL     1      -9.878  10.891  63.841  1.00  0.00    -0.331 C  
HETATM    5  C   UNL     1      -9.329   9.775  64.740  1.00  0.00    -0.327 C  
HETATM    6  C   UNL     1      -7.807   9.839  64.870  1.00  0.00    -0.133 C  
ENDROOT
BRANCH   4   7
HETATM    7  N   UNL     1      -9.677  12.184  64.503  1.00  0.00    -0.472 NA 
HETATM    8  H   UNL     1      -9.243  12.945  63.982  1.00  0.00     0.000 HD 
BRANCH   7   9
HETATM    9  C   UNL     1     -10.064  12.403  65.825  1.00  0.00    -0.253 A  
HETATM   10  C   UNL     1      -9.172  12.700  66.853  1.00  0.00    -0.216 A  
HETATM   11  C   UNL     1      -9.605  12.808  68.173  1.00  0.00    -0.223 A  
HETATM   12  C   UNL     1     -10.956  12.694  68.500  1.00  0.00    -0.261 A  
HETATM   13  C   UNL     1     -11.878  12.550  67.464  1.00  0.00    -0.389 A  
HETATM   14  C   UNL     1     -11.430  12.392  66.143  1.00  0.00    -0.430 A  
BRANCH  12  15
HETATM   15  N   UNL     1     -11.293  12.679  69.860  1.00  0.00    -0.505 NA 
HETATM   16  H   UNL     1     -10.729  12.041  70.420  1.00  0.00     0.000 HD 
BRANCH  15  17
HETATM   17  C   UNL     1     -12.260  13.378  70.594  1.00  0.00    -0.350 A  
HETATM   18  C   UNL     1     -12.965  12.708  71.602  1.00  0.00    -0.400 A  
HETATM   19  C   UNL     1     -13.870  13.389  72.417  1.00  0.00    -0.665 A  
HETATM   20  C   UNL     1     -14.077  14.752  72.234  1.00  0.00    -0.587 A  
HETATM   21  C   UNL     1     -13.404  15.426  71.215  1.00  0.00    -0.598 A  
HETATM   22  C   UNL     1     -12.512  14.737  70.388  1.00  0.00    -0.405 A  
ENDBRANCH  15  17
ENDBRANCH  12  15
ENDBRANCH   7   9
ENDBRANCH   4   7
TORSDOF 4
ENDMDL
MODEL       28
REMARK 921   NORMALIZED FREE ENERGY PREDICTED BY IDOCK:   -5.79 KCAL/MOL
REMARK 922        TOTAL FREE ENERGY PREDICTED BY IDOCK:   -7.82 KCAL/MOL
REMARK 923 INTER-LIGAND FREE ENERGY PREDICTED BY IDOCK:   -7.08 KCAL/MOL
REMARK 924 INTRA-LIGAND FREE ENERGY PREDICTED BY IDOCK:   -0.74 KCAL/MOL
REMARK 927      BINDING AFFINITY PREDICTED BY RF-SCORE:    0.00 PKD
ROOT
HETATM    1  C   UNL     1     -12.025  14.249  66.345  1.00  0.00    -0.438 C  
HETATM    2  C   UNL     1     -12.135  12.812  65.844  1.00  0.00    -0.485 C  
HETATM    3  C   UNL     1     -11.013  11.931  66.385  1.00  0.00    -0.337 C  
HETATM    4  C   UNL     1     -10.882  11.997  67.913  1.00  0.00    -0.215 C  
HETATM    5  C   UNL     1     -10.743  13.454  68.376  1.00  0.00    -0.271 C  
HETATM    6  C   UNL     1     -11.887  14.329  67.862  1.00  0.00    -0.393 C  
ENDROOT
BRANCH   4   7
HETATM    7  N   UNL     1     -12.050  11.394  68.563  1.00  0.00    -0.567 NA 
HETATM    8  H   UNL     1     -12.975  11.549  68.160  1.00  0.00     0.000 HD 
BRANCH   7   9
HETATM    9  C   UNL     1     -11.934  10.617  69.715  1.00  0.00    -0.291 A  
HETATM   10  C   UNL     1     -10.766   9.954  70.086  1.00  0.00    -0.361 A  
HETATM   11  C   UNL     1     -10.740   9.108  71.194  1.00  0.00    -0.380 A  
HETATM   12  C   UNL     1     -11.861   8.954  72.009  1.00  0.00    -0.368 A  
HETATM   13  C   UNL     1     -12.988   9.728  71.739  1.00  0.00    -0.536 A  
HETATM   14  C   UNL     1     -13.025  10.539  70.594  1.00  0.00    -0.362 A  
BRANCH  12  15
HETATM   15  N   UNL     1     -11.795   7.986  73.020  1.00  0.00    -0.607 NA 
HETATM   16  H   UNL     1     -12.464   8.130  73.776  1.00  0.00     0.000 HD 
BRANCH  15  17
HETATM   17  C   UNL     1     -10.982   6.857  73.186  1.00  0.00    -0.263 A  
HETATM   18  C   UNL     1     -11.237   5.715  72.417  1.00  0.00    -0.336 A  
HETATM   19  C   UNL     1     -10.398   4.602  72.486  1.00  0.00    -0.259 A  
HETATM   20  C   UNL     1      -9.289   4.623  73.326  1.00  0.00    -0.127 A  
HETATM   21  C   UNL     1      -9.040   5.742  74.120  1.00  0.00    -0.126 A  
HETATM   22  C   UNL     1      -9.893   6.847  74.063  1.00  0.00    -0.354 A  
ENDBRANCH  15  17
ENDBRANCH  12  15
ENDBRANCH   7   9
ENDBRANCH   4   7
TORSDOF 4
ENDMDL
MODEL       29
REMARK 921   NORMALIZED FREE ENERGY PREDICTED BY IDOCK:   -5.76 KCAL/MOL
REMARK 922        TOTAL FREE ENERGY PREDICTED BY IDOCK:   -7.78 KCAL/MOL
REMARK 923 INTER-LIGAND FREE ENERGY PREDICTED BY IDOCK:   -7.06 KCAL/MOL
REMARK 924 INTRA-LIGAND FREE ENERGY PREDICTED BY IDOCK:   -0.72 KCAL/MOL
REMARK 927      BINDING AFFINITY PREDICTED BY RF-SCORE:    0.00 PKD
ROOT
HETATM    1  C   UNL     1      -7.922   7.537  65.928  1.00  0.00    -0.117 C  
HETATM    2  C   UNL     1      -7.761   8.903  65.268  1.00  0.00    -0.100 C  
HETATM    3  C   UNL     1      -9.107   9.526  64.911  1.00  0.00    -0.276 C  
HETATM    4  C   UNL     1     -10.081   9.574  66.097  1.00  0.00    -0.256 C  
HETATM    5  C   UNL     1     -10.239   8.178  66.715  1.00  0.00    -0.372 C  
HETATM    6  C   UNL     1      -8.893   7.567  67.105  1.00  0.00    -0.127 C  
ENDROOT
BRANCH   4   7
HETATM    7  N   UNL     1      -9.603  10.504  67.126  1.00  0.00    -0.166 NA 
HETATM    8  H   UNL     1      -8.671  10.373  67.517  1.00  0.00     0.000 HD 
BRANCH   7   9
HETATM    9  C   UNL     1     -10.388  11.562  67.584  1.00  0.00    -0.186 A  
HETATM   10  C   UNL     1     -10.680  12.694  66.825  1.00  0.00    -0.261 A  
HETATM   11  C   UNL     1     -11.385  13.765  67.373  1.00  0.00    -0.348 A  
HETATM   12  C   UNL     1     -11.882  13.710  68.674  1.00  0.00    -0.374 A  
HETATM   13  C   UNL     1     -11.730  12.525  69.392  1.00  0.00    -0.383 A  
HETATM   14  C   UNL     1     -10.977  11.469  68.854  1.00  0.00    -0.279 A  
BRANCH  12  15
HETATM   15  N   UNL     1     -12.459  14.876  69.194  1.00  0.00    -0.587 NA 
HETATM   16  H   UNL     1     -12.808  15.518  68.484  1.00  0.00     0.000 HD 
BRANCH  15  17
HETATM   17  C   UNL     1     -12.646  15.325  70.508  1.00  0.00    -0.399 A  
HETATM   18  C   UNL     1     -13.920  15.238  71.082  1.00  0.00    -0.462 A  
HETATM   19  C   UNL     1     -14.131  15.589  72.416  1.00  0.00    -0.627 A  
HETATM   20  C   UNL     1     -13.064  16.028  73.193  1.00  0.00    -0.631 A  
HETATM   21  C   UNL     1     -11.795  16.148  72.626  1.00  0.00    -0.609 A  
HETATM   22  C   UNL     1     -11.591  15.814  71.285  1.00  0.00    -0.499 A  
ENDBRANCH  15  17
ENDBRANCH  12  15
ENDBRANCH   7   9
ENDBRANCH   4   7
TORSDOF 4
ENDMDL
MODEL       30
REMARK 921   NORMALIZED FREE ENERGY PREDICTED BY IDOCK:   -5.76 KCAL/MOL
REMARK 922        TOTAL FREE ENERGY PREDICTED BY IDOCK:   -7.78 KCAL/MOL
REMARK 923 INTER-LIGAND FREE ENERGY PREDICTED BY IDOCK:   -7.17 KCAL/MOL
REMARK 924 INTRA-LIGAND FREE ENERGY PREDICTED BY IDOCK:   -0.61 KCAL/MOL
REMARK 927      BINDING AFFINITY PREDICTED BY RF-SCORE:    0.00 PKD
ROOT
HETATM    1  C   UNL     1     -11.951  12.713  63.466  1.00  0.00    -0.630 C  
HETATM    2  C   UNL     1     -12.149  14.085  64.102  1.00  0.00    -0.456 C  
HETATM    3  C   UNL     1     -12.647  13.982  65.540  1.00  0.00    -0.543 C  
HETATM    4  C   UNL     1     -11.775  13.067  66.413  1.00  0.00    -0.390 C  
HETATM    5  C   UNL     1     -11.623  11.688  65.756  1.00  0.00    -0.088 C  
HETATM    6  C   UNL     1     -11.092  11.790  64.326  1.00  0.00    -0.420 C  
ENDROOT
BRANCH   4   7
HETATM    7  N   UNL     1     -10.446  13.653  66.616  1.00  0.00    -0.270 NA 
HETATM    8  H   UNL     1      -9.630  13.041  66.612  1.00  0.00     0.000 HD 
BRANCH   7   9
HETATM    9  C   UNL     1     -10.266  15.021  66.813  1.00  0.00    -0.260 A  
HETATM   10  C   UNL     1      -9.485  15.826  65.987  1.00  0.00    -0.392 A  
HETATM   11  C   UNL     1      -9.259  17.167  66.292  1.00  0.00    -0.260 A  
HETATM   12  C   UNL     1      -9.866  17.766  67.396  1.00  0.00    -0.311 A  
HETATM   13  C   UNL     1     -10.771  17.015  68.143  1.00  0.00    -0.374 A  
HETATM   14  C   UNL     1     -10.955  15.652  67.860  1.00  0.00    -0.319 A  
BRANCH  12  15
HETATM   15  N   UNL     1      -9.482  19.077  67.710  1.00  0.00    -0.298 NA 
HETATM   16  H   UNL     1     -10.265  19.709  67.878  1.00  0.00     0.000 HD 
BRANCH  15  17
HETATM   17  C   UNL     1      -8.225  19.681  67.838  1.00  0.00    -0.309 A  
HETATM   18  C   UNL     1      -7.726  20.445  66.775  1.00  0.00    -0.311 A  
HETATM   19  C   UNL     1      -6.521  21.138  66.894  1.00  0.00    -0.400 A  
HETATM   20  C   UNL     1      -5.802  21.076  68.084  1.00  0.00    -0.394 A  
HETATM   21  C   UNL     1      -6.272  20.296  69.139  1.00  0.00    -0.363 A  
HETATM   22  C   UNL     1      -7.469  19.587  69.010  1.00  0.00    -0.380 A  
ENDBRANCH  15  17
ENDBRANCH  12  15
ENDBRANCH   7   9
ENDBRANCH   4   7
TORSDOF 4
ENDMDL
MODEL       31
REMARK 921   NORMALIZED FREE ENERGY PREDICTED BY IDOCK:   -5.73 KCAL/MOL
REMARK 922        TOTAL FREE ENERGY PREDICTED BY IDOCK:   -7.74 KCAL/MOL
REMARK 923 INTER-LIGAND FREE ENERGY PREDICTED BY IDOCK:   -6.98 KCAL/MOL
REMARK 924 INTRA-LIGAND FREE ENERGY PREDICTED BY IDOCK:   -0.76 KCAL/MOL
REMARK 927      BINDING AFFINITY PREDICTED BY RF-SCORE:    0.00 PKD
ROOT
HETATM    1  C   UNL     1      -8.804   9.644  63.017  1.00  0.00    -0.254 C  
HETATM    2  C   UNL     1      -9.333  11.031  62.661  1.00  0.00    -0.348 C  
HETATM    3  C   UNL     1     -10.582  11.387  63.462  1.00  0.00    -0.468 C  
HETATM    4  C   UNL     1     -10.393  11.217  64.977  1.00  0.00    -0.301 C  
HETATM    5  C   UNL     1      -9.889   9.803  65.297  1.00  0.00    -0.335 C  
HETATM    6  C   UNL     1      -8.618   9.458  64.519  1.00  0.00    -0.219 C  
ENDROOT
BRANCH   4   7
HETATM    7  N   UNL     1      -9.435  12.198  65.496  1.00  0.00    -0.422 NA 
HETATM    8  H   UNL     1      -8.437  12.002  65.423  1.00  0.00     0.000 HD 
BRANCH   7   9
HETATM    9  C   UNL     1      -9.849  13.391  66.087  1.00  0.00    -0.281 A  
HETATM   10  C   UNL     1     -10.142  14.549  65.369  1.00  0.00    -0.394 A  
HETATM   11  C   UNL     1     -10.453  15.741  66.022  1.00  0.00    -0.350 A  
HETATM   12  C   UNL     1     -10.551  15.797  67.412  1.00  0.00    -0.313 A  
HETATM   13  C   UNL     1     -10.412  14.613  68.134  1.00  0.00    -0.237 A  
HETATM   14  C   UNL     1     -10.050  13.427  67.475  1.00  0.00    -0.227 A  
BRANCH  12  15
HETATM   15  N   UNL     1     -10.733  17.058  67.996  1.00  0.00    -0.369 NA 
HETATM   16  H   UNL     1     -11.538  17.113  68.619  1.00  0.00     0.000 HD 
BRANCH  15  17
HETATM   17  C   UNL     1     -10.017  18.256  67.883  1.00  0.00    -0.345 A  
HETATM   18  C   UNL     1      -8.657  18.270  68.215  1.00  0.00    -0.299 A  
HETATM   19  C   UNL     1      -7.885  19.418  68.031  1.00  0.00    -0.337 A  
HETATM   20  C   UNL     1      -8.469  20.567  67.508  1.00  0.00    -0.316 A  
HETATM   21  C   UNL     1      -9.829  20.577  67.201  1.00  0.00    -0.567 A  
HETATM   22  C   UNL     1     -10.603  19.431  67.405  1.00  0.00    -0.603 A  
ENDBRANCH  15  17
ENDBRANCH  12  15
ENDBRANCH   7   9
ENDBRANCH   4   7
TORSDOF 4
ENDMDL
MODEL       32
REMARK 921   NORMALIZED FREE ENERGY PREDICTED BY IDOCK:   -5.72 KCAL/MOL
REMARK 922        TOTAL FREE ENERGY PREDICTED BY IDOCK:   -7.74 KCAL/MOL
REMARK 923 INTER-LIGAND FREE ENERGY PREDICTED BY IDOCK:   -6.98 KCAL/MOL
REMARK 924 INTRA-LIGAND FREE ENERGY PREDICTED BY IDOCK:   -0.75 KCAL/MOL
REMARK 927      BINDING AFFINITY PREDICTED BY RF-SCORE:    0.00 PKD
ROOT
HETATM    1  C   UNL     1     -10.311  17.679  66.239  1.00  0.00    -0.342 C  
HETATM    2  C   UNL     1     -10.599  16.325  65.597  1.00  0.00    -0.360 C  
HETATM    3  C   UNL     1      -9.812  15.199  66.261  1.00  0.00    -0.317 C  
HETATM    4  C   UNL     1      -9.990  15.161  67.786  1.00  0.00    -0.225 C  
HETATM    5  C   UNL     1      -9.663  16.530  68.398  1.00  0.00    -0.236 C  
HETATM    6  C   UNL     1     -10.477  17.654  67.755  1.00  0.00    -0.379 C  
ENDROOT
BRANCH   4   7
HETATM    7  N   UNL     1     -11.364  14.791  68.141  1.00  0.00    -0.293 NA 
HETATM    8  H   UNL     1     -12.115  15.460  67.974  1.00  0.00     0.000 HD 
BRANCH   7   9
HETATM    9  C   UNL     1     -11.673  13.551  68.699  1.00  0.00    -0.354 A  
HETATM   10  C   UNL     1     -12.092  13.378  70.016  1.00  0.00    -0.404 A  
HETATM   11  C   UNL     1     -12.288  12.104  70.548  1.00  0.00    -0.358 A  
HETATM   12  C   UNL     1     -12.141  10.964  69.759  1.00  0.00    -0.338 A  
HETATM   13  C   UNL     1     -11.873  11.128  68.401  1.00  0.00    -0.302 A  
HETATM   14  C   UNL     1     -11.627  12.410  67.884  1.00  0.00    -0.415 A  
BRANCH  12  15
HETATM   15  N   UNL     1     -12.223   9.721  70.400  1.00  0.00    -0.470 NA 
HETATM   16  H   UNL     1     -13.097   9.224  70.230  1.00  0.00     0.000 HD 
BRANCH  15  17
HETATM   17  C   UNL     1     -11.328   9.032  71.230  1.00  0.00    -0.319 A  
HETATM   18  C   UNL     1      -9.952   9.177  71.015  1.00  0.00    -0.367 A  
HETATM   19  C   UNL     1      -9.026   8.582  71.874  1.00  0.00    -0.301 A  
HETATM   20  C   UNL     1      -9.471   7.837  72.962  1.00  0.00    -0.311 A  
HETATM   21  C   UNL     1     -10.838   7.660  73.170  1.00  0.00    -0.440 A  
HETATM   22  C   UNL     1     -11.763   8.241  72.297  1.00  0.00    -0.453 A  
ENDBRANCH  15  17
ENDBRANCH  12  15
ENDBRANCH   7   9
ENDBRANCH   4   7
TORSDOF 4
ENDMDL
MODEL       33
REMARK 921   NORMALIZED FREE ENERGY PREDICTED BY IDOCK:   -5.68 KCAL/MOL
REMARK 922        TOTAL FREE ENERGY PREDICTED BY IDOCK:   -7.69 KCAL/MOL
REMARK 923 INTER-LIGAND FREE ENERGY PREDICTED BY IDOCK:   -6.90 KCAL/MOL
REMARK 924 INTRA-LIGAND FREE ENERGY PREDICTED BY IDOCK:   -0.79 KCAL/MOL
REMARK 927      BINDING AFFINITY PREDICTED BY RF-SCORE:    0.00 PKD
ROOT
HETATM    1  C   UNL     1      -8.154  19.507  66.810  1.00  0.00    -0.313 C  
HETATM    2  C   UNL     1      -8.326  19.580  68.324  1.00  0.00    -0.375 C  
HETATM    3  C   UNL     1      -9.773  19.341  68.746  1.00  0.00    -0.510 C  
HETATM    4  C   UNL     1     -10.362  18.048  68.164  1.00  0.00    -0.388 C  
HETATM    5  C   UNL     1     -10.197  18.025  66.638  1.00  0.00    -0.375 C  
HETATM    6  C   UNL     1      -8.741  18.231  66.216  1.00  0.00    -0.199 C  
ENDROOT
BRANCH   4   7
HETATM    7  N   UNL     1      -9.703  16.870  68.737  1.00  0.00    -0.256 NA 
HETATM    8  H   UNL     1      -8.793  16.981  69.185  1.00  0.00     0.000 HD 
BRANCH   7   9
HETATM    9  C   UNL     1     -10.284  15.603  68.688  1.00  0.00    -0.212 A  
HETATM   10  C   UNL     1     -11.549  15.312  69.195  1.00  0.00    -0.349 A  
HETATM   11  C   UNL     1     -12.035  14.006  69.209  1.00  0.00    -0.396 A  
HETATM   12  C   UNL     1     -11.302  12.958  68.652  1.00  0.00    -0.289 A  
HETATM   13  C   UNL     1     -10.105  13.258  68.005  1.00  0.00    -0.235 A  
HETATM   14  C   UNL     1      -9.597  14.567  68.038  1.00  0.00    -0.217 A  
BRANCH  12  15
HETATM   15  N   UNL     1     -11.798  11.660  68.827  1.00  0.00    -0.344 NA 
HETATM   16  H   UNL     1     -12.313  11.301  68.024  1.00  0.00     0.000 HD 
BRANCH  15  17
HETATM   17  C   UNL     1     -11.719  10.762  69.900  1.00  0.00    -0.333 A  
HETATM   18  C   UNL     1     -12.829  10.602  70.738  1.00  0.00    -0.439 A  
HETATM   19  C   UNL     1     -12.824   9.653  71.761  1.00  0.00    -0.514 A  
HETATM   20  C   UNL     1     -11.705   8.850  71.954  1.00  0.00    -0.439 A  
HETATM   21  C   UNL     1     -10.581   9.018  71.147  1.00  0.00    -0.361 A  
HETATM   22  C   UNL     1     -10.582   9.983  70.135  1.00  0.00    -0.350 A  
ENDBRANCH  15  17
ENDBRANCH  12  15
ENDBRANCH   7   9
ENDBRANCH   4   7
TORSDOF 4
ENDMDL
MODEL       34
REMARK 921   NORMALIZED FREE ENERGY PREDICTED BY IDOCK:   -5.67 KCAL/MOL
REMARK 922        TOTAL FREE ENERGY PREDICTED BY IDOCK:   -7.67 KCAL/MOL
REMARK 923 INTER-LIGAND FREE ENERGY PREDICTED BY IDOCK:   -6.84 KCAL/MOL
REMARK 924 INTRA-LIGAND FREE ENERGY PREDICTED BY IDOCK:   -0.83 KCAL/MOL
REMARK 927      BINDING AFFINITY PREDICTED BY RF-SCORE:    0.00 PKD
ROOT
HETATM    1  C   UNL     1     -10.308   5.199  71.201  1.00  0.00    -0.276 C  
HETATM    2  C   UNL     1     -11.064   6.158  70.286  1.00  0.00    -0.436 C  
HETATM    3  C   UNL     1     -12.139   6.936  71.038  1.00  0.00    -0.429 C  
HETATM    4  C   UNL     1     -11.604   7.643  72.291  1.00  0.00    -0.322 C  
HETATM    5  C   UNL     1     -10.877   6.642  73.200  1.00  0.00    -0.298 C  
HETATM    6  C   UNL     1      -9.776   5.886  72.455  1.00  0.00    -0.175 C  
ENDROOT
BRANCH   4   7
HETATM    7  N   UNL     1     -10.679   8.721  71.927  1.00  0.00    -0.339 NA 
HETATM    8  H   UNL     1      -9.745   8.731  72.336  1.00  0.00     0.000 HD 
BRANCH   7   9
HETATM    9  C   UNL     1     -11.039   9.731  71.036  1.00  0.00    -0.361 A  
HETATM   10  C   UNL     1     -10.378   9.974  69.833  1.00  0.00    -0.315 A  
HETATM   11  C   UNL     1     -10.719  11.063  69.032  1.00  0.00    -0.258 A  
HETATM   12  C   UNL     1     -11.780  11.903  69.372  1.00  0.00    -0.339 A  
HETATM   13  C   UNL     1     -12.547  11.583  70.490  1.00  0.00    -0.286 A  
HETATM   14  C   UNL     1     -12.168  10.515  71.319  1.00  0.00    -0.472 A  
BRANCH  12  15
HETATM   15  N   UNL     1     -11.971  13.049  68.589  1.00  0.00    -0.308 NA 
HETATM   16  H   UNL     1     -12.577  13.748  69.018  1.00  0.00     0.000 HD 
BRANCH  15  17
HETATM   17  C   UNL     1     -11.486  13.415  67.326  1.00  0.00    -0.340 A  
HETATM   18  C   UNL     1     -12.132  12.930  66.182  1.00  0.00    -0.458 A  
HETATM   19  C   UNL     1     -11.739  13.341  64.908  1.00  0.00    -0.375 A  
HETATM   20  C   UNL     1     -10.693  14.247  64.766  1.00  0.00    -0.435 A  
HETATM   21  C   UNL     1     -10.021  14.715  65.895  1.00  0.00    -0.352 A  
HETATM   22  C   UNL     1     -10.405  14.286  67.168  1.00  0.00    -0.262 A  
ENDBRANCH  15  17
ENDBRANCH  12  15
ENDBRANCH   7   9
ENDBRANCH   4   7
TORSDOF 4
ENDMDL
MODEL       35
REMARK 921   NORMALIZED FREE ENERGY PREDICTED BY IDOCK:   -5.64 KCAL/MOL
REMARK 922        TOTAL FREE ENERGY PREDICTED BY IDOCK:   -7.64 KCAL/MOL
REMARK 923 INTER-LIGAND FREE ENERGY PREDICTED BY IDOCK:   -7.01 KCAL/MOL
REMARK 924 INTRA-LIGAND FREE ENERGY PREDICTED BY IDOCK:   -0.63 KCAL/MOL
REMARK 927      BINDING AFFINITY PREDICTED BY RF-SCORE:    0.00 PKD
ROOT
HETATM    1  C   UNL     1     -11.238  12.087  63.502  1.00  0.00    -0.526 C  
HETATM    2  C   UNL     1     -10.206  11.432  64.415  1.00  0.00    -0.361 C  
HETATM    3  C   UNL     1      -9.967  12.245  65.683  1.00  0.00    -0.271 C  
HETATM    4  C   UNL     1     -11.264  12.583  66.434  1.00  0.00    -0.306 C  
HETATM    5  C   UNL     1     -12.264  13.267  65.492  1.00  0.00    -0.506 C  
HETATM    6  C   UNL     1     -12.530  12.435  64.236  1.00  0.00    -0.529 C  
ENDROOT
BRANCH   4   7
HETATM    7  N   UNL     1     -11.876  11.371  66.988  1.00  0.00    -0.468 NA 
HETATM    8  H   UNL     1     -12.567  10.867  66.433  1.00  0.00     0.000 HD 
BRANCH   7   9
HETATM    9  C   UNL     1     -11.540  10.887  68.252  1.00  0.00    -0.262 A  
HETATM   10  C   UNL     1     -10.557   9.925  68.475  1.00  0.00    -0.248 A  
HETATM   11  C   UNL     1     -10.335   9.405  69.749  1.00  0.00    -0.240 A  
HETATM   12  C   UNL     1     -11.040   9.882  70.854  1.00  0.00    -0.348 A  
HETATM   13  C   UNL     1     -11.915  10.951  70.671  1.00  0.00    -0.467 A  
HETATM   14  C   UNL     1     -12.171  11.435  69.378  1.00  0.00    -0.288 A  
BRANCH  12  15
HETATM   15  N   UNL     1     -10.856   9.216  72.074  1.00  0.00    -0.297 NA 
HETATM   16  H   UNL     1     -10.665   9.836  72.860  1.00  0.00     0.000 HD 
BRANCH  15  17
HETATM   17  C   UNL     1     -10.885   7.858  72.414  1.00  0.00    -0.317 A  
HETATM   18  C   UNL     1     -10.163   7.420  73.530  1.00  0.00    -0.400 A  
HETATM   19  C   UNL     1     -10.237   6.093  73.958  1.00  0.00    -0.309 A  
HETATM   20  C   UNL     1     -11.042   5.189  73.271  1.00  0.00    -0.392 A  
HETATM   21  C   UNL     1     -11.744   5.604  72.140  1.00  0.00    -0.149 A  
HETATM   22  C   UNL     1     -11.651   6.929  71.703  1.00  0.00    -0.325 A  
ENDBRANCH  15  17
ENDBRANCH  12  15
ENDBRANCH   7   9
ENDBRANCH   4   7
TORSDOF 4
ENDMDL
MODEL       36
REMARK 921   NORMALIZED FREE ENERGY PREDICTED BY IDOCK:   -5.63 KCAL/MOL
REMARK 922        TOTAL FREE ENERGY PREDICTED BY IDOCK:   -7.62 KCAL/MOL
REMARK 923 INTER-LIGAND FREE ENERGY PREDICTED BY IDOCK:   -6.89 KCAL/MOL
REMARK 924 INTRA-LIGAND FREE ENERGY PREDICTED BY IDOCK:   -0.73 KCAL/MOL
REMARK 927      BINDING AFFINITY PREDICTED BY RF-SCORE:    0.00 PKD
ROOT
HETATM    1  C   UNL     1     -13.602  14.264  72.024  1.00  0.00    -0.520 C  
HETATM    2  C   UNL     1     -13.268  15.692  71.602  1.00  0.00    -0.554 C  
HETATM    3  C   UNL     1     -11.832  15.818  71.101  1.00  0.00    -0.471 C  
HETATM    4  C   UNL     1     -11.487  14.800  70.005  1.00  0.00    -0.277 C  
HETATM    5  C   UNL     1     -11.808  13.376  70.477  1.00  0.00    -0.236 C  
HETATM    6  C   UNL     1     -13.257  13.241  70.946  1.00  0.00     0.030 C  
ENDROOT
BRANCH   4   7
HETATM    7  N   UNL     1     -12.238  15.082  68.777  1.00  0.00    -0.597 NA 
HETATM    8  H   UNL     1     -13.092  15.637  68.836  1.00  0.00     0.000 HD 
BRANCH   7   9
HETATM    9  C   UNL     1     -11.819  14.614  67.532  1.00  0.00    -0.347 A  
HETATM   10  C   UNL     1     -12.519  13.669  66.786  1.00  0.00    -0.241 A  
HETATM   11  C   UNL     1     -11.999  13.163  65.595  1.00  0.00    -0.462 A  
HETATM   12  C   UNL     1     -10.796  13.639  65.075  1.00  0.00    -0.352 A  
HETATM   13  C   UNL     1     -10.162  14.693  65.731  1.00  0.00    -0.360 A  
HETATM   14  C   UNL     1     -10.664  15.162  66.955  1.00  0.00    -0.307 A  
BRANCH  12  15
HETATM   15  N   UNL     1     -10.276  12.986  63.950  1.00  0.00    -0.713 NA 
HETATM   16  H   UNL     1     -10.327  13.535  63.092  1.00  0.00     0.000 HD 
BRANCH  15  17
HETATM   17  C   UNL     1      -9.699  11.721  63.782  1.00  0.00    -0.232 A  
HETATM   18  C   UNL     1      -9.470  10.923  64.910  1.00  0.00    -0.277 A  
HETATM   19  C   UNL     1      -8.982   9.621  64.780  1.00  0.00    -0.268 A  
HETATM   20  C   UNL     1      -8.721   9.104  63.515  1.00  0.00    -0.148 A  
HETATM   21  C   UNL     1      -8.916   9.897  62.386  1.00  0.00    -0.289 A  
HETATM   22  C   UNL     1      -9.387  11.207  62.520  1.00  0.00    -0.271 A  
ENDBRANCH  15  17
ENDBRANCH  12  15
ENDBRANCH   7   9
ENDBRANCH   4   7
TORSDOF 4
ENDMDL
MODEL       37
REMARK 921   NORMALIZED FREE ENERGY PREDICTED BY IDOCK:   -5.61 KCAL/MOL
REMARK 922        TOTAL FREE ENERGY PREDICTED BY IDOCK:   -7.59 KCAL/MOL
REMARK 923 INTER-LIGAND FREE ENERGY PREDICTED BY IDOCK:   -6.92 KCAL/MOL
REMARK 924 INTRA-LIGAND FREE ENERGY PREDICTED BY IDOCK:   -0.67 KCAL/MOL
REMARK 927      BINDING AFFINITY PREDICTED BY RF-SCORE:    0.00 PKD
ROOT
HETATM    1  C   UNL     1      -9.581  20.335  67.099  1.00  0.00    -0.580 C  
HETATM    2  C   UNL     1      -8.836  19.426  66.127  1.00  0.00    -0.301 C  
HETATM    3  C   UNL     1      -8.255  18.199  66.824  1.00  0.00    -0.270 C  
HETATM    4  C   UNL     1      -9.296  17.426  67.647  1.00  0.00    -0.245 C  
HETATM    5  C   UNL     1     -10.003  18.367  68.632  1.00  0.00    -0.415 C  
HETATM    6  C   UNL     1     -10.615  19.579  67.929  1.00  0.00    -0.503 C  
ENDROOT
BRANCH   4   7
HETATM    7  N   UNL     1     -10.296  16.806  66.771  1.00  0.00    -0.300 NA 
HETATM    8  H   UNL     1     -10.623  17.319  65.952  1.00  0.00     0.000 HD 
BRANCH   7   9
HETATM    9  C   UNL     1     -10.814  15.537  67.027  1.00  0.00    -0.314 A  
HETATM   10  C   UNL     1     -11.595  15.229  68.139  1.00  0.00    -0.344 A  
HETATM   11  C   UNL     1     -11.999  13.920  68.394  1.00  0.00    -0.391 A  
HETATM   12  C   UNL     1     -11.695  12.886  67.509  1.00  0.00    -0.367 A  
HETATM   13  C   UNL     1     -11.047  13.204  66.317  1.00  0.00    -0.308 A  
HETATM   14  C   UNL     1     -10.600  14.516  66.089  1.00  0.00    -0.308 A  
BRANCH  12  15
HETATM   15  N   UNL     1     -12.018  11.581  67.905  1.00  0.00    -0.641 NA 
HETATM   16  H   UNL     1     -12.992  11.328  67.740  1.00  0.00     0.000 HD 
BRANCH  15  17
HETATM   17  C   UNL     1     -11.254  10.560  68.483  1.00  0.00    -0.274 A  
HETATM   18  C   UNL     1     -10.552   9.680  67.650  1.00  0.00    -0.334 A  
HETATM   19  C   UNL     1      -9.707   8.706  68.186  1.00  0.00    -0.178 A  
HETATM   20  C   UNL     1      -9.554   8.606  69.565  1.00  0.00    -0.170 A  
HETATM   21  C   UNL     1     -10.270   9.456  70.407  1.00  0.00    -0.310 A  
HETATM   22  C   UNL     1     -11.130  10.417  69.868  1.00  0.00    -0.367 A  
ENDBRANCH  15  17
ENDBRANCH  12  15
ENDBRANCH   7   9
ENDBRANCH   4   7
TORSDOF 4
ENDMDL
MODEL       38
REMARK 921   NORMALIZED FREE ENERGY PREDICTED BY IDOCK:   -5.55 KCAL/MOL
REMARK 922        TOTAL FREE ENERGY PREDICTED BY IDOCK:   -7.52 KCAL/MOL
REMARK 923 INTER-LIGAND FREE ENERGY PREDICTED BY IDOCK:   -6.80 KCAL/MOL
REMARK 924 INTRA-LIGAND FREE ENERGY PREDICTED BY IDOCK:   -0.72 KCAL/MOL
REMARK 927      BINDING AFFINITY PREDICTED BY RF-SCORE:    0.00 PKD
ROOT
HETATM    1  C   UNL     1     -10.850   8.734  70.120  1.00  0.00    -0.241 C  
HETATM    2  C   UNL     1     -10.162   9.056  68.797  1.00  0.00    -0.226 C  
HETATM    3  C   UNL     1     -10.995   9.998  67.934  1.00  0.00    -0.311 C  
HETATM    4  C   UNL     1     -11.429  11.269  68.679  1.00  0.00    -0.297 C  
HETATM    5  C   UNL     1     -12.143  10.904  69.988  1.00  0.00    -0.433 C  
HETATM    6  C   UNL     1     -11.293   9.987  70.868  1.00  0.00    -0.439 C  
ENDROOT
BRANCH   4   7
HETATM    7  N   UNL     1     -10.270  12.116  68.983  1.00  0.00    -0.425 NA 
HETATM    8  H   UNL     1      -9.723  11.923  69.821  1.00  0.00     0.000 HD 
BRANCH   7   9
HETATM    9  C   UNL     1      -9.895  13.175  68.158  1.00  0.00    -0.228 A  
HETATM   10  C   UNL     1      -8.624  13.747  68.161  1.00  0.00    -0.175 A  
HETATM   11  C   UNL     1      -8.338  14.870  67.388  1.00  0.00    -0.213 A  
HETATM   12  C   UNL     1      -9.293  15.417  66.531  1.00  0.00    -0.282 A  
HETATM   13  C   UNL     1     -10.518  14.765  66.401  1.00  0.00    -0.294 A  
HETATM   14  C   UNL     1     -10.817  13.664  67.220  1.00  0.00    -0.292 A  
BRANCH  12  15
HETATM   15  N   UNL     1      -8.972  16.622  65.892  1.00  0.00    -0.505 NA 
HETATM   16  H   UNL     1      -8.526  16.503  64.982  1.00  0.00     0.000 HD 
BRANCH  15  17
HETATM   17  C   UNL     1      -9.149  17.960  66.268  1.00  0.00    -0.176 A  
HETATM   18  C   UNL     1     -10.437  18.416  66.573  1.00  0.00    -0.411 A  
HETATM   19  C   UNL     1     -10.646  19.715  67.040  1.00  0.00    -0.602 A  
HETATM   20  C   UNL     1      -9.562  20.571  67.209  1.00  0.00    -0.580 A  
HETATM   21  C   UNL     1      -8.278  20.140  66.881  1.00  0.00    -0.363 A  
HETATM   22  C   UNL     1      -8.074  18.845  66.395  1.00  0.00    -0.306 A  
ENDBRANCH  15  17
ENDBRANCH  12  15
ENDBRANCH   7   9
ENDBRANCH   4   7
TORSDOF 4
ENDMDL
MODEL       39
REMARK 921   NORMALIZED FREE ENERGY PREDICTED BY IDOCK:   -5.53 KCAL/MOL
REMARK 922        TOTAL FREE ENERGY PREDICTED BY IDOCK:   -7.49 KCAL/MOL
REMARK 923 INTER-LIGAND FREE ENERGY PREDICTED BY IDOCK:   -6.80 KCAL/MOL
REMARK 924 INTRA-LIGAND FREE ENERGY PREDICTED BY IDOCK:   -0.69 KCAL/MOL
REMARK 927      BINDING AFFINITY PREDICTED BY RF-SCORE:    0.00 PKD
ROOT
HETATM    1  C   UNL     1     -10.496  14.549  64.775  1.00  0.00    -0.365 C  
HETATM    2  C   UNL     1      -9.855  14.350  66.145  1.00  0.00    -0.340 C  
HETATM    3  C   UNL     1     -10.880  14.429  67.272  1.00  0.00    -0.290 C  
HETATM    4  C   UNL     1     -12.080  13.495  67.058  1.00  0.00    -0.354 C  
HETATM    5  C   UNL     1     -12.715  13.745  65.684  1.00  0.00    -0.523 C  
HETATM    6  C   UNL     1     -11.694  13.632  64.551  1.00  0.00    -0.429 C  
ENDROOT
BRANCH   4   7
HETATM    7  N   UNL     1     -11.669  12.090  67.150  1.00  0.00    -0.566 NA 
HETATM    8  H   UNL     1     -11.417  11.591  66.297  1.00  0.00     0.000 HD 
BRANCH   7   9
HETATM    9  C   UNL     1     -11.611  11.417  68.370  1.00  0.00    -0.315 A  
HETATM   10  C   UNL     1     -10.951  10.203  68.553  1.00  0.00    -0.278 A  
HETATM   11  C   UNL     1     -11.014   9.527  69.770  1.00  0.00    -0.245 A  
HETATM   12  C   UNL     1     -11.679  10.076  70.866  1.00  0.00    -0.374 A  
HETATM   13  C   UNL     1     -12.211  11.358  70.744  1.00  0.00    -0.475 A  
HETATM   14  C   UNL     1     -12.188  12.012  69.501  1.00  0.00    -0.176 A  
BRANCH  12  15
HETATM   15  N   UNL     1     -11.811   9.275  72.008  1.00  0.00    -0.346 NA 
HETATM   16  H   UNL     1     -12.407   9.679  72.731  1.00  0.00     0.000 HD 
BRANCH  15  17
HETATM   17  C   UNL     1     -11.278   8.024  72.344  1.00  0.00    -0.369 A  
HETATM   18  C   UNL     1     -12.010   6.869  72.042  1.00  0.00    -0.342 A  
HETATM   19  C   UNL     1     -11.477   5.600  72.275  1.00  0.00    -0.278 A  
HETATM   20  C   UNL     1     -10.200   5.475  72.813  1.00  0.00    -0.216 A  
HETATM   21  C   UNL     1      -9.472   6.616  73.146  1.00  0.00    -0.160 A  
HETATM   22  C   UNL     1     -10.016   7.885  72.929  1.00  0.00    -0.360 A  
ENDBRANCH  15  17
ENDBRANCH  12  15
ENDBRANCH   7   9
ENDBRANCH   4   7
TORSDOF 4
ENDMDL
MODEL       40
REMARK 921   NORMALIZED FREE ENERGY PREDICTED BY IDOCK:   -5.47 KCAL/MOL
REMARK 922        TOTAL FREE ENERGY PREDICTED BY IDOCK:   -7.42 KCAL/MOL
REMARK 923 INTER-LIGAND FREE ENERGY PREDICTED BY IDOCK:   -6.73 KCAL/MOL
REMARK 924 INTRA-LIGAND FREE ENERGY PREDICTED BY IDOCK:   -0.70 KCAL/MOL
REMARK 927      BINDING AFFINITY PREDICTED BY RF-SCORE:    0.00 PKD
ROOT
HETATM    1  C   UNL     1      -9.723   4.823  72.212  1.00  0.00    -0.209 C  
HETATM    2  C   UNL     1     -10.583   5.601  71.221  1.00  0.00    -0.321 C  
HETATM    3  C   UNL     1     -11.685   6.391  71.920  1.00  0.00    -0.378 C  
HETATM    4  C   UNL     1     -11.157   7.289  73.049  1.00  0.00    -0.317 C  
HETATM    5  C   UNL     1     -10.323   6.466  74.040  1.00  0.00    -0.340 C  
HETATM    6  C   UNL     1      -9.197   5.701  73.344  1.00  0.00    -0.135 C  
ENDROOT
BRANCH   4   7
HETATM    7  N   UNL     1     -10.332   8.374  72.508  1.00  0.00    -0.321 NA 
HETATM    8  H   UNL     1      -9.412   8.545  72.915  1.00  0.00     0.000 HD 
BRANCH   7   9
HETATM    9  C   UNL     1     -10.767   9.177  71.455  1.00  0.00    -0.367 A  
HETATM   10  C   UNL     1     -10.069   9.329  70.258  1.00  0.00    -0.262 A  
HETATM   11  C   UNL     1     -10.502  10.224  69.282  1.00  0.00    -0.250 A  
HETATM   12  C   UNL     1     -11.685  10.946  69.439  1.00  0.00    -0.325 A  
HETATM   13  C   UNL     1     -12.472  10.691  70.561  1.00  0.00    -0.445 A  
HETATM   14  C   UNL     1     -12.006   9.826  71.564  1.00  0.00    -0.488 A  
BRANCH  12  15
HETATM   15  N   UNL     1     -11.978  11.922  68.478  1.00  0.00    -0.422 NA 
HETATM   16  H   UNL     1     -12.393  11.551  67.624  1.00  0.00     0.000 HD 
BRANCH  15  17
HETATM   17  C   UNL     1     -11.809  13.313  68.471  1.00  0.00    -0.349 A  
HETATM   18  C   UNL     1     -12.129  14.044  69.621  1.00  0.00    -0.408 A  
HETATM   19  C   UNL     1     -11.890  15.417  69.689  1.00  0.00    -0.368 A  
HETATM   20  C   UNL     1     -11.322  16.074  68.601  1.00  0.00    -0.383 A  
HETATM   21  C   UNL     1     -11.026  15.364  67.438  1.00  0.00    -0.312 A  
HETATM   22  C   UNL     1     -11.284  13.993  67.368  1.00  0.00    -0.328 A  
ENDBRANCH  15  17
ENDBRANCH  12  15
ENDBRANCH   7   9
ENDBRANCH   4   7
TORSDOF 4
ENDMDL
MODEL       41
REMARK 921   NORMALIZED FREE ENERGY PREDICTED BY IDOCK:   -5.47 KCAL/MOL
REMARK 922        TOTAL FREE ENERGY PREDICTED BY IDOCK:   -7.42 KCAL/MOL
REMARK 923 INTER-LIGAND FREE ENERGY PREDICTED BY IDOCK:   -6.75 KCAL/MOL
REMARK 924 INTRA-LIGAND FREE ENERGY PREDICTED BY IDOCK:   -0.67 KCAL/MOL
REMARK 927      BINDING AFFINITY PREDICTED BY RF-SCORE:    0.00 PKD
ROOT
HETATM    1  C   UNL     1      -7.345  20.381  67.376  1.00  0.00    -0.359 C  
HETATM    2  C   UNL     1      -7.438  20.062  65.887  1.00  0.00    -0.321 C  
HETATM    3  C   UNL     1      -7.006  18.631  65.581  1.00  0.00    -0.255 C  
HETATM    4  C   UNL     1      -7.737  17.587  66.437  1.00  0.00    -0.297 C  
HETATM    5  C   UNL     1      -7.596  17.924  67.928  1.00  0.00    -0.221 C  
HETATM    6  C   UNL     1      -8.061  19.347  68.240  1.00  0.00    -0.371 C  
ENDROOT
BRANCH   4   7
HETATM    7  N   UNL     1      -9.160  17.532  66.089  1.00  0.00    -0.489 NA 
HETATM    8  H   UNL     1      -9.596  18.347  65.658  1.00  0.00     0.000 HD 
BRANCH   7   9
HETATM    9  C   UNL     1      -9.935  16.398  66.329  1.00  0.00    -0.323 A  
HETATM   10  C   UNL     1     -10.660  16.190  67.501  1.00  0.00    -0.314 A  
HETATM   11  C   UNL     1     -11.334  14.991  67.727  1.00  0.00    -0.340 A  
HETATM   12  C   UNL     1     -11.364  13.988  66.758  1.00  0.00    -0.334 A  
HETATM   13  C   UNL     1     -10.773  14.243  65.522  1.00  0.00    -0.339 A  
HETATM   14  C   UNL     1     -10.054  15.431  65.319  1.00  0.00    -0.354 A  
BRANCH  12  15
HETATM   15  N   UNL     1     -11.946  12.764  67.114  1.00  0.00    -0.430 NA 
HETATM   16  H   UNL     1     -12.848  12.589  66.672  1.00  0.00     0.000 HD 
BRANCH  15  17
HETATM   17  C   UNL     1     -11.521  11.735  67.965  1.00  0.00    -0.319 A  
HETATM   18  C   UNL     1     -11.823  11.811  69.330  1.00  0.00    -0.389 A  
HETATM   19  C   UNL     1     -11.499  10.766  70.196  1.00  0.00    -0.415 A  
HETATM   20  C   UNL     1     -10.868   9.629  69.701  1.00  0.00    -0.266 A  
HETATM   21  C   UNL     1     -10.534   9.552  68.350  1.00  0.00    -0.261 A  
HETATM   22  C   UNL     1     -10.843  10.609  67.489  1.00  0.00    -0.351 A  
ENDBRANCH  15  17
ENDBRANCH  12  15
ENDBRANCH   7   9
ENDBRANCH   4   7
TORSDOF 4
ENDMDL
MODEL       42
REMARK 921   NORMALIZED FREE ENERGY PREDICTED BY IDOCK:   -5.44 KCAL/MOL
REMARK 922        TOTAL FREE ENERGY PREDICTED BY IDOCK:   -7.38 KCAL/MOL
REMARK 923 INTER-LIGAND FREE ENERGY PREDICTED BY IDOCK:   -6.60 KCAL/MOL
REMARK 924 INTRA-LIGAND FREE ENERGY PREDICTED BY IDOCK:   -0.78 KCAL/MOL
REMARK 927      BINDING AFFINITY PREDICTED BY RF-SCORE:    0.00 PKD
ROOT
HETATM    1  C   UNL     1      -8.714  19.376  68.495  1.00  0.00    -0.407 C  
HETATM    2  C   UNL     1     -10.170  19.590  68.091  1.00  0.00    -0.556 C  
HETATM    3  C   UNL     1     -10.550  18.762  66.867  1.00  0.00    -0.472 C  
HETATM    4  C   UNL     1     -10.211  17.273  67.020  1.00  0.00    -0.320 C  
HETATM    5  C   UNL     1      -8.734  17.097  67.397  1.00  0.00    -0.211 C  
HETATM    6  C   UNL     1      -8.361  17.899  68.644  1.00  0.00    -0.276 C  
ENDROOT
BRANCH   4   7
HETATM    7  N   UNL     1     -11.048  16.651  68.051  1.00  0.00    -0.312 NA 
HETATM    8  H   UNL     1     -11.418  17.231  68.804  1.00  0.00     0.000 HD 
BRANCH   7   9
HETATM    9  C   UNL     1     -11.353  15.290  68.032  1.00  0.00    -0.338 A  
HETATM   10  C   UNL     1     -11.332  14.477  69.164  1.00  0.00    -0.305 A  
HETATM   11  C   UNL     1     -11.546  13.103  69.066  1.00  0.00    -0.360 A  
HETATM   12  C   UNL     1     -11.858  12.508  67.844  1.00  0.00    -0.323 A  
HETATM   13  C   UNL     1     -12.033  13.329  66.732  1.00  0.00    -0.438 A  
HETATM   14  C   UNL     1     -11.767  14.705  66.827  1.00  0.00    -0.355 A  
BRANCH  12  15
HETATM   15  N   UNL     1     -11.924  11.108  67.807  1.00  0.00    -0.652 NA 
HETATM   16  H   UNL     1     -12.864  10.742  67.660  1.00  0.00     0.000 HD 
BRANCH  15  17
HETATM   17  C   UNL     1     -10.941  10.119  67.933  1.00  0.00    -0.277 A  
HETATM   18  C   UNL     1     -10.175   9.773  66.813  1.00  0.00    -0.300 A  
HETATM   19  C   UNL     1      -9.125   8.859  66.916  1.00  0.00    -0.163 A  
HETATM   20  C   UNL     1      -8.829   8.282  68.147  1.00  0.00    -0.139 A  
HETATM   21  C   UNL     1      -9.602   8.595  69.265  1.00  0.00    -0.166 A  
HETATM   22  C   UNL     1     -10.665   9.496  69.154  1.00  0.00    -0.228 A  
ENDBRANCH  15  17
ENDBRANCH  12  15
ENDBRANCH   7   9
ENDBRANCH   4   7
TORSDOF 4
ENDMDL
MODEL       43
REMARK 921   NORMALIZED FREE ENERGY PREDICTED BY IDOCK:   -5.44 KCAL/MOL
REMARK 922        TOTAL FREE ENERGY PREDICTED BY IDOCK:   -7.38 KCAL/MOL
REMARK 923 INTER-LIGAND FREE ENERGY PREDICTED BY IDOCK:   -6.70 KCAL/MOL
REMARK 924 INTRA-LIGAND FREE ENERGY PREDICTED BY IDOCK:   -0.68 KCAL/MOL
REMARK 927      BINDING AFFINITY PREDICTED BY RF-SCORE:    0.00 PKD
ROOT
HETATM    1  C   UNL     1      -8.841   9.078  66.303  1.00  0.00    -0.180 C  
HETATM    2  C   UNL     1     -10.260   8.623  66.630  1.00  0.00    -0.343 C  
HETATM    3  C   UNL     1     -10.776   9.246  67.923  1.00  0.00    -0.248 C  
HETATM    4  C   UNL     1     -10.645  10.776  67.946  1.00  0.00    -0.221 C  
HETATM    5  C   UNL     1      -9.200  11.194  67.642  1.00  0.00    -0.151 C  
HETATM    6  C   UNL     1      -8.695  10.597  66.328  1.00  0.00    -0.163 C  
ENDROOT
BRANCH   4   7
HETATM    7  N   UNL     1     -11.541  11.390  66.961  1.00  0.00    -0.514 NA 
HETATM    8  H   UNL     1     -12.323  10.846  66.597  1.00  0.00     0.000 HD 
BRANCH   7   9
HETATM    9  C   UNL     1     -11.355  12.696  66.508  1.00  0.00    -0.326 A  
HETATM   10  C   UNL     1     -11.138  13.028  65.172  1.00  0.00    -0.317 A  
HETATM   11  C   UNL     1     -10.857  14.339  64.793  1.00  0.00    -0.420 A  
HETATM   12  C   UNL     1     -10.854  15.374  65.728  1.00  0.00    -0.343 A  
HETATM   13  C   UNL     1     -11.220  15.083  67.041  1.00  0.00    -0.328 A  
HETATM   14  C   UNL     1     -11.453  13.753  67.426  1.00  0.00    -0.372 A  
BRANCH  12  15
HETATM   15  N   UNL     1     -10.430  16.637  65.292  1.00  0.00    -0.652 NA 
HETATM   16  H   UNL     1     -10.589  16.807  64.299  1.00  0.00     0.000 HD 
BRANCH  15  17
HETATM   17  C   UNL     1      -9.830  17.709  65.964  1.00  0.00    -0.170 A  
HETATM   18  C   UNL     1     -10.594  18.846  66.251  1.00  0.00    -0.463 A  
HETATM   19  C   UNL     1     -10.062  19.898  66.998  1.00  0.00    -0.578 A  
HETATM   20  C   UNL     1      -8.755  19.820  67.469  1.00  0.00    -0.388 A  
HETATM   21  C   UNL     1      -7.972  18.707  67.166  1.00  0.00    -0.249 A  
HETATM   22  C   UNL     1      -8.502  17.664  66.401  1.00  0.00    -0.279 A  
ENDBRANCH  15  17
ENDBRANCH  12  15
ENDBRANCH   7   9
ENDBRANCH   4   7
TORSDOF 4
ENDMDL
MODEL       44
REMARK 921   NORMALIZED FREE ENERGY PREDICTED BY IDOCK:   -5.42 KCAL/MOL
REMARK 922        TOTAL FREE ENERGY PREDICTED BY IDOCK:   -7.36 KCAL/MOL
REMARK 923 INTER-LIGAND FREE ENERGY PREDICTED BY IDOCK:   -6.58 KCAL/MOL
REMARK 924 INTRA-LIGAND FREE ENERGY PREDICTED BY IDOCK:   -0.78 KCAL/MOL
REMARK 927      BINDING AFFINITY PREDICTED BY RF-SCORE:    0.00 PKD
ROOT
HETATM    1  C   UNL     1     -10.575   5.658  73.857  1.00  0.00    -0.285 C  
HETATM    2  C   UNL     1      -9.573   6.728  74.281  1.00  0.00    -0.305 C  
HETATM    3  C   UNL     1      -8.659   7.141  73.131  1.00  0.00    -0.147 C  
HETATM    4  C   UNL     1      -9.430   7.547  71.867  1.00  0.00    -0.144 C  
HETATM    5  C   UNL     1     -10.405   6.435  71.455  1.00  0.00    -0.239 C  
HETATM    6  C   UNL     1     -11.344   6.044  72.598  1.00  0.00    -0.320 C  
ENDROOT
BRANCH   4   7
HETATM    7  N   UNL     1     -10.181   8.787  72.089  1.00  0.00    -0.326 NA 
HETATM    8  H   UNL     1     -10.370   9.086  73.046  1.00  0.00     0.000 HD 
BRANCH   7   9
HETATM    9  C   UNL     1     -10.643   9.569  71.032  1.00  0.00    -0.322 A  
HETATM   10  C   UNL     1     -11.860  10.247  71.045  1.00  0.00    -0.472 A  
HETATM   11  C   UNL     1     -12.316  10.930  69.919  1.00  0.00    -0.354 A  
HETATM   12  C   UNL     1     -11.537  11.018  68.765  1.00  0.00    -0.318 A  
HETATM   13  C   UNL     1     -10.253  10.476  68.790  1.00  0.00    -0.205 A  
HETATM   14  C   UNL     1      -9.820   9.746  69.909  1.00  0.00    -0.279 A  
BRANCH  12  15
HETATM   15  N   UNL     1     -12.121  11.604  67.635  1.00  0.00    -0.573 NA 
HETATM   16  H   UNL     1     -12.934  11.101  67.280  1.00  0.00     0.000 HD 
BRANCH  15  17
HETATM   17  C   UNL     1     -11.798  12.753  66.901  1.00  0.00    -0.371 A  
HETATM   18  C   UNL     1     -12.154  12.819  65.548  1.00  0.00    -0.517 A  
HETATM   19  C   UNL     1     -11.933  13.979  64.804  1.00  0.00    -0.432 A  
HETATM   20  C   UNL     1     -11.354  15.089  65.410  1.00  0.00    -0.328 A  
HETATM   21  C   UNL     1     -10.967  15.027  66.748  1.00  0.00    -0.323 A  
HETATM   22  C   UNL     1     -11.172  13.858  67.485  1.00  0.00    -0.323 A  
ENDBRANCH  15  17
ENDBRANCH  12  15
ENDBRANCH   7   9
ENDBRANCH   4   7
TORSDOF 4
ENDMDL
MODEL       45
REMARK 921   NORMALIZED FREE ENERGY PREDICTED BY IDOCK:   -5.41 KCAL/MOL
REMARK 922        TOTAL FREE ENERGY PREDICTED BY IDOCK:   -7.34 KCAL/MOL
REMARK 923 INTER-LIGAND FREE ENERGY PREDICTED BY IDOCK:   -6.78 KCAL/MOL
REMARK 924 INTRA-LIGAND FREE ENERGY PREDICTED BY IDOCK:   -0.56 KCAL/MOL
REMARK 927      BINDING AFFINITY PREDICTED BY RF-SCORE:    0.00 PKD
ROOT
HETATM    1  C   UNL     1     -10.454   5.141  71.451  1.00  0.00    -0.249 C  
HETATM    2  C   UNL     1     -10.952   5.910  70.231  1.00  0.00    -0.390 C  
HETATM    3  C   UNL     1     -12.024   6.931  70.598  1.00  0.00    -0.400 C  
HETATM    4  C   UNL     1     -11.595   7.872  71.733  1.00  0.00    -0.278 C  
HETATM    5  C   UNL     1     -11.130   7.063  72.951  1.00  0.00    -0.314 C  
HETATM    6  C   UNL     1     -10.030   6.063  72.590  1.00  0.00    -0.192 C  
ENDROOT
BRANCH   4   7
HETATM    7  N   UNL     1     -10.506   8.752  71.296  1.00  0.00    -0.233 NA 
HETATM    8  H   UNL     1      -9.552   8.543  71.590  1.00  0.00     0.000 HD 
BRANCH   7   9
HETATM    9  C   UNL     1     -10.737   9.866  70.490  1.00  0.00    -0.317 A  
HETATM   10  C   UNL     1     -11.870  10.672  70.590  1.00  0.00    -0.463 A  
HETATM   11  C   UNL     1     -12.095  11.712  69.690  1.00  0.00    -0.345 A  
HETATM   12  C   UNL     1     -11.161  12.025  68.702  1.00  0.00    -0.258 A  
HETATM   13  C   UNL     1      -9.955  11.327  68.686  1.00  0.00    -0.210 A  
HETATM   14  C   UNL     1      -9.756  10.249  69.563  1.00  0.00    -0.235 A  
BRANCH  12  15
HETATM   15  N   UNL     1     -11.523  12.992  67.755  1.00  0.00    -0.295 NA 
HETATM   16  H   UNL     1     -11.790  13.889  68.160  1.00  0.00     0.000 HD 
BRANCH  15  17
HETATM   17  C   UNL     1     -11.588  12.957  66.356  1.00  0.00    -0.371 A  
HETATM   18  C   UNL     1     -11.150  11.810  65.683  1.00  0.00    -0.340 A  
HETATM   19  C   UNL     1     -11.281  11.697  64.298  1.00  0.00    -0.392 A  
HETATM   20  C   UNL     1     -11.857  12.734  63.571  1.00  0.00    -0.618 A  
HETATM   21  C   UNL     1     -12.271  13.895  64.225  1.00  0.00    -0.447 A  
HETATM   22  C   UNL     1     -12.120  14.012  65.609  1.00  0.00    -0.432 A  
ENDBRANCH  15  17
ENDBRANCH  12  15
ENDBRANCH   7   9
ENDBRANCH   4   7
TORSDOF 4
ENDMDL
MODEL       46
REMARK 921   NORMALIZED FREE ENERGY PREDICTED BY IDOCK:   -5.37 KCAL/MOL
REMARK 922        TOTAL FREE ENERGY PREDICTED BY IDOCK:   -7.30 KCAL/MOL
REMARK 923 INTER-LIGAND FREE ENERGY PREDICTED BY IDOCK:   -6.57 KCAL/MOL
REMARK 924 INTRA-LIGAND FREE ENERGY PREDICTED BY IDOCK:   -0.73 KCAL/MOL
REMARK 927      BINDING AFFINITY PREDICTED BY RF-SCORE:    0.00 PKD
ROOT
HETATM    1  C   UNL     1     -10.568  16.367  68.412  1.00  0.00    -0.311 C  
HETATM    2  C   UNL     1     -10.904  16.202  69.891  1.00  0.00    -0.355 C  
HETATM    3  C   UNL     1     -12.221  15.462  70.098  1.00  0.00    -0.407 C  
HETATM    4  C   UNL     1     -12.284  14.125  69.344  1.00  0.00    -0.287 C  
HETATM    5  C   UNL     1     -11.970  14.335  67.857  1.00  0.00    -0.364 C  
HETATM    6  C   UNL     1     -10.633  15.048  67.648  1.00  0.00    -0.267 C  
ENDROOT
BRANCH   4   7
HETATM    7  N   UNL     1     -11.329  13.165  69.907  1.00  0.00    -0.506 NA 
HETATM    8  H   UNL     1     -10.355  13.444  70.021  1.00  0.00     0.000 HD 
BRANCH   7   9
HETATM    9  C   UNL     1     -11.715  11.881  70.290  1.00  0.00    -0.205 A  
HETATM   10  C   UNL     1     -12.756  11.618  71.177  1.00  0.00    -0.426 A  
HETATM   11  C   UNL     1     -13.030  10.319  71.602  1.00  0.00    -0.570 A  
HETATM   12  C   UNL     1     -12.317   9.231  71.099  1.00  0.00    -0.293 A  
HETATM   13  C   UNL     1     -11.376   9.462  70.097  1.00  0.00    -0.220 A  
HETATM   14  C   UNL     1     -11.071  10.777  69.710  1.00  0.00    -0.346 A  
BRANCH  12  15
HETATM   15  N   UNL     1     -12.560   7.978  71.676  1.00  0.00    -0.315 NA 
HETATM   16  H   UNL     1     -13.491   7.609  71.488  1.00  0.00     0.000 HD 
BRANCH  15  17
HETATM   17  C   UNL     1     -11.762   7.136  72.462  1.00  0.00    -0.180 A  
HETATM   18  C   UNL     1     -11.978   5.754  72.414  1.00  0.00    -0.164 A  
HETATM   19  C   UNL     1     -11.148   4.874  73.111  1.00  0.00    -0.396 A  
HETATM   20  C   UNL     1     -10.089   5.371  73.863  1.00  0.00    -0.232 A  
HETATM   21  C   UNL     1      -9.880   6.747  73.944  1.00  0.00    -0.318 A  
HETATM   22  C   UNL     1     -10.725   7.627  73.260  1.00  0.00    -0.409 A  
ENDBRANCH  15  17
ENDBRANCH  12  15
ENDBRANCH   7   9
ENDBRANCH   4   7
TORSDOF 4
ENDMDL
MODEL       47
REMARK 921   NORMALIZED FREE ENERGY PREDICTED BY IDOCK:   -5.36 KCAL/MOL
REMARK 922        TOTAL FREE ENERGY PREDICTED BY IDOCK:   -7.28 KCAL/MOL
REMARK 923 INTER-LIGAND FREE ENERGY PREDICTED BY IDOCK:   -6.59 KCAL/MOL
REMARK 924 INTRA-LIGAND FREE ENERGY PREDICTED BY IDOCK:   -0.70 KCAL/MOL
REMARK 927      BINDING AFFINITY PREDICTED BY RF-SCORE:    0.00 PKD
ROOT
HETATM    1  C   UNL     1     -12.602  16.085  73.028  1.00  0.00    -0.605 C  
HETATM    2  C   UNL     1     -12.969  14.624  73.270  1.00  0.00    -0.569 C  
HETATM    3  C   UNL     1     -13.732  14.024  72.094  1.00  0.00    -0.603 C  
HETATM    4  C   UNL     1     -13.015  14.219  70.750  1.00  0.00    -0.304 C  
HETATM    5  C   UNL     1     -12.689  15.702  70.528  1.00  0.00    -0.391 C  
HETATM    6  C   UNL     1     -11.894  16.295  71.693  1.00  0.00    -0.482 C  
ENDROOT
BRANCH   4   7
HETATM    7  N   UNL     1     -11.772  13.441  70.706  1.00  0.00    -0.452 NA 
HETATM    8  H   UNL     1     -10.995  13.716  71.307  1.00  0.00     0.000 HD 
BRANCH   7   9
HETATM    9  C   UNL     1     -11.623  12.338  69.866  1.00  0.00    -0.203 A  
HETATM   10  C   UNL     1     -11.902  11.029  70.252  1.00  0.00    -0.456 A  
HETATM   11  C   UNL     1     -11.637   9.956  69.403  1.00  0.00    -0.004 A  
HETATM   12  C   UNL     1     -11.149  10.162  68.113  1.00  0.00    -0.230 A  
HETATM   13  C   UNL     1     -11.010  11.472  67.659  1.00  0.00    -0.296 A  
HETATM   14  C   UNL     1     -11.231  12.546  68.535  1.00  0.00    -0.322 A  
BRANCH  12  15
HETATM   15  N   UNL     1     -10.781   9.030  67.374  1.00  0.00    -0.411 NA 
HETATM   16  H   UNL     1     -10.953   9.115  66.372  1.00  0.00     0.000 HD 
BRANCH  15  17
HETATM   17  C   UNL     1     -10.222   7.803  67.753  1.00  0.00    -0.212 A  
HETATM   18  C   UNL     1     -10.889   6.618  67.418  1.00  0.00    -0.434 A  
HETATM   19  C   UNL     1     -10.323   5.373  67.696  1.00  0.00    -0.235 A  
HETATM   20  C   UNL     1      -9.077   5.302  68.311  1.00  0.00    -0.122 A  
HETATM   21  C   UNL     1      -8.415   6.473  68.677  1.00  0.00    -0.121 A  
HETATM   22  C   UNL     1      -8.993   7.718  68.414  1.00  0.00    -0.132 A  
ENDBRANCH  15  17
ENDBRANCH  12  15
ENDBRANCH   7   9
ENDBRANCH   4   7
TORSDOF 4
ENDMDL
MODEL       48
REMARK 921   NORMALIZED FREE ENERGY PREDICTED BY IDOCK:   -5.36 KCAL/MOL
REMARK 922        TOTAL FREE ENERGY PREDICTED BY IDOCK:   -7.28 KCAL/MOL
REMARK 923 INTER-LIGAND FREE ENERGY PREDICTED BY IDOCK:   -6.93 KCAL/MOL
REMARK 924 INTRA-LIGAND FREE ENERGY PREDICTED BY IDOCK:   -0.35 KCAL/MOL
REMARK 927      BINDING AFFINITY PREDICTED BY RF-SCORE:    0.00 PKD
ROOT
HETATM    1  C   UNL     1     -10.691  11.600  63.218  1.00  0.00    -0.404 C  
HETATM    2  C   UNL     1     -10.138  10.954  64.485  1.00  0.00    -0.404 C  
HETATM    3  C   UNL     1      -9.699  11.995  65.511  1.00  0.00    -0.221 C  
HETATM    4  C   UNL     1     -10.791  13.028  65.824  1.00  0.00    -0.272 C  
HETATM    5  C   UNL     1     -11.300  13.676  64.529  1.00  0.00    -0.393 C  
HETATM    6  C   UNL     1     -11.773  12.635  63.514  1.00  0.00    -0.604 C  
ENDROOT
BRANCH   4   7
HETATM    7  N   UNL     1     -11.917  12.401  66.524  1.00  0.00    -0.605 NA 
HETATM    8  H   UNL     1     -12.842  12.428  66.096  1.00  0.00     0.000 HD 
BRANCH   7   9
HETATM    9  C   UNL     1     -11.759  11.768  67.756  1.00  0.00    -0.267 A  
HETATM   10  C   UNL     1     -11.279  10.468  67.902  1.00  0.00    -0.358 A  
HETATM   11  C   UNL     1     -11.239   9.852  69.151  1.00  0.00    -0.151 A  
HETATM   12  C   UNL     1     -11.610  10.540  70.306  1.00  0.00    -0.332 A  
HETATM   13  C   UNL     1     -11.944  11.888  70.195  1.00  0.00    -0.413 A  
HETATM   14  C   UNL     1     -12.031  12.488  68.928  1.00  0.00    -0.282 A  
BRANCH  12  15
HETATM   15  N   UNL     1     -11.670   9.810  71.501  1.00  0.00    -0.389 NA 
HETATM   16  H   UNL     1     -12.435  10.085  72.116  1.00  0.00     0.000 HD 
BRANCH  15  17
HETATM   17  C   UNL     1     -10.876   8.774  72.009  1.00  0.00    -0.358 A  
HETATM   18  C   UNL     1      -9.503   8.771  71.732  1.00  0.00    -0.363 A  
HETATM   19  C   UNL     1      -8.661   7.809  72.293  1.00  0.00    -0.173 A  
HETATM   20  C   UNL     1      -9.186   6.840  73.141  1.00  0.00    -0.147 A  
HETATM   21  C   UNL     1     -10.556   6.813  73.401  1.00  0.00    -0.351 A  
HETATM   22  C   UNL     1     -11.399   7.766  72.823  1.00  0.00    -0.446 A  
ENDBRANCH  15  17
ENDBRANCH  12  15
ENDBRANCH   7   9
ENDBRANCH   4   7
TORSDOF 4
ENDMDL
MODEL       49
REMARK 921   NORMALIZED FREE ENERGY PREDICTED BY IDOCK:   -5.35 KCAL/MOL
REMARK 922        TOTAL FREE ENERGY PREDICTED BY IDOCK:   -7.27 KCAL/MOL
REMARK 923 INTER-LIGAND FREE ENERGY PREDICTED BY IDOCK:   -6.40 KCAL/MOL
REMARK 924 INTRA-LIGAND FREE ENERGY PREDICTED BY IDOCK:   -0.87 KCAL/MOL
REMARK 927      BINDING AFFINITY PREDICTED BY RF-SCORE:    0.00 PKD
ROOT
HETATM    1  C   UNL     1      -9.803  11.293  66.562  1.00  0.00    -0.239 C  
HETATM    2  C   UNL     1     -11.308  11.483  66.719  1.00  0.00    -0.309 C  
HETATM    3  C   UNL     1     -11.662  12.186  68.026  1.00  0.00    -0.409 C  
HETATM    4  C   UNL     1     -10.894  13.500  68.229  1.00  0.00    -0.259 C  
HETATM    5  C   UNL     1      -9.383  13.263  68.093  1.00  0.00    -0.220 C  
HETATM    6  C   UNL     1      -9.026  12.590  66.767  1.00  0.00    -0.198 C  
ENDROOT
BRANCH   4   7
HETATM    7  N   UNL     1     -11.313  14.505  67.247  1.00  0.00    -0.336 NA 
HETATM    8  H   UNL     1     -11.970  14.237  66.514  1.00  0.00     0.000 HD 
BRANCH   7   9
HETATM    9  C   UNL     1     -10.841  15.816  67.286  1.00  0.00    -0.298 A  
HETATM   10  C   UNL     1     -10.242  16.456  66.203  1.00  0.00    -0.363 A  
HETATM   11  C   UNL     1      -9.697  17.732  66.333  1.00  0.00    -0.315 A  
HETATM   12  C   UNL     1      -9.797  18.440  67.530  1.00  0.00    -0.314 A  
HETATM   13  C   UNL     1     -10.527  17.876  68.574  1.00  0.00    -0.312 A  
HETATM   14  C   UNL     1     -11.030  16.570  68.454  1.00  0.00    -0.348 A  
BRANCH  12  15
HETATM   15  N   UNL     1      -9.108  19.657  67.620  1.00  0.00    -0.320 NA 
HETATM   16  H   UNL     1      -9.680  20.474  67.409  1.00  0.00     0.000 HD 
BRANCH  15  17
HETATM   17  C   UNL     1      -7.780  19.961  67.945  1.00  0.00    -0.294 A  
HETATM   18  C   UNL     1      -7.083  20.889  67.162  1.00  0.00    -0.413 A  
HETATM   19  C   UNL     1      -5.789  21.289  67.504  1.00  0.00    -0.427 A  
HETATM   20  C   UNL     1      -5.181  20.763  68.639  1.00  0.00    -0.332 A  
HETATM   21  C   UNL     1      -5.852  19.816  69.412  1.00  0.00    -0.298 A  
HETATM   22  C   UNL     1      -7.139  19.404  69.056  1.00  0.00    -0.397 A  
ENDBRANCH  15  17
ENDBRANCH  12  15
ENDBRANCH   7   9
ENDBRANCH   4   7
TORSDOF 4
ENDMDL
MODEL       50
REMARK 921   NORMALIZED FREE ENERGY PREDICTED BY IDOCK:   -5.34 KCAL/MOL
REMARK 922        TOTAL FREE ENERGY PREDICTED BY IDOCK:   -7.26 KCAL/MOL
REMARK 923 INTER-LIGAND FREE ENERGY PREDICTED BY IDOCK:   -6.42 KCAL/MOL
REMARK 924 INTRA-LIGAND FREE ENERGY PREDICTED BY IDOCK:   -0.83 KCAL/MOL
REMARK 927      BINDING AFFINITY PREDICTED BY RF-SCORE:    0.00 PKD
ROOT
HETATM    1  C   UNL     1     -11.128  10.523  67.517  1.00  0.00    -0.358 C  
HETATM    2  C   UNL     1     -10.927  11.779  66.673  1.00  0.00    -0.342 C  
HETATM    3  C   UNL     1     -11.800  12.935  67.153  1.00  0.00    -0.424 C  
HETATM    4  C   UNL     1     -11.644  13.221  68.654  1.00  0.00    -0.327 C  
HETATM    5  C   UNL     1     -11.882  11.944  69.470  1.00  0.00    -0.395 C  
HETATM    6  C   UNL     1     -10.983  10.795  69.011  1.00  0.00    -0.289 C  
ENDROOT
BRANCH   4   7
HETATM    7  N   UNL     1     -10.304  13.738  68.949  1.00  0.00    -0.384 NA 
HETATM    8  H   UNL     1      -9.713  13.234  69.611  1.00  0.00     0.000 HD 
BRANCH   7   9
HETATM    9  C   UNL     1      -9.813  14.899  68.351  1.00  0.00    -0.216 A  
HETATM   10  C   UNL     1     -10.413  16.149  68.482  1.00  0.00    -0.269 A  
HETATM   11  C   UNL     1      -9.935  17.254  67.779  1.00  0.00    -0.301 A  
HETATM   12  C   UNL     1      -8.799  17.160  66.976  1.00  0.00    -0.229 A  
HETATM   13  C   UNL     1      -8.099  15.955  66.956  1.00  0.00    -0.265 A  
HETATM   14  C   UNL     1      -8.613  14.833  67.627  1.00  0.00    -0.180 A  
BRANCH  12  15
HETATM   15  N   UNL     1      -8.464  18.276  66.198  1.00  0.00    -0.488 NA 
HETATM   16  H   UNL     1      -8.942  18.313  65.298  1.00  0.00     0.000 HD 
BRANCH  15  17
HETATM   17  C   UNL     1      -7.595  19.351  66.426  1.00  0.00    -0.271 A  
HETATM   18  C   UNL     1      -7.358  19.769  67.741  1.00  0.00    -0.314 A  
HETATM   19  C   UNL     1      -6.431  20.775  68.018  1.00  0.00    -0.362 A  
HETATM   20  C   UNL     1      -5.727  21.373  66.978  1.00  0.00    -0.395 A  
HETATM   21  C   UNL     1      -5.975  20.988  65.661  1.00  0.00    -0.281 A  
HETATM   22  C   UNL     1      -6.917  19.994  65.385  1.00  0.00    -0.332 A  
ENDBRANCH  15  17
ENDBRANCH  12  15
ENDBRANCH   7   9
ENDBRANCH   4   7
TORSDOF 4
ENDMDL
MODEL       51
REMARK 921   NORMALIZED FREE ENERGY PREDICTED BY IDOCK:   -5.31 KCAL/MOL
REMARK 922        TOTAL FREE ENERGY PREDICTED BY IDOCK:   -7.22 KCAL/MOL
REMARK 923 INTER-LIGAND FREE ENERGY PREDICTED BY IDOCK:   -6.75 KCAL/MOL
REMARK 924 INTRA-LIGAND FREE ENERGY PREDICTED BY IDOCK:   -0.47 KCAL/MOL
REMARK 927      BINDING AFFINITY PREDICTED BY RF-SCORE:    0.00 PKD
ROOT
HETATM    1  C   UNL     1      -8.904   4.679  67.169  1.00  0.00    -0.109 C  
HETATM    2  C   UNL     1      -9.645   5.843  66.517  1.00  0.00    -0.180 C  
HETATM    3  C   UNL     1     -10.987   6.113  67.189  1.00  0.00    -0.420 C  
HETATM    4  C   UNL     1     -10.873   6.286  68.711  1.00  0.00    -0.333 C  
HETATM    5  C   UNL     1     -10.150   5.084  69.333  1.00  0.00    -0.288 C  
HETATM    6  C   UNL     1      -8.789   4.834  68.682  1.00  0.00    -0.121 C  
ENDROOT
BRANCH   4   7
HETATM    7  N   UNL     1     -10.141   7.513  69.042  1.00  0.00    -0.187 NA 
HETATM    8  H   UNL     1      -9.150   7.576  68.808  1.00  0.00     0.000 HD 
BRANCH   7   9
HETATM    9  C   UNL     1     -10.760   8.595  69.667  1.00  0.00    -0.200 A  
HETATM   10  C   UNL     1     -11.037   8.645  71.031  1.00  0.00    -0.316 A  
HETATM   11  C   UNL     1     -11.749   9.709  71.582  1.00  0.00    -0.439 A  
HETATM   12  C   UNL     1     -12.146  10.792  70.799  1.00  0.00    -0.372 A  
HETATM   13  C   UNL     1     -11.743  10.829  69.466  1.00  0.00    -0.384 A  
HETATM   14  C   UNL     1     -11.070   9.731  68.905  1.00  0.00    -0.139 A  
BRANCH  12  15
HETATM   15  N   UNL     1     -12.973  11.753  71.397  1.00  0.00    -0.375 NA 
HETATM   16  H   UNL     1     -13.804  11.365  71.843  1.00  0.00     0.000 HD 
BRANCH  15  17
HETATM   17  C   UNL     1     -12.871  13.146  71.499  1.00  0.00    -0.307 A  
HETATM   18  C   UNL     1     -13.518  13.801  72.553  1.00  0.00    -0.682 A  
HETATM   19  C   UNL     1     -13.368  15.176  72.744  1.00  0.00    -0.596 A  
HETATM   20  C   UNL     1     -12.563  15.910  71.878  1.00  0.00    -0.502 A  
HETATM   21  C   UNL     1     -11.937  15.276  70.806  1.00  0.00    -0.384 A  
HETATM   22  C   UNL     1     -12.105  13.903  70.607  1.00  0.00    -0.417 A  
ENDBRANCH  15  17
ENDBRANCH  12  15
ENDBRANCH   7   9
ENDBRANCH   4   7
TORSDOF 4
ENDMDL
MODEL       52
REMARK 921   NORMALIZED FREE ENERGY PREDICTED BY IDOCK:   -5.30 KCAL/MOL
REMARK 922        TOTAL FREE ENERGY PREDICTED BY IDOCK:   -7.21 KCAL/MOL
REMARK 923 INTER-LIGAND FREE ENERGY PREDICTED BY IDOCK:   -6.39 KCAL/MOL
REMARK 924 INTRA-LIGAND FREE ENERGY PREDICTED BY IDOCK:   -0.83 KCAL/MOL
REMARK 927      BINDING AFFINITY PREDICTED BY RF-SCORE:    0.00 PKD
ROOT
HETATM    1  C   UNL     1      -7.090  18.486  68.757  1.00  0.00    -0.310 C  
HETATM    2  C   UNL     1      -8.199  19.524  68.607  1.00  0.00    -0.369 C  
HETATM    3  C   UNL     1      -8.593  19.731  67.147  1.00  0.00    -0.376 C  
HETATM    4  C   UNL     1      -8.933  18.419  66.425  1.00  0.00    -0.249 C  
HETATM    5  C   UNL     1      -7.784  17.413  66.574  1.00  0.00    -0.319 C  
HETATM    6  C   UNL     1      -7.412  17.179  68.039  1.00  0.00    -0.197 C  
ENDROOT
BRANCH   4   7
HETATM    7  N   UNL     1     -10.162  17.830  66.967  1.00  0.00    -0.333 NA 
HETATM    8  H   UNL     1     -10.704  18.358  67.650  1.00  0.00     0.000 HD 
BRANCH   7   9
HETATM    9  C   UNL     1     -10.610  16.569  66.576  1.00  0.00    -0.217 A  
HETATM   10  C   UNL     1     -10.860  15.526  67.465  1.00  0.00    -0.306 A  
HETATM   11  C   UNL     1     -11.208  14.256  67.007  1.00  0.00    -0.332 A  
HETATM   12  C   UNL     1     -11.387  14.006  65.646  1.00  0.00    -0.313 A  
HETATM   13  C   UNL     1     -11.291  15.075  64.758  1.00  0.00    -0.409 A  
HETATM   14  C   UNL     1     -10.891  16.339  65.221  1.00  0.00    -0.310 A  
BRANCH  12  15
HETATM   15  N   UNL     1     -11.603  12.677  65.258  1.00  0.00    -0.335 NA 
HETATM   16  H   UNL     1     -12.564  12.361  65.379  1.00  0.00     0.000 HD 
BRANCH  15  17
HETATM   17  C   UNL     1     -10.744  11.702  64.734  1.00  0.00    -0.309 A  
HETATM   18  C   UNL     1     -10.468  11.704  63.361  1.00  0.00    -0.482 A  
HETATM   19  C   UNL     1      -9.549  10.808  62.813  1.00  0.00    -0.337 A  
HETATM   20  C   UNL     1      -8.892   9.900  63.637  1.00  0.00    -0.256 A  
HETATM   21  C   UNL     1      -9.180   9.867  65.001  1.00  0.00    -0.295 A  
HETATM   22  C   UNL     1     -10.115  10.752  65.544  1.00  0.00    -0.335 A  
ENDBRANCH  15  17
ENDBRANCH  12  15
ENDBRANCH   7   9
ENDBRANCH   4   7
TORSDOF 4
ENDMDL
MODEL       53
REMARK 921   NORMALIZED FREE ENERGY PREDICTED BY IDOCK:   -5.30 KCAL/MOL
REMARK 922        TOTAL FREE ENERGY PREDICTED BY IDOCK:   -7.21 KCAL/MOL
REMARK 923 INTER-LIGAND FREE ENERGY PREDICTED BY IDOCK:   -6.34 KCAL/MOL
REMARK 924 INTRA-LIGAND FREE ENERGY PREDICTED BY IDOCK:   -0.86 KCAL/MOL
REMARK 927      BINDING AFFINITY PREDICTED BY RF-SCORE:    0.00 PKD
ROOT
HETATM    1  C   UNL     1      -9.213   4.552  72.001  1.00  0.00    -0.170 C  
HETATM    2  C   UNL     1      -9.999   5.389  70.996  1.00  0.00    -0.261 C  
HETATM    3  C   UNL     1     -11.301   5.918  71.589  1.00  0.00    -0.272 C  
HETATM    4  C   UNL     1     -11.098   6.660  72.918  1.00  0.00    -0.229 C  
HETATM    5  C   UNL     1     -10.331   5.777  73.912  1.00  0.00    -0.286 C  
HETATM    6  C   UNL     1      -9.010   5.274  73.330  1.00  0.00    -0.120 C  
ENDROOT
BRANCH   4   7
HETATM    7  N   UNL     1     -10.355   7.908  72.710  1.00  0.00    -0.307 NA 
HETATM    8  H   UNL     1      -9.486   8.057  73.222  1.00  0.00     0.000 HD 
BRANCH   7   9
HETATM    9  C   UNL     1     -10.803   8.895  71.833  1.00  0.00    -0.363 A  
HETATM   10  C   UNL     1     -12.039   9.528  71.948  1.00  0.00    -0.409 A  
HETATM   11  C   UNL     1     -12.475  10.434  70.982  1.00  0.00    -0.488 A  
HETATM   12  C   UNL     1     -11.660  10.791  69.908  1.00  0.00    -0.331 A  
HETATM   13  C   UNL     1     -10.363  10.283  69.864  1.00  0.00    -0.281 A  
HETATM   14  C   UNL     1      -9.948   9.333  70.811  1.00  0.00    -0.357 A  
BRANCH  12  15
HETATM   15  N   UNL     1     -12.222  11.601  68.913  1.00  0.00    -0.377 NA 
HETATM   16  H   UNL     1     -13.009  11.173  68.426  1.00  0.00     0.000 HD 
BRANCH  15  17
HETATM   17  C   UNL     1     -11.905  12.888  68.461  1.00  0.00    -0.313 A  
HETATM   18  C   UNL     1     -11.722  13.913  69.398  1.00  0.00    -0.367 A  
HETATM   19  C   UNL     1     -11.317  15.187  68.997  1.00  0.00    -0.307 A  
HETATM   20  C   UNL     1     -11.086  15.448  67.650  1.00  0.00    -0.316 A  
HETATM   21  C   UNL     1     -11.292  14.445  66.703  1.00  0.00    -0.359 A  
HETATM   22  C   UNL     1     -11.717  13.176  67.106  1.00  0.00    -0.430 A  
ENDBRANCH  15  17
ENDBRANCH  12  15
ENDBRANCH   7   9
ENDBRANCH   4   7
TORSDOF 4
ENDMDL
MODEL       54
REMARK 921   NORMALIZED FREE ENERGY PREDICTED BY IDOCK:   -5.29 KCAL/MOL
REMARK 922        TOTAL FREE ENERGY PREDICTED BY IDOCK:   -7.20 KCAL/MOL
REMARK 923 INTER-LIGAND FREE ENERGY PREDICTED BY IDOCK:   -6.42 KCAL/MOL
REMARK 924 INTRA-LIGAND FREE ENERGY PREDICTED BY IDOCK:   -0.78 KCAL/MOL
REMARK 927      BINDING AFFINITY PREDICTED BY RF-SCORE:    0.00 PKD
ROOT
HETATM    1  C   UNL     1      -9.888  10.506  64.476  1.00  0.00    -0.401 C  
HETATM    2  C   UNL     1     -10.381  11.865  64.965  1.00  0.00    -0.330 C  
HETATM    3  C   UNL     1     -11.438  11.729  66.057  1.00  0.00    -0.281 C  
HETATM    4  C   UNL     1     -10.989  10.829  67.218  1.00  0.00    -0.297 C  
HETATM    5  C   UNL     1     -10.529   9.464  66.690  1.00  0.00    -0.238 C  
HETATM    6  C   UNL     1      -9.446   9.599  65.619  1.00  0.00    -0.318 C  
ENDROOT
BRANCH   4   7
HETATM    7  N   UNL     1      -9.891  11.451  67.965  1.00  0.00    -0.179 NA 
HETATM    8  H   UNL     1      -9.076  10.887  68.209  1.00  0.00     0.000 HD 
BRANCH   7   9
HETATM    9  C   UNL     1      -9.927  12.791  68.350  1.00  0.00    -0.210 A  
HETATM   10  C   UNL     1     -11.002  13.374  69.018  1.00  0.00    -0.265 A  
HETATM   11  C   UNL     1     -11.024  14.742  69.287  1.00  0.00    -0.275 A  
HETATM   12  C   UNL     1      -9.942  15.559  68.961  1.00  0.00    -0.233 A  
HETATM   13  C   UNL     1      -8.798  14.963  68.432  1.00  0.00    -0.178 A  
HETATM   14  C   UNL     1      -8.801  13.594  68.118  1.00  0.00    -0.189 A  
BRANCH  12  15
HETATM   15  N   UNL     1     -10.098  16.939  69.140  1.00  0.00    -0.282 NA 
HETATM   16  H   UNL     1     -10.333  17.210  70.095  1.00  0.00     0.000 HD 
BRANCH  15  17
HETATM   17  C   UNL     1      -9.992  18.019  68.253  1.00  0.00    -0.371 A  
HETATM   18  C   UNL     1     -10.532  17.898  66.967  1.00  0.00    -0.345 A  
HETATM   19  C   UNL     1     -10.529  18.979  66.084  1.00  0.00    -0.541 A  
HETATM   20  C   UNL     1      -9.986  20.196  66.482  1.00  0.00    -0.586 A  
HETATM   21  C   UNL     1      -9.418  20.322  67.749  1.00  0.00    -0.453 A  
HETATM   22  C   UNL     1      -9.405  19.232  68.625  1.00  0.00    -0.446 A  
ENDBRANCH  15  17
ENDBRANCH  12  15
ENDBRANCH   7   9
ENDBRANCH   4   7
TORSDOF 4
ENDMDL
MODEL       55
REMARK 921   NORMALIZED FREE ENERGY PREDICTED BY IDOCK:   -5.25 KCAL/MOL
REMARK 922        TOTAL FREE ENERGY PREDICTED BY IDOCK:   -7.15 KCAL/MOL
REMARK 923 INTER-LIGAND FREE ENERGY PREDICTED BY IDOCK:   -6.66 KCAL/MOL
REMARK 924 INTRA-LIGAND FREE ENERGY PREDICTED BY IDOCK:   -0.49 KCAL/MOL
REMARK 927      BINDING AFFINITY PREDICTED BY RF-SCORE:    0.00 PKD
ROOT
HETATM    1  C   UNL     1     -10.212  19.843  66.448  1.00  0.00    -0.617 C  
HETATM    2  C   UNL     1     -10.453  18.390  66.050  1.00  0.00    -0.400 C  
HETATM    3  C   UNL     1      -9.433  17.448  66.683  1.00  0.00    -0.285 C  
HETATM    4  C   UNL     1      -9.325  17.616  68.206  1.00  0.00    -0.290 C  
HETATM    5  C   UNL     1      -9.054  19.083  68.564  1.00  0.00    -0.401 C  
HETATM    6  C   UNL     1     -10.096  20.024  67.958  1.00  0.00    -0.557 C  
ENDROOT
BRANCH   4   7
HETATM    7  N   UNL     1     -10.560  17.179  68.867  1.00  0.00    -0.336 NA 
HETATM    8  H   UNL     1     -11.221  17.883  69.195  1.00  0.00     0.000 HD 
BRANCH   7   9
HETATM    9  C   UNL     1     -10.856  15.830  69.058  1.00  0.00    -0.248 A  
HETATM   10  C   UNL     1     -10.036  14.789  68.628  1.00  0.00    -0.238 A  
HETATM   11  C   UNL     1     -10.433  13.460  68.757  1.00  0.00    -0.203 A  
HETATM   12  C   UNL     1     -11.632  13.124  69.386  1.00  0.00    -0.300 A  
HETATM   13  C   UNL     1     -12.389  14.145  69.958  1.00  0.00    -0.403 A  
HETATM   14  C   UNL     1     -12.008  15.485  69.780  1.00  0.00    -0.384 A  
BRANCH  12  15
HETATM   15  N   UNL     1     -12.022  11.778  69.355  1.00  0.00    -0.310 NA 
HETATM   16  H   UNL     1     -12.994  11.622  69.622  1.00  0.00     0.000 HD 
BRANCH  15  17
HETATM   17  C   UNL     1     -11.328  10.608  69.025  1.00  0.00    -0.277 A  
HETATM   18  C   UNL     1     -10.902   9.757  70.052  1.00  0.00    -0.319 A  
HETATM   19  C   UNL     1     -10.287   8.537  69.764  1.00  0.00    -0.212 A  
HETATM   20  C   UNL     1     -10.096   8.154  68.440  1.00  0.00    -0.226 A  
HETATM   21  C   UNL     1     -10.489   9.005  67.408  1.00  0.00    -0.338 A  
HETATM   22  C   UNL     1     -11.086  10.235  67.699  1.00  0.00    -0.319 A  
ENDBRANCH  15  17
ENDBRANCH  12  15
ENDBRANCH   7   9
ENDBRANCH   4   7
TORSDOF 4
ENDMDL
MODEL       56
REMARK 921   NORMALIZED FREE ENERGY PREDICTED BY IDOCK:   -5.24 KCAL/MOL
REMARK 922        TOTAL FREE ENERGY PREDICTED BY IDOCK:   -7.14 KCAL/MOL
REMARK 923 INTER-LIGAND FREE ENERGY PREDICTED BY IDOCK:   -6.45 KCAL/MOL
REMARK 924 INTRA-LIGAND FREE ENERGY PREDICTED BY IDOCK:   -0.68 KCAL/MOL
REMARK 927      BINDING AFFINITY PREDICTED BY RF-SCORE:    0.00 PKD
ROOT
HETATM    1  C   UNL     1     -10.538   5.674  73.817  1.00  0.00    -0.303 C  
HETATM    2  C   UNL     1      -9.688   6.914  74.078  1.00  0.00    -0.326 C  
HETATM    3  C   UNL     1      -9.024   7.429  72.805  1.00  0.00    -0.179 C  
HETATM    4  C   UNL     1     -10.018   7.648  71.656  1.00  0.00    -0.176 C  
HETATM    5  C   UNL     1     -10.832   6.372  71.403  1.00  0.00    -0.301 C  
HETATM    6  C   UNL     1     -11.526   5.874  72.672  1.00  0.00    -0.319 C  
ENDROOT
BRANCH   4   7
HETATM    7  N   UNL     1     -10.934   8.751  71.962  1.00  0.00    -0.362 NA 
HETATM    8  H   UNL     1     -11.423   8.754  72.857  1.00  0.00     0.000 HD 
BRANCH   7   9
HETATM    9  C   UNL     1     -11.156   9.796  71.066  1.00  0.00    -0.361 A  
HETATM   10  C   UNL     1     -10.321  10.079  69.986  1.00  0.00    -0.323 A  
HETATM   11  C   UNL     1     -10.537  11.198  69.184  1.00  0.00    -0.238 A  
HETATM   12  C   UNL     1     -11.635  12.033  69.392  1.00  0.00    -0.330 A  
HETATM   13  C   UNL     1     -12.562  11.677  70.370  1.00  0.00    -0.213 A  
HETATM   14  C   UNL     1     -12.313  10.577  71.206  1.00  0.00    -0.502 A  
BRANCH  12  15
HETATM   15  N   UNL     1     -11.705  13.208  68.632  1.00  0.00    -0.307 NA 
HETATM   16  H   UNL     1     -11.967  14.034  69.170  1.00  0.00     0.000 HD 
BRANCH  15  17
HETATM   17  C   UNL     1     -11.483  13.461  67.272  1.00  0.00    -0.340 A  
HETATM   18  C   UNL     1     -10.658  14.530  66.905  1.00  0.00    -0.279 A  
HETATM   19  C   UNL     1     -10.337  14.762  65.566  1.00  0.00    -0.387 A  
HETATM   20  C   UNL     1     -10.840  13.920  64.579  1.00  0.00    -0.381 A  
HETATM   21  C   UNL     1     -11.688  12.869  64.928  1.00  0.00    -0.388 A  
HETATM   22  C   UNL     1     -12.022  12.652  66.268  1.00  0.00    -0.439 A  
ENDBRANCH  15  17
ENDBRANCH  12  15
ENDBRANCH   7   9
ENDBRANCH   4   7
TORSDOF 4
ENDMDL
MODEL       57
REMARK 921   NORMALIZED FREE ENERGY PREDICTED BY IDOCK:   -5.23 KCAL/MOL
REMARK 922        TOTAL FREE ENERGY PREDICTED BY IDOCK:   -7.12 KCAL/MOL
REMARK 923 INTER-LIGAND FREE ENERGY PREDICTED BY IDOCK:   -6.62 KCAL/MOL
REMARK 924 INTRA-LIGAND FREE ENERGY PREDICTED BY IDOCK:   -0.50 KCAL/MOL
REMARK 927      BINDING AFFINITY PREDICTED BY RF-SCORE:    0.00 PKD
ROOT
HETATM    1  C   UNL     1     -10.325   5.693  71.933  1.00  0.00    -0.266 C  
HETATM    2  C   UNL     1     -10.981   6.664  72.909  1.00  0.00    -0.286 C  
HETATM    3  C   UNL     1     -10.268   8.013  72.938  1.00  0.00    -0.384 C  
HETATM    4  C   UNL     1     -10.096   8.631  71.544  1.00  0.00    -0.274 C  
HETATM    5  C   UNL     1      -9.407   7.637  70.599  1.00  0.00    -0.163 C  
HETATM    6  C   UNL     1     -10.140   6.297  70.544  1.00  0.00    -0.230 C  
ENDROOT
BRANCH   4   7
HETATM    7  N   UNL     1     -11.394   9.011  70.978  1.00  0.00    -0.278 NA 
HETATM    8  H   UNL     1     -12.180   8.367  71.065  1.00  0.00     0.000 HD 
BRANCH   7   9
HETATM    9  C   UNL     1     -11.587  10.228  70.325  1.00  0.00    -0.316 A  
HETATM   10  C   UNL     1     -11.256  10.450  68.990  1.00  0.00    -0.289 A  
HETATM   11  C   UNL     1     -11.376  11.717  68.420  1.00  0.00    -0.339 A  
HETATM   12  C   UNL     1     -11.898  12.787  69.146  1.00  0.00    -0.301 A  
HETATM   13  C   UNL     1     -12.375  12.545  70.433  1.00  0.00    -0.311 A  
HETATM   14  C   UNL     1     -12.205  11.280  71.018  1.00  0.00    -0.417 A  
BRANCH  12  15
HETATM   15  N   UNL     1     -11.859  14.053  68.547  1.00  0.00    -0.352 NA 
HETATM   16  H   UNL     1     -12.038  14.823  69.192  1.00  0.00     0.000 HD 
BRANCH  15  17
HETATM   17  C   UNL     1     -11.620  14.460  67.228  1.00  0.00    -0.379 A  
HETATM   18  C   UNL     1     -12.394  13.915  66.196  1.00  0.00    -0.504 A  
HETATM   19  C   UNL     1     -12.251  14.359  64.881  1.00  0.00    -0.440 A  
HETATM   20  C   UNL     1     -11.330  15.359  64.585  1.00  0.00    -0.361 A  
HETATM   21  C   UNL     1     -10.531  15.889  65.597  1.00  0.00    -0.411 A  
HETATM   22  C   UNL     1     -10.663  15.429  66.910  1.00  0.00    -0.314 A  
ENDBRANCH  15  17
ENDBRANCH  12  15
ENDBRANCH   7   9
ENDBRANCH   4   7
TORSDOF 4
ENDMDL
MODEL       58
REMARK 921   NORMALIZED FREE ENERGY PREDICTED BY IDOCK:   -5.22 KCAL/MOL
REMARK 922        TOTAL FREE ENERGY PREDICTED BY IDOCK:   -7.11 KCAL/MOL
REMARK 923 INTER-LIGAND FREE ENERGY PREDICTED BY IDOCK:   -6.29 KCAL/MOL
REMARK 924 INTRA-LIGAND FREE ENERGY PREDICTED BY IDOCK:   -0.82 KCAL/MOL
REMARK 927      BINDING AFFINITY PREDICTED BY RF-SCORE:    0.00 PKD
ROOT
HETATM    1  C   UNL     1     -13.711   8.245  71.748  1.00  0.00    -0.420 C  
HETATM    2  C   UNL     1     -13.523   9.707  71.352  1.00  0.00    -0.403 C  
HETATM    3  C   UNL     1     -12.064  10.141  71.448  1.00  0.00    -0.475 C  
HETATM    4  C   UNL     1     -11.109   9.213  70.683  1.00  0.00    -0.265 C  
HETATM    5  C   UNL     1     -11.307   7.757  71.129  1.00  0.00    -0.290 C  
HETATM    6  C   UNL     1     -12.764   7.311  71.000  1.00  0.00    -0.284 C  
ENDROOT
BRANCH   4   7
HETATM    7  N   UNL     1     -11.337   9.309  69.237  1.00  0.00    -0.431 NA 
HETATM    8  H   UNL     1     -11.811   8.543  68.759  1.00  0.00     0.000 HD 
BRANCH   7   9
HETATM    9  C   UNL     1     -10.925  10.417  68.498  1.00  0.00    -0.254 A  
HETATM   10  C   UNL     1      -9.589  10.759  68.298  1.00  0.00    -0.170 A  
HETATM   11  C   UNL     1      -9.239  11.935  67.636  1.00  0.00    -0.183 A  
HETATM   12  C   UNL     1     -10.213  12.771  67.090  1.00  0.00    -0.233 A  
HETATM   13  C   UNL     1     -11.544  12.364  67.148  1.00  0.00    -0.435 A  
HETATM   14  C   UNL     1     -11.894  11.205  67.859  1.00  0.00    -0.162 A  
BRANCH  12  15
HETATM   15  N   UNL     1      -9.788  13.998  66.562  1.00  0.00    -0.281 NA 
HETATM   16  H   UNL     1      -9.096  13.911  65.818  1.00  0.00     0.000 HD 
BRANCH  15  17
HETATM   17  C   UNL     1     -10.136  15.320  66.864  1.00  0.00    -0.256 A  
HETATM   18  C   UNL     1     -10.447  15.657  68.187  1.00  0.00    -0.259 A  
HETATM   19  C   UNL     1     -10.710  16.980  68.548  1.00  0.00    -0.352 A  
HETATM   20  C   UNL     1     -10.660  17.982  67.584  1.00  0.00    -0.413 A  
HETATM   21  C   UNL     1     -10.381  17.657  66.257  1.00  0.00    -0.342 A  
HETATM   22  C   UNL     1     -10.138  16.329  65.896  1.00  0.00    -0.381 A  
ENDBRANCH  15  17
ENDBRANCH  12  15
ENDBRANCH   7   9
ENDBRANCH   4   7
TORSDOF 4
ENDMDL
MODEL       59
REMARK 921   NORMALIZED FREE ENERGY PREDICTED BY IDOCK:   -5.20 KCAL/MOL
REMARK 922        TOTAL FREE ENERGY PREDICTED BY IDOCK:   -7.09 KCAL/MOL
REMARK 923 INTER-LIGAND FREE ENERGY PREDICTED BY IDOCK:   -6.39 KCAL/MOL
REMARK 924 INTRA-LIGAND FREE ENERGY PREDICTED BY IDOCK:   -0.70 KCAL/MOL
REMARK 927      BINDING AFFINITY PREDICTED BY RF-SCORE:    0.00 PKD
ROOT
HETATM    1  C   UNL     1     -11.030   6.073  68.996  1.00  0.00    -0.409 C  
HETATM    2  C   UNL     1     -10.988   7.238  69.981  1.00  0.00    -0.273 C  
HETATM    3  C   UNL     1      -9.922   8.263  69.607  1.00  0.00    -0.193 C  
HETATM    4  C   UNL     1     -10.036   8.745  68.153  1.00  0.00    -0.173 C  
HETATM    5  C   UNL     1     -10.045   7.548  67.192  1.00  0.00    -0.317 C  
HETATM    6  C   UNL     1     -11.136   6.537  67.547  1.00  0.00    -0.396 C  
ENDROOT
BRANCH   4   7
HETATM    7  N   UNL     1     -11.260   9.528  67.958  1.00  0.00    -0.509 NA 
HETATM    8  H   UNL     1     -12.150   9.039  67.859  1.00  0.00     0.000 HD 
BRANCH   7   9
HETATM    9  C   UNL     1     -11.244  10.921  67.906  1.00  0.00    -0.321 A  
HETATM   10  C   UNL     1     -11.314  11.738  69.033  1.00  0.00    -0.338 A  
HETATM   11  C   UNL     1     -11.396  13.125  68.912  1.00  0.00    -0.335 A  
HETATM   12  C   UNL     1     -11.339  13.744  67.664  1.00  0.00    -0.304 A  
HETATM   13  C   UNL     1     -11.114  12.950  66.540  1.00  0.00    -0.318 A  
HETATM   14  C   UNL     1     -11.083  11.552  66.663  1.00  0.00    -0.355 A  
BRANCH  12  15
HETATM   15  N   UNL     1     -11.564  15.126  67.618  1.00  0.00    -0.318 NA 
HETATM   16  H   UNL     1     -12.550  15.385  67.606  1.00  0.00     0.000 HD 
BRANCH  15  17
HETATM   17  C   UNL     1     -10.688  16.218  67.586  1.00  0.00    -0.311 A  
HETATM   18  C   UNL     1     -10.763  17.181  68.600  1.00  0.00    -0.306 A  
HETATM   19  C   UNL     1      -9.850  18.236  68.657  1.00  0.00    -0.400 A  
HETATM   20  C   UNL     1      -8.848  18.335  67.697  1.00  0.00    -0.261 A  
HETATM   21  C   UNL     1      -8.780  17.401  66.664  1.00  0.00    -0.286 A  
HETATM   22  C   UNL     1      -9.707  16.357  66.599  1.00  0.00    -0.272 A  
ENDBRANCH  15  17
ENDBRANCH  12  15
ENDBRANCH   7   9
ENDBRANCH   4   7
TORSDOF 4
ENDMDL
MODEL       60
REMARK 921   NORMALIZED FREE ENERGY PREDICTED BY IDOCK:   -5.20 KCAL/MOL
REMARK 922        TOTAL FREE ENERGY PREDICTED BY IDOCK:   -7.09 KCAL/MOL
REMARK 923 INTER-LIGAND FREE ENERGY PREDICTED BY IDOCK:   -6.30 KCAL/MOL
REMARK 924 INTRA-LIGAND FREE ENERGY PREDICTED BY IDOCK:   -0.79 KCAL/MOL
REMARK 927      BINDING AFFINITY PREDICTED BY RF-SCORE:    0.00 PKD
ROOT
HETATM    1  C   UNL     1     -11.838   6.421  72.275  1.00  0.00    -0.315 C  
HETATM    2  C   UNL     1     -13.074   7.094  71.686  1.00  0.00    -0.410 C  
HETATM    3  C   UNL     1     -13.031   8.610  71.848  1.00  0.00    -0.409 C  
HETATM    4  C   UNL     1     -11.731   9.234  71.319  1.00  0.00    -0.346 C  
HETATM    5  C   UNL     1     -10.512   8.552  71.956  1.00  0.00    -0.407 C  
HETATM    6  C   UNL     1     -10.539   7.035  71.764  1.00  0.00    -0.234 C  
ENDROOT
BRANCH   4   7
HETATM    7  N   UNL     1     -11.647   9.104  69.861  1.00  0.00    -0.447 NA 
HETATM    8  H   UNL     1     -12.099   8.310  69.407  1.00  0.00     0.000 HD 
BRANCH   7   9
HETATM    9  C   UNL     1     -10.967  10.035  69.076  1.00  0.00    -0.212 A  
HETATM   10  C   UNL     1     -11.051  11.413  69.263  1.00  0.00    -0.313 A  
HETATM   11  C   UNL     1     -10.430  12.298  68.384  1.00  0.00    -0.244 A  
HETATM   12  C   UNL     1      -9.645  11.834  67.329  1.00  0.00    -0.176 A  
HETATM   13  C   UNL     1      -9.426  10.462  67.220  1.00  0.00    -0.176 A  
HETATM   14  C   UNL     1     -10.095   9.574  68.078  1.00  0.00    -0.226 A  
BRANCH  12  15
HETATM   15  N   UNL     1      -9.168  12.781  66.413  1.00  0.00    -0.384 NA 
HETATM   16  H   UNL     1      -8.285  12.524  65.972  1.00  0.00     0.000 HD 
BRANCH  15  17
HETATM   17  C   UNL     1      -9.677  14.015  65.989  1.00  0.00    -0.258 A  
HETATM   18  C   UNL     1     -10.802  14.037  65.155  1.00  0.00    -0.376 A  
HETATM   19  C   UNL     1     -11.395  15.245  64.784  1.00  0.00    -0.396 A  
HETATM   20  C   UNL     1     -10.869  16.446  65.249  1.00  0.00    -0.271 A  
HETATM   21  C   UNL     1      -9.732  16.440  66.056  1.00  0.00    -0.356 A  
HETATM   22  C   UNL     1      -9.129  15.230  66.410  1.00  0.00    -0.347 A  
ENDBRANCH  15  17
ENDBRANCH  12  15
ENDBRANCH   7   9
ENDBRANCH   4   7
TORSDOF 4
ENDMDL
MODEL       61
REMARK 921   NORMALIZED FREE ENERGY PREDICTED BY IDOCK:   -5.20 KCAL/MOL
REMARK 922        TOTAL FREE ENERGY PREDICTED BY IDOCK:   -7.09 KCAL/MOL
REMARK 923 INTER-LIGAND FREE ENERGY PREDICTED BY IDOCK:   -6.57 KCAL/MOL
REMARK 924 INTRA-LIGAND FREE ENERGY PREDICTED BY IDOCK:   -0.52 KCAL/MOL
REMARK 927      BINDING AFFINITY PREDICTED BY RF-SCORE:    0.00 PKD
ROOT
HETATM    1  C   UNL     1     -13.887  15.322  72.678  1.00  0.00    -0.585 C  
HETATM    2  C   UNL     1     -12.733  16.089  72.040  1.00  0.00    -0.417 C  
HETATM    3  C   UNL     1     -11.554  15.178  71.712  1.00  0.00    -0.478 C  
HETATM    4  C   UNL     1     -11.956  13.951  70.881  1.00  0.00    -0.231 C  
HETATM    5  C   UNL     1     -13.097  13.190  71.569  1.00  0.00    -0.404 C  
HETATM    6  C   UNL     1     -14.293  14.096  71.866  1.00  0.00    -0.541 C  
ENDROOT
BRANCH   4   7
HETATM    7  N   UNL     1     -12.385  14.351  69.536  1.00  0.00    -0.509 NA 
HETATM    8  H   UNL     1     -13.076  15.094  69.438  1.00  0.00     0.000 HD 
BRANCH   7   9
HETATM    9  C   UNL     1     -11.875  13.744  68.389  1.00  0.00    -0.376 A  
HETATM   10  C   UNL     1     -12.488  13.815  67.140  1.00  0.00    -0.086 A  
HETATM   11  C   UNL     1     -11.986  13.103  66.051  1.00  0.00    -0.488 A  
HETATM   12  C   UNL     1     -10.814  12.354  66.158  1.00  0.00    -0.273 A  
HETATM   13  C   UNL     1     -10.107  12.398  67.358  1.00  0.00    -0.205 A  
HETATM   14  C   UNL     1     -10.644  13.075  68.465  1.00  0.00    -0.274 A  
BRANCH  12  15
HETATM   15  N   UNL     1     -10.452  11.562  65.061  1.00  0.00    -0.277 NA 
HETATM   16  H   UNL     1     -10.745  11.942  64.161  1.00  0.00     0.000 HD 
BRANCH  15  17
HETATM   17  C   UNL     1      -9.762  10.346  64.968  1.00  0.00    -0.300 A  
HETATM   18  C   UNL     1      -8.998  10.083  63.825  1.00  0.00    -0.274 A  
HETATM   19  C   UNL     1      -8.223   8.925  63.731  1.00  0.00    -0.172 A  
HETATM   20  C   UNL     1      -8.204   8.019  64.786  1.00  0.00    -0.124 A  
HETATM   21  C   UNL     1      -8.983   8.254  65.918  1.00  0.00    -0.208 A  
HETATM   22  C   UNL     1      -9.773   9.404  66.001  1.00  0.00    -0.345 A  
ENDBRANCH  15  17
ENDBRANCH  12  15
ENDBRANCH   7   9
ENDBRANCH   4   7
TORSDOF 4
ENDMDL
MODEL       62
REMARK 921   NORMALIZED FREE ENERGY PREDICTED BY IDOCK:   -5.13 KCAL/MOL
REMARK 922        TOTAL FREE ENERGY PREDICTED BY IDOCK:   -7.00 KCAL/MOL
REMARK 923 INTER-LIGAND FREE ENERGY PREDICTED BY IDOCK:   -6.17 KCAL/MOL
REMARK 924 INTRA-LIGAND FREE ENERGY PREDICTED BY IDOCK:   -0.83 KCAL/MOL
REMARK 927      BINDING AFFINITY PREDICTED BY RF-SCORE:    0.00 PKD
ROOT
HETATM    1  C   UNL     1     -11.178   4.757  73.443  1.00  0.00    -0.425 C  
HETATM    2  C   UNL     1     -10.092   5.515  74.199  1.00  0.00    -0.255 C  
HETATM    3  C   UNL     1      -9.002   6.034  73.266  1.00  0.00    -0.130 C  
HETATM    4  C   UNL     1      -9.557   6.850  72.089  1.00  0.00    -0.144 C  
HETATM    5  C   UNL     1     -10.624   6.043  71.336  1.00  0.00    -0.300 C  
HETATM    6  C   UNL     1     -11.734   5.552  72.266  1.00  0.00    -0.127 C  
ENDROOT
BRANCH   4   7
HETATM    7  N   UNL     1     -10.147   8.107  72.560  1.00  0.00    -0.276 NA 
HETATM    8  H   UNL     1     -10.182   8.293  73.562  1.00  0.00     0.000 HD 
BRANCH   7   9
HETATM    9  C   UNL     1     -10.661   9.056  71.677  1.00  0.00    -0.371 A  
HETATM   10  C   UNL     1      -9.981   9.512  70.549  1.00  0.00    -0.335 A  
HETATM   11  C   UNL     1     -10.502  10.536  69.760  1.00  0.00    -0.245 A  
HETATM   12  C   UNL     1     -11.754  11.089  70.031  1.00  0.00    -0.355 A  
HETATM   13  C   UNL     1     -12.512  10.538  71.062  1.00  0.00    -0.501 A  
HETATM   14  C   UNL     1     -11.961   9.541  71.884  1.00  0.00    -0.381 A  
BRANCH  12  15
HETATM   15  N   UNL     1     -12.145  12.202  69.275  1.00  0.00    -0.230 NA 
HETATM   16  H   UNL     1     -12.727  11.972  68.470  1.00  0.00     0.000 HD 
BRANCH  15  17
HETATM   17  C   UNL     1     -11.885  13.571  69.418  1.00  0.00    -0.335 A  
HETATM   18  C   UNL     1     -11.999  14.156  70.685  1.00  0.00    -0.385 A  
HETATM   19  C   UNL     1     -11.662  15.495  70.889  1.00  0.00    -0.413 A  
HETATM   20  C   UNL     1     -11.204  16.263  69.823  1.00  0.00    -0.314 A  
HETATM   21  C   UNL     1     -11.114  15.701  68.550  1.00  0.00    -0.322 A  
HETATM   22  C   UNL     1     -11.470  14.366  68.346  1.00  0.00    -0.329 A  
ENDBRANCH  15  17
ENDBRANCH  12  15
ENDBRANCH   7   9
ENDBRANCH   4   7
TORSDOF 4
ENDMDL
MODEL       63
REMARK 921   NORMALIZED FREE ENERGY PREDICTED BY IDOCK:   -5.10 KCAL/MOL
REMARK 922        TOTAL FREE ENERGY PREDICTED BY IDOCK:   -6.97 KCAL/MOL
REMARK 923 INTER-LIGAND FREE ENERGY PREDICTED BY IDOCK:   -6.32 KCAL/MOL
REMARK 924 INTRA-LIGAND FREE ENERGY PREDICTED BY IDOCK:   -0.64 KCAL/MOL
REMARK 927      BINDING AFFINITY PREDICTED BY RF-SCORE:    0.00 PKD
ROOT
HETATM    1  C   UNL     1     -13.401  16.043  73.304  1.00  0.00    -0.625 C  
HETATM    2  C   UNL     1     -14.373  15.597  72.216  1.00  0.00    -0.480 C  
HETATM    3  C   UNL     1     -13.650  15.203  70.931  1.00  0.00    -0.397 C  
HETATM    4  C   UNL     1     -12.535  14.173  71.161  1.00  0.00    -0.371 C  
HETATM    5  C   UNL     1     -11.562  14.669  72.240  1.00  0.00     0.077 C  
HETATM    6  C   UNL     1     -12.283  15.032  73.539  1.00  0.00    -0.554 C  
ENDROOT
BRANCH   4   7
HETATM    7  N   UNL     1     -13.095  12.883  71.576  1.00  0.00    -0.351 NA 
HETATM    8  H   UNL     1     -13.932  12.871  72.159  1.00  0.00     0.000 HD 
BRANCH   7   9
HETATM    9  C   UNL     1     -12.518  11.672  71.196  1.00  0.00    -0.307 A  
HETATM   10  C   UNL     1     -11.617  11.542  70.140  1.00  0.00    -0.336 A  
HETATM   11  C   UNL     1     -11.151  10.290  69.742  1.00  0.00    -0.340 A  
HETATM   12  C   UNL     1     -11.515   9.133  70.430  1.00  0.00    -0.194 A  
HETATM   13  C   UNL     1     -12.291   9.264  71.581  1.00  0.00    -0.450 A  
HETATM   14  C   UNL     1     -12.798  10.521  71.947  1.00  0.00    -0.509 A  
BRANCH  12  15
HETATM   15  N   UNL     1     -11.115   7.906  69.887  1.00  0.00    -0.413 NA 
HETATM   16  H   UNL     1     -11.648   7.107  70.229  1.00  0.00     0.000 HD 
BRANCH  15  17
HETATM   17  C   UNL     1     -10.118   7.570  68.961  1.00  0.00    -0.192 A  
HETATM   18  C   UNL     1      -8.915   7.024  69.424  1.00  0.00    -0.139 A  
HETATM   19  C   UNL     1      -7.933   6.592  68.531  1.00  0.00    -0.110 A  
HETATM   20  C   UNL     1      -8.148   6.699  67.161  1.00  0.00    -0.113 A  
HETATM   21  C   UNL     1      -9.329   7.268  66.686  1.00  0.00    -0.215 A  
HETATM   22  C   UNL     1     -10.303   7.718  67.583  1.00  0.00    -0.305 A  
ENDBRANCH  15  17
ENDBRANCH  12  15
ENDBRANCH   7   9
ENDBRANCH   4   7
TORSDOF 4
ENDMDL
MODEL       64
REMARK 921   NORMALIZED FREE ENERGY PREDICTED BY IDOCK:   -5.05 KCAL/MOL
REMARK 922        TOTAL FREE ENERGY PREDICTED BY IDOCK:   -6.91 KCAL/MOL
REMARK 923 INTER-LIGAND FREE ENERGY PREDICTED BY IDOCK:   -6.62 KCAL/MOL
REMARK 924 INTRA-LIGAND FREE ENERGY PREDICTED BY IDOCK:   -0.28 KCAL/MOL
REMARK 927      BINDING AFFINITY PREDICTED BY RF-SCORE:    0.00 PKD
ROOT
HETATM    1  C   UNL     1     -13.963   8.387  72.024  1.00  0.00    -0.468 C  
HETATM    2  C   UNL     1     -13.370   9.650  71.407  1.00  0.00    -0.444 C  
HETATM    3  C   UNL     1     -11.850   9.688  71.534  1.00  0.00    -0.483 C  
HETATM    4  C   UNL     1     -11.171   8.417  71.002  1.00  0.00    -0.266 C  
HETATM    5  C   UNL     1     -11.773   7.171  71.666  1.00  0.00    -0.324 C  
HETATM    6  C   UNL     1     -13.294   7.116  71.509  1.00  0.00    -0.413 C  
ENDROOT
BRANCH   4   7
HETATM    7  N   UNL     1     -11.330   8.312  69.548  1.00  0.00    -0.413 NA 
HETATM    8  H   UNL     1     -11.855   7.527  69.163  1.00  0.00     0.000 HD 
BRANCH   7   9
HETATM    9  C   UNL     1     -10.785   9.254  68.676  1.00  0.00    -0.143 A  
HETATM   10  C   UNL     1     -10.346  10.514  69.076  1.00  0.00    -0.232 A  
HETATM   11  C   UNL     1      -9.904  11.452  68.144  1.00  0.00    -0.195 A  
HETATM   12  C   UNL     1      -9.820  11.135  66.788  1.00  0.00    -0.200 A  
HETATM   13  C   UNL     1     -10.109   9.830  66.394  1.00  0.00    -0.313 A  
HETATM   14  C   UNL     1     -10.601   8.906  67.330  1.00  0.00    -0.304 A  
BRANCH  12  15
HETATM   15  N   UNL     1      -9.497  12.171  65.902  1.00  0.00    -0.349 NA 
HETATM   16  H   UNL     1      -8.500  12.247  65.699  1.00  0.00     0.000 HD 
BRANCH  15  17
HETATM   17  C   UNL     1     -10.286  13.122  65.243  1.00  0.00    -0.305 A  
HETATM   18  C   UNL     1     -11.259  12.688  64.335  1.00  0.00    -0.391 A  
HETATM   19  C   UNL     1     -12.127  13.595  63.725  1.00  0.00    -0.435 A  
HETATM   20  C   UNL     1     -12.032  14.950  64.023  1.00  0.00    -0.115 A  
HETATM   21  C   UNL     1     -11.048  15.401  64.903  1.00  0.00    -0.435 A  
HETATM   22  C   UNL     1     -10.168  14.492  65.497  1.00  0.00    -0.394 A  
ENDBRANCH  15  17
ENDBRANCH  12  15
ENDBRANCH   7   9
ENDBRANCH   4   7
TORSDOF 4
ENDMDL
MODEL       65
REMARK 921   NORMALIZED FREE ENERGY PREDICTED BY IDOCK:   -5.03 KCAL/MOL
REMARK 922        TOTAL FREE ENERGY PREDICTED BY IDOCK:   -6.88 KCAL/MOL
REMARK 923 INTER-LIGAND FREE ENERGY PREDICTED BY IDOCK:   -6.14 KCAL/MOL
REMARK 924 INTRA-LIGAND FREE ENERGY PREDICTED BY IDOCK:   -0.74 KCAL/MOL
REMARK 927      BINDING AFFINITY PREDICTED BY RF-SCORE:    0.00 PKD
ROOT
HETATM    1  C   UNL     1      -5.726  19.949  65.576  1.00  0.00    -0.199 C  
HETATM    2  C   UNL     1      -5.254  18.600  66.111  1.00  0.00    -0.174 C  
HETATM    3  C   UNL     1      -5.864  18.280  67.472  1.00  0.00    -0.158 C  
HETATM    4  C   UNL     1      -7.395  18.398  67.486  1.00  0.00    -0.218 C  
HETATM    5  C   UNL     1      -7.830  19.776  66.971  1.00  0.00    -0.316 C  
HETATM    6  C   UNL     1      -7.246  20.083  65.591  1.00  0.00    -0.330 C  
ENDROOT
BRANCH   4   7
HETATM    7  N   UNL     1      -8.005  17.357  66.652  1.00  0.00    -0.236 NA 
HETATM    8  H   UNL     1      -7.818  17.353  65.650  1.00  0.00     0.000 HD 
BRANCH   7   9
HETATM    9  C   UNL     1      -8.833  16.373  67.190  1.00  0.00    -0.195 A  
HETATM   10  C   UNL     1     -10.039  15.977  66.614  1.00  0.00    -0.287 A  
HETATM   11  C   UNL     1     -10.874  15.060  67.251  1.00  0.00    -0.310 A  
HETATM   12  C   UNL     1     -10.498  14.456  68.451  1.00  0.00    -0.246 A  
HETATM   13  C   UNL     1      -9.229  14.726  68.960  1.00  0.00    -0.145 A  
HETATM   14  C   UNL     1      -8.414  15.687  68.340  1.00  0.00    -0.164 A  
BRANCH  12  15
HETATM   15  N   UNL     1     -11.448  13.652  69.094  1.00  0.00    -0.278 NA 
HETATM   16  H   UNL     1     -11.537  12.717  68.697  1.00  0.00     0.000 HD 
BRANCH  15  17
HETATM   17  C   UNL     1     -12.299  13.892  70.181  1.00  0.00    -0.334 A  
HETATM   18  C   UNL     1     -12.705  12.815  70.978  1.00  0.00    -0.331 A  
HETATM   19  C   UNL     1     -13.478  13.021  72.122  1.00  0.00    -0.638 A  
HETATM   20  C   UNL     1     -13.850  14.312  72.482  1.00  0.00    -0.575 A  
HETATM   21  C   UNL     1     -13.478  15.391  71.680  1.00  0.00    -0.593 A  
HETATM   22  C   UNL     1     -12.721  15.179  70.525  1.00  0.00    -0.416 A  
ENDBRANCH  15  17
ENDBRANCH  12  15
ENDBRANCH   7   9
ENDBRANCH   4   7
TORSDOF 4
ENDMDL
MODEL       66
REMARK 921   NORMALIZED FREE ENERGY PREDICTED BY IDOCK:   -5.00 KCAL/MOL
REMARK 922        TOTAL FREE ENERGY PREDICTED BY IDOCK:   -6.84 KCAL/MOL
REMARK 923 INTER-LIGAND FREE ENERGY PREDICTED BY IDOCK:   -6.03 KCAL/MOL
REMARK 924 INTRA-LIGAND FREE ENERGY PREDICTED BY IDOCK:   -0.81 KCAL/MOL
REMARK 927      BINDING AFFINITY PREDICTED BY RF-SCORE:    0.00 PKD
ROOT
HETATM    1  C   UNL     1     -10.371   8.400  69.326  1.00  0.00    -0.220 C  
HETATM    2  C   UNL     1     -10.152   9.807  69.876  1.00  0.00    -0.288 C  
HETATM    3  C   UNL     1      -9.076  10.561  69.100  1.00  0.00    -0.177 C  
HETATM    4  C   UNL     1      -9.323  10.570  67.584  1.00  0.00    -0.149 C  
HETATM    5  C   UNL     1      -9.509   9.138  67.065  1.00  0.00    -0.201 C  
HETATM    6  C   UNL     1     -10.610   8.393  67.820  1.00  0.00    -0.238 C  
ENDROOT
BRANCH   4   7
HETATM    7  N   UNL     1     -10.514  11.360  67.255  1.00  0.00    -0.198 NA 
HETATM    8  H   UNL     1     -11.306  10.898  66.808  1.00  0.00     0.000 HD 
BRANCH   7   9
HETATM    9  C   UNL     1     -10.595  12.723  67.536  1.00  0.00    -0.229 A  
HETATM   10  C   UNL     1     -11.445  13.265  68.498  1.00  0.00    -0.347 A  
HETATM   11  C   UNL     1     -11.558  14.645  68.664  1.00  0.00    -0.343 A  
HETATM   12  C   UNL     1     -10.771  15.526  67.923  1.00  0.00    -0.294 A  
HETATM   13  C   UNL     1      -9.807  14.994  67.068  1.00  0.00    -0.241 A  
HETATM   14  C   UNL     1      -9.734  13.606  66.868  1.00  0.00    -0.262 A  
BRANCH  12  15
HETATM   15  N   UNL     1     -11.039  16.895  68.051  1.00  0.00    -0.280 NA 
HETATM   16  H   UNL     1     -11.989  17.104  68.357  1.00  0.00     0.000 HD 
BRANCH  15  17
HETATM   17  C   UNL     1     -10.247  18.030  67.837  1.00  0.00    -0.378 A  
HETATM   18  C   UNL     1     -10.686  19.006  66.934  1.00  0.00    -0.484 A  
HETATM   19  C   UNL     1      -9.973  20.194  66.759  1.00  0.00    -0.604 A  
HETATM   20  C   UNL     1      -8.812  20.418  67.492  1.00  0.00    -0.386 A  
HETATM   21  C   UNL     1      -8.348  19.442  68.373  1.00  0.00    -0.385 A  
HETATM   22  C   UNL     1      -9.053  18.246  68.531  1.00  0.00    -0.328 A  
ENDBRANCH  15  17
ENDBRANCH  12  15
ENDBRANCH   7   9
ENDBRANCH   4   7
TORSDOF 4
ENDMDL
MODEL       67
REMARK 921   NORMALIZED FREE ENERGY PREDICTED BY IDOCK:   -4.98 KCAL/MOL
REMARK 922        TOTAL FREE ENERGY PREDICTED BY IDOCK:   -6.81 KCAL/MOL
REMARK 923 INTER-LIGAND FREE ENERGY PREDICTED BY IDOCK:   -6.17 KCAL/MOL
REMARK 924 INTRA-LIGAND FREE ENERGY PREDICTED BY IDOCK:   -0.64 KCAL/MOL
REMARK 927      BINDING AFFINITY PREDICTED BY RF-SCORE:    0.00 PKD
ROOT
HETATM    1  C   UNL     1     -10.393   9.372  69.698  1.00  0.00    -0.229 C  
HETATM    2  C   UNL     1      -9.779  10.189  68.565  1.00  0.00    -0.161 C  
HETATM    3  C   UNL     1     -10.832  10.985  67.800  1.00  0.00    -0.297 C  
HETATM    4  C   UNL     1     -11.716  11.846  68.714  1.00  0.00    -0.321 C  
HETATM    5  C   UNL     1     -12.338  10.985  69.821  1.00  0.00    -0.331 C  
HETATM    6  C   UNL     1     -11.280  10.214  70.611  1.00  0.00    -0.418 C  
ENDROOT
BRANCH   4   7
HETATM    7  N   UNL     1     -10.935  12.927  69.325  1.00  0.00    -0.436 NA 
HETATM    8  H   UNL     1     -10.404  12.734  70.174  1.00  0.00     0.000 HD 
BRANCH   7   9
HETATM    9  C   UNL     1     -10.897  14.209  68.778  1.00  0.00    -0.258 A  
HETATM   10  C   UNL     1     -11.035  14.474  67.417  1.00  0.00    -0.306 A  
HETATM   11  C   UNL     1     -10.886  15.766  66.917  1.00  0.00    -0.265 A  
HETATM   12  C   UNL     1     -10.665  16.848  67.770  1.00  0.00    -0.315 A  
HETATM   13  C   UNL     1     -10.677  16.621  69.145  1.00  0.00    -0.342 A  
HETATM   14  C   UNL     1     -10.777  15.310  69.639  1.00  0.00    -0.289 A  
BRANCH  12  15
HETATM   15  N   UNL     1     -10.392  18.089  67.180  1.00  0.00    -0.362 NA 
HETATM   16  H   UNL     1     -11.219  18.574  66.834  1.00  0.00     0.000 HD 
BRANCH  15  17
HETATM   17  C   UNL     1      -9.196  18.789  66.978  1.00  0.00    -0.294 A  
HETATM   18  C   UNL     1      -8.156  18.170  66.274  1.00  0.00    -0.254 A  
HETATM   19  C   UNL     1      -6.982  18.863  65.972  1.00  0.00    -0.294 A  
HETATM   20  C   UNL     1      -6.840  20.188  66.370  1.00  0.00    -0.260 A  
HETATM   21  C   UNL     1      -7.855  20.808  67.097  1.00  0.00    -0.288 A  
HETATM   22  C   UNL     1      -9.021  20.105  67.415  1.00  0.00    -0.453 A  
ENDBRANCH  15  17
ENDBRANCH  12  15
ENDBRANCH   7   9
ENDBRANCH   4   7
TORSDOF 4
ENDMDL
MODEL       68
REMARK 921   NORMALIZED FREE ENERGY PREDICTED BY IDOCK:   -4.97 KCAL/MOL
REMARK 922        TOTAL FREE ENERGY PREDICTED BY IDOCK:   -6.81 KCAL/MOL
REMARK 923 INTER-LIGAND FREE ENERGY PREDICTED BY IDOCK:   -6.11 KCAL/MOL
REMARK 924 INTRA-LIGAND FREE ENERGY PREDICTED BY IDOCK:   -0.70 KCAL/MOL
REMARK 927      BINDING AFFINITY PREDICTED BY RF-SCORE:    0.00 PKD
ROOT
HETATM    1  C   UNL     1     -11.954   6.138  72.318  1.00  0.00    -0.285 C  
HETATM    2  C   UNL     1     -12.310   6.985  71.100  1.00  0.00    -0.423 C  
HETATM    3  C   UNL     1     -11.764   8.405  71.212  1.00  0.00    -0.325 C  
HETATM    4  C   UNL     1     -10.260   8.448  71.521  1.00  0.00    -0.228 C  
HETATM    5  C   UNL     1      -9.947   7.611  72.769  1.00  0.00    -0.298 C  
HETATM    6  C   UNL     1     -10.464   6.177  72.642  1.00  0.00    -0.233 C  
ENDROOT
BRANCH   4   7
HETATM    7  N   UNL     1      -9.481   7.936  70.389  1.00  0.00    -0.163 NA 
HETATM    8  H   UNL     1      -8.895   7.113  70.524  1.00  0.00     0.000 HD 
BRANCH   7   9
HETATM    9  C   UNL     1      -9.519   8.542  69.134  1.00  0.00    -0.154 A  
HETATM   10  C   UNL     1      -8.868   9.736  68.832  1.00  0.00    -0.140 A  
HETATM   11  C   UNL     1      -9.026  10.347  67.588  1.00  0.00    -0.139 A  
HETATM   12  C   UNL     1      -9.783   9.747  66.582  1.00  0.00    -0.201 A  
HETATM   13  C   UNL     1     -10.313   8.480  66.818  1.00  0.00    -0.346 A  
HETATM   14  C   UNL     1     -10.192   7.894  68.088  1.00  0.00    -0.248 A  
BRANCH  12  15
HETATM   15  N   UNL     1     -10.003  10.487  65.413  1.00  0.00    -0.270 NA 
HETATM   16  H   UNL     1      -9.421  10.201  64.625  1.00  0.00     0.000 HD 
BRANCH  15  17
HETATM   17  C   UNL     1     -10.872  11.546  65.122  1.00  0.00    -0.265 A  
HETATM   18  C   UNL     1     -11.390  12.310  66.176  1.00  0.00    -0.402 A  
HETATM   19  C   UNL     1     -12.186  13.429  65.926  1.00  0.00    -0.502 A  
HETATM   20  C   UNL     1     -12.470  13.797  64.615  1.00  0.00    -0.356 A  
HETATM   21  C   UNL     1     -11.986  13.029  63.557  1.00  0.00    -0.615 A  
HETATM   22  C   UNL     1     -11.205  11.898  63.811  1.00  0.00    -0.519 A  
ENDBRANCH  15  17
ENDBRANCH  12  15
ENDBRANCH   7   9
ENDBRANCH   4   7
TORSDOF 4
ENDMDL
MODEL       69
REMARK 921   NORMALIZED FREE ENERGY PREDICTED BY IDOCK:   -4.91 KCAL/MOL
REMARK 922        TOTAL FREE ENERGY PREDICTED BY IDOCK:   -6.72 KCAL/MOL
REMARK 923 INTER-LIGAND FREE ENERGY PREDICTED BY IDOCK:   -5.99 KCAL/MOL
REMARK 924 INTRA-LIGAND FREE ENERGY PREDICTED BY IDOCK:   -0.74 KCAL/MOL
REMARK 927      BINDING AFFINITY PREDICTED BY RF-SCORE:    0.00 PKD
ROOT
HETATM    1  C   UNL     1      -6.988   8.316  63.819  1.00  0.00    -0.080 C  
HETATM    2  C   UNL     1      -8.135   8.157  64.812  1.00  0.00    -0.152 C  
HETATM    3  C   UNL     1      -7.843   8.852  66.138  1.00  0.00    -0.102 C  
HETATM    4  C   UNL     1      -7.432  10.322  65.968  1.00  0.00    -0.128 C  
HETATM    5  C   UNL     1      -6.258  10.439  64.986  1.00  0.00    -0.105 C  
HETATM    6  C   UNL     1      -6.564   9.771  63.644  1.00  0.00    -0.119 C  
ENDROOT
BRANCH   4   7
HETATM    7  N   UNL     1      -8.556  11.123  65.472  1.00  0.00    -0.350 NA 
HETATM    8  H   UNL     1      -8.692  11.214  64.465  1.00  0.00     0.000 HD 
BRANCH   7   9
HETATM    9  C   UNL     1      -9.443  11.763  66.336  1.00  0.00    -0.221 A  
HETATM   10  C   UNL     1     -10.783  11.406  66.473  1.00  0.00    -0.325 A  
HETATM   11  C   UNL     1     -11.646  12.147  67.278  1.00  0.00    -0.404 A  
HETATM   12  C   UNL     1     -11.183  13.228  68.027  1.00  0.00    -0.276 A  
HETATM   13  C   UNL     1      -9.817  13.503  68.020  1.00  0.00    -0.238 A  
HETATM   14  C   UNL     1      -8.961  12.784  67.169  1.00  0.00    -0.214 A  
BRANCH  12  15
HETATM   15  N   UNL     1     -12.137  14.002  68.702  1.00  0.00    -0.488 NA 
HETATM   16  H   UNL     1     -12.684  14.610  68.092  1.00  0.00     0.000 HD 
BRANCH  15  17
HETATM   17  C   UNL     1     -12.480  14.097  70.056  1.00  0.00    -0.296 A  
HETATM   18  C   UNL     1     -12.620  15.364  70.636  1.00  0.00    -0.491 A  
HETATM   19  C   UNL     1     -13.048  15.506  71.957  1.00  0.00    -0.535 A  
HETATM   20  C   UNL     1     -13.345  14.376  72.712  1.00  0.00    -0.606 A  
HETATM   21  C   UNL     1     -13.182  13.107  72.157  1.00  0.00    -0.561 A  
HETATM   22  C   UNL     1     -12.734  12.968  70.841  1.00  0.00    -0.299 A  
ENDBRANCH  15  17
ENDBRANCH  12  15
ENDBRANCH   7   9
ENDBRANCH   4   7
TORSDOF 4
ENDMDL
MODEL       70
REMARK 921   NORMALIZED FREE ENERGY PREDICTED BY IDOCK:   -4.89 KCAL/MOL
REMARK 922        TOTAL FREE ENERGY PREDICTED BY IDOCK:   -6.70 KCAL/MOL
REMARK 923 INTER-LIGAND FREE ENERGY PREDICTED BY IDOCK:   -6.04 KCAL/MOL
REMARK 924 INTRA-LIGAND FREE ENERGY PREDICTED BY IDOCK:   -0.66 KCAL/MOL
REMARK 927      BINDING AFFINITY PREDICTED BY RF-SCORE:    0.00 PKD
ROOT
HETATM    1  C   UNL     1     -11.359   6.228  70.451  1.00  0.00    -0.440 C  
HETATM    2  C   UNL     1     -11.619   7.695  70.778  1.00  0.00    -0.284 C  
HETATM    3  C   UNL     1     -10.444   8.585  70.386  1.00  0.00    -0.227 C  
HETATM    4  C   UNL     1     -10.005   8.392  68.927  1.00  0.00    -0.187 C  
HETATM    5  C   UNL     1      -9.724   6.910  68.645  1.00  0.00    -0.136 C  
HETATM    6  C   UNL     1     -10.916   6.022  69.006  1.00  0.00    -0.409 C  
ENDROOT
BRANCH   4   7
HETATM    7  N   UNL     1     -11.040   8.870  68.005  1.00  0.00    -0.468 NA 
HETATM    8  H   UNL     1     -11.908   8.342  67.918  1.00  0.00     0.000 HD 
BRANCH   7   9
HETATM    9  C   UNL     1     -10.873  10.026  67.243  1.00  0.00    -0.217 A  
HETATM   10  C   UNL     1     -10.330  10.036  65.960  1.00  0.00    -0.222 A  
HETATM   11  C   UNL     1     -10.093  11.233  65.288  1.00  0.00    -0.318 A  
HETATM   12  C   UNL     1     -10.455  12.458  65.848  1.00  0.00    -0.256 A  
HETATM   13  C   UNL     1     -11.138  12.455  67.063  1.00  0.00    -0.327 A  
HETATM   14  C   UNL     1     -11.329  11.249  67.757  1.00  0.00    -0.354 A  
BRANCH  12  15
HETATM   15  N   UNL     1     -10.061  13.620  65.170  1.00  0.00    -0.530 NA 
HETATM   16  H   UNL     1      -9.719  13.452  64.224  1.00  0.00     0.000 HD 
BRANCH  15  17
HETATM   17  C   UNL     1     -10.048  14.968  65.550  1.00  0.00    -0.369 A  
HETATM   18  C   UNL     1     -10.862  15.876  64.862  1.00  0.00    -0.420 A  
HETATM   19  C   UNL     1     -10.948  17.210  65.266  1.00  0.00     0.031 A  
HETATM   20  C   UNL     1     -10.220  17.648  66.367  1.00  0.00    -0.364 A  
HETATM   21  C   UNL     1      -9.381  16.761  67.042  1.00  0.00    -0.244 A  
HETATM   22  C   UNL     1      -9.283  15.431  66.624  1.00  0.00    -0.303 A  
ENDBRANCH  15  17
ENDBRANCH  12  15
ENDBRANCH   7   9
ENDBRANCH   4   7
TORSDOF 4
ENDMDL
MODEL       71
REMARK 921   NORMALIZED FREE ENERGY PREDICTED BY IDOCK:   -4.88 KCAL/MOL
REMARK 922        TOTAL FREE ENERGY PREDICTED BY IDOCK:   -6.69 KCAL/MOL
REMARK 923 INTER-LIGAND FREE ENERGY PREDICTED BY IDOCK:   -6.15 KCAL/MOL
REMARK 924 INTRA-LIGAND FREE ENERGY PREDICTED BY IDOCK:   -0.54 KCAL/MOL
REMARK 927      BINDING AFFINITY PREDICTED BY RF-SCORE:    0.00 PKD
ROOT
HETATM    1  C   UNL     1     -12.370  16.235  72.678  1.00  0.00    -0.516 C  
HETATM    2  C   UNL     1     -12.979  14.983  73.301  1.00  0.00    -0.642 C  
HETATM    3  C   UNL     1     -13.887  14.243  72.323  1.00  0.00    -0.622 C  
HETATM    4  C   UNL     1     -13.204  13.942  70.980  1.00  0.00    -0.190 C  
HETATM    5  C   UNL     1     -12.631  15.229  70.372  1.00  0.00    -0.421 C  
HETATM    6  C   UNL     1     -11.694  15.953  71.340  1.00  0.00    -0.530 C  
ENDROOT
BRANCH   4   7
HETATM    7  N   UNL     1     -12.122  12.967  71.153  1.00  0.00    -0.334 NA 
HETATM    8  H   UNL     1     -11.608  12.950  72.033  1.00  0.00     0.000 HD 
BRANCH   7   9
HETATM    9  C   UNL     1     -11.777  12.064  70.149  1.00  0.00    -0.233 A  
HETATM   10  C   UNL     1     -11.759  12.384  68.793  1.00  0.00    -0.379 A  
HETATM   11  C   UNL     1     -11.505  11.412  67.827  1.00  0.00    -0.353 A  
HETATM   12  C   UNL     1     -11.190  10.102  68.188  1.00  0.00    -0.180 A  
HETATM   13  C   UNL     1     -11.053   9.803  69.543  1.00  0.00    -0.226 A  
HETATM   14  C   UNL     1     -11.359  10.774  70.510  1.00  0.00    -0.289 A  
BRANCH  12  15
HETATM   15  N   UNL     1     -11.081   9.157  67.160  1.00  0.00    -0.222 NA 
HETATM   16  H   UNL     1     -11.973   8.754  66.871  1.00  0.00     0.000 HD 
BRANCH  15  17
HETATM   17  C   UNL     1      -9.978   8.661  66.454  1.00  0.00    -0.260 A  
HETATM   18  C   UNL     1      -9.635   9.247  65.229  1.00  0.00    -0.175 A  
HETATM   19  C   UNL     1      -8.491   8.845  64.537  1.00  0.00    -0.178 A  
HETATM   20  C   UNL     1      -7.675   7.852  65.069  1.00  0.00    -0.106 A  
HETATM   21  C   UNL     1      -8.020   7.239  66.273  1.00  0.00    -0.110 A  
HETATM   22  C   UNL     1      -9.176   7.630  66.953  1.00  0.00    -0.179 A  
ENDBRANCH  15  17
ENDBRANCH  12  15
ENDBRANCH   7   9
ENDBRANCH   4   7
TORSDOF 4
ENDMDL
MODEL       72
REMARK 921   NORMALIZED FREE ENERGY PREDICTED BY IDOCK:   -4.84 KCAL/MOL
REMARK 922        TOTAL FREE ENERGY PREDICTED BY IDOCK:   -6.65 KCAL/MOL
REMARK 923 INTER-LIGAND FREE ENERGY PREDICTED BY IDOCK:   -5.85 KCAL/MOL
REMARK 924 INTRA-LIGAND FREE ENERGY PREDICTED BY IDOCK:   -0.80 KCAL/MOL
REMARK 927      BINDING AFFINITY PREDICTED BY RF-SCORE:    0.00 PKD
ROOT
HETATM    1  C   UNL     1     -10.139  20.159  67.774  1.00  0.00    -0.540 C  
HETATM    2  C   UNL     1      -9.635  20.061  66.337  1.00  0.00    -0.536 C  
HETATM    3  C   UNL     1      -8.217  19.502  66.267  1.00  0.00    -0.354 C  
HETATM    4  C   UNL     1      -8.056  18.175  67.023  1.00  0.00    -0.226 C  
HETATM    5  C   UNL     1      -8.546  18.321  68.470  1.00  0.00    -0.323 C  
HETATM    6  C   UNL     1      -9.980  18.849  68.540  1.00  0.00    -0.463 C  
ENDROOT
BRANCH   4   7
HETATM    7  N   UNL     1      -8.814  17.106  66.364  1.00  0.00    -0.305 NA 
HETATM    8  H   UNL     1      -9.323  17.316  65.506  1.00  0.00     0.000 HD 
BRANCH   7   9
HETATM    9  C   UNL     1      -8.858  15.810  66.877  1.00  0.00    -0.245 A  
HETATM   10  C   UNL     1     -10.040  15.113  67.119  1.00  0.00    -0.239 A  
HETATM   11  C   UNL     1     -10.025  13.860  67.729  1.00  0.00    -0.241 A  
HETATM   12  C   UNL     1      -8.823  13.230  68.051  1.00  0.00    -0.190 A  
HETATM   13  C   UNL     1      -7.631  13.846  67.676  1.00  0.00    -0.188 A  
HETATM   14  C   UNL     1      -7.652  15.130  67.108  1.00  0.00    -0.204 A  
BRANCH  12  15
HETATM   15  N   UNL     1      -8.895  12.036  68.782  1.00  0.00    -0.381 NA 
HETATM   16  H   UNL     1      -8.540  12.111  69.734  1.00  0.00     0.000 HD 
BRANCH  15  17
HETATM   17  C   UNL     1      -9.364  10.759  68.448  1.00  0.00    -0.167 A  
HETATM   18  C   UNL     1      -9.842   9.923  69.464  1.00  0.00    -0.241 A  
HETATM   19  C   UNL     1     -10.402   8.679  69.165  1.00  0.00    -0.227 A  
HETATM   20  C   UNL     1     -10.492   8.262  67.841  1.00  0.00    -0.259 A  
HETATM   21  C   UNL     1      -9.993   9.072  66.822  1.00  0.00    -0.332 A  
HETATM   22  C   UNL     1      -9.415  10.308  67.126  1.00  0.00    -0.184 A  
ENDBRANCH  15  17
ENDBRANCH  12  15
ENDBRANCH   7   9
ENDBRANCH   4   7
TORSDOF 4
ENDMDL
MODEL       73
REMARK 921   NORMALIZED FREE ENERGY PREDICTED BY IDOCK:   -4.84 KCAL/MOL
REMARK 922        TOTAL FREE ENERGY PREDICTED BY IDOCK:   -6.64 KCAL/MOL
REMARK 923 INTER-LIGAND FREE ENERGY PREDICTED BY IDOCK:   -6.04 KCAL/MOL
REMARK 924 INTRA-LIGAND FREE ENERGY PREDICTED BY IDOCK:   -0.60 KCAL/MOL
REMARK 927      BINDING AFFINITY PREDICTED BY RF-SCORE:    0.00 PKD
ROOT
HETATM    1  C   UNL     1      -9.285   4.750  67.887  1.00  0.00    -0.146 C  
HETATM    2  C   UNL     1     -10.147   5.849  67.272  1.00  0.00    -0.208 C  
HETATM    3  C   UNL     1     -11.285   6.266  68.198  1.00  0.00    -0.239 C  
HETATM    4  C   UNL     1     -10.807   6.636  69.610  1.00  0.00    -0.286 C  
HETATM    5  C   UNL     1      -9.969   5.496  70.206  1.00  0.00    -0.281 C  
HETATM    6  C   UNL     1      -8.807   5.101  69.293  1.00  0.00    -0.115 C  
ENDROOT
BRANCH   4   7
HETATM    7  N   UNL     1     -10.002   7.862  69.582  1.00  0.00    -0.187 NA 
HETATM    8  H   UNL     1      -9.015   7.811  69.836  1.00  0.00     0.000 HD 
BRANCH   7   9
HETATM    9  C   UNL     1     -10.546   9.093  69.219  1.00  0.00    -0.216 A  
HETATM   10  C   UNL     1     -10.484   9.615  67.929  1.00  0.00    -0.296 A  
HETATM   11  C   UNL     1     -10.956  10.896  67.648  1.00  0.00    -0.350 A  
HETATM   12  C   UNL     1     -11.570  11.670  68.632  1.00  0.00    -0.312 A  
HETATM   13  C   UNL     1     -11.777  11.102  69.888  1.00  0.00    -0.433 A  
HETATM   14  C   UNL     1     -11.255   9.831  70.178  1.00  0.00    -0.324 A  
BRANCH  12  15
HETATM   15  N   UNL     1     -11.893  12.993  68.305  1.00  0.00    -0.349 NA 
HETATM   16  H   UNL     1     -12.409  13.486  69.033  1.00  0.00     0.000 HD 
BRANCH  15  17
HETATM   17  C   UNL     1     -11.641  13.766  67.164  1.00  0.00    -0.364 A  
HETATM   18  C   UNL     1     -12.350  13.495  65.988  1.00  0.00    -0.486 A  
HETATM   19  C   UNL     1     -12.195  14.298  64.856  1.00  0.00    -0.449 A  
HETATM   20  C   UNL     1     -11.328  15.385  64.893  1.00  0.00    -0.367 A  
HETATM   21  C   UNL     1     -10.593  15.649  66.048  1.00  0.00    -0.336 A  
HETATM   22  C   UNL     1     -10.736  14.832  67.173  1.00  0.00    -0.299 A  
ENDBRANCH  15  17
ENDBRANCH  12  15
ENDBRANCH   7   9
ENDBRANCH   4   7
TORSDOF 4
ENDMDL
MODEL       74
REMARK 921   NORMALIZED FREE ENERGY PREDICTED BY IDOCK:   -4.78 KCAL/MOL
REMARK 922        TOTAL FREE ENERGY PREDICTED BY IDOCK:   -6.57 KCAL/MOL
REMARK 923 INTER-LIGAND FREE ENERGY PREDICTED BY IDOCK:   -5.83 KCAL/MOL
REMARK 924 INTRA-LIGAND FREE ENERGY PREDICTED BY IDOCK:   -0.75 KCAL/MOL
REMARK 927      BINDING AFFINITY PREDICTED BY RF-SCORE:    0.00 PKD
ROOT
HETATM    1  C   UNL     1     -10.994  14.860  64.837  1.00  0.00    -0.422 C  
HETATM    2  C   UNL     1     -10.958  15.084  66.346  1.00  0.00    -0.336 C  
HETATM    3  C   UNL     1     -12.036  14.281  67.067  1.00  0.00    -0.463 C  
HETATM    4  C   UNL     1     -12.015  12.788  66.709  1.00  0.00    -0.319 C  
HETATM    5  C   UNL     1     -12.082  12.603  65.187  1.00  0.00    -0.508 C  
HETATM    6  C   UNL     1     -10.980  13.381  64.465  1.00  0.00    -0.404 C  
ENDROOT
BRANCH   4   7
HETATM    7  N   UNL     1     -10.798  12.147  67.218  1.00  0.00    -0.235 NA 
HETATM    8  H   UNL     1      -9.889  12.504  66.921  1.00  0.00     0.000 HD 
BRANCH   7   9
HETATM    9  C   UNL     1     -10.847  11.066  68.097  1.00  0.00    -0.226 A  
HETATM   10  C   UNL     1     -11.337  11.149  69.399  1.00  0.00    -0.352 A  
HETATM   11  C   UNL     1     -11.267  10.059  70.265  1.00  0.00    -0.379 A  
HETATM   12  C   UNL     1     -10.769   8.829  69.836  1.00  0.00    -0.223 A  
HETATM   13  C   UNL     1     -10.419   8.687  68.494  1.00  0.00    -0.209 A  
HETATM   14  C   UNL     1     -10.445   9.802  67.641  1.00  0.00    -0.305 A  
BRANCH  12  15
HETATM   15  N   UNL     1     -10.606   7.826  70.801  1.00  0.00    -0.215 NA 
HETATM   16  H   UNL     1     -11.267   7.054  70.713  1.00  0.00     0.000 HD 
BRANCH  15  17
HETATM   17  C   UNL     1      -9.706   7.685  71.864  1.00  0.00    -0.164 A  
HETATM   18  C   UNL     1      -8.357   8.002  71.661  1.00  0.00    -0.151 A  
HETATM   19  C   UNL     1      -7.444   7.963  72.716  1.00  0.00    -0.131 A  
HETATM   20  C   UNL     1      -7.875   7.607  73.990  1.00  0.00    -0.195 A  
HETATM   21  C   UNL     1      -9.209   7.260  74.201  1.00  0.00    -0.272 A  
HETATM   22  C   UNL     1     -10.116   7.282  73.138  1.00  0.00    -0.319 A  
ENDBRANCH  15  17
ENDBRANCH  12  15
ENDBRANCH   7   9
ENDBRANCH   4   7
TORSDOF 4
ENDMDL
MODEL       75
REMARK 921   NORMALIZED FREE ENERGY PREDICTED BY IDOCK:   -4.75 KCAL/MOL
REMARK 922        TOTAL FREE ENERGY PREDICTED BY IDOCK:   -6.54 KCAL/MOL
REMARK 923 INTER-LIGAND FREE ENERGY PREDICTED BY IDOCK:   -5.76 KCAL/MOL
REMARK 924 INTRA-LIGAND FREE ENERGY PREDICTED BY IDOCK:   -0.77 KCAL/MOL
REMARK 927      BINDING AFFINITY PREDICTED BY RF-SCORE:    0.00 PKD
ROOT
HETATM    1  C   UNL     1     -10.430   8.231  67.502  1.00  0.00    -0.325 C  
HETATM    2  C   UNL     1      -9.543   8.486  66.287  1.00  0.00    -0.306 C  
HETATM    3  C   UNL     1     -10.024   9.681  65.470  1.00  0.00    -0.279 C  
HETATM    4  C   UNL     1     -10.216  10.948  66.315  1.00  0.00    -0.247 C  
HETATM    5  C   UNL     1     -11.136  10.660  67.509  1.00  0.00    -0.367 C  
HETATM    6  C   UNL     1     -10.635   9.484  68.348  1.00  0.00    -0.261 C  
ENDROOT
BRANCH   4   7
HETATM    7  N   UNL     1      -8.928  11.445  66.809  1.00  0.00    -0.170 NA 
HETATM    8  H   UNL     1      -8.134  10.807  66.851  1.00  0.00     0.000 HD 
BRANCH   7   9
HETATM    9  C   UNL     1      -8.757  12.766  67.222  1.00  0.00    -0.200 A  
HETATM   10  C   UNL     1      -9.473  13.840  66.697  1.00  0.00    -0.289 A  
HETATM   11  C   UNL     1      -9.187  15.150  67.077  1.00  0.00    -0.239 A  
HETATM   12  C   UNL     1      -8.224  15.425  68.047  1.00  0.00    -0.144 A  
HETATM   13  C   UNL     1      -7.608  14.354  68.692  1.00  0.00    -0.132 A  
HETATM   14  C   UNL     1      -7.864  13.039  68.269  1.00  0.00    -0.143 A  
BRANCH  12  15
HETATM   15  N   UNL     1      -7.901  16.770  68.273  1.00  0.00    -0.186 NA 
HETATM   16  H   UNL     1      -7.051  16.906  68.821  1.00  0.00     0.000 HD 
BRANCH  15  17
HETATM   17  C   UNL     1      -8.527  17.962  67.889  1.00  0.00    -0.251 A  
HETATM   18  C   UNL     1      -8.058  18.643  66.759  1.00  0.00    -0.275 A  
HETATM   19  C   UNL     1      -8.709  19.785  66.288  1.00  0.00    -0.403 A  
HETATM   20  C   UNL     1      -9.841  20.255  66.944  1.00  0.00    -0.597 A  
HETATM   21  C   UNL     1     -10.302  19.604  68.088  1.00  0.00    -0.561 A  
HETATM   22  C   UNL     1      -9.637  18.473  68.568  1.00  0.00    -0.388 A  
ENDBRANCH  15  17
ENDBRANCH  12  15
ENDBRANCH   7   9
ENDBRANCH   4   7
TORSDOF 4
ENDMDL
MODEL       76
REMARK 921   NORMALIZED FREE ENERGY PREDICTED BY IDOCK:   -4.75 KCAL/MOL
REMARK 922        TOTAL FREE ENERGY PREDICTED BY IDOCK:   -6.54 KCAL/MOL
REMARK 923 INTER-LIGAND FREE ENERGY PREDICTED BY IDOCK:   -5.73 KCAL/MOL
REMARK 924 INTRA-LIGAND FREE ENERGY PREDICTED BY IDOCK:   -0.80 KCAL/MOL
REMARK 927      BINDING AFFINITY PREDICTED BY RF-SCORE:    0.00 PKD
ROOT
HETATM    1  C   UNL     1     -11.344   6.399  72.216  1.00  0.00    -0.330 C  
HETATM    2  C   UNL     1      -9.914   5.900  72.035  1.00  0.00    -0.204 C  
HETATM    3  C   UNL     1      -9.729   5.163  70.712  1.00  0.00    -0.255 C  
HETATM    4  C   UNL     1     -10.211   5.974  69.500  1.00  0.00    -0.208 C  
HETATM    5  C   UNL     1     -11.661   6.433  69.706  1.00  0.00    -0.397 C  
HETATM    6  C   UNL     1     -11.838   7.202  71.016  1.00  0.00    -0.373 C  
ENDROOT
BRANCH   4   7
HETATM    7  N   UNL     1      -9.359   7.149  69.289  1.00  0.00    -0.146 NA 
HETATM    8  H   UNL     1      -8.590   7.325  69.934  1.00  0.00     0.000 HD 
BRANCH   7   9
HETATM    9  C   UNL     1      -9.572   8.032  68.231  1.00  0.00    -0.146 A  
HETATM   10  C   UNL     1      -9.528   7.657  66.889  1.00  0.00    -0.222 A  
HETATM   11  C   UNL     1      -9.647   8.604  65.873  1.00  0.00    -0.210 A  
HETATM   12  C   UNL     1      -9.884   9.947  66.164  1.00  0.00    -0.260 A  
HETATM   13  C   UNL     1     -10.084  10.312  67.494  1.00  0.00    -0.239 A  
HETATM   14  C   UNL     1      -9.913   9.363  68.515  1.00  0.00    -0.190 A  
BRANCH  12  15
HETATM   15  N   UNL     1      -9.856  10.853  65.096  1.00  0.00    -0.254 NA 
HETATM   16  H   UNL     1      -9.136  10.654  64.402  1.00  0.00     0.000 HD 
BRANCH  15  17
HETATM   17  C   UNL     1     -10.632  11.983  64.803  1.00  0.00    -0.297 A  
HETATM   18  C   UNL     1     -10.217  13.234  65.275  1.00  0.00    -0.303 A  
HETATM   19  C   UNL     1     -10.910  14.396  64.930  1.00  0.00    -0.430 A  
HETATM   20  C   UNL     1     -12.026  14.316  64.104  1.00  0.00    -0.401 A  
HETATM   21  C   UNL     1     -12.468  13.073  63.651  1.00  0.00    -0.400 A  
HETATM   22  C   UNL     1     -11.784  11.910  64.014  1.00  0.00    -0.469 A  
ENDBRANCH  15  17
ENDBRANCH  12  15
ENDBRANCH   7   9
ENDBRANCH   4   7
TORSDOF 4
ENDMDL
MODEL       77
REMARK 921   NORMALIZED FREE ENERGY PREDICTED BY IDOCK:   -4.75 KCAL/MOL
REMARK 922        TOTAL FREE ENERGY PREDICTED BY IDOCK:   -6.53 KCAL/MOL
REMARK 923 INTER-LIGAND FREE ENERGY PREDICTED BY IDOCK:   -5.76 KCAL/MOL
REMARK 924 INTRA-LIGAND FREE ENERGY PREDICTED BY IDOCK:   -0.77 KCAL/MOL
REMARK 927      BINDING AFFINITY PREDICTED BY RF-SCORE:    0.00 PKD
ROOT
HETATM    1  C   UNL     1      -9.546  16.197  67.729  1.00  0.00    -0.223 C  
HETATM    2  C   UNL     1     -10.050  14.834  68.196  1.00  0.00    -0.221 C  
HETATM    3  C   UNL     1     -11.055  14.232  67.219  1.00  0.00    -0.315 C  
HETATM    4  C   UNL     1     -10.537  14.187  65.775  1.00  0.00    -0.300 C  
HETATM    5  C   UNL     1     -10.068  15.580  65.331  1.00  0.00    -0.387 C  
HETATM    6  C   UNL     1      -9.034  16.169  66.292  1.00  0.00    -0.379 C  
ENDROOT
BRANCH   4   7
HETATM    7  N   UNL     1      -9.423  13.242  65.650  1.00  0.00    -0.483 NA 
HETATM    8  H   UNL     1      -8.630  13.486  65.057  1.00  0.00     0.000 HD 
BRANCH   7   9
HETATM    9  C   UNL     1      -9.416  12.019  66.320  1.00  0.00    -0.229 A  
HETATM   10  C   UNL     1     -10.282  10.969  66.022  1.00  0.00    -0.305 A  
HETATM   11  C   UNL     1     -10.297   9.808  66.793  1.00  0.00    -0.289 A  
HETATM   12  C   UNL     1      -9.396   9.628  67.843  1.00  0.00    -0.128 A  
HETATM   13  C   UNL     1      -8.423  10.603  68.054  1.00  0.00    -0.119 A  
HETATM   14  C   UNL     1      -8.446  11.792  67.307  1.00  0.00    -0.160 A  
BRANCH  12  15
HETATM   15  N   UNL     1      -9.565   8.496  68.652  1.00  0.00    -0.147 NA 
HETATM   16  H   UNL     1      -8.962   7.713  68.400  1.00  0.00     0.000 HD 
BRANCH  15  17
HETATM   17  C   UNL     1     -10.407   8.239  69.742  1.00  0.00    -0.216 A  
HETATM   18  C   UNL     1     -10.773   9.297  70.583  1.00  0.00    -0.331 A  
HETATM   19  C   UNL     1     -11.681   9.102  71.625  1.00  0.00    -0.448 A  
HETATM   20  C   UNL     1     -12.235   7.843  71.834  1.00  0.00    -0.351 A  
HETATM   21  C   UNL     1     -11.856   6.774  71.022  1.00  0.00    -0.427 A  
HETATM   22  C   UNL     1     -10.932   6.968  69.992  1.00  0.00    -0.303 A  
ENDBRANCH  15  17
ENDBRANCH  12  15
ENDBRANCH   7   9
ENDBRANCH   4   7
TORSDOF 4
ENDMDL
MODEL       78
REMARK 921   NORMALIZED FREE ENERGY PREDICTED BY IDOCK:   -4.75 KCAL/MOL
REMARK 922        TOTAL FREE ENERGY PREDICTED BY IDOCK:   -6.53 KCAL/MOL
REMARK 923 INTER-LIGAND FREE ENERGY PREDICTED BY IDOCK:   -5.81 KCAL/MOL
REMARK 924 INTRA-LIGAND FREE ENERGY PREDICTED BY IDOCK:   -0.72 KCAL/MOL
REMARK 927      BINDING AFFINITY PREDICTED BY RF-SCORE:    0.00 PKD
ROOT
HETATM    1  C   UNL     1      -9.689  12.366  65.904  1.00  0.00    -0.237 C  
HETATM    2  C   UNL     1      -9.236  12.045  67.325  1.00  0.00    -0.182 C  
HETATM    3  C   UNL     1     -10.206  12.589  68.370  1.00  0.00    -0.230 C  
HETATM    4  C   UNL     1     -11.659  12.160  68.121  1.00  0.00    -0.337 C  
HETATM    5  C   UNL     1     -12.087  12.525  66.693  1.00  0.00    -0.212 C  
HETATM    6  C   UNL     1     -11.134  11.952  65.644  1.00  0.00    -0.362 C  
ENDROOT
BRANCH   4   7
HETATM    7  N   UNL     1     -11.816  10.714  68.315  1.00  0.00    -0.786 NA 
HETATM    8  H   UNL     1     -12.095  10.136  67.523  1.00  0.00     0.000 HD 
BRANCH   7   9
HETATM    9  C   UNL     1     -11.594  10.109  69.551  1.00  0.00    -0.118 A  
HETATM   10  C   UNL     1     -10.466   9.345  69.847  1.00  0.00    -0.257 A  
HETATM   11  C   UNL     1     -10.347   8.680  71.066  1.00  0.00    -0.275 A  
HETATM   12  C   UNL     1     -11.319   8.813  72.058  1.00  0.00    -0.371 A  
HETATM   13  C   UNL     1     -12.375   9.695  71.836  1.00  0.00    -0.437 A  
HETATM   14  C   UNL     1     -12.515  10.323  70.587  1.00  0.00    -0.407 A  
BRANCH  12  15
HETATM   15  N   UNL     1     -11.193   8.008  73.197  1.00  0.00    -0.361 NA 
HETATM   16  H   UNL     1     -11.309   8.512  74.076  1.00  0.00     0.000 HD 
BRANCH  15  17
HETATM   17  C   UNL     1     -10.938   6.639  73.355  1.00  0.00    -0.152 A  
HETATM   18  C   UNL     1     -11.449   5.739  72.413  1.00  0.00    -0.343 A  
HETATM   19  C   UNL     1     -11.143   4.378  72.482  1.00  0.00     0.037 A  
HETATM   20  C   UNL     1     -10.317   3.906  73.497  1.00  0.00    -0.236 A  
HETATM   21  C   UNL     1      -9.825   4.787  74.459  1.00  0.00    -0.211 A  
HETATM   22  C   UNL     1     -10.150   6.145  74.398  1.00  0.00    -0.337 A  
ENDBRANCH  15  17
ENDBRANCH  12  15
ENDBRANCH   7   9
ENDBRANCH   4   7
TORSDOF 4
ENDMDL
MODEL       79
REMARK 921   NORMALIZED FREE ENERGY PREDICTED BY IDOCK:   -4.74 KCAL/MOL
REMARK 922        TOTAL FREE ENERGY PREDICTED BY IDOCK:   -6.52 KCAL/MOL
REMARK 923 INTER-LIGAND FREE ENERGY PREDICTED BY IDOCK:   -5.72 KCAL/MOL
REMARK 924 INTRA-LIGAND FREE ENERGY PREDICTED BY IDOCK:   -0.80 KCAL/MOL
REMARK 927      BINDING AFFINITY PREDICTED BY RF-SCORE:    0.00 PKD
ROOT
HETATM    1  C   UNL     1      -8.803   4.605  62.760  1.00  0.00    -0.127 C  
HETATM    2  C   UNL     1     -10.182   3.967  62.896  1.00  0.00    -0.178 C  
HETATM    3  C   UNL     1     -10.278   3.072  64.129  1.00  0.00    -0.109 C  
HETATM    4  C   UNL     1      -9.844   3.780  65.420  1.00  0.00    -0.130 C  
HETATM    5  C   UNL     1      -8.442   4.383  65.254  1.00  0.00    -0.121 C  
HETATM    6  C   UNL     1      -8.355   5.307  64.038  1.00  0.00    -0.125 C  
ENDROOT
BRANCH   4   7
HETATM    7  N   UNL     1     -10.787   4.847  65.772  1.00  0.00    -0.741 NA 
HETATM    8  H   UNL     1     -11.580   5.029  65.157  1.00  0.00     0.000 HD 
BRANCH   7   9
HETATM    9  C   UNL     1     -10.633   5.618  66.923  1.00  0.00    -0.296 A  
HETATM   10  C   UNL     1     -10.527   5.081  68.205  1.00  0.00    -0.015 A  
HETATM   11  C   UNL     1     -10.476   5.905  69.328  1.00  0.00    -0.342 A  
HETATM   12  C   UNL     1     -10.458   7.294  69.202  1.00  0.00    -0.215 A  
HETATM   13  C   UNL     1     -10.408   7.843  67.922  1.00  0.00    -0.281 A  
HETATM   14  C   UNL     1     -10.510   7.009  66.797  1.00  0.00    -0.297 A  
BRANCH  12  15
HETATM   15  N   UNL     1     -10.543   8.050  70.379  1.00  0.00    -0.220 NA 
HETATM   16  H   UNL     1      -9.748   7.931  71.007  1.00  0.00     0.000 HD 
BRANCH  15  17
HETATM   17  C   UNL     1     -11.516   8.939  70.855  1.00  0.00    -0.288 A  
HETATM   18  C   UNL     1     -12.403   8.508  71.849  1.00  0.00    -0.407 A  
HETATM   19  C   UNL     1     -13.327   9.388  72.416  1.00  0.00    -0.503 A  
HETATM   20  C   UNL     1     -13.370  10.712  71.992  1.00  0.00    -0.409 A  
HETATM   21  C   UNL     1     -12.513  11.147  70.982  1.00  0.00    -0.506 A  
HETATM   22  C   UNL     1     -11.602  10.259  70.403  1.00  0.00    -0.411 A  
ENDBRANCH  15  17
ENDBRANCH  12  15
ENDBRANCH   7   9
ENDBRANCH   4   7
TORSDOF 4
ENDMDL
MODEL       80
REMARK 921   NORMALIZED FREE ENERGY PREDICTED BY IDOCK:   -4.73 KCAL/MOL
REMARK 922        TOTAL FREE ENERGY PREDICTED BY IDOCK:   -6.51 KCAL/MOL
REMARK 923 INTER-LIGAND FREE ENERGY PREDICTED BY IDOCK:   -6.17 KCAL/MOL
REMARK 924 INTRA-LIGAND FREE ENERGY PREDICTED BY IDOCK:   -0.34 KCAL/MOL
REMARK 927      BINDING AFFINITY PREDICTED BY RF-SCORE:    0.00 PKD
ROOT
HETATM    1  C   UNL     1      -9.908  10.615  63.034  1.00  0.00    -0.318 C  
HETATM    2  C   UNL     1     -10.209  12.045  63.473  1.00  0.00    -0.477 C  
HETATM    3  C   UNL     1     -10.875  12.093  64.844  1.00  0.00    -0.352 C  
HETATM    4  C   UNL     1     -10.098  11.315  65.917  1.00  0.00    -0.245 C  
HETATM    5  C   UNL     1      -9.841   9.875  65.452  1.00  0.00    -0.384 C  
HETATM    6  C   UNL     1      -9.143   9.827  64.093  1.00  0.00    -0.289 C  
ENDROOT
BRANCH   4   7
HETATM    7  N   UNL     1      -8.814  11.964  66.204  1.00  0.00    -0.373 NA 
HETATM    8  H   UNL     1      -7.951  11.498  65.926  1.00  0.00     0.000 HD 
BRANCH   7   9
HETATM    9  C   UNL     1      -8.741  13.200  66.845  1.00  0.00    -0.148 A  
HETATM   10  C   UNL     1      -9.581  14.273  66.555  1.00  0.00    -0.313 A  
HETATM   11  C   UNL     1      -9.394  15.517  67.157  1.00  0.00    -0.227 A  
HETATM   12  C   UNL     1      -8.405  15.709  68.121  1.00  0.00    -0.146 A  
HETATM   13  C   UNL     1      -7.657  14.607  68.533  1.00  0.00    -0.120 A  
HETATM   14  C   UNL     1      -7.817  13.370  67.887  1.00  0.00    -0.152 A  
BRANCH  12  15
HETATM   15  N   UNL     1      -8.193  17.017  68.577  1.00  0.00    -0.250 NA 
HETATM   16  H   UNL     1      -7.560  17.081  69.373  1.00  0.00     0.000 HD 
BRANCH  15  17
HETATM   17  C   UNL     1      -8.689  18.253  68.143  1.00  0.00    -0.281 A  
HETATM   18  C   UNL     1      -7.982  18.965  67.167  1.00  0.00    -0.254 A  
HETATM   19  C   UNL     1      -8.487  20.156  66.641  1.00  0.00    -0.343 A  
HETATM   20  C   UNL     1      -9.710  20.645  67.087  1.00  0.00    -0.530 A  
HETATM   21  C   UNL     1     -10.411  19.962  68.081  1.00  0.00    -0.533 A  
HETATM   22  C   UNL     1      -9.893  18.780  68.619  1.00  0.00    -0.441 A  
ENDBRANCH  15  17
ENDBRANCH  12  15
ENDBRANCH   7   9
ENDBRANCH   4   7
TORSDOF 4
ENDMDL
MODEL       81
REMARK 921   NORMALIZED FREE ENERGY PREDICTED BY IDOCK:   -4.72 KCAL/MOL
REMARK 922        TOTAL FREE ENERGY PREDICTED BY IDOCK:   -6.50 KCAL/MOL
REMARK 923 INTER-LIGAND FREE ENERGY PREDICTED BY IDOCK:   -5.98 KCAL/MOL
REMARK 924 INTRA-LIGAND FREE ENERGY PREDICTED BY IDOCK:   -0.52 KCAL/MOL
REMARK 927      BINDING AFFINITY PREDICTED BY RF-SCORE:    0.00 PKD
ROOT
HETATM    1  C   UNL     1      -7.035  20.028  65.455  1.00  0.00    -0.332 C  
HETATM    2  C   UNL     1      -6.724  18.563  65.749  1.00  0.00    -0.316 C  
HETATM    3  C   UNL     1      -6.979  18.208  67.211  1.00  0.00    -0.207 C  
HETATM    4  C   UNL     1      -8.384  18.604  67.689  1.00  0.00    -0.267 C  
HETATM    5  C   UNL     1      -8.648  20.088  67.403  1.00  0.00    -0.403 C  
HETATM    6  C   UNL     1      -8.426  20.436  65.930  1.00  0.00     0.105 C  
ENDROOT
BRANCH   4   7
HETATM    7  N   UNL     1      -9.408  17.795  67.020  1.00  0.00    -0.252 NA 
HETATM    8  H   UNL     1      -9.769  18.101  66.116  1.00  0.00     0.000 HD 
BRANCH   7   9
HETATM    9  C   UNL     1      -9.903  16.619  67.583  1.00  0.00    -0.256 A  
HETATM   10  C   UNL     1      -9.664  16.232  68.900  1.00  0.00    -0.248 A  
HETATM   11  C   UNL     1     -10.099  14.996  69.377  1.00  0.00    -0.208 A  
HETATM   12  C   UNL     1     -10.849  14.137  68.573  1.00  0.00    -0.252 A  
HETATM   13  C   UNL     1     -11.226  14.576  67.306  1.00  0.00    -0.341 A  
HETATM   14  C   UNL     1     -10.743  15.799  66.814  1.00  0.00    -0.293 A  
BRANCH  12  15
HETATM   15  N   UNL     1     -11.130  12.861  69.080  1.00  0.00    -0.385 NA 
HETATM   16  H   UNL     1     -10.708  12.101  68.547  1.00  0.00     0.000 HD 
BRANCH  15  17
HETATM   17  C   UNL     1     -11.883  12.434  70.182  1.00  0.00    -0.262 A  
HETATM   18  C   UNL     1     -12.481  13.392  71.010  1.00  0.00    -0.437 A  
HETATM   19  C   UNL     1     -13.313  13.010  72.063  1.00  0.00    -0.588 A  
HETATM   20  C   UNL     1     -13.558  11.661  72.297  1.00  0.00    -0.007 A  
HETATM   21  C   UNL     1     -12.945  10.695  71.499  1.00  0.00    -0.566 A  
HETATM   22  C   UNL     1     -12.097  11.081  70.457  1.00  0.00    -0.470 A  
ENDBRANCH  15  17
ENDBRANCH  12  15
ENDBRANCH   7   9
ENDBRANCH   4   7
TORSDOF 4
ENDMDL
MODEL       82
REMARK 921   NORMALIZED FREE ENERGY PREDICTED BY IDOCK:   -4.72 KCAL/MOL
REMARK 922        TOTAL FREE ENERGY PREDICTED BY IDOCK:   -6.50 KCAL/MOL
REMARK 923 INTER-LIGAND FREE ENERGY PREDICTED BY IDOCK:   -5.75 KCAL/MOL
REMARK 924 INTRA-LIGAND FREE ENERGY PREDICTED BY IDOCK:   -0.75 KCAL/MOL
REMARK 927      BINDING AFFINITY PREDICTED BY RF-SCORE:    0.00 PKD
ROOT
HETATM    1  C   UNL     1     -12.769  10.395  71.607  1.00  0.00    -0.560 C  
HETATM    2  C   UNL     1     -11.847  10.280  70.397  1.00  0.00    -0.396 C  
HETATM    3  C   UNL     1     -10.660   9.361  70.669  1.00  0.00    -0.354 C  
HETATM    4  C   UNL     1     -11.078   7.984  71.205  1.00  0.00    -0.252 C  
HETATM    5  C   UNL     1     -11.978   8.140  72.437  1.00  0.00    -0.431 C  
HETATM    6  C   UNL     1     -13.187   9.034  72.155  1.00  0.00    -0.504 C  
ENDROOT
BRANCH   4   7
HETATM    7  N   UNL     1     -11.795   7.221  70.178  1.00  0.00    -0.538 NA 
HETATM    8  H   UNL     1     -12.803   7.348  70.081  1.00  0.00     0.000 HD 
BRANCH   7   9
HETATM    9  C   UNL     1     -11.140   6.328  69.330  1.00  0.00    -0.410 A  
HETATM   10  C   UNL     1     -11.128   6.447  67.942  1.00  0.00    -0.370 A  
HETATM   11  C   UNL     1     -10.542   5.468  67.141  1.00  0.00    -0.313 A  
HETATM   12  C   UNL     1      -9.888   4.373  67.705  1.00  0.00    -0.113 A  
HETATM   13  C   UNL     1      -9.759   4.320  69.091  1.00  0.00    -0.226 A  
HETATM   14  C   UNL     1     -10.394   5.282  69.893  1.00  0.00    -0.374 A  
BRANCH  12  15
HETATM   15  N   UNL     1      -9.446   3.367  66.835  1.00  0.00    -0.327 NA 
HETATM   16  H   UNL     1      -9.514   2.426  67.221  1.00  0.00     0.000 HD 
BRANCH  15  17
HETATM   17  C   UNL     1      -8.928   3.413  65.534  1.00  0.00    -0.140 A  
HETATM   18  C   UNL     1      -7.624   3.884  65.337  1.00  0.00    -0.082 A  
HETATM   19  C   UNL     1      -7.037   3.862  64.071  1.00  0.00    -0.050 A  
HETATM   20  C   UNL     1      -7.751   3.362  62.986  1.00  0.00    -0.067 A  
HETATM   21  C   UNL     1      -9.061   2.918  63.162  1.00  0.00    -0.091 A  
HETATM   22  C   UNL     1      -9.653   2.960  64.428  1.00  0.00    -0.151 A  
ENDBRANCH  15  17
ENDBRANCH  12  15
ENDBRANCH   7   9
ENDBRANCH   4   7
TORSDOF 4
ENDMDL
MODEL       83
REMARK 921   NORMALIZED FREE ENERGY PREDICTED BY IDOCK:   -4.72 KCAL/MOL
REMARK 922        TOTAL FREE ENERGY PREDICTED BY IDOCK:   -6.50 KCAL/MOL
REMARK 923 INTER-LIGAND FREE ENERGY PREDICTED BY IDOCK:   -5.88 KCAL/MOL
REMARK 924 INTRA-LIGAND FREE ENERGY PREDICTED BY IDOCK:   -0.61 KCAL/MOL
REMARK 927      BINDING AFFINITY PREDICTED BY RF-SCORE:    0.00 PKD
ROOT
HETATM    1  C   UNL     1      -7.220   7.161  66.564  1.00  0.00    -0.079 C  
HETATM    2  C   UNL     1      -7.589   8.429  67.330  1.00  0.00    -0.097 C  
HETATM    3  C   UNL     1      -7.543   9.667  66.439  1.00  0.00    -0.101 C  
HETATM    4  C   UNL     1      -8.368   9.513  65.153  1.00  0.00    -0.142 C  
HETATM    5  C   UNL     1      -7.949   8.245  64.397  1.00  0.00    -0.144 C  
HETATM    6  C   UNL     1      -8.028   6.999  65.280  1.00  0.00    -0.127 C  
ENDROOT
BRANCH   4   7
HETATM    7  N   UNL     1      -9.800   9.440  65.459  1.00  0.00    -0.431 NA 
HETATM    8  H   UNL     1     -10.310   8.585  65.239  1.00  0.00     0.000 HD 
BRANCH   7   9
HETATM    9  C   UNL     1     -10.485  10.505  66.043  1.00  0.00    -0.156 A  
HETATM   10  C   UNL     1     -10.928  11.621  65.336  1.00  0.00    -0.328 A  
HETATM   11  C   UNL     1     -11.516  12.701  65.991  1.00  0.00    -0.414 A  
HETATM   12  C   UNL     1     -11.746  12.671  67.367  1.00  0.00    -0.369 A  
HETATM   13  C   UNL     1     -11.449  11.501  68.063  1.00  0.00    -0.381 A  
HETATM   14  C   UNL     1     -10.811  10.437  67.406  1.00  0.00    -0.344 A  
BRANCH  12  15
HETATM   15  N   UNL     1     -12.216  13.846  67.968  1.00  0.00    -0.489 NA 
HETATM   16  H   UNL     1     -12.750  14.448  67.342  1.00  0.00     0.000 HD 
BRANCH  15  17
HETATM   17  C   UNL     1     -12.088  14.350  69.269  1.00  0.00    -0.299 A  
HETATM   18  C   UNL     1     -11.478  15.596  69.460  1.00  0.00    -0.349 A  
HETATM   19  C   UNL     1     -11.412  16.175  70.728  1.00  0.00    -0.408 A  
HETATM   20  C   UNL     1     -11.962  15.512  71.821  1.00  0.00    -0.494 A  
HETATM   21  C   UNL     1     -12.546  14.258  71.650  1.00  0.00    -0.431 A  
HETATM   22  C   UNL     1     -12.593  13.671  70.382  1.00  0.00    -0.297 A  
ENDBRANCH  15  17
ENDBRANCH  12  15
ENDBRANCH   7   9
ENDBRANCH   4   7
TORSDOF 4
ENDMDL
MODEL       84
REMARK 921   NORMALIZED FREE ENERGY PREDICTED BY IDOCK:   -4.71 KCAL/MOL
REMARK 922        TOTAL FREE ENERGY PREDICTED BY IDOCK:   -6.48 KCAL/MOL
REMARK 923 INTER-LIGAND FREE ENERGY PREDICTED BY IDOCK:   -5.80 KCAL/MOL
REMARK 924 INTRA-LIGAND FREE ENERGY PREDICTED BY IDOCK:   -0.68 KCAL/MOL
REMARK 927      BINDING AFFINITY PREDICTED BY RF-SCORE:    0.00 PKD
ROOT
HETATM    1  C   UNL     1      -8.815   5.570  67.924  1.00  0.00    -0.105 C  
HETATM    2  C   UNL     1      -8.171   6.619  68.825  1.00  0.00    -0.120 C  
HETATM    3  C   UNL     1      -8.152   7.998  68.174  1.00  0.00    -0.129 C  
HETATM    4  C   UNL     1      -9.533   8.445  67.672  1.00  0.00    -0.149 C  
HETATM    5  C   UNL     1     -10.135   7.379  66.746  1.00  0.00    -0.305 C  
HETATM    6  C   UNL     1     -10.186   6.003  67.412  1.00  0.00    -0.230 C  
ENDROOT
BRANCH   4   7
HETATM    7  N   UNL     1     -10.446   8.677  68.797  1.00  0.00    -0.283 NA 
HETATM    8  H   UNL     1     -10.625   7.917  69.453  1.00  0.00     0.000 HD 
BRANCH   7   9
HETATM    9  C   UNL     1     -11.074   9.905  68.994  1.00  0.00    -0.146 A  
HETATM   10  C   UNL     1     -11.042  10.948  68.071  1.00  0.00    -0.351 A  
HETATM   11  C   UNL     1     -11.603  12.189  68.367  1.00  0.00    -0.381 A  
HETATM   12  C   UNL     1     -12.277  12.407  69.569  1.00  0.00    -0.086 A  
HETATM   13  C   UNL     1     -12.451  11.330  70.435  1.00  0.00    -0.355 A  
HETATM   14  C   UNL     1     -11.840  10.097  70.154  1.00  0.00    -0.299 A  
BRANCH  12  15
HETATM   15  N   UNL     1     -12.692  13.716  69.848  1.00  0.00    -0.127 NA 
HETATM   16  H   UNL     1     -12.961  14.250  69.022  1.00  0.00     0.000 HD 
BRANCH  15  17
HETATM   17  C   UNL     1     -12.807  14.428  71.049  1.00  0.00    -0.353 A  
HETATM   18  C   UNL     1     -11.674  14.592  71.854  1.00  0.00    -0.180 A  
HETATM   19  C   UNL     1     -11.723  15.371  73.011  1.00  0.00    -0.477 A  
HETATM   20  C   UNL     1     -12.912  15.996  73.374  1.00  0.00    -0.676 A  
HETATM   21  C   UNL     1     -14.056  15.816  72.598  1.00  0.00    -0.482 A  
HETATM   22  C   UNL     1     -14.008  15.021  71.450  1.00  0.00    -0.565 A  
ENDBRANCH  15  17
ENDBRANCH  12  15
ENDBRANCH   7   9
ENDBRANCH   4   7
TORSDOF 4
ENDMDL
MODEL       85
REMARK 921   NORMALIZED FREE ENERGY PREDICTED BY IDOCK:   -4.70 KCAL/MOL
REMARK 922        TOTAL FREE ENERGY PREDICTED BY IDOCK:   -6.47 KCAL/MOL
REMARK 923 INTER-LIGAND FREE ENERGY PREDICTED BY IDOCK:   -5.76 KCAL/MOL
REMARK 924 INTRA-LIGAND FREE ENERGY PREDICTED BY IDOCK:   -0.71 KCAL/MOL
REMARK 927      BINDING AFFINITY PREDICTED BY RF-SCORE:    0.00 PKD
ROOT
HETATM    1  C   UNL     1     -11.785  16.137  71.647  1.00  0.00    -0.558 C  
HETATM    2  C   UNL     1     -12.132  14.675  71.909  1.00  0.00    -0.375 C  
HETATM    3  C   UNL     1     -12.844  14.035  70.722  1.00  0.00    -0.355 C  
HETATM    4  C   UNL     1     -12.086  14.216  69.398  1.00  0.00    -0.328 C  
HETATM    5  C   UNL     1     -11.782  15.701  69.155  1.00  0.00    -0.402 C  
HETATM    6  C   UNL     1     -11.038  16.333  70.332  1.00  0.00    -0.322 C  
ENDROOT
BRANCH   4   7
HETATM    7  N   UNL     1     -10.828  13.463  69.411  1.00  0.00    -0.449 NA 
HETATM    8  H   UNL     1     -10.017  13.862  69.883  1.00  0.00     0.000 HD 
BRANCH   7   9
HETATM    9  C   UNL     1     -10.709  12.216  68.798  1.00  0.00    -0.219 A  
HETATM   10  C   UNL     1     -10.460  12.044  67.437  1.00  0.00    -0.239 A  
HETATM   11  C   UNL     1     -10.453  10.775  66.862  1.00  0.00    -0.304 A  
HETATM   12  C   UNL     1     -10.623   9.630  67.641  1.00  0.00    -0.275 A  
HETATM   13  C   UNL     1     -10.719   9.777  69.023  1.00  0.00    -0.238 A  
HETATM   14  C   UNL     1     -10.776  11.061  69.590  1.00  0.00    -0.193 A  
BRANCH  12  15
HETATM   15  N   UNL     1     -10.738   8.405  66.970  1.00  0.00    -0.386 NA 
HETATM   16  H   UNL     1     -11.375   8.426  66.174  1.00  0.00     0.000 HD 
BRANCH  15  17
HETATM   17  C   UNL     1     -10.142   7.156  67.190  1.00  0.00    -0.225 A  
HETATM   18  C   UNL     1      -8.896   6.886  66.611  1.00  0.00    -0.140 A  
HETATM   19  C   UNL     1      -8.226   5.691  66.877  1.00  0.00    -0.105 A  
HETATM   20  C   UNL     1      -8.798   4.753  67.731  1.00  0.00    -0.112 A  
HETATM   21  C   UNL     1     -10.052   4.996  68.291  1.00  0.00    -0.170 A  
HETATM   22  C   UNL     1     -10.729   6.185  68.007  1.00  0.00    -0.370 A  
ENDBRANCH  15  17
ENDBRANCH  12  15
ENDBRANCH   7   9
ENDBRANCH   4   7
TORSDOF 4
ENDMDL
MODEL       86
REMARK 921   NORMALIZED FREE ENERGY PREDICTED BY IDOCK:   -4.66 KCAL/MOL
REMARK 922        TOTAL FREE ENERGY PREDICTED BY IDOCK:   -6.42 KCAL/MOL
REMARK 923 INTER-LIGAND FREE ENERGY PREDICTED BY IDOCK:   -5.84 KCAL/MOL
REMARK 924 INTRA-LIGAND FREE ENERGY PREDICTED BY IDOCK:   -0.58 KCAL/MOL
REMARK 927      BINDING AFFINITY PREDICTED BY RF-SCORE:    0.00 PKD
ROOT
HETATM    1  C   UNL     1     -11.686   5.927  72.528  1.00  0.00    -0.288 C  
HETATM    2  C   UNL     1     -10.739   6.905  73.217  1.00  0.00    -0.349 C  
HETATM    3  C   UNL     1      -9.702   7.470  72.252  1.00  0.00    -0.203 C  
HETATM    4  C   UNL     1     -10.325   8.073  70.985  1.00  0.00    -0.201 C  
HETATM    5  C   UNL     1     -11.246   7.051  70.304  1.00  0.00    -0.339 C  
HETATM    6  C   UNL     1     -12.308   6.510  71.263  1.00  0.00    -0.227 C  
ENDROOT
BRANCH   4   7
HETATM    7  N   UNL     1     -11.097   9.278  71.306  1.00  0.00    -0.326 NA 
HETATM    8  H   UNL     1     -11.462   9.394  72.251  1.00  0.00     0.000 HD 
BRANCH   7   9
HETATM    9  C   UNL     1     -11.345  10.269  70.357  1.00  0.00    -0.332 A  
HETATM   10  C   UNL     1     -11.097  10.115  68.994  1.00  0.00    -0.249 A  
HETATM   11  C   UNL     1     -11.269  11.176  68.107  1.00  0.00    -0.356 A  
HETATM   12  C   UNL     1     -11.762  12.406  68.542  1.00  0.00    -0.326 A  
HETATM   13  C   UNL     1     -12.159  12.528  69.872  1.00  0.00    -0.322 A  
HETATM   14  C   UNL     1     -11.937  11.472  70.771  1.00  0.00    -0.317 A  
BRANCH  12  15
HETATM   15  N   UNL     1     -11.778  13.458  67.617  1.00  0.00    -0.340 NA 
HETATM   16  H   UNL     1     -12.663  13.561  67.121  1.00  0.00     0.000 HD 
BRANCH  15  17
HETATM   17  C   UNL     1     -10.805  14.396  67.246  1.00  0.00    -0.290 A  
HETATM   18  C   UNL     1      -9.664  14.544  68.044  1.00  0.00    -0.218 A  
HETATM   19  C   UNL     1      -8.629  15.400  67.664  1.00  0.00    -0.176 A  
HETATM   20  C   UNL     1      -8.725  16.115  66.474  1.00  0.00    -0.337 A  
HETATM   21  C   UNL     1      -9.869  16.000  65.685  1.00  0.00    -0.309 A  
HETATM   22  C   UNL     1     -10.912  15.157  66.079  1.00  0.00    -0.332 A  
ENDBRANCH  15  17
ENDBRANCH  12  15
ENDBRANCH   7   9
ENDBRANCH   4   7
TORSDOF 4
ENDMDL
MODEL       87
REMARK 921   NORMALIZED FREE ENERGY PREDICTED BY IDOCK:   -4.63 KCAL/MOL
REMARK 922        TOTAL FREE ENERGY PREDICTED BY IDOCK:   -6.38 KCAL/MOL
REMARK 923 INTER-LIGAND FREE ENERGY PREDICTED BY IDOCK:   -6.03 KCAL/MOL
REMARK 924 INTRA-LIGAND FREE ENERGY PREDICTED BY IDOCK:   -0.35 KCAL/MOL
REMARK 927      BINDING AFFINITY PREDICTED BY RF-SCORE:    0.00 PKD
ROOT
HETATM    1  C   UNL     1     -10.532  16.602  67.126  1.00  0.00    -0.300 C  
HETATM    2  C   UNL     1     -11.005  15.314  67.792  1.00  0.00    -0.312 C  
HETATM    3  C   UNL     1     -11.822  14.446  66.840  1.00  0.00    -0.433 C  
HETATM    4  C   UNL     1     -11.105  14.173  65.510  1.00  0.00    -0.310 C  
HETATM    5  C   UNL     1     -10.672  15.493  64.856  1.00  0.00    -0.415 C  
HETATM    6  C   UNL     1      -9.823  16.347  65.799  1.00  0.00    -0.303 C  
ENDROOT
BRANCH   4   7
HETATM    7  N   UNL     1      -9.925  13.328  65.718  1.00  0.00    -0.367 NA 
HETATM    8  H   UNL     1      -8.998  13.734  65.593  1.00  0.00     0.000 HD 
BRANCH   7   9
HETATM    9  C   UNL     1     -10.034  11.987  66.082  1.00  0.00    -0.231 A  
HETATM   10  C   UNL     1      -9.550  10.934  65.308  1.00  0.00    -0.276 A  
HETATM   11  C   UNL     1      -9.778   9.608  65.673  1.00  0.00    -0.363 A  
HETATM   12  C   UNL     1     -10.436   9.291  66.861  1.00  0.00    -0.214 A  
HETATM   13  C   UNL     1     -10.790  10.330  67.720  1.00  0.00    -0.346 A  
HETATM   14  C   UNL     1     -10.602  11.664  67.323  1.00  0.00    -0.265 A  
BRANCH  12  15
HETATM   15  N   UNL     1     -10.745   7.944  67.089  1.00  0.00    -0.474 NA 
HETATM   16  H   UNL     1     -11.434   7.561  66.442  1.00  0.00     0.000 HD 
BRANCH  15  17
HETATM   17  C   UNL     1     -10.283   7.023  68.038  1.00  0.00    -0.182 A  
HETATM   18  C   UNL     1      -8.904   6.836  68.191  1.00  0.00    -0.120 A  
HETATM   19  C   UNL     1      -8.399   5.997  69.186  1.00  0.00    -0.114 A  
HETATM   20  C   UNL     1      -9.274   5.337  70.043  1.00  0.00    -0.180 A  
HETATM   21  C   UNL     1     -10.651   5.490  69.883  1.00  0.00    -0.387 A  
HETATM   22  C   UNL     1     -11.153   6.316  68.873  1.00  0.00    -0.434 A  
ENDBRANCH  15  17
ENDBRANCH  12  15
ENDBRANCH   7   9
ENDBRANCH   4   7
TORSDOF 4
ENDMDL
MODEL       88
REMARK 921   NORMALIZED FREE ENERGY PREDICTED BY IDOCK:   -4.59 KCAL/MOL
REMARK 922        TOTAL FREE ENERGY PREDICTED BY IDOCK:   -6.33 KCAL/MOL
REMARK 923 INTER-LIGAND FREE ENERGY PREDICTED BY IDOCK:   -5.62 KCAL/MOL
REMARK 924 INTRA-LIGAND FREE ENERGY PREDICTED BY IDOCK:   -0.71 KCAL/MOL
REMARK 927      BINDING AFFINITY PREDICTED BY RF-SCORE:    0.00 PKD
ROOT
HETATM    1  C   UNL     1     -12.631  13.849  65.569  1.00  0.00    -0.560 C  
HETATM    2  C   UNL     1     -12.579  12.517  64.826  1.00  0.00    -0.493 C  
HETATM    3  C   UNL     1     -11.200  11.870  64.911  1.00  0.00    -0.350 C  
HETATM    4  C   UNL     1     -10.683  11.744  66.351  1.00  0.00    -0.266 C  
HETATM    5  C   UNL     1     -10.723  13.107  67.055  1.00  0.00    -0.270 C  
HETATM    6  C   UNL     1     -12.114  13.740  67.000  1.00  0.00    -0.436 C  
ENDROOT
BRANCH   4   7
HETATM    7  N   UNL     1     -11.491  10.786  67.113  1.00  0.00    -0.363 NA 
HETATM    8  H   UNL     1     -12.505  10.894  67.126  1.00  0.00     0.000 HD 
BRANCH   7   9
HETATM    9  C   UNL     1     -10.913   9.731  67.818  1.00  0.00    -0.180 A  
HETATM   10  C   UNL     1     -10.432   8.569  67.216  1.00  0.00    -0.366 A  
HETATM   11  C   UNL     1      -9.958   7.505  67.981  1.00  0.00    -0.204 A  
HETATM   12  C   UNL     1      -9.882   7.595  69.371  1.00  0.00    -0.171 A  
HETATM   13  C   UNL     1     -10.215   8.805  69.976  1.00  0.00    -0.208 A  
HETATM   14  C   UNL     1     -10.739   9.855  69.204  1.00  0.00    -0.247 A  
BRANCH  12  15
HETATM   15  N   UNL     1      -9.523   6.437  70.074  1.00  0.00    -0.155 NA 
HETATM   16  H   UNL     1      -8.949   5.788  69.537  1.00  0.00     0.000 HD 
BRANCH  15  17
HETATM   17  C   UNL     1      -9.806   6.005  71.376  1.00  0.00    -0.173 A  
HETATM   18  C   UNL     1      -8.754   5.864  72.289  1.00  0.00    -0.128 A  
HETATM   19  C   UNL     1      -9.001   5.524  73.620  1.00  0.00    -0.124 A  
HETATM   20  C   UNL     1     -10.308   5.324  74.052  1.00  0.00    -0.301 A  
HETATM   21  C   UNL     1     -11.363   5.432  73.146  1.00  0.00    -0.325 A  
HETATM   22  C   UNL     1     -11.111   5.754  71.810  1.00  0.00    -0.301 A  
ENDBRANCH  15  17
ENDBRANCH  12  15
ENDBRANCH   7   9
ENDBRANCH   4   7
TORSDOF 4
ENDMDL
MODEL       89
REMARK 921   NORMALIZED FREE ENERGY PREDICTED BY IDOCK:   -4.58 KCAL/MOL
REMARK 922        TOTAL FREE ENERGY PREDICTED BY IDOCK:   -6.33 KCAL/MOL
REMARK 923 INTER-LIGAND FREE ENERGY PREDICTED BY IDOCK:   -5.50 KCAL/MOL
REMARK 924 INTRA-LIGAND FREE ENERGY PREDICTED BY IDOCK:   -0.82 KCAL/MOL
REMARK 927      BINDING AFFINITY PREDICTED BY RF-SCORE:    0.00 PKD
ROOT
HETATM    1  C   UNL     1      -5.921   8.469  63.791  1.00  0.00    -0.072 C  
HETATM    2  C   UNL     1      -6.393   9.845  64.251  1.00  0.00    -0.125 C  
HETATM    3  C   UNL     1      -7.447  10.429  63.315  1.00  0.00    -0.062 C  
HETATM    4  C   UNL     1      -8.623   9.474  63.063  1.00  0.00    -0.217 C  
HETATM    5  C   UNL     1      -8.110   8.112  62.574  1.00  0.00    -0.164 C  
HETATM    6  C   UNL     1      -7.079   7.511  63.530  1.00  0.00    -0.070 C  
ENDROOT
BRANCH   4   7
HETATM    7  N   UNL     1      -9.408   9.281  64.286  1.00  0.00    -0.384 NA 
HETATM    8  H   UNL     1      -9.515   8.339  64.663  1.00  0.00     0.000 HD 
BRANCH   7   9
HETATM    9  C   UNL     1     -10.012  10.348  64.950  1.00  0.00    -0.339 A  
HETATM   10  C   UNL     1      -9.743  10.688  66.275  1.00  0.00    -0.245 A  
HETATM   11  C   UNL     1     -10.453  11.702  66.916  1.00  0.00    -0.262 A  
HETATM   12  C   UNL     1     -11.406  12.457  66.233  1.00  0.00    -0.340 A  
HETATM   13  C   UNL     1     -11.576  12.232  64.869  1.00  0.00    -0.395 A  
HETATM   14  C   UNL     1     -10.894  11.177  64.241  1.00  0.00    -0.354 A  
BRANCH  12  15
HETATM   15  N   UNL     1     -12.169  13.363  66.982  1.00  0.00    -0.321 NA 
HETATM   16  H   UNL     1     -13.132  13.458  66.661  1.00  0.00     0.000 HD 
BRANCH  15  17
HETATM   17  C   UNL     1     -11.856  14.163  68.089  1.00  0.00    -0.352 A  
HETATM   18  C   UNL     1     -11.305  15.433  67.877  1.00  0.00    -0.328 A  
HETATM   19  C   UNL     1     -11.064  16.297  68.946  1.00  0.00    -0.345 A  
HETATM   20  C   UNL     1     -11.375  15.898  70.242  1.00  0.00    -0.381 A  
HETATM   21  C   UNL     1     -11.895  14.625  70.471  1.00  0.00    -0.367 A  
HETATM   22  C   UNL     1     -12.118  13.754  69.400  1.00  0.00    -0.377 A  
ENDBRANCH  15  17
ENDBRANCH  12  15
ENDBRANCH   7   9
ENDBRANCH   4   7
TORSDOF 4
ENDMDL
MODEL       90
REMARK 921   NORMALIZED FREE ENERGY PREDICTED BY IDOCK:   -4.58 KCAL/MOL
REMARK 922        TOTAL FREE ENERGY PREDICTED BY IDOCK:   -6.32 KCAL/MOL
REMARK 923 INTER-LIGAND FREE ENERGY PREDICTED BY IDOCK:   -5.65 KCAL/MOL
REMARK 924 INTRA-LIGAND FREE ENERGY PREDICTED BY IDOCK:   -0.67 KCAL/MOL
REMARK 927      BINDING AFFINITY PREDICTED BY RF-SCORE:    0.00 PKD
ROOT
HETATM    1  C   UNL     1      -8.312   5.495  64.742  1.00  0.00    -0.136 C  
HETATM    2  C   UNL     1      -9.184   5.677  65.981  1.00  0.00    -0.164 C  
HETATM    3  C   UNL     1      -8.635   6.753  66.912  1.00  0.00    -0.116 C  
HETATM    4  C   UNL     1      -8.368   8.086  66.198  1.00  0.00    -0.125 C  
HETATM    5  C   UNL     1      -7.465   7.867  64.977  1.00  0.00    -0.088 C  
HETATM    6  C   UNL     1      -8.032   6.813  64.026  1.00  0.00    -0.075 C  
ENDROOT
BRANCH   4   7
HETATM    7  N   UNL     1      -9.625   8.705  65.763  1.00  0.00    -0.457 NA 
HETATM    8  H   UNL     1     -10.126   8.302  64.971  1.00  0.00     0.000 HD 
BRANCH   7   9
HETATM    9  C   UNL     1     -10.153   9.827  66.400  1.00  0.00    -0.243 A  
HETATM   10  C   UNL     1     -10.769   9.789  67.649  1.00  0.00    -0.334 A  
HETATM   11  C   UNL     1     -11.369  10.924  68.190  1.00  0.00    -0.383 A  
HETATM   12  C   UNL     1     -11.312  12.153  67.532  1.00  0.00    -0.326 A  
HETATM   13  C   UNL     1     -10.568  12.241  66.357  1.00  0.00    -0.272 A  
HETATM   14  C   UNL     1     -10.009  11.083  65.792  1.00  0.00    -0.294 A  
BRANCH  12  15
HETATM   15  N   UNL     1     -12.054  13.211  68.074  1.00  0.00    -0.280 NA 
HETATM   16  H   UNL     1     -12.888  13.449  67.539  1.00  0.00     0.000 HD 
BRANCH  15  17
HETATM   17  C   UNL     1     -11.864  14.002  69.215  1.00  0.00    -0.344 A  
HETATM   18  C   UNL     1     -11.294  15.273  69.073  1.00  0.00    -0.311 A  
HETATM   19  C   UNL     1     -11.171  16.130  70.169  1.00  0.00    -0.374 A  
HETATM   20  C   UNL     1     -11.621  15.721  71.420  1.00  0.00    -0.511 A  
HETATM   21  C   UNL     1     -12.163  14.446  71.581  1.00  0.00    -0.385 A  
HETATM   22  C   UNL     1     -12.267  13.584  70.486  1.00  0.00    -0.433 A  
ENDBRANCH  15  17
ENDBRANCH  12  15
ENDBRANCH   7   9
ENDBRANCH   4   7
TORSDOF 4
ENDMDL
MODEL       91
REMARK 921   NORMALIZED FREE ENERGY PREDICTED BY IDOCK:   -4.56 KCAL/MOL
REMARK 922        TOTAL FREE ENERGY PREDICTED BY IDOCK:   -6.30 KCAL/MOL
REMARK 923 INTER-LIGAND FREE ENERGY PREDICTED BY IDOCK:   -5.68 KCAL/MOL
REMARK 924 INTRA-LIGAND FREE ENERGY PREDICTED BY IDOCK:   -0.62 KCAL/MOL
REMARK 927      BINDING AFFINITY PREDICTED BY RF-SCORE:    0.00 PKD
ROOT
HETATM    1  C   UNL     1      -6.311   8.731  64.426  1.00  0.00    -0.071 C  
HETATM    2  C   UNL     1      -7.255   9.884  64.097  1.00  0.00    -0.134 C  
HETATM    3  C   UNL     1      -8.714   9.518  64.349  1.00  0.00    -0.235 C  
HETATM    4  C   UNL     1      -8.959   8.961  65.759  1.00  0.00    -0.203 C  
HETATM    5  C   UNL     1      -8.014   7.786  66.042  1.00  0.00    -0.108 C  
HETATM    6  C   UNL     1      -6.548   8.164  65.823  1.00  0.00    -0.052 C  
ENDROOT
BRANCH   4   7
HETATM    7  N   UNL     1      -8.751  10.001  66.772  1.00  0.00    -0.129 NA 
HETATM    8  H   UNL     1      -7.857  10.489  66.804  1.00  0.00     0.000 HD 
BRANCH   7   9
HETATM    9  C   UNL     1      -9.742  10.342  67.693  1.00  0.00    -0.164 A  
HETATM   10  C   UNL     1     -10.961  10.917  67.340  1.00  0.00    -0.353 A  
HETATM   11  C   UNL     1     -11.870  11.330  68.312  1.00  0.00    -0.299 A  
HETATM   12  C   UNL     1     -11.622  11.116  69.668  1.00  0.00    -0.326 A  
HETATM   13  C   UNL     1     -10.479  10.404  70.028  1.00  0.00    -0.235 A  
HETATM   14  C   UNL     1      -9.544  10.035  69.047  1.00  0.00    -0.200 A  
BRANCH  12  15
HETATM   15  N   UNL     1     -12.518  11.679  70.585  1.00  0.00    -0.322 NA 
HETATM   16  H   UNL     1     -13.134  11.001  71.034  1.00  0.00     0.000 HD 
BRANCH  15  17
HETATM   17  C   UNL     1     -12.728  13.000  71.002  1.00  0.00    -0.262 A  
HETATM   18  C   UNL     1     -13.560  13.243  72.102  1.00  0.00    -0.655 A  
HETATM   19  C   UNL     1     -13.723  14.534  72.606  1.00  0.00    -0.543 A  
HETATM   20  C   UNL     1     -13.050  15.598  72.014  1.00  0.00    -0.541 A  
HETATM   21  C   UNL     1     -12.241  15.375  70.900  1.00  0.00    -0.425 A  
HETATM   22  C   UNL     1     -12.095  14.084  70.386  1.00  0.00    -0.426 A  
ENDBRANCH  15  17
ENDBRANCH  12  15
ENDBRANCH   7   9
ENDBRANCH   4   7
TORSDOF 4
ENDMDL
MODEL       92
REMARK 921   NORMALIZED FREE ENERGY PREDICTED BY IDOCK:   -4.56 KCAL/MOL
REMARK 922        TOTAL FREE ENERGY PREDICTED BY IDOCK:   -6.30 KCAL/MOL
REMARK 923 INTER-LIGAND FREE ENERGY PREDICTED BY IDOCK:   -5.57 KCAL/MOL
REMARK 924 INTRA-LIGAND FREE ENERGY PREDICTED BY IDOCK:   -0.73 KCAL/MOL
REMARK 927      BINDING AFFINITY PREDICTED BY RF-SCORE:    0.00 PKD
ROOT
HETATM    1  C   UNL     1      -8.345   2.784  62.972  1.00  0.00    -0.081 C  
HETATM    2  C   UNL     1      -7.617   3.730  63.921  1.00  0.00    -0.074 C  
HETATM    3  C   UNL     1      -8.484   4.923  64.313  1.00  0.00    -0.137 C  
HETATM    4  C   UNL     1      -9.860   4.513  64.856  1.00  0.00    -0.081 C  
HETATM    5  C   UNL     1     -10.573   3.586  63.861  1.00  0.00    -0.269 C  
HETATM    6  C   UNL     1      -9.718   2.373  63.495  1.00  0.00    -0.118 C  
ENDROOT
BRANCH   4   7
HETATM    7  N   UNL     1      -9.728   3.825  66.145  1.00  0.00    -0.352 NA 
HETATM    8  H   UNL     1      -9.424   2.852  66.157  1.00  0.00     0.000 HD 
BRANCH   7   9
HETATM    9  C   UNL     1     -10.006   4.464  67.353  1.00  0.00    -0.094 A  
HETATM   10  C   UNL     1      -9.538   4.019  68.588  1.00  0.00    -0.190 A  
HETATM   11  C   UNL     1      -9.932   4.640  69.772  1.00  0.00    -0.295 A  
HETATM   12  C   UNL     1     -10.750   5.769  69.756  1.00  0.00    -0.348 A  
HETATM   13  C   UNL     1     -11.100   6.316  68.523  1.00  0.00    -0.397 A  
HETATM   14  C   UNL     1     -10.741   5.658  67.336  1.00  0.00    -0.283 A  
BRANCH  12  15
HETATM   15  N   UNL     1     -11.210   6.251  70.989  1.00  0.00    -0.302 NA 
HETATM   16  H   UNL     1     -10.907   5.697  71.790  1.00  0.00     0.000 HD 
BRANCH  15  17
HETATM   17  C   UNL     1     -12.007   7.351  71.328  1.00  0.00    -0.313 A  
HETATM   18  C   UNL     1     -11.411   8.612  71.449  1.00  0.00    -0.350 A  
HETATM   19  C   UNL     1     -12.182   9.750  71.696  1.00  0.00    -0.488 A  
HETATM   20  C   UNL     1     -13.563   9.635  71.820  1.00  0.00    -0.424 A  
HETATM   21  C   UNL     1     -14.167   8.381  71.731  1.00  0.00    -0.536 A  
HETATM   22  C   UNL     1     -13.390   7.242  71.504  1.00  0.00    -0.435 A  
ENDBRANCH  15  17
ENDBRANCH  12  15
ENDBRANCH   7   9
ENDBRANCH   4   7
TORSDOF 4
ENDMDL
MODEL       93
REMARK 921   NORMALIZED FREE ENERGY PREDICTED BY IDOCK:   -4.56 KCAL/MOL
REMARK 922        TOTAL FREE ENERGY PREDICTED BY IDOCK:   -6.30 KCAL/MOL
REMARK 923 INTER-LIGAND FREE ENERGY PREDICTED BY IDOCK:   -5.52 KCAL/MOL
REMARK 924 INTRA-LIGAND FREE ENERGY PREDICTED BY IDOCK:   -0.78 KCAL/MOL
REMARK 927      BINDING AFFINITY PREDICTED BY RF-SCORE:    0.00 PKD
ROOT
HETATM    1  C   UNL     1     -10.578  14.810  64.938  1.00  0.00    -0.431 C  
HETATM    2  C   UNL     1      -9.993  14.405  66.288  1.00  0.00    -0.320 C  
HETATM    3  C   UNL     1     -11.049  14.393  67.388  1.00  0.00    -0.317 C  
HETATM    4  C   UNL     1     -12.285  13.557  67.025  1.00  0.00    -0.303 C  
HETATM    5  C   UNL     1     -12.862  14.013  65.678  1.00  0.00    -0.442 C  
HETATM    6  C   UNL     1     -11.811  13.992  64.568  1.00  0.00    -0.452 C  
ENDROOT
BRANCH   4   7
HETATM    7  N   UNL     1     -11.945  12.133  66.946  1.00  0.00    -0.609 NA 
HETATM    8  H   UNL     1     -12.128  11.628  66.079  1.00  0.00     0.000 HD 
BRANCH   7   9
HETATM    9  C   UNL     1     -11.378  11.449  68.021  1.00  0.00    -0.303 A  
HETATM   10  C   UNL     1     -10.113  10.867  67.987  1.00  0.00    -0.197 A  
HETATM   11  C   UNL     1      -9.640  10.109  69.057  1.00  0.00    -0.202 A  
HETATM   12  C   UNL     1     -10.389   9.967  70.225  1.00  0.00    -0.242 A  
HETATM   13  C   UNL     1     -11.587  10.670  70.334  1.00  0.00    -0.441 A  
HETATM   14  C   UNL     1     -12.080  11.390  69.234  1.00  0.00    -0.356 A  
BRANCH  12  15
HETATM   15  N   UNL     1      -9.906   9.081  71.198  1.00  0.00    -0.275 NA 
HETATM   16  H   UNL     1     -10.416   9.116  72.080  1.00  0.00     0.000 HD 
BRANCH  15  17
HETATM   17  C   UNL     1      -8.853   8.157  71.185  1.00  0.00    -0.146 A  
HETATM   18  C   UNL     1      -9.141   6.800  70.997  1.00  0.00    -0.156 A  
HETATM   19  C   UNL     1      -8.117   5.858  70.887  1.00  0.00    -0.120 A  
HETATM   20  C   UNL     1      -6.790   6.268  70.961  1.00  0.00    -0.066 A  
HETATM   21  C   UNL     1      -6.489   7.612  71.177  1.00  0.00    -0.038 A  
HETATM   22  C   UNL     1      -7.517   8.550  71.307  1.00  0.00    -0.107 A  
ENDBRANCH  15  17
ENDBRANCH  12  15
ENDBRANCH   7   9
ENDBRANCH   4   7
TORSDOF 4
ENDMDL
MODEL       94
REMARK 921   NORMALIZED FREE ENERGY PREDICTED BY IDOCK:   -4.50 KCAL/MOL
REMARK 922        TOTAL FREE ENERGY PREDICTED BY IDOCK:   -6.23 KCAL/MOL
REMARK 923 INTER-LIGAND FREE ENERGY PREDICTED BY IDOCK:   -5.45 KCAL/MOL
REMARK 924 INTRA-LIGAND FREE ENERGY PREDICTED BY IDOCK:   -0.78 KCAL/MOL
REMARK 927      BINDING AFFINITY PREDICTED BY RF-SCORE:    0.00 PKD
ROOT
HETATM    1  C   UNL     1      -7.400   8.396  66.647  1.00  0.00    -0.082 C  
HETATM    2  C   UNL     1      -7.081   9.841  66.275  1.00  0.00    -0.095 C  
HETATM    3  C   UNL     1      -7.885  10.311  65.066  1.00  0.00    -0.133 C  
HETATM    4  C   UNL     1      -9.395  10.078  65.223  1.00  0.00    -0.237 C  
HETATM    5  C   UNL     1      -9.677   8.610  65.566  1.00  0.00     0.208 C  
HETATM    6  C   UNL     1      -8.898   8.149  66.799  1.00  0.00    -0.156 C  
ENDROOT
BRANCH   4   7
HETATM    7  N   UNL     1      -9.947  10.935  66.278  1.00  0.00    -0.219 NA 
HETATM    8  H   UNL     1     -10.421  10.501  67.070  1.00  0.00     0.000 HD 
BRANCH   7   9
HETATM    9  C   UNL     1      -9.843  12.324  66.230  1.00  0.00    -0.241 A  
HETATM   10  C   UNL     1     -10.558  13.123  65.340  1.00  0.00    -0.311 A  
HETATM   11  C   UNL     1     -10.336  14.498  65.269  1.00  0.00    -0.435 A  
HETATM   12  C   UNL     1      -9.443  15.129  66.135  1.00  0.00    -0.319 A  
HETATM   13  C   UNL     1      -8.835  14.367  67.131  1.00  0.00    -0.244 A  
HETATM   14  C   UNL     1      -9.025  12.976  67.165  1.00  0.00    -0.223 A  
BRANCH  12  15
HETATM   15  N   UNL     1      -9.176  16.486  65.910  1.00  0.00    -0.496 NA 
HETATM   16  H   UNL     1      -8.676  16.672  65.041  1.00  0.00     0.000 HD 
BRANCH  15  17
HETATM   17  C   UNL     1      -9.466  17.635  66.657  1.00  0.00    -0.279 A  
HETATM   18  C   UNL     1     -10.419  18.539  66.171  1.00  0.00    -0.447 A  
HETATM   19  C   UNL     1     -10.805  19.649  66.925  1.00  0.00    -0.505 A  
HETATM   20  C   UNL     1     -10.240  19.863  68.178  1.00  0.00    -0.564 A  
HETATM   21  C   UNL     1      -9.268  18.987  68.662  1.00  0.00    -0.414 A  
HETATM   22  C   UNL     1      -8.871  17.888  67.896  1.00  0.00    -0.260 A  
ENDBRANCH  15  17
ENDBRANCH  12  15
ENDBRANCH   7   9
ENDBRANCH   4   7
TORSDOF 4
ENDMDL
MODEL       95
REMARK 921   NORMALIZED FREE ENERGY PREDICTED BY IDOCK:   -4.50 KCAL/MOL
REMARK 922        TOTAL FREE ENERGY PREDICTED BY IDOCK:   -6.22 KCAL/MOL
REMARK 923 INTER-LIGAND FREE ENERGY PREDICTED BY IDOCK:   -5.53 KCAL/MOL
REMARK 924 INTRA-LIGAND FREE ENERGY PREDICTED BY IDOCK:   -0.69 KCAL/MOL
REMARK 927      BINDING AFFINITY PREDICTED BY RF-SCORE:    0.00 PKD
ROOT
HETATM    1  C   UNL     1      -8.500   4.650  66.886  1.00  0.00    -0.105 C  
HETATM    2  C   UNL     1      -8.735   5.659  68.006  1.00  0.00    -0.099 C  
HETATM    3  C   UNL     1      -8.032   6.986  67.735  1.00  0.00    -0.114 C  
HETATM    4  C   UNL     1      -8.366   7.572  66.356  1.00  0.00    -0.126 C  
HETATM    5  C   UNL     1      -8.089   6.540  65.255  1.00  0.00    -0.133 C  
HETATM    6  C   UNL     1      -8.821   5.221  65.508  1.00  0.00    -0.153 C  
ENDROOT
BRANCH   4   7
HETATM    7  N   UNL     1      -9.773   7.980  66.290  1.00  0.00    -0.419 NA 
HETATM    8  H   UNL     1     -10.493   7.262  66.212  1.00  0.00     0.000 HD 
BRANCH   7   9
HETATM    9  C   UNL     1     -10.155   9.321  66.331  1.00  0.00    -0.267 A  
HETATM   10  C   UNL     1     -10.789   9.911  67.422  1.00  0.00    -0.293 A  
HETATM   11  C   UNL     1     -11.239  11.229  67.367  1.00  0.00    -0.370 A  
HETATM   12  C   UNL     1     -11.005  12.023  66.244  1.00  0.00    -0.299 A  
HETATM   13  C   UNL     1     -10.237  11.495  65.208  1.00  0.00    -0.315 A  
HETATM   14  C   UNL     1      -9.831  10.152  65.249  1.00  0.00    -0.388 A  
BRANCH  12  15
HETATM   15  N   UNL     1     -11.604  13.289  66.213  1.00  0.00    -0.330 NA 
HETATM   16  H   UNL     1     -12.515  13.305  65.754  1.00  0.00     0.000 HD 
BRANCH  15  17
HETATM   17  C   UNL     1     -11.187  14.537  66.693  1.00  0.00    -0.346 A  
HETATM   18  C   UNL     1     -10.549  15.424  65.819  1.00  0.00    -0.361 A  
HETATM   19  C   UNL     1     -10.199  16.711  66.231  1.00  0.00    -0.344 A  
HETATM   20  C   UNL     1     -10.489  17.124  67.528  1.00  0.00    -0.348 A  
HETATM   21  C   UNL     1     -11.098  16.241  68.419  1.00  0.00    -0.362 A  
HETATM   22  C   UNL     1     -11.429  14.947  68.008  1.00  0.00    -0.355 A  
ENDBRANCH  15  17
ENDBRANCH  12  15
ENDBRANCH   7   9
ENDBRANCH   4   7
TORSDOF 4
ENDMDL
MODEL       96
REMARK 921   NORMALIZED FREE ENERGY PREDICTED BY IDOCK:   -4.49 KCAL/MOL
REMARK 922        TOTAL FREE ENERGY PREDICTED BY IDOCK:   -6.21 KCAL/MOL
REMARK 923 INTER-LIGAND FREE ENERGY PREDICTED BY IDOCK:   -5.37 KCAL/MOL
REMARK 924 INTRA-LIGAND FREE ENERGY PREDICTED BY IDOCK:   -0.84 KCAL/MOL
REMARK 927      BINDING AFFINITY PREDICTED BY RF-SCORE:    0.00 PKD
ROOT
HETATM    1  C   UNL     1      -7.522   7.190  66.857  1.00  0.00    -0.100 C  
HETATM    2  C   UNL     1      -7.739   8.610  67.373  1.00  0.00    -0.098 C  
HETATM    3  C   UNL     1      -7.473   9.656  66.294  1.00  0.00    -0.098 C  
HETATM    4  C   UNL     1      -8.252   9.392  64.997  1.00  0.00    -0.138 C  
HETATM    5  C   UNL     1      -7.986   7.967  64.494  1.00  0.00    -0.151 C  
HETATM    6  C   UNL     1      -8.285   6.916  65.564  1.00  0.00    -0.135 C  
ENDROOT
BRANCH   4   7
HETATM    7  N   UNL     1      -9.693   9.566  65.210  1.00  0.00    -0.436 NA 
HETATM    8  H   UNL     1     -10.297   8.745  65.202  1.00  0.00     0.000 HD 
BRANCH   7   9
HETATM    9  C   UNL     1     -10.260  10.822  65.424  1.00  0.00    -0.276 A  
HETATM   10  C   UNL     1     -10.170  11.876  64.516  1.00  0.00    -0.320 A  
HETATM   11  C   UNL     1     -10.669  13.139  64.829  1.00  0.00    -0.381 A  
HETATM   12  C   UNL     1     -11.338  13.373  66.030  1.00  0.00    -0.309 A  
HETATM   13  C   UNL     1     -11.570  12.293  66.880  1.00  0.00    -0.427 A  
HETATM   14  C   UNL     1     -11.021  11.035  66.583  1.00  0.00    -0.253 A  
BRANCH  12  15
HETATM   15  N   UNL     1     -11.688  14.697  66.327  1.00  0.00    -0.354 NA 
HETATM   16  H   UNL     1     -12.592  14.981  65.950  1.00  0.00     0.000 HD 
BRANCH  15  17
HETATM   17  C   UNL     1     -11.029  15.703  67.045  1.00  0.00    -0.261 A  
HETATM   18  C   UNL     1     -10.164  16.569  66.365  1.00  0.00    -0.324 A  
HETATM   19  C   UNL     1      -9.558  17.641  67.023  1.00  0.00    -0.276 A  
HETATM   20  C   UNL     1      -9.816  17.858  68.373  1.00  0.00    -0.355 A  
HETATM   21  C   UNL     1     -10.652  16.986  69.070  1.00  0.00    -0.314 A  
HETATM   22  C   UNL     1     -11.241  15.903  68.412  1.00  0.00    -0.368 A  
ENDBRANCH  15  17
ENDBRANCH  12  15
ENDBRANCH   7   9
ENDBRANCH   4   7
TORSDOF 4
ENDMDL
MODEL       97
REMARK 921   NORMALIZED FREE ENERGY PREDICTED BY IDOCK:   -4.47 KCAL/MOL
REMARK 922        TOTAL FREE ENERGY PREDICTED BY IDOCK:   -6.19 KCAL/MOL
REMARK 923 INTER-LIGAND FREE ENERGY PREDICTED BY IDOCK:   -5.34 KCAL/MOL
REMARK 924 INTRA-LIGAND FREE ENERGY PREDICTED BY IDOCK:   -0.85 KCAL/MOL
REMARK 927      BINDING AFFINITY PREDICTED BY RF-SCORE:    0.00 PKD
ROOT
HETATM    1  C   UNL     1      -7.675   6.709  63.561  1.00  0.00    -0.110 C  
HETATM    2  C   UNL     1      -8.082   5.259  63.315  1.00  0.00    -0.104 C  
HETATM    3  C   UNL     1      -7.521   4.320  64.378  1.00  0.00    -0.071 C  
HETATM    4  C   UNL     1      -7.846   4.771  65.810  1.00  0.00    -0.095 C  
HETATM    5  C   UNL     1      -7.395   6.222  66.028  1.00  0.00    -0.080 C  
HETATM    6  C   UNL     1      -7.985   7.169  64.982  1.00  0.00    -0.129 C  
ENDROOT
BRANCH   4   7
HETATM    7  N   UNL     1      -9.284   4.669  66.075  1.00  0.00    -0.136 NA 
HETATM    8  H   UNL     1      -9.897   4.303  65.346  1.00  0.00     0.000 HD 
BRANCH   7   9
HETATM    9  C   UNL     1      -9.839   5.056  67.294  1.00  0.00    -0.179 A  
HETATM   10  C   UNL     1     -10.829   6.029  67.419  1.00  0.00    -0.394 A  
HETATM   11  C   UNL     1     -11.272   6.447  68.673  1.00  0.00    -0.338 A  
HETATM   12  C   UNL     1     -10.791   5.856  69.841  1.00  0.00    -0.369 A  
HETATM   13  C   UNL     1      -9.916   4.778  69.726  1.00  0.00    -0.308 A  
HETATM   14  C   UNL     1      -9.435   4.395  68.463  1.00  0.00    -0.217 A  
BRANCH  12  15
HETATM   15  N   UNL     1     -11.184   6.423  71.061  1.00  0.00    -0.298 NA 
HETATM   16  H   UNL     1     -10.789   5.961  71.879  1.00  0.00     0.000 HD 
BRANCH  15  17
HETATM   17  C   UNL     1     -12.018   7.507  71.366  1.00  0.00    -0.309 A  
HETATM   18  C   UNL     1     -11.464   8.790  71.447  1.00  0.00    -0.366 A  
HETATM   19  C   UNL     1     -12.272   9.908  71.659  1.00  0.00    -0.482 A  
HETATM   20  C   UNL     1     -13.648   9.752  71.788  1.00  0.00    -0.397 A  
HETATM   21  C   UNL     1     -14.210   8.477  71.739  1.00  0.00    -0.525 A  
HETATM   22  C   UNL     1     -13.396   7.357  71.546  1.00  0.00    -0.435 A  
ENDBRANCH  15  17
ENDBRANCH  12  15
ENDBRANCH   7   9
ENDBRANCH   4   7
TORSDOF 4
ENDMDL
MODEL       98
REMARK 921   NORMALIZED FREE ENERGY PREDICTED BY IDOCK:   -4.45 KCAL/MOL
REMARK 922        TOTAL FREE ENERGY PREDICTED BY IDOCK:   -6.16 KCAL/MOL
REMARK 923 INTER-LIGAND FREE ENERGY PREDICTED BY IDOCK:   -5.52 KCAL/MOL
REMARK 924 INTRA-LIGAND FREE ENERGY PREDICTED BY IDOCK:   -0.64 KCAL/MOL
REMARK 927      BINDING AFFINITY PREDICTED BY RF-SCORE:    0.00 PKD
ROOT
HETATM    1  C   UNL     1      -8.167  19.561  66.107  1.00  0.00    -0.336 C  
HETATM    2  C   UNL     1      -7.674  18.156  66.444  1.00  0.00    -0.295 C  
HETATM    3  C   UNL     1      -8.125  17.711  67.832  1.00  0.00    -0.233 C  
HETATM    4  C   UNL     1      -9.639  17.854  68.046  1.00  0.00    -0.290 C  
HETATM    5  C   UNL     1     -10.091  19.285  67.726  1.00  0.00    -0.488 C  
HETATM    6  C   UNL     1      -9.669  19.720  66.322  1.00  0.00    -0.532 C  
ENDROOT
BRANCH   4   7
HETATM    7  N   UNL     1     -10.377  16.914  67.195  1.00  0.00    -0.304 NA 
HETATM    8  H   UNL     1     -10.726  17.235  66.292  1.00  0.00     0.000 HD 
BRANCH   7   9
HETATM    9  C   UNL     1     -10.613  15.597  67.584  1.00  0.00    -0.294 A  
HETATM   10  C   UNL     1     -10.044  15.009  68.712  1.00  0.00    -0.231 A  
HETATM   11  C   UNL     1     -10.236  13.658  68.994  1.00  0.00    -0.006 A  
HETATM   12  C   UNL     1     -11.062  12.866  68.197  1.00  0.00    -0.253 A  
HETATM   13  C   UNL     1     -11.759  13.475  67.156  1.00  0.00    -0.419 A  
HETATM   14  C   UNL     1     -11.523  14.824  66.846  1.00  0.00    -0.354 A  
BRANCH  12  15
HETATM   15  N   UNL     1     -11.095  11.491  68.468  1.00  0.00    -0.216 NA 
HETATM   16  H   UNL     1     -11.660  11.242  69.279  1.00  0.00     0.000 HD 
BRANCH  15  17
HETATM   17  C   UNL     1     -10.497  10.395  67.832  1.00  0.00    -0.209 A  
HETATM   18  C   UNL     1     -11.001   9.111  68.074  1.00  0.00    -0.032 A  
HETATM   19  C   UNL     1     -10.494   8.003  67.392  1.00  0.00    -0.357 A  
HETATM   20  C   UNL     1      -9.478   8.171  66.457  1.00  0.00    -0.286 A  
HETATM   21  C   UNL     1      -8.947   9.440  66.229  1.00  0.00    -0.189 A  
HETATM   22  C   UNL     1      -9.443  10.544  66.927  1.00  0.00    -0.191 A  
ENDBRANCH  15  17
ENDBRANCH  12  15
ENDBRANCH   7   9
ENDBRANCH   4   7
TORSDOF 4
ENDMDL
MODEL       99
REMARK 921   NORMALIZED FREE ENERGY PREDICTED BY IDOCK:   -4.40 KCAL/MOL
REMARK 922        TOTAL FREE ENERGY PREDICTED BY IDOCK:   -6.10 KCAL/MOL
REMARK 923 INTER-LIGAND FREE ENERGY PREDICTED BY IDOCK:   -5.19 KCAL/MOL
REMARK 924 INTRA-LIGAND FREE ENERGY PREDICTED BY IDOCK:   -0.91 KCAL/MOL
REMARK 927      BINDING AFFINITY PREDICTED BY RF-SCORE:    0.00 PKD
ROOT
HETATM    1  C   UNL     1     -10.313   3.915  64.346  1.00  0.00    -0.242 C  
HETATM    2  C   UNL     1     -10.605   4.586  65.685  1.00  0.00    -0.231 C  
HETATM    3  C   UNL     1      -9.366   4.650  66.573  1.00  0.00    -0.151 C  
HETATM    4  C   UNL     1      -8.154   5.278  65.870  1.00  0.00    -0.110 C  
HETATM    5  C   UNL     1      -7.874   4.558  64.543  1.00  0.00    -0.089 C  
HETATM    6  C   UNL     1      -9.107   4.524  63.639  1.00  0.00    -0.112 C  
ENDROOT
BRANCH   4   7
HETATM    7  N   UNL     1      -8.385   6.702  65.605  1.00  0.00    -0.141 NA 
HETATM    8  H   UNL     1      -8.300   7.048  64.650  1.00  0.00     0.000 HD 
BRANCH   7   9
HETATM    9  C   UNL     1      -8.719   7.596  66.622  1.00  0.00    -0.141 A  
HETATM   10  C   UNL     1      -7.877   7.901  67.690  1.00  0.00    -0.122 A  
HETATM   11  C   UNL     1      -8.305   8.724  68.731  1.00  0.00    -0.124 A  
HETATM   12  C   UNL     1      -9.563   9.326  68.702  1.00  0.00    -0.147 A  
HETATM   13  C   UNL     1     -10.355   9.154  67.569  1.00  0.00    -0.324 A  
HETATM   14  C   UNL     1      -9.939   8.284  66.548  1.00  0.00    -0.320 A  
BRANCH  12  15
HETATM   15  N   UNL     1      -9.968  10.027  69.846  1.00  0.00    -0.286 NA 
HETATM   16  H   UNL     1      -9.371  10.820  70.080  1.00  0.00     0.000 HD 
BRANCH  15  17
HETATM   17  C   UNL     1     -11.042   9.844  70.727  1.00  0.00    -0.347 A  
HETATM   18  C   UNL     1     -12.008  10.850  70.842  1.00  0.00    -0.416 A  
HETATM   19  C   UNL     1     -13.140  10.670  71.639  1.00  0.00    -0.555 A  
HETATM   20  C   UNL     1     -13.317   9.475  72.328  1.00  0.00    -0.526 A  
HETATM   21  C   UNL     1     -12.348   8.476  72.247  1.00  0.00    -0.450 A  
HETATM   22  C   UNL     1     -11.207   8.667  71.464  1.00  0.00    -0.360 A  
ENDBRANCH  15  17
ENDBRANCH  12  15
ENDBRANCH   7   9
ENDBRANCH   4   7
TORSDOF 4
ENDMDL
MODEL      100
REMARK 921   NORMALIZED FREE ENERGY PREDICTED BY IDOCK:   -4.39 KCAL/MOL
REMARK 922        TOTAL FREE ENERGY PREDICTED BY IDOCK:   -6.08 KCAL/MOL
REMARK 923 INTER-LIGAND FREE ENERGY PREDICTED BY IDOCK:   -5.43 KCAL/MOL
REMARK 924 INTRA-LIGAND FREE ENERGY PREDICTED BY IDOCK:   -0.66 KCAL/MOL
REMARK 927      BINDING AFFINITY PREDICTED BY RF-SCORE:    0.00 PKD
ROOT
HETATM    1  C   UNL     1      -9.730   5.135  74.196  1.00  0.00    -0.165 C  
HETATM    2  C   UNL     1     -10.829   4.452  73.386  1.00  0.00    -0.347 C  
HETATM    3  C   UNL     1     -11.706   5.460  72.650  1.00  0.00    -0.214 C  
HETATM    4  C   UNL     1     -10.897   6.451  71.799  1.00  0.00    -0.241 C  
HETATM    5  C   UNL     1      -9.824   7.138  72.654  1.00  0.00    -0.197 C  
HETATM    6  C   UNL     1      -8.923   6.127  73.365  1.00  0.00    -0.125 C  
ENDROOT
BRANCH   4   7
HETATM    7  N   UNL     1     -10.252   5.765  70.675  1.00  0.00    -0.205 NA 
HETATM    8  H   UNL     1      -9.934   4.804  70.798  1.00  0.00     0.000 HD 
BRANCH   7   9
HETATM    9  C   UNL     1     -10.061   6.389  69.443  1.00  0.00    -0.173 A  
HETATM   10  C   UNL     1      -8.967   7.202  69.149  1.00  0.00    -0.138 A  
HETATM   11  C   UNL     1      -8.882   7.881  67.934  1.00  0.00    -0.123 A  
HETATM   12  C   UNL     1      -9.851   7.714  66.945  1.00  0.00    -0.234 A  
HETATM   13  C   UNL     1     -10.868   6.787  67.165  1.00  0.00    -0.462 A  
HETATM   14  C   UNL     1     -10.976   6.144  68.409  1.00  0.00    -0.391 A  
BRANCH  12  15
HETATM   15  N   UNL     1      -9.764   8.533  65.812  1.00  0.00    -0.448 NA 
HETATM   16  H   UNL     1      -9.407   8.057  64.983  1.00  0.00     0.000 HD 
BRANCH  15  17
HETATM   17  C   UNL     1     -10.076   9.882  65.603  1.00  0.00    -0.237 A  
HETATM   18  C   UNL     1     -10.032  10.398  64.302  1.00  0.00    -0.368 A  
HETATM   19  C   UNL     1     -10.423  11.712  64.038  1.00  0.00    -0.418 A  
HETATM   20  C   UNL     1     -10.865  12.524  65.077  1.00  0.00    -0.324 A  
HETATM   21  C   UNL     1     -10.885  12.033  66.382  1.00  0.00    -0.314 A  
HETATM   22  C   UNL     1     -10.475  10.724  66.646  1.00  0.00    -0.302 A  
ENDBRANCH  15  17
ENDBRANCH  12  15
ENDBRANCH   7   9
ENDBRANCH   4   7
TORSDOF 4
ENDMDL
MODEL      101
REMARK 921   NORMALIZED FREE ENERGY PREDICTED BY IDOCK:   -4.39 KCAL/MOL
REMARK 922        TOTAL FREE ENERGY PREDICTED BY IDOCK:   -6.08 KCAL/MOL
REMARK 923 INTER-LIGAND FREE ENERGY PREDICTED BY IDOCK:   -5.48 KCAL/MOL
REMARK 924 INTRA-LIGAND FREE ENERGY PREDICTED BY IDOCK:   -0.61 KCAL/MOL
REMARK 927      BINDING AFFINITY PREDICTED BY RF-SCORE:    0.00 PKD
ROOT
HETATM    1  C   UNL     1      -8.514   5.903  65.988  1.00  0.00    -0.137 C  
HETATM    2  C   UNL     1      -9.726   6.205  66.864  1.00  0.00    -0.178 C  
HETATM    3  C   UNL     1      -9.483   7.397  67.784  1.00  0.00    -0.154 C  
HETATM    4  C   UNL     1      -8.992   8.644  67.035  1.00  0.00    -0.133 C  
HETATM    5  C   UNL     1      -7.755   8.308  66.190  1.00  0.00    -0.097 C  
HETATM    6  C   UNL     1      -8.010   7.134  65.243  1.00  0.00    -0.127 C  
ENDROOT
BRANCH   4   7
HETATM    7  N   UNL     1     -10.043   9.174  66.160  1.00  0.00    -0.318 NA 
HETATM    8  H   UNL     1     -10.348   8.619  65.361  1.00  0.00     0.000 HD 
BRANCH   7   9
HETATM    9  C   UNL     1     -10.638  10.414  66.390  1.00  0.00    -0.127 A  
HETATM   10  C   UNL     1     -10.779  11.397  65.412  1.00  0.00    -0.313 A  
HETATM   11  C   UNL     1     -11.290  12.656  65.726  1.00  0.00    -0.370 A  
HETATM   12  C   UNL     1     -11.742  12.949  67.013  1.00  0.00    -0.385 A  
HETATM   13  C   UNL     1     -11.749  11.929  67.962  1.00  0.00    -0.382 A  
HETATM   14  C   UNL     1     -11.187  10.679  67.653  1.00  0.00    -0.361 A  
BRANCH  12  15
HETATM   15  N   UNL     1     -12.113  14.274  67.280  1.00  0.00    -0.557 NA 
HETATM   16  H   UNL     1     -13.119  14.412  67.372  1.00  0.00     0.000 HD 
BRANCH  15  17
HETATM   17  C   UNL     1     -11.360  15.444  67.444  1.00  0.00    -0.243 A  
HETATM   18  C   UNL     1     -11.330  16.063  68.699  1.00  0.00    -0.383 A  
HETATM   19  C   UNL     1     -10.522  17.178  68.930  1.00  0.00    -0.346 A  
HETATM   20  C   UNL     1      -9.731  17.683  67.903  1.00  0.00    -0.295 A  
HETATM   21  C   UNL     1      -9.773  17.094  66.640  1.00  0.00    -0.285 A  
HETATM   22  C   UNL     1     -10.598  15.990  66.407  1.00  0.00    -0.284 A  
ENDBRANCH  15  17
ENDBRANCH  12  15
ENDBRANCH   7   9
ENDBRANCH   4   7
TORSDOF 4
ENDMDL
MODEL      102
REMARK 921   NORMALIZED FREE ENERGY PREDICTED BY IDOCK:   -4.38 KCAL/MOL
REMARK 922        TOTAL FREE ENERGY PREDICTED BY IDOCK:   -6.08 KCAL/MOL
REMARK 923 INTER-LIGAND FREE ENERGY PREDICTED BY IDOCK:   -5.22 KCAL/MOL
REMARK 924 INTRA-LIGAND FREE ENERGY PREDICTED BY IDOCK:   -0.86 KCAL/MOL
REMARK 927      BINDING AFFINITY PREDICTED BY RF-SCORE:    0.00 PKD
ROOT
HETATM    1  C   UNL     1      -6.732  20.675  67.708  1.00  0.00    -0.373 C  
HETATM    2  C   UNL     1      -7.074  19.537  68.665  1.00  0.00    -0.373 C  
HETATM    3  C   UNL     1      -8.552  19.165  68.603  1.00  0.00    -0.396 C  
HETATM    4  C   UNL     1      -9.041  18.880  67.176  1.00  0.00    -0.287 C  
HETATM    5  C   UNL     1      -8.705  20.058  66.251  1.00  0.00    -0.346 C  
HETATM    6  C   UNL     1      -7.217  20.410  66.287  1.00  0.00    -0.267 C  
ENDROOT
BRANCH   4   7
HETATM    7  N   UNL     1      -8.421  17.661  66.646  1.00  0.00    -0.247 NA 
HETATM    8  H   UNL     1      -7.816  17.728  65.828  1.00  0.00     0.000 HD 
BRANCH   7   9
HETATM    9  C   UNL     1      -8.633  16.413  67.230  1.00  0.00    -0.181 A  
HETATM   10  C   UNL     1      -7.642  15.688  67.890  1.00  0.00    -0.143 A  
HETATM   11  C   UNL     1      -7.888  14.401  68.365  1.00  0.00    -0.138 A  
HETATM   12  C   UNL     1      -9.152  13.823  68.258  1.00  0.00    -0.195 A  
HETATM   13  C   UNL     1     -10.191  14.593  67.740  1.00  0.00    -0.229 A  
HETATM   14  C   UNL     1      -9.927  15.869  67.218  1.00  0.00    -0.240 A  
BRANCH  12  15
HETATM   15  N   UNL     1      -9.282  12.479  68.636  1.00  0.00    -0.397 NA 
HETATM   16  H   UNL     1      -9.285  12.331  69.645  1.00  0.00     0.000 HD 
BRANCH  15  17
HETATM   17  C   UNL     1      -9.407  11.302  67.887  1.00  0.00    -0.161 A  
HETATM   18  C   UNL     1     -10.312  10.321  68.309  1.00  0.00    -0.209 A  
HETATM   19  C   UNL     1     -10.535   9.174  67.544  1.00  0.00    -0.335 A  
HETATM   20  C   UNL     1      -9.854   9.001  66.343  1.00  0.00    -0.356 A  
HETATM   21  C   UNL     1      -8.928   9.957  65.925  1.00  0.00    -0.183 A  
HETATM   22  C   UNL     1      -8.693  11.094  66.703  1.00  0.00    -0.166 A  
ENDBRANCH  15  17
ENDBRANCH  12  15
ENDBRANCH   7   9
ENDBRANCH   4   7
TORSDOF 4
ENDMDL
MODEL      103
REMARK 921   NORMALIZED FREE ENERGY PREDICTED BY IDOCK:   -4.36 KCAL/MOL
REMARK 922        TOTAL FREE ENERGY PREDICTED BY IDOCK:   -6.06 KCAL/MOL
REMARK 923 INTER-LIGAND FREE ENERGY PREDICTED BY IDOCK:   -5.45 KCAL/MOL
REMARK 924 INTRA-LIGAND FREE ENERGY PREDICTED BY IDOCK:   -0.61 KCAL/MOL
REMARK 927      BINDING AFFINITY PREDICTED BY RF-SCORE:    0.00 PKD
ROOT
HETATM    1  C   UNL     1     -11.231  13.072  68.373  1.00  0.00    -0.304 C  
HETATM    2  C   UNL     1     -11.669  12.854  69.818  1.00  0.00    -0.351 C  
HETATM    3  C   UNL     1     -12.391  11.523  70.001  1.00  0.00    -0.287 C  
HETATM    4  C   UNL     1     -11.595  10.328  69.456  1.00  0.00    -0.168 C  
HETATM    5  C   UNL     1     -11.199  10.571  67.994  1.00  0.00    -0.361 C  
HETATM    6  C   UNL     1     -10.445  11.889  67.816  1.00  0.00    -0.224 C  
ENDROOT
BRANCH   4   7
HETATM    7  N   UNL     1     -10.384  10.102  70.252  1.00  0.00    -0.407 NA 
HETATM    8  H   UNL     1      -9.544  10.638  70.037  1.00  0.00     0.000 HD 
BRANCH   7   9
HETATM    9  C   UNL     1     -10.349   9.177  71.295  1.00  0.00    -0.334 A  
HETATM   10  C   UNL     1      -9.173   8.741  71.903  1.00  0.00    -0.320 A  
HETATM   11  C   UNL     1      -9.193   7.739  72.871  1.00  0.00    -0.266 A  
HETATM   12  C   UNL     1     -10.395   7.190  73.315  1.00  0.00    -0.327 A  
HETATM   13  C   UNL     1     -11.587   7.723  72.829  1.00  0.00    -0.368 A  
HETATM   14  C   UNL     1     -11.559   8.697  71.817  1.00  0.00    -0.403 A  
BRANCH  12  15
HETATM   15  N   UNL     1     -10.322   6.096  74.189  1.00  0.00    -0.300 NA 
HETATM   16  H   UNL     1     -10.464   6.339  75.169  1.00  0.00     0.000 HD 
BRANCH  15  17
HETATM   17  C   UNL     1     -10.090   4.733  73.967  1.00  0.00    -0.191 A  
HETATM   18  C   UNL     1     -11.184   3.874  73.804  1.00  0.00    -0.244 A  
HETATM   19  C   UNL     1     -10.998   2.526  73.491  1.00  0.00    -0.303 A  
HETATM   20  C   UNL     1      -9.710   2.024  73.335  1.00  0.00    -0.123 A  
HETATM   21  C   UNL     1      -8.610   2.861  73.524  1.00  0.00    -0.073 A  
HETATM   22  C   UNL     1      -8.800   4.206  73.856  1.00  0.00    -0.092 A  
ENDBRANCH  15  17
ENDBRANCH  12  15
ENDBRANCH   7   9
ENDBRANCH   4   7
TORSDOF 4
ENDMDL
MODEL      104
REMARK 921   NORMALIZED FREE ENERGY PREDICTED BY IDOCK:   -4.36 KCAL/MOL
REMARK 922        TOTAL FREE ENERGY PREDICTED BY IDOCK:   -6.05 KCAL/MOL
REMARK 923 INTER-LIGAND FREE ENERGY PREDICTED BY IDOCK:   -5.81 KCAL/MOL
REMARK 924 INTRA-LIGAND FREE ENERGY PREDICTED BY IDOCK:   -0.24 KCAL/MOL
REMARK 927      BINDING AFFINITY PREDICTED BY RF-SCORE:    0.00 PKD
ROOT
HETATM    1  C   UNL     1      -9.549  19.502  68.130  1.00  0.00    -0.457 C  
HETATM    2  C   UNL     1     -10.789  19.378  67.249  1.00  0.00    -0.561 C  
HETATM    3  C   UNL     1     -10.514  18.564  65.988  1.00  0.00    -0.433 C  
HETATM    4  C   UNL     1      -9.882  17.196  66.283  1.00  0.00    -0.291 C  
HETATM    5  C   UNL     1      -8.623  17.363  67.145  1.00  0.00    -0.233 C  
HETATM    6  C   UNL     1      -8.906  18.151  68.425  1.00  0.00    -0.305 C  
ENDROOT
BRANCH   4   7
HETATM    7  N   UNL     1     -10.831  16.323  66.981  1.00  0.00    -0.236 NA 
HETATM    8  H   UNL     1     -11.723  16.708  67.290  1.00  0.00     0.000 HD 
BRANCH   7   9
HETATM    9  C   UNL     1     -10.548  14.981  67.236  1.00  0.00    -0.279 A  
HETATM   10  C   UNL     1     -10.081  14.092  66.269  1.00  0.00    -0.308 A  
HETATM   11  C   UNL     1      -9.913  12.739  66.558  1.00  0.00    -0.256 A  
HETATM   12  C   UNL     1     -10.140  12.242  67.841  1.00  0.00    -0.200 A  
HETATM   13  C   UNL     1     -10.459  13.144  68.854  1.00  0.00    -0.117 A  
HETATM   14  C   UNL     1     -10.675  14.498  68.546  1.00  0.00    -0.253 A  
BRANCH  12  15
HETATM   15  N   UNL     1     -10.081  10.853  68.015  1.00  0.00    -0.173 NA 
HETATM   16  H   UNL     1      -9.619  10.359  67.252  1.00  0.00     0.000 HD 
BRANCH  15  17
HETATM   17  C   UNL     1     -10.538  10.016  69.041  1.00  0.00    -0.214 A  
HETATM   18  C   UNL     1     -11.119  10.589  70.179  1.00  0.00    -0.369 A  
HETATM   19  C   UNL     1     -11.669   9.790  71.183  1.00  0.00    -0.465 A  
HETATM   20  C   UNL     1     -11.646   8.405  71.055  1.00  0.00    -0.307 A  
HETATM   21  C   UNL     1     -11.044   7.820  69.941  1.00  0.00    -0.142 A  
HETATM   22  C   UNL     1     -10.476   8.622  68.947  1.00  0.00    -0.211 A  
ENDBRANCH  15  17
ENDBRANCH  12  15
ENDBRANCH   7   9
ENDBRANCH   4   7
TORSDOF 4
ENDMDL
MODEL      105
REMARK 921   NORMALIZED FREE ENERGY PREDICTED BY IDOCK:   -4.35 KCAL/MOL
REMARK 922        TOTAL FREE ENERGY PREDICTED BY IDOCK:   -6.04 KCAL/MOL
REMARK 923 INTER-LIGAND FREE ENERGY PREDICTED BY IDOCK:   -5.36 KCAL/MOL
REMARK 924 INTRA-LIGAND FREE ENERGY PREDICTED BY IDOCK:   -0.67 KCAL/MOL
REMARK 927      BINDING AFFINITY PREDICTED BY RF-SCORE:    0.00 PKD
ROOT
HETATM    1  C   UNL     1     -11.213  15.160  67.917  1.00  0.00    -0.334 C  
HETATM    2  C   UNL     1     -11.147  14.718  69.376  1.00  0.00    -0.302 C  
HETATM    3  C   UNL     1     -12.030  13.504  69.646  1.00  0.00    -0.397 C  
HETATM    4  C   UNL     1     -11.760  12.339  68.681  1.00  0.00    -0.328 C  
HETATM    5  C   UNL     1     -11.865  12.815  67.226  1.00  0.00    -0.414 C  
HETATM    6  C   UNL     1     -10.954  14.012  66.947  1.00  0.00    -0.301 C  
ENDROOT
BRANCH   4   7
HETATM    7  N   UNL     1     -10.426  11.774  68.908  1.00  0.00    -0.329 NA 
HETATM    8  H   UNL     1      -9.625  12.403  68.968  1.00  0.00     0.000 HD 
BRANCH   7   9
HETATM    9  C   UNL     1     -10.220  10.401  69.044  1.00  0.00    -0.217 A  
HETATM   10  C   UNL     1     -10.782   9.448  68.197  1.00  0.00    -0.230 A  
HETATM   11  C   UNL     1     -10.624   8.085  68.443  1.00  0.00    -0.150 A  
HETATM   12  C   UNL     1      -9.840   7.630  69.503  1.00  0.00    -0.178 A  
HETATM   13  C   UNL     1      -9.148   8.569  70.265  1.00  0.00    -0.158 A  
HETATM   14  C   UNL     1      -9.351   9.941  70.044  1.00  0.00    -0.232 A  
BRANCH  12  15
HETATM   15  N   UNL     1      -9.842   6.254  69.763  1.00  0.00    -0.163 NA 
HETATM   16  H   UNL     1      -9.639   5.677  68.947  1.00  0.00     0.000 HD 
BRANCH  15  17
HETATM   17  C   UNL     1     -10.070   5.521  70.935  1.00  0.00    -0.213 A  
HETATM   18  C   UNL     1     -11.060   5.952  71.826  1.00  0.00    -0.324 A  
HETATM   19  C   UNL     1     -11.382   5.203  72.959  1.00  0.00    -0.381 A  
HETATM   20  C   UNL     1     -10.715   4.008  73.210  1.00  0.00    -0.286 A  
HETATM   21  C   UNL     1      -9.707   3.581  72.347  1.00  0.00    -0.217 A  
HETATM   22  C   UNL     1      -9.373   4.344  71.224  1.00  0.00    -0.210 A  
ENDBRANCH  15  17
ENDBRANCH  12  15
ENDBRANCH   7   9
ENDBRANCH   4   7
TORSDOF 4
ENDMDL
MODEL      106
REMARK 921   NORMALIZED FREE ENERGY PREDICTED BY IDOCK:   -4.34 KCAL/MOL
REMARK 922        TOTAL FREE ENERGY PREDICTED BY IDOCK:   -6.03 KCAL/MOL
REMARK 923 INTER-LIGAND FREE ENERGY PREDICTED BY IDOCK:   -5.29 KCAL/MOL
REMARK 924 INTRA-LIGAND FREE ENERGY PREDICTED BY IDOCK:   -0.74 KCAL/MOL
REMARK 927      BINDING AFFINITY PREDICTED BY RF-SCORE:    0.00 PKD
ROOT
HETATM    1  C   UNL     1      -9.961  17.828  68.485  1.00  0.00    -0.370 C  
HETATM    2  C   UNL     1      -8.614  17.444  67.880  1.00  0.00    -0.232 C  
HETATM    3  C   UNL     1      -7.892  16.393  68.717  1.00  0.00    -0.220 C  
HETATM    4  C   UNL     1      -8.759  15.160  69.012  1.00  0.00    -0.215 C  
HETATM    5  C   UNL     1     -10.091  15.584  69.646  1.00  0.00    -0.297 C  
HETATM    6  C   UNL     1     -10.832  16.613  68.790  1.00  0.00    -0.331 C  
ENDROOT
BRANCH   4   7
HETATM    7  N   UNL     1      -9.028  14.406  67.783  1.00  0.00    -0.185 NA 
HETATM    8  H   UNL     1      -8.794  14.826  66.884  1.00  0.00     0.000 HD 
BRANCH   7   9
HETATM    9  C   UNL     1      -9.595  13.133  67.809  1.00  0.00    -0.208 A  
HETATM   10  C   UNL     1      -9.096  12.079  68.572  1.00  0.00    -0.107 A  
HETATM   11  C   UNL     1      -9.643  10.801  68.479  1.00  0.00    -0.183 A  
HETATM   12  C   UNL     1     -10.754  10.549  67.674  1.00  0.00    -0.275 A  
HETATM   13  C   UNL     1     -11.358  11.624  67.025  1.00  0.00    -0.373 A  
HETATM   14  C   UNL     1     -10.772  12.899  67.083  1.00  0.00    -0.268 A  
BRANCH  12  15
HETATM   15  N   UNL     1     -11.159   9.216  67.531  1.00  0.00    -0.399 NA 
HETATM   16  H   UNL     1     -12.128   9.045  67.799  1.00  0.00     0.000 HD 
BRANCH  15  17
HETATM   17  C   UNL     1     -10.481   8.072  67.088  1.00  0.00    -0.338 A  
HETATM   18  C   UNL     1     -11.006   6.810  67.392  1.00  0.00    -0.407 A  
HETATM   19  C   UNL     1     -10.413   5.648  66.895  1.00  0.00    -0.349 A  
HETATM   20  C   UNL     1      -9.288   5.739  66.082  1.00  0.00    -0.160 A  
HETATM   21  C   UNL     1      -8.738   6.988  65.795  1.00  0.00    -0.116 A  
HETATM   22  C   UNL     1      -9.322   8.148  66.311  1.00  0.00    -0.259 A  
ENDBRANCH  15  17
ENDBRANCH  12  15
ENDBRANCH   7   9
ENDBRANCH   4   7
TORSDOF 4
ENDMDL
MODEL      107
REMARK 921   NORMALIZED FREE ENERGY PREDICTED BY IDOCK:   -4.28 KCAL/MOL
REMARK 922        TOTAL FREE ENERGY PREDICTED BY IDOCK:   -5.95 KCAL/MOL
REMARK 923 INTER-LIGAND FREE ENERGY PREDICTED BY IDOCK:   -5.38 KCAL/MOL
REMARK 924 INTRA-LIGAND FREE ENERGY PREDICTED BY IDOCK:   -0.58 KCAL/MOL
REMARK 927      BINDING AFFINITY PREDICTED BY RF-SCORE:    0.00 PKD
ROOT
HETATM    1  C   UNL     1      -9.612   4.065  68.137  1.00  0.00    -0.189 C  
HETATM    2  C   UNL     1      -9.554   4.761  66.781  1.00  0.00    -0.184 C  
HETATM    3  C   UNL     1     -10.682   5.773  66.610  1.00  0.00    -0.333 C  
HETATM    4  C   UNL     1     -10.767   6.780  67.767  1.00  0.00    -0.268 C  
HETATM    5  C   UNL     1     -10.853   6.043  69.111  1.00  0.00    -0.422 C  
HETATM    6  C   UNL     1      -9.703   5.053  69.297  1.00  0.00    -0.249 C  
ENDROOT
BRANCH   4   7
HETATM    7  N   UNL     1      -9.595   7.662  67.776  1.00  0.00    -0.142 NA 
HETATM    8  H   UNL     1      -8.700   7.293  68.098  1.00  0.00     0.000 HD 
BRANCH   7   9
HETATM    9  C   UNL     1      -9.669   8.990  67.359  1.00  0.00    -0.168 A  
HETATM   10  C   UNL     1     -10.026   9.376  66.068  1.00  0.00    -0.352 A  
HETATM   11  C   UNL     1      -9.984  10.714  65.680  1.00  0.00    -0.327 A  
HETATM   12  C   UNL     1      -9.652  11.718  66.589  1.00  0.00    -0.205 A  
HETATM   13  C   UNL     1      -9.443  11.363  67.921  1.00  0.00    -0.174 A  
HETATM   14  C   UNL     1      -9.438  10.010  68.294  1.00  0.00    -0.147 A  
BRANCH  12  15
HETATM   15  N   UNL     1      -9.500  13.018  66.089  1.00  0.00    -0.430 NA 
HETATM   16  H   UNL     1      -9.041  13.062  65.180  1.00  0.00     0.000 HD 
BRANCH  15  17
HETATM   17  C   UNL     1      -9.861  14.270  66.604  1.00  0.00    -0.281 A  
HETATM   18  C   UNL     1      -9.152  15.405  66.194  1.00  0.00    -0.339 A  
HETATM   19  C   UNL     1      -9.536  16.681  66.612  1.00  0.00    -0.280 A  
HETATM   20  C   UNL     1     -10.640  16.832  67.445  1.00  0.00    -0.291 A  
HETATM   21  C   UNL     1     -11.338  15.708  67.885  1.00  0.00    -0.302 A  
HETATM   22  C   UNL     1     -10.939  14.431  67.481  1.00  0.00    -0.299 A  
ENDBRANCH  15  17
ENDBRANCH  12  15
ENDBRANCH   7   9
ENDBRANCH   4   7
TORSDOF 4
ENDMDL
MODEL      108
REMARK 921   NORMALIZED FREE ENERGY PREDICTED BY IDOCK:   -4.28 KCAL/MOL
REMARK 922        TOTAL FREE ENERGY PREDICTED BY IDOCK:   -5.95 KCAL/MOL
REMARK 923 INTER-LIGAND FREE ENERGY PREDICTED BY IDOCK:   -5.37 KCAL/MOL
REMARK 924 INTRA-LIGAND FREE ENERGY PREDICTED BY IDOCK:   -0.58 KCAL/MOL
REMARK 927      BINDING AFFINITY PREDICTED BY RF-SCORE:    0.00 PKD
ROOT
HETATM    1  C   UNL     1     -11.031  16.333  68.135  1.00  0.00    -0.343 C  
HETATM    2  C   UNL     1     -11.097  15.777  69.555  1.00  0.00    -0.306 C  
HETATM    3  C   UNL     1     -12.150  14.681  69.690  1.00  0.00    -0.355 C  
HETATM    4  C   UNL     1     -11.994  13.567  68.645  1.00  0.00    -0.343 C  
HETATM    5  C   UNL     1     -11.962  14.161  67.231  1.00  0.00    -0.449 C  
HETATM    6  C   UNL     1     -10.884  15.236  67.085  1.00  0.00    -0.322 C  
ENDROOT
BRANCH   4   7
HETATM    7  N   UNL     1     -10.763  12.804  68.876  1.00  0.00    -0.377 NA 
HETATM    8  H   UNL     1      -9.915  13.304  69.143  1.00  0.00     0.000 HD 
BRANCH   7   9
HETATM    9  C   UNL     1     -10.718  11.418  68.740  1.00  0.00    -0.203 A  
HETATM   10  C   UNL     1     -10.754  10.533  69.817  1.00  0.00    -0.314 A  
HETATM   11  C   UNL     1     -10.604   9.161  69.626  1.00  0.00    -0.237 A  
HETATM   12  C   UNL     1     -10.483   8.620  68.346  1.00  0.00    -0.176 A  
HETATM   13  C   UNL     1     -10.599   9.476  67.252  1.00  0.00    -0.317 A  
HETATM   14  C   UNL     1     -10.701  10.862  67.452  1.00  0.00    -0.305 A  
BRANCH  12  15
HETATM   15  N   UNL     1     -10.200   7.252  68.248  1.00  0.00    -0.174 NA 
HETATM   16  H   UNL     1     -10.237   6.755  69.138  1.00  0.00     0.000 HD 
BRANCH  15  17
HETATM   17  C   UNL     1      -9.876   6.437  67.155  1.00  0.00    -0.146 A  
HETATM   18  C   UNL     1      -8.666   6.650  66.483  1.00  0.00    -0.137 A  
HETATM   19  C   UNL     1      -8.263   5.804  65.448  1.00  0.00    -0.138 A  
HETATM   20  C   UNL     1      -9.068   4.731  65.078  1.00  0.00    -0.150 A  
HETATM   21  C   UNL     1     -10.289   4.525  65.719  1.00  0.00    -0.287 A  
HETATM   22  C   UNL     1     -10.699   5.385  66.741  1.00  0.00    -0.289 A  
ENDBRANCH  15  17
ENDBRANCH  12  15
ENDBRANCH   7   9
ENDBRANCH   4   7
TORSDOF 4
ENDMDL
MODEL      109
REMARK 921   NORMALIZED FREE ENERGY PREDICTED BY IDOCK:   -4.27 KCAL/MOL
REMARK 922        TOTAL FREE ENERGY PREDICTED BY IDOCK:   -5.94 KCAL/MOL
REMARK 923 INTER-LIGAND FREE ENERGY PREDICTED BY IDOCK:   -5.31 KCAL/MOL
REMARK 924 INTRA-LIGAND FREE ENERGY PREDICTED BY IDOCK:   -0.62 KCAL/MOL
REMARK 927      BINDING AFFINITY PREDICTED BY RF-SCORE:    0.00 PKD
ROOT
HETATM    1  C   UNL     1     -10.133   4.804  69.580  1.00  0.00    -0.275 C  
HETATM    2  C   UNL     1     -10.350   6.110  70.339  1.00  0.00    -0.269 C  
HETATM    3  C   UNL     1      -9.337   7.178  69.937  1.00  0.00    -0.150 C  
HETATM    4  C   UNL     1      -9.270   7.401  68.419  1.00  0.00    -0.138 C  
HETATM    5  C   UNL     1      -9.021   6.072  67.694  1.00  0.00    -0.111 C  
HETATM    6  C   UNL     1     -10.057   5.011  68.071  1.00  0.00    -0.169 C  
ENDROOT
BRANCH   4   7
HETATM    7  N   UNL     1     -10.516   7.994  67.924  1.00  0.00    -0.326 NA 
HETATM    8  H   UNL     1     -11.404   7.554  68.166  1.00  0.00     0.000 HD 
BRANCH   7   9
HETATM    9  C   UNL     1     -10.523   9.142  67.132  1.00  0.00    -0.255 A  
HETATM   10  C   UNL     1     -11.097  10.349  67.525  1.00  0.00    -0.336 A  
HETATM   11  C   UNL     1     -11.164  11.433  66.651  1.00  0.00    -0.298 A  
HETATM   12  C   UNL     1     -10.594  11.368  65.379  1.00  0.00    -0.275 A  
HETATM   13  C   UNL     1      -9.883  10.223  65.029  1.00  0.00    -0.397 A  
HETATM   14  C   UNL     1      -9.863   9.117  65.895  1.00  0.00    -0.305 A  
BRANCH  12  15
HETATM   15  N   UNL     1     -10.821  12.448  64.515  1.00  0.00    -0.302 NA 
HETATM   16  H   UNL     1     -10.925  12.181  63.537  1.00  0.00     0.000 HD 
BRANCH  15  17
HETATM   17  C   UNL     1     -10.932  13.825  64.744  1.00  0.00    -0.392 A  
HETATM   18  C   UNL     1      -9.916  14.482  65.448  1.00  0.00    -0.352 A  
HETATM   19  C   UNL     1      -9.941  15.868  65.619  1.00  0.00    -0.368 A  
HETATM   20  C   UNL     1     -10.987  16.611  65.081  1.00  0.00    -0.160 A  
HETATM   21  C   UNL     1     -12.022  15.967  64.404  1.00  0.00    -0.018 A  
HETATM   22  C   UNL     1     -12.003  14.577  64.251  1.00  0.00    -0.419 A  
ENDBRANCH  15  17
ENDBRANCH  12  15
ENDBRANCH   7   9
ENDBRANCH   4   7
TORSDOF 4
ENDMDL
MODEL      110
REMARK 921   NORMALIZED FREE ENERGY PREDICTED BY IDOCK:   -4.26 KCAL/MOL
REMARK 922        TOTAL FREE ENERGY PREDICTED BY IDOCK:   -5.93 KCAL/MOL
REMARK 923 INTER-LIGAND FREE ENERGY PREDICTED BY IDOCK:   -5.21 KCAL/MOL
REMARK 924 INTRA-LIGAND FREE ENERGY PREDICTED BY IDOCK:   -0.73 KCAL/MOL
REMARK 927      BINDING AFFINITY PREDICTED BY RF-SCORE:    0.00 PKD
ROOT
HETATM    1  C   UNL     1     -11.763  16.074  71.733  1.00  0.00    -0.593 C  
HETATM    2  C   UNL     1     -12.107  14.639  72.120  1.00  0.00    -0.319 C  
HETATM    3  C   UNL     1     -12.973  13.955  71.066  1.00  0.00    -0.357 C  
HETATM    4  C   UNL     1     -12.379  14.041  69.652  1.00  0.00    -0.260 C  
HETATM    5  C   UNL     1     -12.075  15.501  69.288  1.00  0.00    -0.284 C  
HETATM    6  C   UNL     1     -11.178  16.176  70.328  1.00  0.00    -0.389 C  
ENDROOT
BRANCH   4   7
HETATM    7  N   UNL     1     -11.146  13.254  69.557  1.00  0.00    -0.464 NA 
HETATM    8  H   UNL     1     -10.625  13.045  70.409  1.00  0.00     0.000 HD 
BRANCH   7   9
HETATM    9  C   UNL     1     -10.665  12.782  68.336  1.00  0.00    -0.250 A  
HETATM   10  C   UNL     1     -11.482  12.288  67.321  1.00  0.00    -0.426 A  
HETATM   11  C   UNL     1     -10.938  11.736  66.163  1.00  0.00    -0.355 A  
HETATM   12  C   UNL     1      -9.559  11.724  65.950  1.00  0.00    -0.230 A  
HETATM   13  C   UNL     1      -8.739  12.353  66.885  1.00  0.00    -0.191 A  
HETATM   14  C   UNL     1      -9.289  12.862  68.072  1.00  0.00    -0.213 A  
BRANCH  12  15
HETATM   15  N   UNL     1      -9.086  11.032  64.828  1.00  0.00    -0.313 NA 
HETATM   16  H   UNL     1      -9.556  11.281  63.958  1.00  0.00     0.000 HD 
BRANCH  15  17
HETATM   17  C   UNL     1      -8.087  10.062  64.676  1.00  0.00    -0.155 A  
HETATM   18  C   UNL     1      -8.459   8.723  64.502  1.00  0.00    -0.158 A  
HETATM   19  C   UNL     1      -7.501   7.738  64.257  1.00  0.00    -0.100 A  
HETATM   20  C   UNL     1      -6.156   8.086  64.181  1.00  0.00    -0.057 A  
HETATM   21  C   UNL     1      -5.768   9.410  64.382  1.00  0.00    -0.070 A  
HETATM   22  C   UNL     1      -6.729  10.391  64.647  1.00  0.00    -0.022 A  
ENDBRANCH  15  17
ENDBRANCH  12  15
ENDBRANCH   7   9
ENDBRANCH   4   7
TORSDOF 4
ENDMDL
MODEL      111
REMARK 921   NORMALIZED FREE ENERGY PREDICTED BY IDOCK:   -4.22 KCAL/MOL
REMARK 922        TOTAL FREE ENERGY PREDICTED BY IDOCK:   -5.88 KCAL/MOL
REMARK 923 INTER-LIGAND FREE ENERGY PREDICTED BY IDOCK:   -5.14 KCAL/MOL
REMARK 924 INTRA-LIGAND FREE ENERGY PREDICTED BY IDOCK:   -0.74 KCAL/MOL
REMARK 927      BINDING AFFINITY PREDICTED BY RF-SCORE:    0.00 PKD
ROOT
HETATM    1  C   UNL     1      -9.036   3.142  65.476  1.00  0.00    -0.144 C  
HETATM    2  C   UNL     1      -9.721   4.442  65.066  1.00  0.00    -0.172 C  
HETATM    3  C   UNL     1     -10.654   4.964  66.155  1.00  0.00    -0.322 C  
HETATM    4  C   UNL     1      -9.970   5.083  67.525  1.00  0.00    -0.167 C  
HETATM    5  C   UNL     1      -9.318   3.750  67.915  1.00  0.00    -0.236 C  
HETATM    6  C   UNL     1      -8.358   3.244  66.838  1.00  0.00    -0.097 C  
ENDROOT
BRANCH   4   7
HETATM    7  N   UNL     1      -8.945   6.132  67.505  1.00  0.00    -0.113 NA 
HETATM    8  H   UNL     1      -7.961   5.863  67.533  1.00  0.00     0.000 HD 
BRANCH   7   9
HETATM    9  C   UNL     1      -9.276   7.485  67.449  1.00  0.00    -0.132 A  
HETATM   10  C   UNL     1     -10.307   8.061  68.189  1.00  0.00    -0.250 A  
HETATM   11  C   UNL     1     -10.658   9.398  68.016  1.00  0.00    -0.278 A  
HETATM   12  C   UNL     1      -9.943  10.224  67.148  1.00  0.00    -0.197 A  
HETATM   13  C   UNL     1      -8.815   9.703  66.517  1.00  0.00    -0.158 A  
HETATM   14  C   UNL     1      -8.497   8.342  66.658  1.00  0.00    -0.113 A  
BRANCH  12  15
HETATM   15  N   UNL     1     -10.441  11.515  66.928  1.00  0.00    -0.226 NA 
HETATM   16  H   UNL     1     -10.320  12.146  67.720  1.00  0.00     0.000 HD 
BRANCH  15  17
HETATM   17  C   UNL     1     -11.074  12.101  65.824  1.00  0.00    -0.319 A  
HETATM   18  C   UNL     1     -11.732  13.326  65.988  1.00  0.00    -0.408 A  
HETATM   19  C   UNL     1     -12.297  13.989  64.897  1.00  0.00    -0.447 A  
HETATM   20  C   UNL     1     -12.204  13.431  63.626  1.00  0.00    -0.480 A  
HETATM   21  C   UNL     1     -11.577  12.197  63.453  1.00  0.00    -0.508 A  
HETATM   22  C   UNL     1     -11.030  11.527  64.550  1.00  0.00    -0.367 A  
ENDBRANCH  15  17
ENDBRANCH  12  15
ENDBRANCH   7   9
ENDBRANCH   4   7
TORSDOF 4
ENDMDL
MODEL      112
REMARK 921   NORMALIZED FREE ENERGY PREDICTED BY IDOCK:   -4.17 KCAL/MOL
REMARK 922        TOTAL FREE ENERGY PREDICTED BY IDOCK:   -5.82 KCAL/MOL
REMARK 923 INTER-LIGAND FREE ENERGY PREDICTED BY IDOCK:   -5.30 KCAL/MOL
REMARK 924 INTRA-LIGAND FREE ENERGY PREDICTED BY IDOCK:   -0.52 KCAL/MOL
REMARK 927      BINDING AFFINITY PREDICTED BY RF-SCORE:    0.00 PKD
ROOT
HETATM    1  C   UNL     1      -5.360  18.640  69.369  1.00  0.00    -0.203 C  
HETATM    2  C   UNL     1      -6.390  19.756  69.525  1.00  0.00    -0.372 C  
HETATM    3  C   UNL     1      -6.890  20.263  68.176  1.00  0.00    -0.324 C  
HETATM    4  C   UNL     1      -7.398  19.138  67.262  1.00  0.00    -0.223 C  
HETATM    5  C   UNL     1      -6.326  18.051  67.106  1.00  0.00    -0.185 C  
HETATM    6  C   UNL     1      -5.848  17.518  68.457  1.00  0.00    -0.162 C  
ENDROOT
BRANCH   4   7
HETATM    7  N   UNL     1      -8.619  18.535  67.807  1.00  0.00    -0.267 NA 
HETATM    8  H   UNL     1      -8.870  18.719  68.778  1.00  0.00     0.000 HD 
BRANCH   7   9
HETATM    9  C   UNL     1      -9.445  17.719  67.036  1.00  0.00    -0.271 A  
HETATM   10  C   UNL     1      -9.713  16.384  67.336  1.00  0.00    -0.238 A  
HETATM   11  C   UNL     1     -10.465  15.589  66.473  1.00  0.00    -0.301 A  
HETATM   12  C   UNL     1     -11.034  16.121  65.316  1.00  0.00    -0.270 A  
HETATM   13  C   UNL     1     -10.904  17.488  65.082  1.00  0.00     0.229 A  
HETATM   14  C   UNL     1     -10.104  18.273  65.928  1.00  0.00    -0.168 A  
BRANCH  12  15
HETATM   15  N   UNL     1     -11.659  15.228  64.435  1.00  0.00    -0.664 NA 
HETATM   16  H   UNL     1     -12.346  15.664  63.821  1.00  0.00     0.000 HD 
BRANCH  15  17
HETATM   17  C   UNL     1     -11.517  13.848  64.241  1.00  0.00    -0.318 A  
HETATM   18  C   UNL     1     -12.631  13.099  63.842  1.00  0.00    -0.249 A  
HETATM   19  C   UNL     1     -12.513  11.739  63.550  1.00  0.00    -0.504 A  
HETATM   20  C   UNL     1     -11.273  11.115  63.651  1.00  0.00    -0.034 A  
HETATM   21  C   UNL     1     -10.162  11.842  64.076  1.00  0.00    -0.387 A  
HETATM   22  C   UNL     1     -10.288  13.199  64.387  1.00  0.00    -0.390 A  
ENDBRANCH  15  17
ENDBRANCH  12  15
ENDBRANCH   7   9
ENDBRANCH   4   7
TORSDOF 4
ENDMDL
MODEL      113
REMARK 921   NORMALIZED FREE ENERGY PREDICTED BY IDOCK:   -4.15 KCAL/MOL
REMARK 922        TOTAL FREE ENERGY PREDICTED BY IDOCK:   -5.80 KCAL/MOL
REMARK 923 INTER-LIGAND FREE ENERGY PREDICTED BY IDOCK:   -5.43 KCAL/MOL
REMARK 924 INTRA-LIGAND FREE ENERGY PREDICTED BY IDOCK:   -0.37 KCAL/MOL
REMARK 927      BINDING AFFINITY PREDICTED BY RF-SCORE:    0.00 PKD
ROOT
HETATM    1  C   UNL     1      -9.381   6.647  74.154  1.00  0.00    -0.232 C  
HETATM    2  C   UNL     1      -8.578   7.681  73.371  1.00  0.00    -0.238 C  
HETATM    3  C   UNL     1      -8.716   7.490  71.864  1.00  0.00    -0.132 C  
HETATM    4  C   UNL     1     -10.179   7.428  71.398  1.00  0.00    -0.187 C  
HETATM    5  C   UNL     1     -10.946   6.358  72.187  1.00  0.00    -0.288 C  
HETATM    6  C   UNL     1     -10.835   6.569  73.697  1.00  0.00    -0.151 C  
ENDROOT
BRANCH   4   7
HETATM    7  N   UNL     1     -10.838   8.726  71.580  1.00  0.00    -0.302 NA 
HETATM    8  H   UNL     1     -11.360   8.900  72.439  1.00  0.00     0.000 HD 
BRANCH   7   9
HETATM    9  C   UNL     1     -10.773   9.728  70.613  1.00  0.00    -0.326 A  
HETATM   10  C   UNL     1     -11.825  10.595  70.326  1.00  0.00    -0.430 A  
HETATM   11  C   UNL     1     -11.737  11.511  69.278  1.00  0.00    -0.397 A  
HETATM   12  C   UNL     1     -10.568  11.638  68.529  1.00  0.00    -0.215 A  
HETATM   13  C   UNL     1      -9.456  10.885  68.903  1.00  0.00    -0.182 A  
HETATM   14  C   UNL     1      -9.567   9.930  69.926  1.00  0.00    -0.265 A  
BRANCH  12  15
HETATM   15  N   UNL     1     -10.606  12.482  67.411  1.00  0.00    -0.222 NA 
HETATM   16  H   UNL     1     -10.767  11.995  66.529  1.00  0.00     0.000 HD 
BRANCH  15  17
HETATM   17  C   UNL     1     -10.465  13.869  67.277  1.00  0.00    -0.271 A  
HETATM   18  C   UNL     1      -9.654  14.375  66.255  1.00  0.00    -0.321 A  
HETATM   19  C   UNL     1      -9.558  15.750  66.030  1.00  0.00    -0.388 A  
HETATM   20  C   UNL     1     -10.279  16.633  66.827  1.00  0.00    -0.301 A  
HETATM   21  C   UNL     1     -11.068  16.144  67.868  1.00  0.00    -0.293 A  
HETATM   22  C   UNL     1     -11.146  14.769  68.103  1.00  0.00    -0.288 A  
ENDBRANCH  15  17
ENDBRANCH  12  15
ENDBRANCH   7   9
ENDBRANCH   4   7
TORSDOF 4
ENDMDL
MODEL      114
REMARK 921   NORMALIZED FREE ENERGY PREDICTED BY IDOCK:   -4.14 KCAL/MOL
REMARK 922        TOTAL FREE ENERGY PREDICTED BY IDOCK:   -5.78 KCAL/MOL
REMARK 923 INTER-LIGAND FREE ENERGY PREDICTED BY IDOCK:   -4.99 KCAL/MOL
REMARK 924 INTRA-LIGAND FREE ENERGY PREDICTED BY IDOCK:   -0.79 KCAL/MOL
REMARK 927      BINDING AFFINITY PREDICTED BY RF-SCORE:    0.00 PKD
ROOT
HETATM    1  C   UNL     1      -8.145   2.771  67.055  1.00  0.00    -0.076 C  
HETATM    2  C   UNL     1      -9.394   2.460  67.873  1.00  0.00    -0.237 C  
HETATM    3  C   UNL     1      -9.403   3.202  69.206  1.00  0.00    -0.223 C  
HETATM    4  C   UNL     1      -9.179   4.713  69.054  1.00  0.00    -0.129 C  
HETATM    5  C   UNL     1      -7.899   4.986  68.252  1.00  0.00    -0.086 C  
HETATM    6  C   UNL     1      -7.905   4.270  66.901  1.00  0.00    -0.097 C  
ENDROOT
BRANCH   4   7
HETATM    7  N   UNL     1     -10.316   5.343  68.374  1.00  0.00    -0.169 NA 
HETATM    8  H   UNL     1     -11.125   4.771  68.131  1.00  0.00     0.000 HD 
BRANCH   7   9
HETATM    9  C   UNL     1     -10.323   6.699  68.052  1.00  0.00    -0.191 A  
HETATM   10  C   UNL     1     -10.300   7.183  66.745  1.00  0.00    -0.297 A  
HETATM   11  C   UNL     1     -10.205   8.550  66.486  1.00  0.00    -0.286 A  
HETATM   12  C   UNL     1     -10.202   9.481  67.524  1.00  0.00    -0.228 A  
HETATM   13  C   UNL     1     -10.380   9.022  68.827  1.00  0.00    -0.236 A  
HETATM   14  C   UNL     1     -10.424   7.642  69.085  1.00  0.00    -0.220 A  
BRANCH  12  15
HETATM   15  N   UNL     1      -9.968  10.821  67.188  1.00  0.00    -0.188 NA 
HETATM   16  H   UNL     1      -8.987  11.095  67.233  1.00  0.00     0.000 HD 
BRANCH  15  17
HETATM   17  C   UNL     1     -10.830  11.856  66.801  1.00  0.00    -0.266 A  
HETATM   18  C   UNL     1     -11.172  12.841  67.735  1.00  0.00    -0.317 A  
HETATM   19  C   UNL     1     -11.954  13.938  67.366  1.00  0.00    -0.436 A  
HETATM   20  C   UNL     1     -12.399  14.060  66.054  1.00  0.00    -0.504 A  
HETATM   21  C   UNL     1     -12.091  13.070  65.121  1.00  0.00    -0.476 A  
HETATM   22  C   UNL     1     -11.324  11.964  65.498  1.00  0.00    -0.334 A  
ENDBRANCH  15  17
ENDBRANCH  12  15
ENDBRANCH   7   9
ENDBRANCH   4   7
TORSDOF 4
ENDMDL
MODEL      115
REMARK 921   NORMALIZED FREE ENERGY PREDICTED BY IDOCK:   -4.13 KCAL/MOL
REMARK 922        TOTAL FREE ENERGY PREDICTED BY IDOCK:   -5.77 KCAL/MOL
REMARK 923 INTER-LIGAND FREE ENERGY PREDICTED BY IDOCK:   -5.42 KCAL/MOL
REMARK 924 INTRA-LIGAND FREE ENERGY PREDICTED BY IDOCK:   -0.35 KCAL/MOL
REMARK 927      BINDING AFFINITY PREDICTED BY RF-SCORE:    0.00 PKD
ROOT
HETATM    1  C   UNL     1     -12.198  12.929  66.190  1.00  0.00    -0.385 C  
HETATM    2  C   UNL     1     -11.539  11.729  66.866  1.00  0.00    -0.310 C  
HETATM    3  C   UNL     1     -10.145  11.456  66.310  1.00  0.00    -0.263 C  
HETATM    4  C   UNL     1      -9.237  12.694  66.330  1.00  0.00    -0.110 C  
HETATM    5  C   UNL     1      -9.920  13.869  65.616  1.00  0.00    -0.298 C  
HETATM    6  C   UNL     1     -11.304  14.165  66.195  1.00  0.00    -0.337 C  
ENDROOT
BRANCH   4   7
HETATM    7  N   UNL     1      -8.920  13.087  67.707  1.00  0.00    -0.180 NA 
HETATM    8  H   UNL     1      -8.842  12.363  68.422  1.00  0.00     0.000 HD 
BRANCH   7   9
HETATM    9  C   UNL     1      -8.722  14.419  68.067  1.00  0.00    -0.170 A  
HETATM   10  C   UNL     1      -9.532  15.105  68.969  1.00  0.00    -0.221 A  
HETATM   11  C   UNL     1      -9.346  16.465  69.213  1.00  0.00    -0.175 A  
HETATM   12  C   UNL     1      -8.300  17.168  68.615  1.00  0.00    -0.257 A  
HETATM   13  C   UNL     1      -7.390  16.461  67.831  1.00  0.00    -0.146 A  
HETATM   14  C   UNL     1      -7.611  15.103  67.550  1.00  0.00    -0.216 A  
BRANCH  12  15
HETATM   15  N   UNL     1      -8.264  18.556  68.804  1.00  0.00    -0.290 NA 
HETATM   16  H   UNL     1      -9.060  18.924  69.324  1.00  0.00     0.000 HD 
BRANCH  15  17
HETATM   17  C   UNL     1      -7.339  19.532  68.413  1.00  0.00    -0.316 A  
HETATM   18  C   UNL     1      -6.335  19.917  69.310  1.00  0.00    -0.365 A  
HETATM   19  C   UNL     1      -5.339  20.818  68.929  1.00  0.00    -0.367 A  
HETATM   20  C   UNL     1      -5.338  21.342  67.640  1.00  0.00    -0.329 A  
HETATM   21  C   UNL     1      -6.349  20.991  66.746  1.00  0.00    -0.373 A  
HETATM   22  C   UNL     1      -7.355  20.103  67.137  1.00  0.00    -0.308 A  
ENDBRANCH  15  17
ENDBRANCH  12  15
ENDBRANCH   7   9
ENDBRANCH   4   7
TORSDOF 4
ENDMDL
MODEL      116
REMARK 921   NORMALIZED FREE ENERGY PREDICTED BY IDOCK:   -4.09 KCAL/MOL
REMARK 922        TOTAL FREE ENERGY PREDICTED BY IDOCK:   -5.72 KCAL/MOL
REMARK 923 INTER-LIGAND FREE ENERGY PREDICTED BY IDOCK:   -5.68 KCAL/MOL
REMARK 924 INTRA-LIGAND FREE ENERGY PREDICTED BY IDOCK:   -0.04 KCAL/MOL
REMARK 927      BINDING AFFINITY PREDICTED BY RF-SCORE:    0.00 PKD
ROOT
HETATM    1  C   UNL     1     -11.832  11.991  69.918  1.00  0.00    -0.405 C  
HETATM    2  C   UNL     1     -12.891  13.068  70.130  1.00  0.00     0.268 C  
HETATM    3  C   UNL     1     -12.285  14.468  70.149  1.00  0.00    -0.399 C  
HETATM    4  C   UNL     1     -11.408  14.760  68.922  1.00  0.00    -0.282 C  
HETATM    5  C   UNL     1     -10.338  13.672  68.759  1.00  0.00    -0.182 C  
HETATM    6  C   UNL     1     -10.949  12.270  68.706  1.00  0.00    -0.277 C  
ENDROOT
BRANCH   4   7
HETATM    7  N   UNL     1     -12.221  14.821  67.703  1.00  0.00    -0.535 NA 
HETATM    8  H   UNL     1     -13.089  15.357  67.714  1.00  0.00     0.000 HD 
BRANCH   7   9
HETATM    9  C   UNL     1     -11.842  14.169  66.531  1.00  0.00    -0.419 A  
HETATM   10  C   UNL     1     -12.498  13.050  66.021  1.00  0.00    -0.256 A  
HETATM   11  C   UNL     1     -12.012  12.380  64.900  1.00  0.00    -0.458 A  
HETATM   12  C   UNL     1     -10.894  12.847  64.209  1.00  0.00    -0.397 A  
HETATM   13  C   UNL     1     -10.320  14.050  64.616  1.00  0.00    -0.337 A  
HETATM   14  C   UNL     1     -10.783  14.693  65.775  1.00  0.00    -0.321 A  
BRANCH  12  15
HETATM   15  N   UNL     1     -10.390  12.044  63.178  1.00  0.00    -0.596 NA 
HETATM   16  H   UNL     1     -10.844  12.193  62.277  1.00  0.00     0.000 HD 
BRANCH  15  17
HETATM   17  C   UNL     1      -9.379  11.074  63.153  1.00  0.00    -0.329 A  
HETATM   18  C   UNL     1      -8.225  11.313  62.396  1.00  0.00    -0.118 A  
HETATM   19  C   UNL     1      -7.156  10.416  62.416  1.00  0.00    -0.159 A  
HETATM   20  C   UNL     1      -7.231   9.268  63.199  1.00  0.00    -0.095 A  
HETATM   21  C   UNL     1      -8.386   9.003  63.934  1.00  0.00    -0.178 A  
HETATM   22  C   UNL     1      -9.462   9.893  63.897  1.00  0.00    -0.207 A  
ENDBRANCH  15  17
ENDBRANCH  12  15
ENDBRANCH   7   9
ENDBRANCH   4   7
TORSDOF 4
ENDMDL
MODEL      117
REMARK 921   NORMALIZED FREE ENERGY PREDICTED BY IDOCK:   -4.07 KCAL/MOL
REMARK 922        TOTAL FREE ENERGY PREDICTED BY IDOCK:   -5.69 KCAL/MOL
REMARK 923 INTER-LIGAND FREE ENERGY PREDICTED BY IDOCK:   -5.76 KCAL/MOL
REMARK 924 INTRA-LIGAND FREE ENERGY PREDICTED BY IDOCK:    0.07 KCAL/MOL
REMARK 927      BINDING AFFINITY PREDICTED BY RF-SCORE:    0.00 PKD
ROOT
HETATM    1  C   UNL     1     -12.009  13.300  63.998  1.00  0.00    -0.525 C  
HETATM    2  C   UNL     1     -11.619  12.009  63.284  1.00  0.00    -0.409 C  
HETATM    3  C   UNL     1     -10.106  11.819  63.234  1.00  0.00    -0.448 C  
HETATM    4  C   UNL     1      -9.440  11.936  64.613  1.00  0.00     0.072 C  
HETATM    5  C   UNL     1      -9.832  13.258  65.287  1.00  0.00    -0.097 C  
HETATM    6  C   UNL     1     -11.349  13.432  65.367  1.00  0.00    -0.309 C  
ENDROOT
BRANCH   4   7
HETATM    7  N   UNL     1      -9.835  10.819  65.479  1.00  0.00    -0.239 NA 
HETATM    8  H   UNL     1      -9.756   9.866  65.124  1.00  0.00     0.000 HD 
BRANCH   7   9
HETATM    9  C   UNL     1     -10.316  11.023  66.771  1.00  0.00    -0.238 A  
HETATM   10  C   UNL     1     -11.658  10.897  67.126  1.00  0.00     0.152 A  
HETATM   11  C   UNL     1     -12.095  11.212  68.412  1.00  0.00    -0.069 A  
HETATM   12  C   UNL     1     -11.194  11.597  69.405  1.00  0.00    -0.246 A  
HETATM   13  C   UNL     1      -9.833  11.579  69.107  1.00  0.00     0.085 A  
HETATM   14  C   UNL     1      -9.404  11.309  67.798  1.00  0.00    -0.163 A  
BRANCH  12  15
HETATM   15  N   UNL     1     -11.726  12.026  70.628  1.00  0.00    -0.410 NA 
HETATM   16  H   UNL     1     -11.546  11.390  71.404  1.00  0.00     0.000 HD 
BRANCH  15  17
HETATM   17  C   UNL     1     -12.459  13.166  70.983  1.00  0.00    -0.318 A  
HETATM   18  C   UNL     1     -13.265  13.127  72.127  1.00  0.00    -0.561 A  
HETATM   19  C   UNL     1     -13.940  14.267  72.568  1.00  0.00    -0.519 A  
HETATM   20  C   UNL     1     -13.810  15.462  71.867  1.00  0.00    -0.619 A  
HETATM   21  C   UNL     1     -13.034  15.507  70.709  1.00  0.00    -0.490 A  
HETATM   22  C   UNL     1     -12.376  14.360  70.260  1.00  0.00    -0.410 A  
ENDBRANCH  15  17
ENDBRANCH  12  15
ENDBRANCH   7   9
ENDBRANCH   4   7
TORSDOF 4
ENDMDL
MODEL      118
REMARK 921   NORMALIZED FREE ENERGY PREDICTED BY IDOCK:   -4.04 KCAL/MOL
REMARK 922        TOTAL FREE ENERGY PREDICTED BY IDOCK:   -5.66 KCAL/MOL
REMARK 923 INTER-LIGAND FREE ENERGY PREDICTED BY IDOCK:   -5.13 KCAL/MOL
REMARK 924 INTRA-LIGAND FREE ENERGY PREDICTED BY IDOCK:   -0.54 KCAL/MOL
REMARK 927      BINDING AFFINITY PREDICTED BY RF-SCORE:    0.00 PKD
ROOT
HETATM    1  C   UNL     1     -14.299  15.470  72.296  1.00  0.00    -0.556 C  
HETATM    2  C   UNL     1     -13.926  15.539  70.818  1.00  0.00     0.146 C  
HETATM    3  C   UNL     1     -12.461  15.187  70.582  1.00  0.00    -0.442 C  
HETATM    4  C   UNL     1     -12.056  13.846  71.213  1.00  0.00    -0.167 C  
HETATM    5  C   UNL     1     -12.419  13.826  72.704  1.00  0.00     0.063 C  
HETATM    6  C   UNL     1     -13.896  14.146  72.939  1.00  0.00    -0.124 C  
ENDROOT
BRANCH   4   7
HETATM    7  N   UNL     1     -12.726  12.730  70.539  1.00  0.00    -0.079 NA 
HETATM    8  H   UNL     1     -13.596  12.906  70.036  1.00  0.00     0.000 HD 
BRANCH   7   9
HETATM    9  C   UNL     1     -12.210  11.435  70.566  1.00  0.00    -0.386 A  
HETATM   10  C   UNL     1     -11.045  11.053  69.902  1.00  0.00    -0.276 A  
HETATM   11  C   UNL     1     -10.633   9.722  69.881  1.00  0.00    -0.301 A  
HETATM   12  C   UNL     1     -11.332   8.740  70.583  1.00  0.00    -0.254 A  
HETATM   13  C   UNL     1     -12.408   9.132  71.376  1.00  0.00    -0.404 A  
HETATM   14  C   UNL     1     -12.849  10.465  71.352  1.00  0.00    -0.556 A  
BRANCH  12  15
HETATM   15  N   UNL     1     -10.932   7.409  70.401  1.00  0.00    -0.248 NA 
HETATM   16  H   UNL     1     -10.813   7.142  69.424  1.00  0.00     0.000 HD 
BRANCH  15  17
HETATM   17  C   UNL     1     -10.666   6.377  71.310  1.00  0.00    -0.241 A  
HETATM   18  C   UNL     1     -10.168   5.160  70.831  1.00  0.00    -0.299 A  
HETATM   19  C   UNL     1      -9.803   4.138  71.710  1.00  0.00    -0.252 A  
HETATM   20  C   UNL     1      -9.932   4.328  73.082  1.00  0.00    -0.191 A  
HETATM   21  C   UNL     1     -10.454   5.524  73.572  1.00  0.00    -0.283 A  
HETATM   22  C   UNL     1     -10.836   6.538  72.689  1.00  0.00    -0.278 A  
ENDBRANCH  15  17
ENDBRANCH  12  15
ENDBRANCH   7   9
ENDBRANCH   4   7
TORSDOF 4
ENDMDL
MODEL      119
REMARK 921   NORMALIZED FREE ENERGY PREDICTED BY IDOCK:   -4.04 KCAL/MOL
REMARK 922        TOTAL FREE ENERGY PREDICTED BY IDOCK:   -5.66 KCAL/MOL
REMARK 923 INTER-LIGAND FREE ENERGY PREDICTED BY IDOCK:   -4.86 KCAL/MOL
REMARK 924 INTRA-LIGAND FREE ENERGY PREDICTED BY IDOCK:   -0.80 KCAL/MOL
REMARK 927      BINDING AFFINITY PREDICTED BY RF-SCORE:    0.00 PKD
ROOT
HETATM    1  C   UNL     1     -12.603  14.025  65.620  1.00  0.00    -0.542 C  
HETATM    2  C   UNL     1     -12.051  13.408  64.339  1.00  0.00    -0.468 C  
HETATM    3  C   UNL     1     -10.533  13.261  64.384  1.00  0.00    -0.424 C  
HETATM    4  C   UNL     1     -10.038  12.522  65.636  1.00  0.00    -0.269 C  
HETATM    5  C   UNL     1     -10.589  13.190  66.903  1.00  0.00    -0.265 C  
HETATM    6  C   UNL     1     -12.114  13.306  66.873  1.00  0.00    -0.389 C  
ENDROOT
BRANCH   4   7
HETATM    7  N   UNL     1     -10.457  11.117  65.611  1.00  0.00    -0.258 NA 
HETATM    8  H   UNL     1     -11.250  10.847  65.030  1.00  0.00     0.000 HD 
BRANCH   7   9
HETATM    9  C   UNL     1      -9.801  10.139  66.359  1.00  0.00    -0.222 A  
HETATM   10  C   UNL     1      -8.423   9.934  66.326  1.00  0.00    -0.133 A  
HETATM   11  C   UNL     1      -7.837   8.875  67.017  1.00  0.00    -0.102 A  
HETATM   12  C   UNL     1      -8.599   8.029  67.821  1.00  0.00    -0.128 A  
HETATM   13  C   UNL     1      -9.953   8.315  67.986  1.00  0.00    -0.224 A  
HETATM   14  C   UNL     1     -10.547   9.352  67.248  1.00  0.00    -0.314 A  
BRANCH  12  15
HETATM   15  N   UNL     1      -7.958   6.912  68.372  1.00  0.00    -0.121 NA 
HETATM   16  H   UNL     1      -6.945   7.003  68.433  1.00  0.00     0.000 HD 
BRANCH  15  17
HETATM   17  C   UNL     1      -8.450   5.692  68.855  1.00  0.00    -0.102 A  
HETATM   18  C   UNL     1      -8.714   5.558  70.224  1.00  0.00    -0.134 A  
HETATM   19  C   UNL     1      -9.289   4.393  70.733  1.00  0.00    -0.224 A  
HETATM   20  C   UNL     1      -9.609   3.347  69.873  1.00  0.00    -0.198 A  
HETATM   21  C   UNL     1      -9.324   3.454  68.512  1.00  0.00    -0.231 A  
HETATM   22  C   UNL     1      -8.730   4.615  68.008  1.00  0.00    -0.112 A  
ENDBRANCH  15  17
ENDBRANCH  12  15
ENDBRANCH   7   9
ENDBRANCH   4   7
TORSDOF 4
ENDMDL
MODEL      120
REMARK 921   NORMALIZED FREE ENERGY PREDICTED BY IDOCK:   -4.04 KCAL/MOL
REMARK 922        TOTAL FREE ENERGY PREDICTED BY IDOCK:   -5.65 KCAL/MOL
REMARK 923 INTER-LIGAND FREE ENERGY PREDICTED BY IDOCK:   -4.96 KCAL/MOL
REMARK 924 INTRA-LIGAND FREE ENERGY PREDICTED BY IDOCK:   -0.69 KCAL/MOL
REMARK 927      BINDING AFFINITY PREDICTED BY RF-SCORE:    0.00 PKD
ROOT
HETATM    1  C   UNL     1     -13.932  14.701  71.590  1.00  0.00    -0.546 C  
HETATM    2  C   UNL     1     -13.178  15.997  71.872  1.00  0.00    -0.144 C  
HETATM    3  C   UNL     1     -11.667  15.787  71.886  1.00  0.00    -0.572 C  
HETATM    4  C   UNL     1     -11.147  15.084  70.624  1.00  0.00    -0.203 C  
HETATM    5  C   UNL     1     -11.908  13.772  70.391  1.00  0.00    -0.323 C  
HETATM    6  C   UNL     1     -13.421  13.988  70.343  1.00  0.00     0.487 C  
ENDROOT
BRANCH   4   7
HETATM    7  N   UNL     1     -11.301  15.945  69.447  1.00  0.00    -0.326 NA 
HETATM    8  H   UNL     1     -12.227  16.062  69.036  1.00  0.00     0.000 HD 
BRANCH   7   9
HETATM    9  C   UNL     1     -10.217  16.610  68.874  1.00  0.00    -0.284 A  
HETATM   10  C   UNL     1      -8.966  16.028  68.682  1.00  0.00    -0.210 A  
HETATM   11  C   UNL     1      -7.892  16.773  68.198  1.00  0.00    -0.182 A  
HETATM   12  C   UNL     1      -8.052  18.107  67.822  1.00  0.00    -0.238 A  
HETATM   13  C   UNL     1      -9.331  18.658  67.863  1.00  0.00    -0.323 A  
HETATM   14  C   UNL     1     -10.398  17.918  68.399  1.00  0.00    -0.380 A  
BRANCH  12  15
HETATM   15  N   UNL     1      -6.898  18.822  67.475  1.00  0.00    -0.201 NA 
HETATM   16  H   UNL     1      -6.302  19.058  68.268  1.00  0.00     0.000 HD 
BRANCH  15  17
HETATM   17  C   UNL     1      -6.410  19.274  66.242  1.00  0.00    -0.180 A  
HETATM   18  C   UNL     1      -5.567  18.441  65.497  1.00  0.00    -0.232 A  
HETATM   19  C   UNL     1      -5.132  18.814  64.224  1.00  0.00    -0.216 A  
HETATM   20  C   UNL     1      -5.542  20.028  63.681  1.00  0.00    -0.311 A  
HETATM   21  C   UNL     1      -6.357  20.881  64.424  1.00  0.00    -0.317 A  
HETATM   22  C   UNL     1      -6.775  20.513  65.706  1.00  0.00    -0.254 A  
ENDBRANCH  15  17
ENDBRANCH  12  15
ENDBRANCH   7   9
ENDBRANCH   4   7
TORSDOF 4
ENDMDL
MODEL      121
REMARK 921   NORMALIZED FREE ENERGY PREDICTED BY IDOCK:   -4.03 KCAL/MOL
REMARK 922        TOTAL FREE ENERGY PREDICTED BY IDOCK:   -5.65 KCAL/MOL
REMARK 923 INTER-LIGAND FREE ENERGY PREDICTED BY IDOCK:   -5.23 KCAL/MOL
REMARK 924 INTRA-LIGAND FREE ENERGY PREDICTED BY IDOCK:   -0.42 KCAL/MOL
REMARK 927      BINDING AFFINITY PREDICTED BY RF-SCORE:    0.00 PKD
ROOT
HETATM    1  C   UNL     1     -10.622  15.439  70.263  1.00  0.00    -0.299 C  
HETATM    2  C   UNL     1      -9.894  14.574  69.238  1.00  0.00    -0.021 C  
HETATM    3  C   UNL     1     -10.453  13.156  69.187  1.00  0.00     0.066 C  
HETATM    4  C   UNL     1     -11.976  13.117  68.991  1.00  0.00    -0.285 C  
HETATM    5  C   UNL     1     -12.674  13.973  70.056  1.00  0.00    -0.136 C  
HETATM    6  C   UNL     1     -12.137  15.405  70.084  1.00  0.00    -0.400 C  
ENDROOT
BRANCH   4   7
HETATM    7  N   UNL     1     -12.342  13.612  67.659  1.00  0.00    -0.350 NA 
HETATM    8  H   UNL     1     -12.889  14.469  67.584  1.00  0.00     0.000 HD 
BRANCH   7   9
HETATM    9  C   UNL     1     -11.962  12.946  66.495  1.00  0.00    -0.377 A  
HETATM   10  C   UNL     1     -11.166  11.803  66.483  1.00  0.00    -0.380 A  
HETATM   11  C   UNL     1     -10.734  11.239  65.283  1.00  0.00    -0.302 A  
HETATM   12  C   UNL     1     -11.144  11.758  64.055  1.00  0.00    -0.390 A  
HETATM   13  C   UNL     1     -12.063  12.805  64.052  1.00  0.00    -0.533 A  
HETATM   14  C   UNL     1     -12.454  13.400  65.262  1.00  0.00    -0.532 A  
BRANCH  12  15
HETATM   15  N   UNL     1     -10.560  11.220  62.900  1.00  0.00    -0.769 NA 
HETATM   16  H   UNL     1     -11.121  11.341  62.057  1.00  0.00     0.000 HD 
BRANCH  15  17
HETATM   17  C   UNL     1      -9.349  10.548  62.687  1.00  0.00    -0.312 A  
HETATM   18  C   UNL     1      -8.179  11.295  62.503  1.00  0.00    -0.055 A  
HETATM   19  C   UNL     1      -6.939  10.666  62.378  1.00  0.00    -0.134 A  
HETATM   20  C   UNL     1      -6.858   9.278  62.440  1.00  0.00    -0.090 A  
HETATM   21  C   UNL     1      -8.019   8.521  62.593  1.00  0.00    -0.152 A  
HETATM   22  C   UNL     1      -9.261   9.153  62.698  1.00  0.00     0.224 A  
ENDBRANCH  15  17
ENDBRANCH  12  15
ENDBRANCH   7   9
ENDBRANCH   4   7
TORSDOF 4
ENDMDL
MODEL      122
REMARK 921   NORMALIZED FREE ENERGY PREDICTED BY IDOCK:   -4.03 KCAL/MOL
REMARK 922        TOTAL FREE ENERGY PREDICTED BY IDOCK:   -5.65 KCAL/MOL
REMARK 923 INTER-LIGAND FREE ENERGY PREDICTED BY IDOCK:   -4.99 KCAL/MOL
REMARK 924 INTRA-LIGAND FREE ENERGY PREDICTED BY IDOCK:   -0.66 KCAL/MOL
REMARK 927      BINDING AFFINITY PREDICTED BY RF-SCORE:    0.00 PKD
ROOT
HETATM    1  C   UNL     1     -10.378   7.189  74.001  1.00  0.00    -0.243 C  
HETATM    2  C   UNL     1     -10.413   5.701  73.667  1.00  0.00    -0.289 C  
HETATM    3  C   UNL     1     -11.517   5.367  72.668  1.00  0.00    -0.305 C  
HETATM    4  C   UNL     1     -11.467   6.237  71.403  1.00  0.00    -0.293 C  
HETATM    5  C   UNL     1     -11.462   7.725  71.779  1.00  0.00    -0.307 C  
HETATM    6  C   UNL     1     -10.335   8.067  72.754  1.00  0.00    -0.408 C  
ENDROOT
BRANCH   4   7
HETATM    7  N   UNL     1     -10.269   5.937  70.611  1.00  0.00    -0.198 NA 
HETATM    8  H   UNL     1      -9.364   5.894  71.079  1.00  0.00     0.000 HD 
BRANCH   7   9
HETATM    9  C   UNL     1     -10.333   5.707  69.238  1.00  0.00    -0.270 A  
HETATM   10  C   UNL     1     -10.942   6.576  68.335  1.00  0.00    -0.358 A  
HETATM   11  C   UNL     1     -11.065   6.245  66.987  1.00  0.00    -0.379 A  
HETATM   12  C   UNL     1     -10.519   5.064  66.483  1.00  0.00    -0.276 A  
HETATM   13  C   UNL     1      -9.773   4.259  67.342  1.00  0.00    -0.210 A  
HETATM   14  C   UNL     1      -9.697   4.574  68.709  1.00  0.00    -0.213 A  
BRANCH  12  15
HETATM   15  N   UNL     1     -10.801   4.740  65.149  1.00  0.00    -0.581 NA 
HETATM   16  H   UNL     1     -11.590   5.253  64.757  1.00  0.00     0.000 HD 
BRANCH  15  17
HETATM   17  C   UNL     1     -10.202   3.844  64.255  1.00  0.00    -0.226 A  
HETATM   18  C   UNL     1      -8.883   4.071  63.845  1.00  0.00    -0.117 A  
HETATM   19  C   UNL     1      -8.218   3.155  63.028  1.00  0.00    -0.077 A  
HETATM   20  C   UNL     1      -8.870   1.998  62.613  1.00  0.00    -0.073 A  
HETATM   21  C   UNL     1     -10.194   1.774  62.988  1.00  0.00    -0.114 A  
HETATM   22  C   UNL     1     -10.863   2.703  63.791  1.00  0.00    -0.048 A  
ENDBRANCH  15  17
ENDBRANCH  12  15
ENDBRANCH   7   9
ENDBRANCH   4   7
TORSDOF 4
ENDMDL
MODEL      123
REMARK 921   NORMALIZED FREE ENERGY PREDICTED BY IDOCK:   -4.03 KCAL/MOL
REMARK 922        TOTAL FREE ENERGY PREDICTED BY IDOCK:   -5.64 KCAL/MOL
REMARK 923 INTER-LIGAND FREE ENERGY PREDICTED BY IDOCK:   -4.91 KCAL/MOL
REMARK 924 INTRA-LIGAND FREE ENERGY PREDICTED BY IDOCK:   -0.74 KCAL/MOL
REMARK 927      BINDING AFFINITY PREDICTED BY RF-SCORE:    0.00 PKD
ROOT
HETATM    1  C   UNL     1     -10.203   6.008  72.274  1.00  0.00    -0.215 C  
HETATM    2  C   UNL     1     -10.555   5.548  70.862  1.00  0.00    -0.309 C  
HETATM    3  C   UNL     1     -11.631   6.425  70.228  1.00  0.00    -0.451 C  
HETATM    4  C   UNL     1     -11.292   7.922  70.276  1.00  0.00    -0.150 C  
HETATM    5  C   UNL     1     -10.972   8.352  71.714  1.00  0.00    -0.359 C  
HETATM    6  C   UNL     1      -9.870   7.495  72.337  1.00  0.00    -0.219 C  
ENDROOT
BRANCH   4   7
HETATM    7  N   UNL     1     -10.142   8.222  69.417  1.00  0.00    -0.193 NA 
HETATM    8  H   UNL     1      -9.362   7.566  69.386  1.00  0.00     0.000 HD 
BRANCH   7   9
HETATM    9  C   UNL     1     -10.084   9.379  68.640  1.00  0.00    -0.190 A  
HETATM   10  C   UNL     1      -9.379  10.523  69.009  1.00  0.00    -0.205 A  
HETATM   11  C   UNL     1      -9.442  11.685  68.241  1.00  0.00    -0.191 A  
HETATM   12  C   UNL     1     -10.153  11.719  67.042  1.00  0.00    -0.209 A  
HETATM   13  C   UNL     1     -10.735  10.538  66.583  1.00  0.00    -0.222 A  
HETATM   14  C   UNL     1     -10.711   9.386  67.386  1.00  0.00    -0.280 A  
BRANCH  12  15
HETATM   15  N   UNL     1     -10.279  12.958  66.400  1.00  0.00    -0.261 NA 
HETATM   16  H   UNL     1     -10.699  12.904  65.473  1.00  0.00     0.000 HD 
BRANCH  15  17
HETATM   17  C   UNL     1      -9.935  14.258  66.795  1.00  0.00    -0.265 A  
HETATM   18  C   UNL     1      -8.730  14.809  66.343  1.00  0.00    -0.062 A  
HETATM   19  C   UNL     1      -8.392  16.132  66.637  1.00  0.00    -0.321 A  
HETATM   20  C   UNL     1      -9.262  16.917  67.386  1.00  0.00    -0.224 A  
HETATM   21  C   UNL     1     -10.452  16.372  67.867  1.00  0.00    -0.307 A  
HETATM   22  C   UNL     1     -10.778  15.042  67.588  1.00  0.00    -0.274 A  
ENDBRANCH  15  17
ENDBRANCH  12  15
ENDBRANCH   7   9
ENDBRANCH   4   7
TORSDOF 4
ENDMDL
MODEL      124
REMARK 921   NORMALIZED FREE ENERGY PREDICTED BY IDOCK:   -3.99 KCAL/MOL
REMARK 922        TOTAL FREE ENERGY PREDICTED BY IDOCK:   -5.60 KCAL/MOL
REMARK 923 INTER-LIGAND FREE ENERGY PREDICTED BY IDOCK:   -4.77 KCAL/MOL
REMARK 924 INTRA-LIGAND FREE ENERGY PREDICTED BY IDOCK:   -0.83 KCAL/MOL
REMARK 927      BINDING AFFINITY PREDICTED BY RF-SCORE:    0.00 PKD
ROOT
HETATM    1  C   UNL     1      -9.026   3.070  66.009  1.00  0.00    -0.147 C  
HETATM    2  C   UNL     1      -8.250   3.387  67.284  1.00  0.00    -0.086 C  
HETATM    3  C   UNL     1      -7.081   4.331  67.021  1.00  0.00    -0.067 C  
HETATM    4  C   UNL     1      -7.494   5.605  66.270  1.00  0.00    -0.083 C  
HETATM    5  C   UNL     1      -8.244   5.245  64.980  1.00  0.00    -0.134 C  
HETATM    6  C   UNL     1      -9.437   4.327  65.248  1.00  0.00    -0.173 C  
ENDROOT
BRANCH   4   7
HETATM    7  N   UNL     1      -8.353   6.448  67.108  1.00  0.00    -0.112 NA 
HETATM    8  H   UNL     1      -8.776   6.047  67.945  1.00  0.00     0.000 HD 
BRANCH   7   9
HETATM    9  C   UNL     1      -8.609   7.782  66.793  1.00  0.00    -0.132 A  
HETATM   10  C   UNL     1      -9.878   8.280  66.506  1.00  0.00    -0.323 A  
HETATM   11  C   UNL     1     -10.058   9.601  66.099  1.00  0.00    -0.328 A  
HETATM   12  C   UNL     1      -8.983  10.487  66.034  1.00  0.00    -0.167 A  
HETATM   13  C   UNL     1      -7.733  10.046  66.465  1.00  0.00    -0.105 A  
HETATM   14  C   UNL     1      -7.550   8.702  66.826  1.00  0.00    -0.086 A  
BRANCH  12  15
HETATM   15  N   UNL     1      -9.224  11.755  65.487  1.00  0.00    -0.407 NA 
HETATM   16  H   UNL     1      -8.425  12.152  64.994  1.00  0.00     0.000 HD 
BRANCH  15  17
HETATM   17  C   UNL     1     -10.357  12.578  65.491  1.00  0.00    -0.280 A  
HETATM   18  C   UNL     1     -11.073  12.757  64.301  1.00  0.00    -0.410 A  
HETATM   19  C   UNL     1     -12.258  13.495  64.281  1.00  0.00    -0.450 A  
HETATM   20  C   UNL     1     -12.741  14.060  65.457  1.00  0.00    -0.517 A  
HETATM   21  C   UNL     1     -12.023  13.915  66.643  1.00  0.00    -0.474 A  
HETATM   22  C   UNL     1     -10.827  13.192  66.656  1.00  0.00    -0.292 A  
ENDBRANCH  15  17
ENDBRANCH  12  15
ENDBRANCH   7   9
ENDBRANCH   4   7
TORSDOF 4
ENDMDL
MODEL      125
REMARK 921   NORMALIZED FREE ENERGY PREDICTED BY IDOCK:   -3.97 KCAL/MOL
REMARK 922        TOTAL FREE ENERGY PREDICTED BY IDOCK:   -5.57 KCAL/MOL
REMARK 923 INTER-LIGAND FREE ENERGY PREDICTED BY IDOCK:   -4.76 KCAL/MOL
REMARK 924 INTRA-LIGAND FREE ENERGY PREDICTED BY IDOCK:   -0.80 KCAL/MOL
REMARK 927      BINDING AFFINITY PREDICTED BY RF-SCORE:    0.00 PKD
ROOT
HETATM    1  C   UNL     1     -12.497  12.943  66.318  1.00  0.00    -0.007 C  
HETATM    2  C   UNL     1     -11.161  13.194  67.009  1.00  0.00    -0.305 C  
HETATM    3  C   UNL     1     -10.069  13.583  66.016  1.00  0.00    -0.316 C  
HETATM    4  C   UNL     1     -10.473  14.753  65.106  1.00  0.00    -0.418 C  
HETATM    5  C   UNL     1     -11.805  14.450  64.407  1.00  0.00    -0.433 C  
HETATM    6  C   UNL     1     -12.909  14.093  65.404  1.00  0.00    -0.393 C  
ENDROOT
BRANCH   4   7
HETATM    7  N   UNL     1     -10.606  15.992  65.879  1.00  0.00    -0.335 NA 
HETATM    8  H   UNL     1     -11.534  16.392  66.017  1.00  0.00     0.000 HD 
BRANCH   7   9
HETATM    9  C   UNL     1      -9.501  16.639  66.430  1.00  0.00    -0.280 A  
HETATM   10  C   UNL     1      -8.303  16.842  65.747  1.00  0.00     0.247 A  
HETATM   11  C   UNL     1      -7.198  17.404  66.384  1.00  0.00    -0.333 A  
HETATM   12  C   UNL     1      -7.275  17.847  67.704  1.00  0.00    -0.201 A  
HETATM   13  C   UNL     1      -8.509  17.792  68.350  1.00  0.00    -0.295 A  
HETATM   14  C   UNL     1      -9.604  17.179  67.721  1.00  0.00    -0.256 A  
BRANCH  12  15
HETATM   15  N   UNL     1      -6.087  18.274  68.312  1.00  0.00    -0.178 NA 
HETATM   16  H   UNL     1      -5.243  17.995  67.814  1.00  0.00     0.000 HD 
BRANCH  15  17
HETATM   17  C   UNL     1      -5.842  19.013  69.477  1.00  0.00    -0.240 A  
HETATM   18  C   UNL     1      -5.526  18.334  70.660  1.00  0.00    -0.222 A  
HETATM   19  C   UNL     1      -5.187  19.033  71.819  1.00  0.00    -0.275 A  
HETATM   20  C   UNL     1      -5.157  20.424  71.804  1.00  0.00    -0.374 A  
HETATM   21  C   UNL     1      -5.499  21.114  70.642  1.00  0.00     0.234 A  
HETATM   22  C   UNL     1      -5.857  20.411  69.488  1.00  0.00    -0.386 A  
ENDBRANCH  15  17
ENDBRANCH  12  15
ENDBRANCH   7   9
ENDBRANCH   4   7
TORSDOF 4
ENDMDL
MODEL      126
REMARK 921   NORMALIZED FREE ENERGY PREDICTED BY IDOCK:   -3.95 KCAL/MOL
REMARK 922        TOTAL FREE ENERGY PREDICTED BY IDOCK:   -5.55 KCAL/MOL
REMARK 923 INTER-LIGAND FREE ENERGY PREDICTED BY IDOCK:   -4.86 KCAL/MOL
REMARK 924 INTRA-LIGAND FREE ENERGY PREDICTED BY IDOCK:   -0.69 KCAL/MOL
REMARK 927      BINDING AFFINITY PREDICTED BY RF-SCORE:    0.00 PKD
ROOT
HETATM    1  C   UNL     1      -8.148   7.113  73.395  1.00  0.00    -0.128 C  
HETATM    2  C   UNL     1      -7.192   8.189  72.891  1.00  0.00    -0.141 C  
HETATM    3  C   UNL     1      -6.998   8.118  71.380  1.00  0.00    -0.059 C  
HETATM    4  C   UNL     1      -8.322   8.120  70.603  1.00  0.00    -0.123 C  
HETATM    5  C   UNL     1      -9.245   7.007  71.118  1.00  0.00    -0.157 C  
HETATM    6  C   UNL     1      -9.467   7.098  72.628  1.00  0.00    -0.174 C  
ENDROOT
BRANCH   4   7
HETATM    7  N   UNL     1      -9.004   9.411  70.740  1.00  0.00    -0.230 NA 
HETATM    8  H   UNL     1      -9.426   9.656  71.635  1.00  0.00     0.000 HD 
BRANCH   7   9
HETATM    9  C   UNL     1      -9.091  10.314  69.681  1.00  0.00    -0.125 A  
HETATM   10  C   UNL     1     -10.289  10.869  69.233  1.00  0.00    -0.211 A  
HETATM   11  C   UNL     1     -10.326  11.687  68.105  1.00  0.00    -0.208 A  
HETATM   12  C   UNL     1      -9.157  12.035  67.429  1.00  0.00    -0.178 A  
HETATM   13  C   UNL     1      -7.937  11.614  67.954  1.00  0.00    -0.132 A  
HETATM   14  C   UNL     1      -7.910  10.749  69.061  1.00  0.00    -0.138 A  
BRANCH  12  15
HETATM   15  N   UNL     1      -9.293  12.747  66.230  1.00  0.00    -0.391 NA 
HETATM   16  H   UNL     1      -8.478  13.309  65.987  1.00  0.00     0.000 HD 
BRANCH  15  17
HETATM   17  C   UNL     1     -10.339  12.830  65.302  1.00  0.00    -0.296 A  
HETATM   18  C   UNL     1     -11.058  14.027  65.192  1.00  0.00    -0.341 A  
HETATM   19  C   UNL     1     -12.046  14.183  64.219  1.00  0.00    -0.471 A  
HETATM   20  C   UNL     1     -12.324  13.140  63.341  1.00  0.00    -0.443 A  
HETATM   21  C   UNL     1     -11.637  11.932  63.458  1.00  0.00    -0.537 A  
HETATM   22  C   UNL     1     -10.661  11.773  64.446  1.00  0.00    -0.381 A  
ENDBRANCH  15  17
ENDBRANCH  12  15
ENDBRANCH   7   9
ENDBRANCH   4   7
TORSDOF 4
ENDMDL
MODEL      127
REMARK 921   NORMALIZED FREE ENERGY PREDICTED BY IDOCK:   -3.94 KCAL/MOL
REMARK 922        TOTAL FREE ENERGY PREDICTED BY IDOCK:   -5.54 KCAL/MOL
REMARK 923 INTER-LIGAND FREE ENERGY PREDICTED BY IDOCK:   -5.25 KCAL/MOL
REMARK 924 INTRA-LIGAND FREE ENERGY PREDICTED BY IDOCK:   -0.29 KCAL/MOL
REMARK 927      BINDING AFFINITY PREDICTED BY RF-SCORE:    0.00 PKD
ROOT
HETATM    1  C   UNL     1      -9.416   3.949  64.961  1.00  0.00    -0.170 C  
HETATM    2  C   UNL     1     -10.660   4.629  65.526  1.00  0.00    -0.208 C  
HETATM    3  C   UNL     1     -10.367   5.358  66.834  1.00  0.00    -0.310 C  
HETATM    4  C   UNL     1      -9.182   6.329  66.728  1.00  0.00    -0.137 C  
HETATM    5  C   UNL     1      -7.943   5.602  66.185  1.00  0.00    -0.106 C  
HETATM    6  C   UNL     1      -8.227   4.899  64.857  1.00  0.00    -0.124 C  
ENDROOT
BRANCH   4   7
HETATM    7  N   UNL     1      -9.506   7.453  65.844  1.00  0.00    -0.403 NA 
HETATM    8  H   UNL     1      -9.514   7.304  64.835  1.00  0.00     0.000 HD 
BRANCH   7   9
HETATM    9  C   UNL     1      -9.805   8.720  66.343  1.00  0.00    -0.282 A  
HETATM   10  C   UNL     1     -10.048   8.984  67.690  1.00  0.00    -0.271 A  
HETATM   11  C   UNL     1     -10.442  10.251  68.115  1.00  0.00    -0.224 A  
HETATM   12  C   UNL     1     -10.536  11.315  67.218  1.00  0.00    -0.233 A  
HETATM   13  C   UNL     1     -10.147  11.104  65.897  1.00  0.00    -0.296 A  
HETATM   14  C   UNL     1      -9.800   9.814  65.465  1.00  0.00    -0.378 A  
BRANCH  12  15
HETATM   15  N   UNL     1     -11.068  12.520  67.699  1.00  0.00    -0.245 NA 
HETATM   16  H   UNL     1     -11.656  12.413  68.525  1.00  0.00     0.000 HD 
BRANCH  15  17
HETATM   17  C   UNL     1     -10.942  13.843  67.257  1.00  0.00    -0.290 A  
HETATM   18  C   UNL     1     -10.960  14.879  68.199  1.00  0.00    -0.276 A  
HETATM   19  C   UNL     1     -10.747  16.203  67.812  1.00  0.00    -0.325 A  
HETATM   20  C   UNL     1     -10.510  16.503  66.474  1.00  0.00    -0.270 A  
HETATM   21  C   UNL     1     -10.518  15.485  65.522  1.00  0.00    -0.407 A  
HETATM   22  C   UNL     1     -10.751  14.163  65.910  1.00  0.00    -0.298 A  
ENDBRANCH  15  17
ENDBRANCH  12  15
ENDBRANCH   7   9
ENDBRANCH   4   7
TORSDOF 4
ENDMDL
MODEL      128
REMARK 921   NORMALIZED FREE ENERGY PREDICTED BY IDOCK:   -3.94 KCAL/MOL
REMARK 922        TOTAL FREE ENERGY PREDICTED BY IDOCK:   -5.53 KCAL/MOL
REMARK 923 INTER-LIGAND FREE ENERGY PREDICTED BY IDOCK:   -4.93 KCAL/MOL
REMARK 924 INTRA-LIGAND FREE ENERGY PREDICTED BY IDOCK:   -0.60 KCAL/MOL
REMARK 927      BINDING AFFINITY PREDICTED BY RF-SCORE:    0.00 PKD
ROOT
HETATM    1  C   UNL     1     -12.131  13.200  63.767  1.00  0.00    -0.563 C  
HETATM    2  C   UNL     1     -10.933  12.287  64.011  1.00  0.00    -0.438 C  
HETATM    3  C   UNL     1     -10.184  12.656  65.288  1.00  0.00    -0.302 C  
HETATM    4  C   UNL     1     -11.100  12.741  66.518  1.00  0.00    -0.286 C  
HETATM    5  C   UNL     1     -12.275  13.690  66.245  1.00  0.00    -0.484 C  
HETATM    6  C   UNL     1     -13.046  13.299  64.983  1.00  0.00    -0.053 C  
ENDROOT
BRANCH   4   7
HETATM    7  N   UNL     1     -11.622  11.417  66.871  1.00  0.00    -0.483 NA 
HETATM    8  H   UNL     1     -12.491  11.098  66.443  1.00  0.00     0.000 HD 
BRANCH   7   9
HETATM    9  C   UNL     1     -10.965  10.582  67.773  1.00  0.00    -0.313 A  
HETATM   10  C   UNL     1      -9.669  10.106  67.584  1.00  0.00    -0.187 A  
HETATM   11  C   UNL     1      -9.101   9.193  68.471  1.00  0.00    -0.132 A  
HETATM   12  C   UNL     1      -9.784   8.779  69.614  1.00  0.00    -0.173 A  
HETATM   13  C   UNL     1     -11.018   9.362  69.897  1.00  0.00    -0.251 A  
HETATM   14  C   UNL     1     -11.605  10.243  68.975  1.00  0.00    -0.148 A  
BRANCH  12  15
HETATM   15  N   UNL     1      -9.203   7.759  70.380  1.00  0.00    -0.155 NA 
HETATM   16  H   UNL     1      -9.412   6.819  70.045  1.00  0.00     0.000 HD 
BRANCH  15  17
HETATM   17  C   UNL     1      -8.388   7.790  71.519  1.00  0.00    -0.109 A  
HETATM   18  C   UNL     1      -8.927   8.240  72.730  1.00  0.00    -0.323 A  
HETATM   19  C   UNL     1      -8.178   8.201  73.907  1.00  0.00    -0.311 A  
HETATM   20  C   UNL     1      -6.878   7.707  73.884  1.00  0.00    -0.100 A  
HETATM   21  C   UNL     1      -6.318   7.284  72.679  1.00  0.00    -0.051 A  
HETATM   22  C   UNL     1      -7.064   7.342  71.499  1.00  0.00    -0.067 A  
ENDBRANCH  15  17
ENDBRANCH  12  15
ENDBRANCH   7   9
ENDBRANCH   4   7
TORSDOF 4
ENDMDL
MODEL      129
REMARK 921   NORMALIZED FREE ENERGY PREDICTED BY IDOCK:   -3.92 KCAL/MOL
REMARK 922        TOTAL FREE ENERGY PREDICTED BY IDOCK:   -5.51 KCAL/MOL
REMARK 923 INTER-LIGAND FREE ENERGY PREDICTED BY IDOCK:   -4.69 KCAL/MOL
REMARK 924 INTRA-LIGAND FREE ENERGY PREDICTED BY IDOCK:   -0.82 KCAL/MOL
REMARK 927      BINDING AFFINITY PREDICTED BY RF-SCORE:    0.00 PKD
ROOT
HETATM    1  C   UNL     1     -13.787  13.947  72.415  1.00  0.00    -0.668 C  
HETATM    2  C   UNL     1     -14.322  14.992  71.442  1.00  0.00    -0.594 C  
HETATM    3  C   UNL     1     -13.205  15.842  70.844  1.00  0.00    -0.143 C  
HETATM    4  C   UNL     1     -12.079  15.002  70.222  1.00  0.00    -0.329 C  
HETATM    5  C   UNL     1     -11.547  13.984  71.240  1.00  0.00     0.361 C  
HETATM    6  C   UNL     1     -12.663  13.110  71.813  1.00  0.00    -0.270 C  
ENDROOT
BRANCH   4   7
HETATM    7  N   UNL     1     -12.557  14.289  69.033  1.00  0.00    -0.452 NA 
HETATM    8  H   UNL     1     -13.509  14.454  68.707  1.00  0.00     0.000 HD 
BRANCH   7   9
HETATM    9  C   UNL     1     -11.748  13.393  68.336  1.00  0.00    -0.355 A  
HETATM   10  C   UNL     1     -11.908  12.010  68.379  1.00  0.00    -0.360 A  
HETATM   11  C   UNL     1     -11.005  11.160  67.742  1.00  0.00    -0.315 A  
HETATM   12  C   UNL     1      -9.952  11.668  66.981  1.00  0.00    -0.204 A  
HETATM   13  C   UNL     1      -9.869  13.047  66.802  1.00  0.00    -0.243 A  
HETATM   14  C   UNL     1     -10.751  13.899  67.487  1.00  0.00    -0.271 A  
BRANCH  12  15
HETATM   15  N   UNL     1      -9.013  10.753  66.487  1.00  0.00    -0.153 NA 
HETATM   16  H   UNL     1      -8.632  11.001  65.575  1.00  0.00     0.000 HD 
BRANCH  15  17
HETATM   17  C   UNL     1      -8.500   9.559  67.012  1.00  0.00    -0.128 A  
HETATM   18  C   UNL     1      -7.526   9.621  68.016  1.00  0.00    -0.082 A  
HETATM   19  C   UNL     1      -7.054   8.460  68.630  1.00  0.00    -0.072 A  
HETATM   20  C   UNL     1      -7.557   7.221  68.245  1.00  0.00    -0.118 A  
HETATM   21  C   UNL     1      -8.506   7.142  67.227  1.00  0.00    -0.122 A  
HETATM   22  C   UNL     1      -8.962   8.306  66.601  1.00  0.00    -0.179 A  
ENDBRANCH  15  17
ENDBRANCH  12  15
ENDBRANCH   7   9
ENDBRANCH   4   7
TORSDOF 4
ENDMDL
MODEL      130
REMARK 921   NORMALIZED FREE ENERGY PREDICTED BY IDOCK:   -3.89 KCAL/MOL
REMARK 922        TOTAL FREE ENERGY PREDICTED BY IDOCK:   -5.47 KCAL/MOL
REMARK 923 INTER-LIGAND FREE ENERGY PREDICTED BY IDOCK:   -4.58 KCAL/MOL
REMARK 924 INTRA-LIGAND FREE ENERGY PREDICTED BY IDOCK:   -0.88 KCAL/MOL
REMARK 927      BINDING AFFINITY PREDICTED BY RF-SCORE:    0.00 PKD
ROOT
HETATM    1  C   UNL     1     -12.121  13.311  66.307  1.00  0.00    -0.472 C  
HETATM    2  C   UNL     1     -11.510  11.913  66.276  1.00  0.00    -0.367 C  
HETATM    3  C   UNL     1     -10.061  11.913  66.755  1.00  0.00    -0.225 C  
HETATM    4  C   UNL     1      -9.880  12.589  68.122  1.00  0.00    -0.221 C  
HETATM    5  C   UNL     1     -10.480  14.001  68.104  1.00  0.00    -0.243 C  
HETATM    6  C   UNL     1     -11.943  13.997  67.657  1.00  0.00    -0.404 C  
ENDROOT
BRANCH   4   7
HETATM    7  N   UNL     1     -10.526  11.805  69.180  1.00  0.00    -0.409 NA 
HETATM    8  H   UNL     1     -11.282  12.228  69.718  1.00  0.00     0.000 HD 
BRANCH   7   9
HETATM    9  C   UNL     1     -10.137  10.498  69.471  1.00  0.00    -0.178 A  
HETATM   10  C   UNL     1      -8.815  10.115  69.691  1.00  0.00    -0.184 A  
HETATM   11  C   UNL     1      -8.475   8.777  69.877  1.00  0.00    -0.131 A  
HETATM   12  C   UNL     1      -9.453   7.784  69.920  1.00  0.00    -0.160 A  
HETATM   13  C   UNL     1     -10.791   8.169  69.855  1.00  0.00    -0.215 A  
HETATM   14  C   UNL     1     -11.124   9.512  69.617  1.00  0.00    -0.196 A  
BRANCH  12  15
HETATM   15  N   UNL     1      -9.020   6.452  69.974  1.00  0.00    -0.145 NA 
HETATM   16  H   UNL     1      -8.554   6.203  70.846  1.00  0.00     0.000 HD 
BRANCH  15  17
HETATM   17  C   UNL     1      -9.106   5.399  69.054  1.00  0.00    -0.115 A  
HETATM   18  C   UNL     1      -8.826   5.649  67.705  1.00  0.00    -0.105 A  
HETATM   19  C   UNL     1      -8.811   4.611  66.772  1.00  0.00    -0.111 A  
HETATM   20  C   UNL     1      -9.075   3.309  67.182  1.00  0.00    -0.200 A  
HETATM   21  C   UNL     1      -9.386   3.050  68.517  1.00  0.00    -0.243 A  
HETATM   22  C   UNL     1      -9.418   4.094  69.445  1.00  0.00    -0.260 A  
ENDBRANCH  15  17
ENDBRANCH  12  15
ENDBRANCH   7   9
ENDBRANCH   4   7
TORSDOF 4
ENDMDL
MODEL      131
REMARK 921   NORMALIZED FREE ENERGY PREDICTED BY IDOCK:   -3.88 KCAL/MOL
REMARK 922        TOTAL FREE ENERGY PREDICTED BY IDOCK:   -5.46 KCAL/MOL
REMARK 923 INTER-LIGAND FREE ENERGY PREDICTED BY IDOCK:   -4.71 KCAL/MOL
REMARK 924 INTRA-LIGAND FREE ENERGY PREDICTED BY IDOCK:   -0.74 KCAL/MOL
REMARK 927      BINDING AFFINITY PREDICTED BY RF-SCORE:    0.00 PKD
ROOT
HETATM    1  C   UNL     1     -12.174  14.717  64.239  1.00  0.00    -0.432 C  
HETATM    2  C   UNL     1     -11.161  14.762  65.379  1.00  0.00    -0.359 C  
HETATM    3  C   UNL     1     -11.295  13.561  66.310  1.00  0.00    -0.327 C  
HETATM    4  C   UNL     1     -11.263  12.218  65.567  1.00  0.00    -0.332 C  
HETATM    5  C   UNL     1     -12.314  12.199  64.450  1.00  0.00    -0.422 C  
HETATM    6  C   UNL     1     -12.158  13.385  63.496  1.00  0.00    -0.497 C  
ENDROOT
BRANCH   4   7
HETATM    7  N   UNL     1      -9.938  11.976  64.986  1.00  0.00    -0.304 NA 
HETATM    8  H   UNL     1      -9.434  12.755  64.563  1.00  0.00     0.000 HD 
BRANCH   7   9
HETATM    9  C   UNL     1      -9.349  10.712  64.996  1.00  0.00    -0.217 A  
HETATM   10  C   UNL     1      -8.675  10.165  63.906  1.00  0.00    -0.220 A  
HETATM   11  C   UNL     1      -8.194   8.857  63.940  1.00  0.00    -0.171 A  
HETATM   12  C   UNL     1      -8.309   8.077  65.090  1.00  0.00    -0.130 A  
HETATM   13  C   UNL     1      -8.843   8.662  66.237  1.00  0.00    -0.187 A  
HETATM   14  C   UNL     1      -9.370   9.963  66.181  1.00  0.00    -0.232 A  
BRANCH  12  15
HETATM   15  N   UNL     1      -7.924   6.733  65.000  1.00  0.00    -0.121 NA 
HETATM   16  H   UNL     1      -6.953   6.561  65.258  1.00  0.00     0.000 HD 
BRANCH  15  17
HETATM   17  C   UNL     1      -8.625   5.580  64.622  1.00  0.00    -0.067 A  
HETATM   18  C   UNL     1      -9.615   5.075  65.473  1.00  0.00    -0.105 A  
HETATM   19  C   UNL     1     -10.398   3.984  65.094  1.00  0.00    -0.147 A  
HETATM   20  C   UNL     1     -10.199   3.387  63.853  1.00  0.00    -0.216 A  
HETATM   21  C   UNL     1      -9.196   3.860  63.008  1.00  0.00    -0.113 A  
HETATM   22  C   UNL     1      -8.401   4.941  63.398  1.00  0.00    -0.115 A  
ENDBRANCH  15  17
ENDBRANCH  12  15
ENDBRANCH   7   9
ENDBRANCH   4   7
TORSDOF 4
ENDMDL
MODEL      132
REMARK 921   NORMALIZED FREE ENERGY PREDICTED BY IDOCK:   -3.88 KCAL/MOL
REMARK 922        TOTAL FREE ENERGY PREDICTED BY IDOCK:   -5.45 KCAL/MOL
REMARK 923 INTER-LIGAND FREE ENERGY PREDICTED BY IDOCK:   -5.62 KCAL/MOL
REMARK 924 INTRA-LIGAND FREE ENERGY PREDICTED BY IDOCK:    0.17 KCAL/MOL
REMARK 927      BINDING AFFINITY PREDICTED BY RF-SCORE:    0.00 PKD
ROOT
HETATM    1  C   UNL     1     -11.006   5.663  73.575  1.00  0.00    -0.250 C  
HETATM    2  C   UNL     1      -9.828   6.549  73.971  1.00  0.00    -0.294 C  
HETATM    3  C   UNL     1      -8.793   6.654  72.856  1.00  0.00    -0.134 C  
HETATM    4  C   UNL     1      -9.401   7.077  71.510  1.00  0.00    -0.154 C  
HETATM    5  C   UNL     1     -10.561   6.147  71.132  1.00  0.00    -0.300 C  
HETATM    6  C   UNL     1     -11.616   6.067  72.236  1.00  0.00    -0.359 C  
ENDROOT
BRANCH   4   7
HETATM    7  N   UNL     1      -9.891   8.458  71.571  1.00  0.00    -0.189 NA 
HETATM    8  H   UNL     1      -9.994   8.907  72.481  1.00  0.00     0.000 HD 
BRANCH   7   9
HETATM    9  C   UNL     1     -10.221   9.174  70.421  1.00  0.00    -0.222 A  
HETATM   10  C   UNL     1      -9.849   8.787  69.136  1.00  0.00    -0.181 A  
HETATM   11  C   UNL     1     -10.119   9.597  68.034  1.00  0.00    -0.213 A  
HETATM   12  C   UNL     1     -10.834  10.787  68.172  1.00  0.00    -0.236 A  
HETATM   13  C   UNL     1     -11.345  11.110  69.427  1.00  0.00    -0.352 A  
HETATM   14  C   UNL     1     -11.026  10.317  70.541  1.00  0.00    -0.343 A  
BRANCH  12  15
HETATM   15  N   UNL     1     -10.946  11.608  67.042  1.00  0.00    -0.273 NA 
HETATM   16  H   UNL     1     -11.386  12.509  67.226  1.00  0.00     0.000 HD 
BRANCH  15  17
HETATM   17  C   UNL     1     -10.566  11.422  65.707  1.00  0.00    -0.260 A  
HETATM   18  C   UNL     1      -9.682  10.384  65.388  1.00  0.00    -0.325 A  
HETATM   19  C   UNL     1      -9.349  10.107  64.061  1.00  0.00    -0.339 A  
HETATM   20  C   UNL     1      -9.903  10.868  63.036  1.00  0.00    -0.358 A  
HETATM   21  C   UNL     1     -10.762  11.923  63.340  1.00  0.00    -0.476 A  
HETATM   22  C   UNL     1     -11.078  12.210  64.671  1.00  0.00    -0.366 A  
ENDBRANCH  15  17
ENDBRANCH  12  15
ENDBRANCH   7   9
ENDBRANCH   4   7
TORSDOF 4
ENDMDL
MODEL      133
REMARK 921   NORMALIZED FREE ENERGY PREDICTED BY IDOCK:   -3.88 KCAL/MOL
REMARK 922        TOTAL FREE ENERGY PREDICTED BY IDOCK:   -5.45 KCAL/MOL
REMARK 923 INTER-LIGAND FREE ENERGY PREDICTED BY IDOCK:   -4.74 KCAL/MOL
REMARK 924 INTRA-LIGAND FREE ENERGY PREDICTED BY IDOCK:   -0.72 KCAL/MOL
REMARK 927      BINDING AFFINITY PREDICTED BY RF-SCORE:    0.00 PKD
ROOT
HETATM    1  C   UNL     1      -7.036   7.075  62.515  1.00  0.00    -0.062 C  
HETATM    2  C   UNL     1      -8.013   6.616  63.593  1.00  0.00    -0.070 C  
HETATM    3  C   UNL     1      -7.733   7.280  64.937  1.00  0.00    -0.117 C  
HETATM    4  C   UNL     1      -7.657   8.811  64.847  1.00  0.00    -0.099 C  
HETATM    5  C   UNL     1      -6.644   9.233  63.774  1.00  0.00    -0.092 C  
HETATM    6  C   UNL     1      -6.945   8.594  62.418  1.00  0.00    -0.094 C  
ENDROOT
BRANCH   4   7
HETATM    7  N   UNL     1      -8.969   9.379  64.520  1.00  0.00    -0.327 NA 
HETATM    8  H   UNL     1      -9.550   8.915  63.822  1.00  0.00     0.000 HD 
BRANCH   7   9
HETATM    9  C   UNL     1      -9.445  10.536  65.136  1.00  0.00    -0.233 A  
HETATM   10  C   UNL     1      -8.835  11.133  66.238  1.00  0.00    -0.190 A  
HETATM   11  C   UNL     1      -9.414  12.229  66.875  1.00  0.00    -0.217 A  
HETATM   12  C   UNL     1     -10.585  12.810  66.387  1.00  0.00    -0.255 A  
HETATM   13  C   UNL     1     -11.122  12.321  65.198  1.00  0.00    -0.361 A  
HETATM   14  C   UNL     1     -10.563  11.185  64.590  1.00  0.00    -0.386 A  
BRANCH  12  15
HETATM   15  N   UNL     1     -11.174  13.820  67.159  1.00  0.00    -0.302 NA 
HETATM   16  H   UNL     1     -11.884  13.484  67.809  1.00  0.00     0.000 HD 
BRANCH  15  17
HETATM   17  C   UNL     1     -10.971  15.205  67.205  1.00  0.00    -0.326 A  
HETATM   18  C   UNL     1     -10.965  15.852  68.447  1.00  0.00    -0.331 A  
HETATM   19  C   UNL     1     -10.676  17.214  68.546  1.00  0.00    -0.326 A  
HETATM   20  C   UNL     1     -10.385  17.943  67.397  1.00  0.00    -0.383 A  
HETATM   21  C   UNL     1     -10.416  17.319  66.151  1.00  0.00    -0.279 A  
HETATM   22  C   UNL     1     -10.725  15.960  66.054  1.00  0.00    -0.289 A  
ENDBRANCH  15  17
ENDBRANCH  12  15
ENDBRANCH   7   9
ENDBRANCH   4   7
TORSDOF 4
ENDMDL
MODEL      134
REMARK 921   NORMALIZED FREE ENERGY PREDICTED BY IDOCK:   -3.84 KCAL/MOL
REMARK 922        TOTAL FREE ENERGY PREDICTED BY IDOCK:   -5.41 KCAL/MOL
REMARK 923 INTER-LIGAND FREE ENERGY PREDICTED BY IDOCK:   -5.12 KCAL/MOL
REMARK 924 INTRA-LIGAND FREE ENERGY PREDICTED BY IDOCK:   -0.29 KCAL/MOL
REMARK 927      BINDING AFFINITY PREDICTED BY RF-SCORE:    0.00 PKD
ROOT
HETATM    1  C   UNL     1      -9.051   4.571  64.898  1.00  0.00    -0.152 C  
HETATM    2  C   UNL     1     -10.352   4.477  65.690  1.00  0.00    -0.274 C  
HETATM    3  C   UNL     1     -10.155   4.847  67.157  1.00  0.00    -0.228 C  
HETATM    4  C   UNL     1      -9.466   6.206  67.346  1.00  0.00    -0.114 C  
HETATM    5  C   UNL     1      -8.149   6.252  66.560  1.00  0.00    -0.110 C  
HETATM    6  C   UNL     1      -8.351   5.914  65.082  1.00  0.00    -0.143 C  
ENDROOT
BRANCH   4   7
HETATM    7  N   UNL     1     -10.334   7.299  66.894  1.00  0.00    -0.356 NA 
HETATM    8  H   UNL     1     -10.718   7.267  65.950  1.00  0.00     0.000 HD 
BRANCH   7   9
HETATM    9  C   UNL     1     -10.650   8.378  67.718  1.00  0.00    -0.171 A  
HETATM   10  C   UNL     1     -10.570   8.340  69.108  1.00  0.00    -0.179 A  
HETATM   11  C   UNL     1     -10.996   9.417  69.884  1.00  0.00    -0.251 A  
HETATM   12  C   UNL     1     -11.451  10.595  69.292  1.00  0.00    -0.281 A  
HETATM   13  C   UNL     1     -11.392  10.705  67.904  1.00  0.00    -0.342 A  
HETATM   14  C   UNL     1     -11.009   9.599  67.128  1.00  0.00    -0.066 A  
BRANCH  12  15
HETATM   15  N   UNL     1     -11.987  11.576  70.137  1.00  0.00    -0.350 NA 
HETATM   16  H   UNL     1     -12.427  11.204  70.978  1.00  0.00     0.000 HD 
BRANCH  15  17
HETATM   17  C   UNL     1     -12.032  12.973  70.042  1.00  0.00    -0.312 A  
HETATM   18  C   UNL     1     -12.184  13.730  71.211  1.00  0.00    -0.314 A  
HETATM   19  C   UNL     1     -12.143  15.125  71.172  1.00  0.00    -0.391 A  
HETATM   20  C   UNL     1     -11.945  15.777  69.959  1.00  0.00    -0.352 A  
HETATM   21  C   UNL     1     -11.821  15.037  68.784  1.00  0.00    -0.331 A  
HETATM   22  C   UNL     1     -11.883  13.641  68.824  1.00  0.00    -0.395 A  
ENDBRANCH  15  17
ENDBRANCH  12  15
ENDBRANCH   7   9
ENDBRANCH   4   7
TORSDOF 4
ENDMDL
MODEL      135
REMARK 921   NORMALIZED FREE ENERGY PREDICTED BY IDOCK:   -3.81 KCAL/MOL
REMARK 922        TOTAL FREE ENERGY PREDICTED BY IDOCK:   -5.37 KCAL/MOL
REMARK 923 INTER-LIGAND FREE ENERGY PREDICTED BY IDOCK:   -5.88 KCAL/MOL
REMARK 924 INTRA-LIGAND FREE ENERGY PREDICTED BY IDOCK:    0.51 KCAL/MOL
REMARK 927      BINDING AFFINITY PREDICTED BY RF-SCORE:    0.00 PKD
ROOT
HETATM    1  C   UNL     1      -8.000  11.847  66.849  1.00  0.00    -0.132 C  
HETATM    2  C   UNL     1      -8.205  10.680  65.887  1.00  0.00    -0.159 C  
HETATM    3  C   UNL     1      -7.587   9.389  66.415  1.00  0.00    -0.097 C  
HETATM    4  C   UNL     1      -8.043   9.044  67.840  1.00  0.00    -0.106 C  
HETATM    5  C   UNL     1      -7.794  10.229  68.783  1.00  0.00    -0.106 C  
HETATM    6  C   UNL     1      -8.443  11.516  68.270  1.00  0.00    -0.159 C  
ENDROOT
BRANCH   4   7
HETATM    7  N   UNL     1      -9.469   8.703  67.862  1.00  0.00    -0.138 NA 
HETATM    8  H   UNL     1      -9.814   7.976  67.235  1.00  0.00     0.000 HD 
BRANCH   7   9
HETATM    9  C   UNL     1     -10.367   9.343  68.715  1.00  0.00    -0.209 A  
HETATM   10  C   UNL     1     -11.330  10.253  68.282  1.00  0.00    -0.245 A  
HETATM   11  C   UNL     1     -12.133  10.939  69.193  1.00  0.00    -0.292 A  
HETATM   12  C   UNL     1     -12.048  10.685  70.562  1.00  0.00    -0.355 A  
HETATM   13  C   UNL     1     -11.199   9.669  70.996  1.00  0.00    -0.445 A  
HETATM   14  C   UNL     1     -10.358   9.017  70.079  1.00  0.00    -0.226 A  
BRANCH  12  15
HETATM   15  N   UNL     1     -12.789  11.510  71.418  1.00  0.00    -0.418 NA 
HETATM   16  H   UNL     1     -13.413  11.002  72.045  1.00  0.00     0.000 HD 
BRANCH  15  17
HETATM   17  C   UNL     1     -12.834  12.901  71.575  1.00  0.00    -0.282 A  
HETATM   18  C   UNL     1     -12.266  13.716  70.587  1.00  0.00    -0.434 A  
HETATM   19  C   UNL     1     -12.368  15.106  70.658  1.00  0.00    -0.420 A  
HETATM   20  C   UNL     1     -13.045  15.696  71.721  1.00  0.00    -0.546 A  
HETATM   21  C   UNL     1     -13.589  14.899  72.727  1.00  0.00    -0.537 A  
HETATM   22  C   UNL     1     -13.469  13.508  72.662  1.00  0.00    -0.572 A  
ENDBRANCH  15  17
ENDBRANCH  12  15
ENDBRANCH   7   9
ENDBRANCH   4   7
TORSDOF 4
ENDMDL
MODEL      136
REMARK 921   NORMALIZED FREE ENERGY PREDICTED BY IDOCK:   -3.81 KCAL/MOL
REMARK 922        TOTAL FREE ENERGY PREDICTED BY IDOCK:   -5.37 KCAL/MOL
REMARK 923 INTER-LIGAND FREE ENERGY PREDICTED BY IDOCK:   -4.78 KCAL/MOL
REMARK 924 INTRA-LIGAND FREE ENERGY PREDICTED BY IDOCK:   -0.59 KCAL/MOL
REMARK 927      BINDING AFFINITY PREDICTED BY RF-SCORE:    0.00 PKD
ROOT
HETATM    1  C   UNL     1     -11.839  14.844  65.198  1.00  0.00    -0.258 C  
HETATM    2  C   UNL     1     -12.377  13.842  66.215  1.00  0.00    -0.489 C  
HETATM    3  C   UNL     1     -12.400  12.422  65.660  1.00  0.00    -0.182 C  
HETATM    4  C   UNL     1     -11.047  11.981  65.082  1.00  0.00    -0.318 C  
HETATM    5  C   UNL     1     -10.554  12.996  64.043  1.00  0.00    -0.371 C  
HETATM    6  C   UNL     1     -10.498  14.416  64.610  1.00  0.00    -0.286 C  
ENDROOT
BRANCH   4   7
HETATM    7  N   UNL     1     -10.044  11.852  66.144  1.00  0.00    -0.221 NA 
HETATM    8  H   UNL     1      -9.279  12.525  66.186  1.00  0.00     0.000 HD 
BRANCH   7   9
HETATM    9  C   UNL     1     -10.106  10.836  67.097  1.00  0.00    -0.204 A  
HETATM   10  C   UNL     1      -9.398   9.640  67.000  1.00  0.00    -0.180 A  
HETATM   11  C   UNL     1      -9.578   8.620  67.932  1.00  0.00    -0.173 A  
HETATM   12  C   UNL     1     -10.419   8.789  69.032  1.00  0.00    -0.203 A  
HETATM   13  C   UNL     1     -11.013  10.034  69.226  1.00  0.00    -0.264 A  
HETATM   14  C   UNL     1     -10.868  11.040  68.258  1.00  0.00    -0.261 A  
BRANCH  12  15
HETATM   15  N   UNL     1     -10.650   7.672  69.846  1.00  0.00    -0.232 NA 
HETATM   16  H   UNL     1     -11.159   6.920  69.383  1.00  0.00     0.000 HD 
BRANCH  15  17
HETATM   17  C   UNL     1     -10.312   7.394  71.177  1.00  0.00    -0.201 A  
HETATM   18  C   UNL     1     -11.329   7.324  72.137  1.00  0.00    -0.301 A  
HETATM   19  C   UNL     1     -11.047   6.961  73.455  1.00  0.00    -0.116 A  
HETATM   20  C   UNL     1      -9.740   6.661  73.825  1.00  0.00    -0.248 A  
HETATM   21  C   UNL     1      -8.713   6.756  72.887  1.00  0.00    -0.131 A  
HETATM   22  C   UNL     1      -8.996   7.138  71.572  1.00  0.00    -0.135 A  
ENDBRANCH  15  17
ENDBRANCH  12  15
ENDBRANCH   7   9
ENDBRANCH   4   7
TORSDOF 4
ENDMDL
MODEL      137
REMARK 921   NORMALIZED FREE ENERGY PREDICTED BY IDOCK:   -3.78 KCAL/MOL
REMARK 922        TOTAL FREE ENERGY PREDICTED BY IDOCK:   -5.33 KCAL/MOL
REMARK 923 INTER-LIGAND FREE ENERGY PREDICTED BY IDOCK:   -4.61 KCAL/MOL
REMARK 924 INTRA-LIGAND FREE ENERGY PREDICTED BY IDOCK:   -0.72 KCAL/MOL
REMARK 927      BINDING AFFINITY PREDICTED BY RF-SCORE:    0.00 PKD
ROOT
HETATM    1  C   UNL     1      -8.667   3.169  64.198  1.00  0.00    -0.093 C  
HETATM    2  C   UNL     1      -9.237   4.532  64.580  1.00  0.00    -0.136 C  
HETATM    3  C   UNL     1     -10.140   4.451  65.806  1.00  0.00    -0.262 C  
HETATM    4  C   UNL     1      -9.471   3.754  67.000  1.00  0.00    -0.200 C  
HETATM    5  C   UNL     1      -8.938   2.376  66.585  1.00  0.00    -0.133 C  
HETATM    6  C   UNL     1      -8.005   2.462  65.376  1.00  0.00    -0.079 C  
ENDROOT
BRANCH   4   7
HETATM    7  N   UNL     1      -8.363   4.562  67.520  1.00  0.00    -0.100 NA 
HETATM    8  H   UNL     1      -7.409   4.332  67.241  1.00  0.00     0.000 HD 
BRANCH   7   9
HETATM    9  C   UNL     1      -8.575   5.635  68.384  1.00  0.00    -0.111 A  
HETATM   10  C   UNL     1      -8.699   5.504  69.766  1.00  0.00    -0.118 A  
HETATM   11  C   UNL     1      -9.012   6.600  70.568  1.00  0.00    -0.152 A  
HETATM   12  C   UNL     1      -9.142   7.877  70.023  1.00  0.00    -0.152 A  
HETATM   13  C   UNL     1      -8.869   8.051  68.668  1.00  0.00    -0.134 A  
HETATM   14  C   UNL     1      -8.604   6.935  67.857  1.00  0.00    -0.122 A  
BRANCH  12  15
HETATM   15  N   UNL     1      -9.590   8.898  70.872  1.00  0.00    -0.216 NA 
HETATM   16  H   UNL     1      -8.841   9.459  71.278  1.00  0.00     0.000 HD 
BRANCH  15  17
HETATM   17  C   UNL     1     -10.874   9.293  71.269  1.00  0.00    -0.347 A  
HETATM   18  C   UNL     1     -11.459  10.412  70.664  1.00  0.00    -0.438 A  
HETATM   19  C   UNL     1     -12.770  10.785  70.963  1.00  0.00    -0.513 A  
HETATM   20  C   UNL     1     -13.512  10.037  71.871  1.00  0.00    -0.449 A  
HETATM   21  C   UNL     1     -12.933   8.937  72.503  1.00  0.00    -0.415 A  
HETATM   22  C   UNL     1     -11.613   8.578  72.216  1.00  0.00    -0.444 A  
ENDBRANCH  15  17
ENDBRANCH  12  15
ENDBRANCH   7   9
ENDBRANCH   4   7
TORSDOF 4
ENDMDL
MODEL      138
REMARK 921   NORMALIZED FREE ENERGY PREDICTED BY IDOCK:   -3.77 KCAL/MOL
REMARK 922        TOTAL FREE ENERGY PREDICTED BY IDOCK:   -5.33 KCAL/MOL
REMARK 923 INTER-LIGAND FREE ENERGY PREDICTED BY IDOCK:   -4.63 KCAL/MOL
REMARK 924 INTRA-LIGAND FREE ENERGY PREDICTED BY IDOCK:   -0.70 KCAL/MOL
REMARK 927      BINDING AFFINITY PREDICTED BY RF-SCORE:    0.00 PKD
ROOT
HETATM    1  C   UNL     1     -10.316   8.024  68.241  1.00  0.00    -0.240 C  
HETATM    2  C   UNL     1     -10.406   8.947  69.453  1.00  0.00    -0.217 C  
HETATM    3  C   UNL     1      -9.219   9.902  69.532  1.00  0.00    -0.238 C  
HETATM    4  C   UNL     1      -8.990  10.685  68.230  1.00  0.00    -0.143 C  
HETATM    5  C   UNL     1      -8.875   9.722  67.041  1.00  0.00    -0.145 C  
HETATM    6  C   UNL     1     -10.081   8.787  66.941  1.00  0.00    -0.348 C  
ENDROOT
BRANCH   4   7
HETATM    7  N   UNL     1     -10.091  11.623  67.986  1.00  0.00    -0.184 NA 
HETATM    8  H   UNL     1     -11.012  11.254  67.749  1.00  0.00     0.000 HD 
BRANCH   7   9
HETATM    9  C   UNL     1      -9.915  13.003  68.069  1.00  0.00    -0.233 A  
HETATM   10  C   UNL     1      -8.671  13.618  68.206  1.00  0.00    -0.171 A  
HETATM   11  C   UNL     1      -8.566  14.996  68.386  1.00  0.00    -0.162 A  
HETATM   12  C   UNL     1      -9.695  15.814  68.364  1.00  0.00    -0.203 A  
HETATM   13  C   UNL     1     -10.928  15.233  68.075  1.00  0.00    -0.299 A  
HETATM   14  C   UNL     1     -11.034  13.839  67.944  1.00  0.00    -0.270 A  
BRANCH  12  15
HETATM   15  N   UNL     1      -9.519  17.166  68.688  1.00  0.00    -0.269 NA 
HETATM   16  H   UNL     1     -10.215  17.531  69.337  1.00  0.00     0.000 HD 
BRANCH  15  17
HETATM   17  C   UNL     1      -8.566  18.110  68.285  1.00  0.00    -0.288 A  
HETATM   18  C   UNL     1      -7.501  18.411  69.144  1.00  0.00    -0.127 A  
HETATM   19  C   UNL     1      -6.481  19.277  68.745  1.00  0.00    -0.292 A  
HETATM   20  C   UNL     1      -6.516  19.849  67.478  1.00  0.00    -0.236 A  
HETATM   21  C   UNL     1      -7.585  19.582  66.624  1.00  0.00    -0.271 A  
HETATM   22  C   UNL     1      -8.615  18.730  67.033  1.00  0.00    -0.290 A  
ENDBRANCH  15  17
ENDBRANCH  12  15
ENDBRANCH   7   9
ENDBRANCH   4   7
TORSDOF 4
ENDMDL
MODEL      139
REMARK 921   NORMALIZED FREE ENERGY PREDICTED BY IDOCK:   -3.76 KCAL/MOL
REMARK 922        TOTAL FREE ENERGY PREDICTED BY IDOCK:   -5.32 KCAL/MOL
REMARK 923 INTER-LIGAND FREE ENERGY PREDICTED BY IDOCK:   -4.67 KCAL/MOL
REMARK 924 INTRA-LIGAND FREE ENERGY PREDICTED BY IDOCK:   -0.64 KCAL/MOL
REMARK 927      BINDING AFFINITY PREDICTED BY RF-SCORE:    0.00 PKD
ROOT
HETATM    1  C   UNL     1      -6.469   5.527  62.617  1.00  0.00    -0.025 C  
HETATM    2  C   UNL     1      -7.976   5.723  62.481  1.00  0.00    -0.096 C  
HETATM    3  C   UNL     1      -8.750   4.973  63.561  1.00  0.00    -0.079 C  
HETATM    4  C   UNL     1      -8.257   5.289  64.981  1.00  0.00    -0.134 C  
HETATM    5  C   UNL     1      -6.744   5.051  65.087  1.00  0.00    -0.048 C  
HETATM    6  C   UNL     1      -5.966   5.830  64.025  1.00  0.00    -0.025 C  
ENDROOT
BRANCH   4   7
HETATM    7  N   UNL     1      -8.552   6.680  65.338  1.00  0.00    -0.300 NA 
HETATM    8  H   UNL     1      -8.486   7.400  64.619  1.00  0.00     0.000 HD 
BRANCH   7   9
HETATM    9  C   UNL     1      -8.921   7.047  66.631  1.00  0.00    -0.142 A  
HETATM   10  C   UNL     1      -8.075   6.948  67.735  1.00  0.00    -0.114 A  
HETATM   11  C   UNL     1      -8.533   7.234  69.020  1.00  0.00    -0.129 A  
HETATM   12  C   UNL     1      -9.831   7.696  69.236  1.00  0.00    -0.168 A  
HETATM   13  C   UNL     1     -10.638   7.947  68.129  1.00  0.00    -0.179 A  
HETATM   14  C   UNL     1     -10.189   7.610  66.842  1.00  0.00    -0.365 A  
BRANCH  12  15
HETATM   15  N   UNL     1     -10.255   7.830  70.565  1.00  0.00    -0.200 NA 
HETATM   16  H   UNL     1      -9.509   7.716  71.252  1.00  0.00     0.000 HD 
BRANCH  15  17
HETATM   17  C   UNL     1     -11.511   8.092  71.127  1.00  0.00    -0.276 A  
HETATM   18  C   UNL     1     -11.787   9.378  71.607  1.00  0.00    -0.464 A  
HETATM   19  C   UNL     1     -13.055   9.707  72.090  1.00  0.00    -0.520 A  
HETATM   20  C   UNL     1     -14.062   8.748  72.096  1.00  0.00    -0.519 A  
HETATM   21  C   UNL     1     -13.793   7.454  71.649  1.00  0.00    -0.490 A  
HETATM   22  C   UNL     1     -12.517   7.124  71.183  1.00  0.00    -0.400 A  
ENDBRANCH  15  17
ENDBRANCH  12  15
ENDBRANCH   7   9
ENDBRANCH   4   7
TORSDOF 4
ENDMDL
MODEL      140
REMARK 921   NORMALIZED FREE ENERGY PREDICTED BY IDOCK:   -3.74 KCAL/MOL
REMARK 922        TOTAL FREE ENERGY PREDICTED BY IDOCK:   -5.28 KCAL/MOL
REMARK 923 INTER-LIGAND FREE ENERGY PREDICTED BY IDOCK:   -4.72 KCAL/MOL
REMARK 924 INTRA-LIGAND FREE ENERGY PREDICTED BY IDOCK:   -0.56 KCAL/MOL
REMARK 927      BINDING AFFINITY PREDICTED BY RF-SCORE:    0.00 PKD
ROOT
HETATM    1  C   UNL     1     -11.647   8.019  72.638  1.00  0.00    -0.448 C  
HETATM    2  C   UNL     1     -10.762   6.871  73.114  1.00  0.00    -0.338 C  
HETATM    3  C   UNL     1     -11.001   5.596  72.311  1.00  0.00    -0.312 C  
HETATM    4  C   UNL     1     -10.894   5.812  70.795  1.00  0.00    -0.260 C  
HETATM    5  C   UNL     1     -11.820   6.952  70.350  1.00  0.00    -0.351 C  
HETATM    6  C   UNL     1     -11.557   8.241  71.131  1.00  0.00    -0.310 C  
ENDROOT
BRANCH   4   7
HETATM    7  N   UNL     1      -9.516   6.133  70.410  1.00  0.00    -0.160 NA 
HETATM    8  H   UNL     1      -8.755   5.886  71.043  1.00  0.00     0.000 HD 
BRANCH   7   9
HETATM    9  C   UNL     1      -9.215   6.765  69.204  1.00  0.00    -0.137 A  
HETATM   10  C   UNL     1      -9.640   6.302  67.961  1.00  0.00    -0.115 A  
HETATM   11  C   UNL     1      -9.224   6.919  66.782  1.00  0.00    -0.177 A  
HETATM   12  C   UNL     1      -8.426   8.062  66.811  1.00  0.00    -0.128 A  
HETATM   13  C   UNL     1      -8.120   8.626  68.048  1.00  0.00    -0.111 A  
HETATM   14  C   UNL     1      -8.501   7.972  69.231  1.00  0.00    -0.136 A  
BRANCH  12  15
HETATM   15  N   UNL     1      -7.940   8.541  65.587  1.00  0.00    -0.101 NA 
HETATM   16  H   UNL     1      -7.042   8.142  65.313  1.00  0.00     0.000 HD 
BRANCH  15  17
HETATM   17  C   UNL     1      -8.457   9.464  64.669  1.00  0.00    -0.167 A  
HETATM   18  C   UNL     1      -7.827   9.615  63.427  1.00  0.00    -0.138 A  
HETATM   19  C   UNL     1      -8.361  10.456  62.449  1.00  0.00    -0.214 A  
HETATM   20  C   UNL     1      -9.536  11.154  62.705  1.00  0.00    -0.334 A  
HETATM   21  C   UNL     1     -10.158  11.037  63.948  1.00  0.00    -0.414 A  
HETATM   22  C   UNL     1      -9.610  10.209  64.931  1.00  0.00    -0.369 A  
ENDBRANCH  15  17
ENDBRANCH  12  15
ENDBRANCH   7   9
ENDBRANCH   4   7
TORSDOF 4
ENDMDL
MODEL      141
REMARK 921   NORMALIZED FREE ENERGY PREDICTED BY IDOCK:   -3.70 KCAL/MOL
REMARK 922        TOTAL FREE ENERGY PREDICTED BY IDOCK:   -5.24 KCAL/MOL
REMARK 923 INTER-LIGAND FREE ENERGY PREDICTED BY IDOCK:   -4.86 KCAL/MOL
REMARK 924 INTRA-LIGAND FREE ENERGY PREDICTED BY IDOCK:   -0.37 KCAL/MOL
REMARK 927      BINDING AFFINITY PREDICTED BY RF-SCORE:    0.00 PKD
ROOT
HETATM    1  C   UNL     1      -9.439   7.782  73.090  1.00  0.00    -0.325 C  
HETATM    2  C   UNL     1      -8.899   8.686  71.986  1.00  0.00    -0.264 C  
HETATM    3  C   UNL     1      -7.951   7.941  71.051  1.00  0.00    -0.090 C  
HETATM    4  C   UNL     1      -8.557   6.648  70.487  1.00  0.00    -0.143 C  
HETATM    5  C   UNL     1      -9.061   5.753  71.627  1.00  0.00    -0.152 C  
HETATM    6  C   UNL     1     -10.038   6.489  72.545  1.00  0.00    -0.189 C  
ENDROOT
BRANCH   4   7
HETATM    7  N   UNL     1      -9.671   6.946  69.581  1.00  0.00    -0.156 NA 
HETATM    8  H   UNL     1     -10.451   6.292  69.523  1.00  0.00     0.000 HD 
BRANCH   7   9
HETATM    9  C   UNL     1      -9.695   8.099  68.797  1.00  0.00    -0.153 A  
HETATM   10  C   UNL     1      -9.035   8.218  67.575  1.00  0.00    -0.141 A  
HETATM   11  C   UNL     1      -9.011   9.429  66.885  1.00  0.00    -0.148 A  
HETATM   12  C   UNL     1      -9.705  10.542  67.358  1.00  0.00    -0.164 A  
HETATM   13  C   UNL     1     -10.494  10.395  68.497  1.00  0.00    -0.210 A  
HETATM   14  C   UNL     1     -10.474   9.188  69.215  1.00  0.00    -0.231 A  
BRANCH  12  15
HETATM   15  N   UNL     1      -9.520  11.754  66.681  1.00  0.00    -0.199 NA 
HETATM   16  H   UNL     1      -8.611  12.186  66.845  1.00  0.00     0.000 HD 
BRANCH  15  17
HETATM   17  C   UNL     1     -10.349  12.484  65.819  1.00  0.00    -0.265 A  
HETATM   18  C   UNL     1     -10.668  11.948  64.565  1.00  0.00    -0.361 A  
HETATM   19  C   UNL     1     -11.563  12.599  63.714  1.00  0.00    -0.550 A  
HETATM   20  C   UNL     1     -12.152  13.794  64.113  1.00  0.00    -0.478 A  
HETATM   21  C   UNL     1     -11.822  14.354  65.347  1.00  0.00    -0.366 A  
HETATM   22  C   UNL     1     -10.910  13.710  66.189  1.00  0.00    -0.279 A  
ENDBRANCH  15  17
ENDBRANCH  12  15
ENDBRANCH   7   9
ENDBRANCH   4   7
TORSDOF 4
ENDMDL
MODEL      142
REMARK 921   NORMALIZED FREE ENERGY PREDICTED BY IDOCK:   -3.66 KCAL/MOL
REMARK 922        TOTAL FREE ENERGY PREDICTED BY IDOCK:   -5.19 KCAL/MOL
REMARK 923 INTER-LIGAND FREE ENERGY PREDICTED BY IDOCK:   -4.94 KCAL/MOL
REMARK 924 INTRA-LIGAND FREE ENERGY PREDICTED BY IDOCK:   -0.25 KCAL/MOL
REMARK 927      BINDING AFFINITY PREDICTED BY RF-SCORE:    0.00 PKD
ROOT
HETATM    1  C   UNL     1     -13.122  12.259  64.002  1.00  0.00    -0.173 C  
HETATM    2  C   UNL     1     -12.855  12.994  65.312  1.00  0.00    -0.284 C  
HETATM    3  C   UNL     1     -11.811  12.279  66.165  1.00  0.00    -0.398 C  
HETATM    4  C   UNL     1     -10.513  11.980  65.400  1.00  0.00    -0.275 C  
HETATM    5  C   UNL     1     -10.819  11.216  64.105  1.00  0.00    -0.355 C  
HETATM    6  C   UNL     1     -11.840  11.949  63.234  1.00  0.00    -0.418 C  
ENDROOT
BRANCH   4   7
HETATM    7  N   UNL     1      -9.805  13.222  65.070  1.00  0.00    -0.559 NA 
HETATM    8  H   UNL     1      -9.864  13.588  64.120  1.00  0.00     0.000 HD 
BRANCH   7   9
HETATM    9  C   UNL     1      -9.055  13.917  66.018  1.00  0.00     0.213 A  
HETATM   10  C   UNL     1      -8.244  13.298  66.968  1.00  0.00    -0.058 A  
HETATM   11  C   UNL     1      -7.597  14.040  67.955  1.00  0.00    -0.159 A  
HETATM   12  C   UNL     1      -7.683  15.432  67.982  1.00  0.00    -0.125 A  
HETATM   13  C   UNL     1      -8.363  16.074  66.949  1.00  0.00    -0.278 A  
HETATM   14  C   UNL     1      -9.054  15.319  65.988  1.00  0.00    -0.244 A  
BRANCH  12  15
HETATM   15  N   UNL     1      -7.117  16.092  69.081  1.00  0.00    -0.185 NA 
HETATM   16  H   UNL     1      -6.924  15.483  69.876  1.00  0.00     0.000 HD 
BRANCH  15  17
HETATM   17  C   UNL     1      -6.768  17.432  69.293  1.00  0.00    -0.222 A  
HETATM   18  C   UNL     1      -7.425  18.430  68.563  1.00  0.00    -0.309 A  
HETATM   19  C   UNL     1      -7.173  19.781  68.807  1.00  0.00    -0.352 A  
HETATM   20  C   UNL     1      -6.260  20.147  69.791  1.00  0.00    -0.381 A  
HETATM   21  C   UNL     1      -5.576  19.163  70.505  1.00  0.00    -0.243 A  
HETATM   22  C   UNL     1      -5.817  17.811  70.245  1.00  0.00    -0.134 A  
ENDBRANCH  15  17
ENDBRANCH  12  15
ENDBRANCH   7   9
ENDBRANCH   4   7
TORSDOF 4
ENDMDL
MODEL      143
REMARK 921   NORMALIZED FREE ENERGY PREDICTED BY IDOCK:   -3.66 KCAL/MOL
REMARK 922        TOTAL FREE ENERGY PREDICTED BY IDOCK:   -5.19 KCAL/MOL
REMARK 923 INTER-LIGAND FREE ENERGY PREDICTED BY IDOCK:   -4.36 KCAL/MOL
REMARK 924 INTRA-LIGAND FREE ENERGY PREDICTED BY IDOCK:   -0.83 KCAL/MOL
REMARK 927      BINDING AFFINITY PREDICTED BY RF-SCORE:    0.00 PKD
ROOT
HETATM    1  C   UNL     1      -7.046  10.227  63.108  1.00  0.00    -0.110 C  
HETATM    2  C   UNL     1      -8.271   9.968  63.980  1.00  0.00    -0.156 C  
HETATM    3  C   UNL     1      -8.267   8.559  64.565  1.00  0.00    -0.158 C  
HETATM    4  C   UNL     1      -6.961   8.216  65.296  1.00  0.00    -0.063 C  
HETATM    5  C   UNL     1      -5.755   8.461  64.379  1.00  0.00    -0.060 C  
HETATM    6  C   UNL     1      -5.740   9.884  63.819  1.00  0.00    -0.115 C  
ENDROOT
BRANCH   4   7
HETATM    7  N   UNL     1      -6.815   9.026  66.510  1.00  0.00    -0.078 NA 
HETATM    8  H   UNL     1      -6.022   9.662  66.588  1.00  0.00     0.000 HD 
BRANCH   7   9
HETATM    9  C   UNL     1      -7.729   8.951  67.560  1.00  0.00    -0.100 A  
HETATM   10  C   UNL     1      -8.438  10.047  68.048  1.00  0.00    -0.117 A  
HETATM   11  C   UNL     1      -9.262   9.931  69.166  1.00  0.00    -0.184 A  
HETATM   12  C   UNL     1      -9.460   8.700  69.791  1.00  0.00    -0.166 A  
HETATM   13  C   UNL     1      -8.880   7.568  69.222  1.00  0.00    -0.136 A  
HETATM   14  C   UNL     1      -8.012   7.699  68.126  1.00  0.00    -0.123 A  
BRANCH  12  15
HETATM   15  N   UNL     1     -10.192   8.693  70.985  1.00  0.00    -0.206 NA 
HETATM   16  H   UNL     1      -9.616   8.731  71.825  1.00  0.00     0.000 HD 
BRANCH  15  17
HETATM   17  C   UNL     1     -11.569   8.642  71.242  1.00  0.00    -0.284 A  
HETATM   18  C   UNL     1     -12.237   7.417  71.128  1.00  0.00    -0.357 A  
HETATM   19  C   UNL     1     -13.588   7.304  71.462  1.00  0.00    -0.442 A  
HETATM   20  C   UNL     1     -14.284   8.419  71.918  1.00  0.00    -0.541 A  
HETATM   21  C   UNL     1     -13.638   9.652  72.007  1.00  0.00    -0.467 A  
HETATM   22  C   UNL     1     -12.290   9.766  71.654  1.00  0.00    -0.495 A  
ENDBRANCH  15  17
ENDBRANCH  12  15
ENDBRANCH   7   9
ENDBRANCH   4   7
TORSDOF 4
ENDMDL
MODEL      144
REMARK 921   NORMALIZED FREE ENERGY PREDICTED BY IDOCK:   -3.66 KCAL/MOL
REMARK 922        TOTAL FREE ENERGY PREDICTED BY IDOCK:   -5.18 KCAL/MOL
REMARK 923 INTER-LIGAND FREE ENERGY PREDICTED BY IDOCK:   -4.45 KCAL/MOL
REMARK 924 INTRA-LIGAND FREE ENERGY PREDICTED BY IDOCK:   -0.73 KCAL/MOL
REMARK 927      BINDING AFFINITY PREDICTED BY RF-SCORE:    0.00 PKD
ROOT
HETATM    1  C   UNL     1     -12.208  14.830  64.234  1.00  0.00    -0.402 C  
HETATM    2  C   UNL     1     -11.364  15.016  65.491  1.00  0.00    -0.312 C  
HETATM    3  C   UNL     1     -11.582  13.890  66.497  1.00  0.00    -0.385 C  
HETATM    4  C   UNL     1     -11.398  12.494  65.885  1.00  0.00    -0.340 C  
HETATM    5  C   UNL     1     -12.284  12.335  64.642  1.00  0.00    -0.454 C  
HETATM    6  C   UNL     1     -12.041  13.444  63.618  1.00  0.00    -0.513 C  
ENDROOT
BRANCH   4   7
HETATM    7  N   UNL     1      -9.998  12.270  65.510  1.00  0.00    -0.253 NA 
HETATM    8  H   UNL     1      -9.521  12.967  64.938  1.00  0.00     0.000 HD 
BRANCH   7   9
HETATM    9  C   UNL     1      -9.300  11.132  65.913  1.00  0.00    -0.212 A  
HETATM   10  C   UNL     1      -9.703   9.832  65.616  1.00  0.00    -0.357 A  
HETATM   11  C   UNL     1      -9.021   8.731  66.133  1.00  0.00    -0.225 A  
HETATM   12  C   UNL     1      -7.872   8.894  66.906  1.00  0.00    -0.101 A  
HETATM   13  C   UNL     1      -7.370  10.182  67.084  1.00  0.00    -0.091 A  
HETATM   14  C   UNL     1      -8.089  11.288  66.603  1.00  0.00    -0.160 A  
BRANCH  12  15
HETATM   15  N   UNL     1      -7.325   7.748  67.499  1.00  0.00    -0.090 NA 
HETATM   16  H   UNL     1      -6.768   7.178  66.862  1.00  0.00     0.000 HD 
BRANCH  15  17
HETATM   17  C   UNL     1      -7.399   7.239  68.801  1.00  0.00    -0.096 A  
HETATM   18  C   UNL     1      -8.476   7.609  69.616  1.00  0.00    -0.135 A  
HETATM   19  C   UNL     1      -8.638   7.055  70.887  1.00  0.00    -0.139 A  
HETATM   20  C   UNL     1      -7.721   6.119  71.355  1.00  0.00    -0.100 A  
HETATM   21  C   UNL     1      -6.628   5.763  70.566  1.00  0.00    -0.044 A  
HETATM   22  C   UNL     1      -6.458   6.335  69.302  1.00  0.00    -0.043 A  
ENDBRANCH  15  17
ENDBRANCH  12  15
ENDBRANCH   7   9
ENDBRANCH   4   7
TORSDOF 4
ENDMDL
MODEL      145
REMARK 921   NORMALIZED FREE ENERGY PREDICTED BY IDOCK:   -3.65 KCAL/MOL
REMARK 922        TOTAL FREE ENERGY PREDICTED BY IDOCK:   -5.18 KCAL/MOL
REMARK 923 INTER-LIGAND FREE ENERGY PREDICTED BY IDOCK:   -4.42 KCAL/MOL
REMARK 924 INTRA-LIGAND FREE ENERGY PREDICTED BY IDOCK:   -0.76 KCAL/MOL
REMARK 927      BINDING AFFINITY PREDICTED BY RF-SCORE:    0.00 PKD
ROOT
HETATM    1  C   UNL     1     -13.554  15.839  73.190  1.00  0.00    -0.588 C  
HETATM    2  C   UNL     1     -14.408  15.390  72.008  1.00  0.00    -0.653 C  
HETATM    3  C   UNL     1     -13.570  15.162  70.753  1.00  0.00    -0.299 C  
HETATM    4  C   UNL     1     -12.378  14.223  70.989  1.00  0.00    -0.361 C  
HETATM    5  C   UNL     1     -11.528  14.723  72.166  1.00  0.00    -0.012 C  
HETATM    6  C   UNL     1     -12.362  14.918  73.433  1.00  0.00    -0.513 C  
ENDROOT
BRANCH   4   7
HETATM    7  N   UNL     1     -12.838  12.859  71.272  1.00  0.00    -0.329 NA 
HETATM    8  H   UNL     1     -13.761  12.724  71.685  1.00  0.00     0.000 HD 
BRANCH   7   9
HETATM    9  C   UNL     1     -12.050  11.743  70.994  1.00  0.00    -0.058 A  
HETATM   10  C   UNL     1     -12.119  10.550  71.709  1.00  0.00    -0.023 A  
HETATM   11  C   UNL     1     -11.236   9.503  71.451  1.00  0.00    -0.452 A  
HETATM   12  C   UNL     1     -10.300   9.589  70.420  1.00  0.00    -0.276 A  
HETATM   13  C   UNL     1     -10.321  10.714  69.598  1.00  0.00    -0.185 A  
HETATM   14  C   UNL     1     -11.179  11.784  69.895  1.00  0.00    -0.093 A  
BRANCH  12  15
HETATM   15  N   UNL     1      -9.361   8.554  70.313  1.00  0.00    -0.159 NA 
HETATM   16  H   UNL     1      -9.649   7.685  70.764  1.00  0.00     0.000 HD 
BRANCH  15  17
HETATM   17  C   UNL     1      -8.102   8.488  69.702  1.00  0.00    -0.113 A  
HETATM   18  C   UNL     1      -7.039   9.213  70.255  1.00  0.00    -0.063 A  
HETATM   19  C   UNL     1      -5.749   9.104  69.732  1.00  0.00    -0.032 A  
HETATM   20  C   UNL     1      -5.510   8.264  68.649  1.00  0.00    -0.036 A  
HETATM   21  C   UNL     1      -6.565   7.560  68.070  1.00  0.00    -0.054 A  
HETATM   22  C   UNL     1      -7.859   7.686  68.584  1.00  0.00    -0.121 A  
ENDBRANCH  15  17
ENDBRANCH  12  15
ENDBRANCH   7   9
ENDBRANCH   4   7
TORSDOF 4
ENDMDL
MODEL      146
REMARK 921   NORMALIZED FREE ENERGY PREDICTED BY IDOCK:   -3.65 KCAL/MOL
REMARK 922        TOTAL FREE ENERGY PREDICTED BY IDOCK:   -5.18 KCAL/MOL
REMARK 923 INTER-LIGAND FREE ENERGY PREDICTED BY IDOCK:   -4.63 KCAL/MOL
REMARK 924 INTRA-LIGAND FREE ENERGY PREDICTED BY IDOCK:   -0.54 KCAL/MOL
REMARK 927      BINDING AFFINITY PREDICTED BY RF-SCORE:    0.00 PKD
ROOT
HETATM    1  C   UNL     1     -10.860  16.488  69.324  1.00  0.00    -0.326 C  
HETATM    2  C   UNL     1     -10.912  15.619  70.577  1.00  0.00    -0.371 C  
HETATM    3  C   UNL     1     -11.957  14.513  70.463  1.00  0.00    -0.387 C  
HETATM    4  C   UNL     1     -11.803  13.672  69.188  1.00  0.00    -0.348 C  
HETATM    5  C   UNL     1     -11.786  14.577  67.949  1.00  0.00    -0.381 C  
HETATM    6  C   UNL     1     -10.715  15.664  68.048  1.00  0.00    -0.287 C  
ENDROOT
BRANCH   4   7
HETATM    7  N   UNL     1     -10.566  12.886  69.228  1.00  0.00    -0.435 NA 
HETATM    8  H   UNL     1      -9.860  13.110  69.929  1.00  0.00     0.000 HD 
BRANCH   7   9
HETATM    9  C   UNL     1     -10.327  11.841  68.336  1.00  0.00    -0.214 A  
HETATM   10  C   UNL     1     -11.259  11.392  67.403  1.00  0.00    -0.370 A  
HETATM   11  C   UNL     1     -11.001  10.277  66.607  1.00  0.00    -0.030 A  
HETATM   12  C   UNL     1      -9.774   9.617  66.668  1.00  0.00    -0.209 A  
HETATM   13  C   UNL     1      -8.777  10.147  67.484  1.00  0.00    -0.125 A  
HETATM   14  C   UNL     1      -9.060  11.239  68.320  1.00  0.00    -0.173 A  
BRANCH  12  15
HETATM   15  N   UNL     1      -9.644   8.428  65.937  1.00  0.00    -0.456 NA 
HETATM   16  H   UNL     1     -10.533   7.994  65.691  1.00  0.00     0.000 HD 
BRANCH  15  17
HETATM   17  C   UNL     1      -8.521   7.725  65.482  1.00  0.00    -0.133 A  
HETATM   18  C   UNL     1      -7.853   8.177  64.337  1.00  0.00    -0.136 A  
HETATM   19  C   UNL     1      -6.678   7.561  63.902  1.00  0.00    -0.053 A  
HETATM   20  C   UNL     1      -6.158   6.485  64.613  1.00  0.00    -0.034 A  
HETATM   21  C   UNL     1      -6.829   6.005  65.738  1.00  0.00    -0.056 A  
HETATM   22  C   UNL     1      -8.015   6.612  66.160  1.00  0.00    -0.110 A  
ENDBRANCH  15  17
ENDBRANCH  12  15
ENDBRANCH   7   9
ENDBRANCH   4   7
TORSDOF 4
ENDMDL
MODEL      147
REMARK 921   NORMALIZED FREE ENERGY PREDICTED BY IDOCK:   -3.65 KCAL/MOL
REMARK 922        TOTAL FREE ENERGY PREDICTED BY IDOCK:   -5.17 KCAL/MOL
REMARK 923 INTER-LIGAND FREE ENERGY PREDICTED BY IDOCK:   -4.55 KCAL/MOL
REMARK 924 INTRA-LIGAND FREE ENERGY PREDICTED BY IDOCK:   -0.62 KCAL/MOL
REMARK 927      BINDING AFFINITY PREDICTED BY RF-SCORE:    0.00 PKD
ROOT
HETATM    1  C   UNL     1     -11.883  15.011  65.341  1.00  0.00    -0.105 C  
HETATM    2  C   UNL     1     -12.462  13.819  66.097  1.00  0.00    -0.466 C  
HETATM    3  C   UNL     1     -11.819  12.504  65.668  1.00  0.00    -0.493 C  
HETATM    4  C   UNL     1     -10.285  12.535  65.735  1.00  0.00    -0.270 C  
HETATM    5  C   UNL     1      -9.739  13.729  64.940  1.00  0.00     0.162 C  
HETATM    6  C   UNL     1     -10.359  15.052  65.394  1.00  0.00    -0.410 C  
ENDROOT
BRANCH   4   7
HETATM    7  N   UNL     1      -9.827  12.633  67.125  1.00  0.00    -0.209 NA 
HETATM    8  H   UNL     1      -9.454  13.520  67.462  1.00  0.00     0.000 HD 
BRANCH   7   9
HETATM    9  C   UNL     1      -9.886  11.548  67.999  1.00  0.00    -0.188 A  
HETATM   10  C   UNL     1     -11.050  11.139  68.646  1.00  0.00    -0.293 A  
HETATM   11  C   UNL     1     -11.027  10.110  69.586  1.00  0.00    -0.305 A  
HETATM   12  C   UNL     1      -9.853   9.409  69.859  1.00  0.00    -0.210 A  
HETATM   13  C   UNL     1      -8.716   9.704  69.108  1.00  0.00    -0.151 A  
HETATM   14  C   UNL     1      -8.733  10.774  68.199  1.00  0.00    -0.130 A  
BRANCH  12  15
HETATM   15  N   UNL     1      -9.882   8.484  70.911  1.00  0.00    -0.180 NA 
HETATM   16  H   UNL     1      -9.985   8.908  71.832  1.00  0.00     0.000 HD 
BRANCH  15  17
HETATM   17  C   UNL     1      -9.797   7.086  70.934  1.00  0.00    -0.185 A  
HETATM   18  C   UNL     1      -9.420   6.447  72.121  1.00  0.00    -0.152 A  
HETATM   19  C   UNL     1      -9.410   5.054  72.213  1.00  0.00    -0.161 A  
HETATM   20  C   UNL     1      -9.783   4.285  71.115  1.00  0.00    -0.259 A  
HETATM   21  C   UNL     1     -10.132   4.908  69.917  1.00  0.00    -0.332 A  
HETATM   22  C   UNL     1     -10.122   6.303  69.822  1.00  0.00    -0.217 A  
ENDBRANCH  15  17
ENDBRANCH  12  15
ENDBRANCH   7   9
ENDBRANCH   4   7
TORSDOF 4
ENDMDL
MODEL      148
REMARK 921   NORMALIZED FREE ENERGY PREDICTED BY IDOCK:   -3.63 KCAL/MOL
REMARK 922        TOTAL FREE ENERGY PREDICTED BY IDOCK:   -5.16 KCAL/MOL
REMARK 923 INTER-LIGAND FREE ENERGY PREDICTED BY IDOCK:   -4.28 KCAL/MOL
REMARK 924 INTRA-LIGAND FREE ENERGY PREDICTED BY IDOCK:   -0.87 KCAL/MOL
REMARK 927      BINDING AFFINITY PREDICTED BY RF-SCORE:    0.00 PKD
ROOT
HETATM    1  C   UNL     1      -5.773   9.162  63.721  1.00  0.00    -0.074 C  
HETATM    2  C   UNL     1      -6.714  10.193  64.335  1.00  0.00    -0.110 C  
HETATM    3  C   UNL     1      -8.175   9.762  64.241  1.00  0.00    -0.160 C  
HETATM    4  C   UNL     1      -8.422   8.354  64.802  1.00  0.00    -0.101 C  
HETATM    5  C   UNL     1      -7.479   7.341  64.140  1.00  0.00    -0.099 C  
HETATM    6  C   UNL     1      -6.012   7.756  64.264  1.00  0.00    -0.052 C  
ENDROOT
BRANCH   4   7
HETATM    7  N   UNL     1      -8.214   8.328  66.254  1.00  0.00    -0.108 NA 
HETATM    8  H   UNL     1      -7.474   7.740  66.637  1.00  0.00     0.000 HD 
BRANCH   7   9
HETATM    9  C   UNL     1      -8.998   9.085  67.124  1.00  0.00    -0.130 A  
HETATM   10  C   UNL     1     -10.387   9.004  67.183  1.00  0.00    -0.342 A  
HETATM   11  C   UNL     1     -11.124   9.858  68.001  1.00  0.00    -0.220 A  
HETATM   12  C   UNL     1     -10.492  10.774  68.842  1.00  0.00    -0.205 A  
HETATM   13  C   UNL     1      -9.100  10.760  68.908  1.00  0.00    -0.170 A  
HETATM   14  C   UNL     1      -8.364   9.933  68.045  1.00  0.00    -0.113 A  
BRANCH  12  15
HETATM   15  N   UNL     1     -11.303  11.686  69.530  1.00  0.00    -0.347 NA 
HETATM   16  H   UNL     1     -11.892  11.260  70.245  1.00  0.00     0.000 HD 
BRANCH  15  17
HETATM   17  C   UNL     1     -11.457  13.074  69.419  1.00  0.00    -0.261 A  
HETATM   18  C   UNL     1     -11.040  13.713  68.245  1.00  0.00    -0.281 A  
HETATM   19  C   UNL     1     -11.258  15.079  68.055  1.00  0.00    -0.324 A  
HETATM   20  C   UNL     1     -11.900  15.820  69.042  1.00  0.00    -0.367 A  
HETATM   21  C   UNL     1     -12.294  15.202  70.229  1.00  0.00    -0.398 A  
HETATM   22  C   UNL     1     -12.057  13.839  70.423  1.00  0.00    -0.421 A  
ENDBRANCH  15  17
ENDBRANCH  12  15
ENDBRANCH   7   9
ENDBRANCH   4   7
TORSDOF 4
ENDMDL
MODEL      149
REMARK 921   NORMALIZED FREE ENERGY PREDICTED BY IDOCK:   -3.63 KCAL/MOL
REMARK 922        TOTAL FREE ENERGY PREDICTED BY IDOCK:   -5.15 KCAL/MOL
REMARK 923 INTER-LIGAND FREE ENERGY PREDICTED BY IDOCK:   -4.34 KCAL/MOL
REMARK 924 INTRA-LIGAND FREE ENERGY PREDICTED BY IDOCK:   -0.82 KCAL/MOL
REMARK 927      BINDING AFFINITY PREDICTED BY RF-SCORE:    0.00 PKD
ROOT
HETATM    1  C   UNL     1      -9.572   5.603  72.811  1.00  0.00    -0.164 C  
HETATM    2  C   UNL     1     -10.723   6.572  73.064  1.00  0.00    -0.291 C  
HETATM    3  C   UNL     1     -10.331   8.015  72.764  1.00  0.00    -0.408 C  
HETATM    4  C   UNL     1      -9.727   8.196  71.364  1.00  0.00    -0.171 C  
HETATM    5  C   UNL     1      -8.555   7.226  71.158  1.00  0.00    -0.130 C  
HETATM    6  C   UNL     1      -8.957   5.775  71.425  1.00  0.00    -0.147 C  
ENDROOT
BRANCH   4   7
HETATM    7  N   UNL     1     -10.736   7.957  70.327  1.00  0.00    -0.233 NA 
HETATM    8  H   UNL     1     -11.693   7.744  70.608  1.00  0.00     0.000 HD 
BRANCH   7   9
HETATM    9  C   UNL     1     -10.425   8.015  68.969  1.00  0.00    -0.199 A  
HETATM   10  C   UNL     1     -10.542   6.931  68.102  1.00  0.00    -0.262 A  
HETATM   11  C   UNL     1     -10.120   7.021  66.776  1.00  0.00    -0.270 A  
HETATM   12  C   UNL     1      -9.633   8.219  66.255  1.00  0.00    -0.196 A  
HETATM   13  C   UNL     1      -9.654   9.352  67.066  1.00  0.00    -0.209 A  
HETATM   14  C   UNL     1     -10.033   9.243  68.414  1.00  0.00    -0.196 A  
BRANCH  12  15
HETATM   15  N   UNL     1      -9.105   8.191  64.958  1.00  0.00    -0.345 NA 
HETATM   16  H   UNL     1      -9.084   7.262  64.538  1.00  0.00     0.000 HD 
BRANCH  15  17
HETATM   17  C   UNL     1      -8.599   9.201  64.128  1.00  0.00    -0.170 A  
HETATM   18  C   UNL     1      -7.218   9.270  63.906  1.00  0.00    -0.098 A  
HETATM   19  C   UNL     1      -6.682  10.203  63.016  1.00  0.00    -0.133 A  
HETATM   20  C   UNL     1      -7.526  11.075  62.336  1.00  0.00    -0.042 A  
HETATM   21  C   UNL     1      -8.900  11.036  62.571  1.00  0.00    -0.358 A  
HETATM   22  C   UNL     1      -9.432  10.115  63.477  1.00  0.00    -0.310 A  
ENDBRANCH  15  17
ENDBRANCH  12  15
ENDBRANCH   7   9
ENDBRANCH   4   7
TORSDOF 4
ENDMDL
MODEL      150
REMARK 921   NORMALIZED FREE ENERGY PREDICTED BY IDOCK:   -3.60 KCAL/MOL
REMARK 922        TOTAL FREE ENERGY PREDICTED BY IDOCK:   -5.11 KCAL/MOL
REMARK 923 INTER-LIGAND FREE ENERGY PREDICTED BY IDOCK:   -4.56 KCAL/MOL
REMARK 924 INTRA-LIGAND FREE ENERGY PREDICTED BY IDOCK:   -0.56 KCAL/MOL
REMARK 927      BINDING AFFINITY PREDICTED BY RF-SCORE:    0.00 PKD
ROOT
HETATM    1  C   UNL     1     -12.054  14.877  64.183  1.00  0.00    -0.289 C  
HETATM    2  C   UNL     1     -11.242  15.217  65.429  1.00  0.00    -0.307 C  
HETATM    3  C   UNL     1     -11.689  14.406  66.641  1.00  0.00    -0.410 C  
HETATM    4  C   UNL     1     -11.723  12.894  66.373  1.00  0.00    -0.395 C  
HETATM    5  C   UNL     1     -12.573  12.590  65.131  1.00  0.00    -0.358 C  
HETATM    6  C   UNL     1     -12.102  13.378  63.908  1.00  0.00    -0.514 C  
ENDROOT
BRANCH   4   7
HETATM    7  N   UNL     1     -10.368  12.371  66.169  1.00  0.00    -0.242 NA 
HETATM    8  H   UNL     1      -9.728  12.879  65.558  1.00  0.00     0.000 HD 
BRANCH   7   9
HETATM    9  C   UNL     1      -9.930  11.200  66.785  1.00  0.00    -0.208 A  
HETATM   10  C   UNL     1     -10.273   9.921  66.350  1.00  0.00    -0.292 A  
HETATM   11  C   UNL     1      -9.888   8.790  67.068  1.00  0.00    -0.279 A  
HETATM   12  C   UNL     1      -9.087   8.895  68.204  1.00  0.00    -0.140 A  
HETATM   13  C   UNL     1      -8.608  10.154  68.563  1.00  0.00    -0.118 A  
HETATM   14  C   UNL     1      -9.040  11.294  67.866  1.00  0.00    -0.150 A  
BRANCH  12  15
HETATM   15  N   UNL     1      -8.857   7.727  68.943  1.00  0.00    -0.135 NA 
HETATM   16  H   UNL     1      -8.741   7.885  69.943  1.00  0.00     0.000 HD 
BRANCH  15  17
HETATM   17  C   UNL     1      -8.757   6.382  68.564  1.00  0.00    -0.121 A  
HETATM   18  C   UNL     1      -9.928   5.661  68.301  1.00  0.00    -0.197 A  
HETATM   19  C   UNL     1      -9.871   4.346  67.834  1.00  0.00    -0.141 A  
HETATM   20  C   UNL     1      -8.637   3.741  67.621  1.00  0.00    -0.111 A  
HETATM   21  C   UNL     1      -7.463   4.438  67.907  1.00  0.00    -0.069 A  
HETATM   22  C   UNL     1      -7.524   5.747  68.393  1.00  0.00    -0.081 A  
ENDBRANCH  15  17
ENDBRANCH  12  15
ENDBRANCH   7   9
ENDBRANCH   4   7
TORSDOF 4
ENDMDL
MODEL      151
REMARK 921   NORMALIZED FREE ENERGY PREDICTED BY IDOCK:   -3.57 KCAL/MOL
REMARK 922        TOTAL FREE ENERGY PREDICTED BY IDOCK:   -5.08 KCAL/MOL
REMARK 923 INTER-LIGAND FREE ENERGY PREDICTED BY IDOCK:   -4.36 KCAL/MOL
REMARK 924 INTRA-LIGAND FREE ENERGY PREDICTED BY IDOCK:   -0.72 KCAL/MOL
REMARK 927      BINDING AFFINITY PREDICTED BY RF-SCORE:    0.00 PKD
ROOT
HETATM    1  C   UNL     1     -10.841  11.868  63.416  1.00  0.00    -0.469 C  
HETATM    2  C   UNL     1      -9.847  10.725  63.238  1.00  0.00    -0.394 C  
HETATM    3  C   UNL     1      -8.705  10.798  64.247  1.00  0.00    -0.080 C  
HETATM    4  C   UNL     1      -9.193  10.912  65.698  1.00  0.00    -0.203 C  
HETATM    5  C   UNL     1     -10.166  12.090  65.844  1.00  0.00    -0.263 C  
HETATM    6  C   UNL     1     -11.329  11.998  64.855  1.00  0.00    -0.366 C  
ENDROOT
BRANCH   4   7
HETATM    7  N   UNL     1      -9.864   9.678  66.121  1.00  0.00    -0.247 NA 
HETATM    8  H   UNL     1     -10.692   9.367  65.614  1.00  0.00     0.000 HD 
BRANCH   7   9
HETATM    9  C   UNL     1      -9.401   8.919  67.195  1.00  0.00    -0.145 A  
HETATM   10  C   UNL     1      -8.928   7.614  67.073  1.00  0.00    -0.148 A  
HETATM   11  C   UNL     1      -8.575   6.869  68.197  1.00  0.00    -0.123 A  
HETATM   12  C   UNL     1      -8.616   7.428  69.474  1.00  0.00    -0.134 A  
HETATM   13  C   UNL     1      -8.939   8.778  69.597  1.00  0.00    -0.145 A  
HETATM   14  C   UNL     1      -9.342   9.508  68.467  1.00  0.00    -0.138 A  
BRANCH  12  15
HETATM   15  N   UNL     1      -8.376   6.575  70.560  1.00  0.00    -0.131 NA 
HETATM   16  H   UNL     1      -7.443   6.164  70.566  1.00  0.00     0.000 HD 
BRANCH  15  17
HETATM   17  C   UNL     1      -9.179   6.181  71.638  1.00  0.00    -0.145 A  
HETATM   18  C   UNL     1     -10.562   6.065  71.451  1.00  0.00    -0.300 A  
HETATM   19  C   UNL     1     -11.386   5.588  72.471  1.00  0.00    -0.323 A  
HETATM   20  C   UNL     1     -10.832   5.220  73.693  1.00  0.00    -0.347 A  
HETATM   21  C   UNL     1      -9.461   5.359  73.904  1.00  0.00    -0.138 A  
HETATM   22  C   UNL     1      -8.640   5.854  72.886  1.00  0.00    -0.121 A  
ENDBRANCH  15  17
ENDBRANCH  12  15
ENDBRANCH   7   9
ENDBRANCH   4   7
TORSDOF 4
ENDMDL
MODEL      152
REMARK 921   NORMALIZED FREE ENERGY PREDICTED BY IDOCK:   -3.57 KCAL/MOL
REMARK 922        TOTAL FREE ENERGY PREDICTED BY IDOCK:   -5.08 KCAL/MOL
REMARK 923 INTER-LIGAND FREE ENERGY PREDICTED BY IDOCK:   -4.26 KCAL/MOL
REMARK 924 INTRA-LIGAND FREE ENERGY PREDICTED BY IDOCK:   -0.81 KCAL/MOL
REMARK 927      BINDING AFFINITY PREDICTED BY RF-SCORE:    0.00 PKD
ROOT
HETATM    1  C   UNL     1      -9.754  16.540  69.554  1.00  0.00    -0.041 C  
HETATM    2  C   UNL     1     -11.226  16.141  69.603  1.00  0.00    -0.331 C  
HETATM    3  C   UNL     1     -11.774  15.805  68.220  1.00  0.00    -0.229 C  
HETATM    4  C   UNL     1     -10.923  14.766  67.473  1.00  0.00    -0.304 C  
HETATM    5  C   UNL     1      -9.457  15.216  67.418  1.00  0.00    -0.204 C  
HETATM    6  C   UNL     1      -8.898  15.521  68.809  1.00  0.00    -0.203 C  
ENDROOT
BRANCH   4   7
HETATM    7  N   UNL     1     -11.001  13.459  68.132  1.00  0.00    -0.246 NA 
HETATM    8  H   UNL     1     -11.394  13.400  69.071  1.00  0.00     0.000 HD 
BRANCH   7   9
HETATM    9  C   UNL     1     -10.553  12.293  67.512  1.00  0.00    -0.218 A  
HETATM   10  C   UNL     1     -10.974  11.877  66.250  1.00  0.00    -0.345 A  
HETATM   11  C   UNL     1     -10.570  10.651  65.725  1.00  0.00    -0.168 A  
HETATM   12  C   UNL     1      -9.675   9.832  66.412  1.00  0.00    -0.216 A  
HETATM   13  C   UNL     1      -9.126  10.304  67.603  1.00  0.00    -0.144 A  
HETATM   14  C   UNL     1      -9.575  11.516  68.151  1.00  0.00    -0.187 A  
BRANCH  12  15
HETATM   15  N   UNL     1      -9.425   8.560  65.881  1.00  0.00    -0.411 NA 
HETATM   16  H   UNL     1      -9.244   8.558  64.877  1.00  0.00     0.000 HD 
BRANCH  15  17
HETATM   17  C   UNL     1      -9.378   7.290  66.470  1.00  0.00    -0.170 A  
HETATM   18  C   UNL     1     -10.567   6.568  66.627  1.00  0.00    -0.241 A  
HETATM   19  C   UNL     1     -10.553   5.264  67.126  1.00  0.00    -0.227 A  
HETATM   20  C   UNL     1      -9.344   4.668  67.470  1.00  0.00    -0.166 A  
HETATM   21  C   UNL     1      -8.155   5.386  67.347  1.00  0.00    -0.101 A  
HETATM   22  C   UNL     1      -8.174   6.698  66.866  1.00  0.00    -0.113 A  
ENDBRANCH  15  17
ENDBRANCH  12  15
ENDBRANCH   7   9
ENDBRANCH   4   7
TORSDOF 4
ENDMDL
MODEL      153
REMARK 921   NORMALIZED FREE ENERGY PREDICTED BY IDOCK:   -3.55 KCAL/MOL
REMARK 922        TOTAL FREE ENERGY PREDICTED BY IDOCK:   -5.05 KCAL/MOL
REMARK 923 INTER-LIGAND FREE ENERGY PREDICTED BY IDOCK:   -4.88 KCAL/MOL
REMARK 924 INTRA-LIGAND FREE ENERGY PREDICTED BY IDOCK:   -0.17 KCAL/MOL
REMARK 927      BINDING AFFINITY PREDICTED BY RF-SCORE:    0.00 PKD
ROOT
HETATM    1  C   UNL     1      -8.695  15.325  68.631  1.00  0.00    -0.182 C  
HETATM    2  C   UNL     1     -10.112  15.686  69.066  1.00  0.00    -0.227 C  
HETATM    3  C   UNL     1     -10.913  16.319  67.933  1.00  0.00    -0.310 C  
HETATM    4  C   UNL     1     -10.905  15.479  66.648  1.00  0.00    -0.285 C  
HETATM    5  C   UNL     1      -9.463  15.162  66.226  1.00  0.00    -0.341 C  
HETATM    6  C   UNL     1      -8.670  14.495  67.351  1.00  0.00    -0.210 C  
ENDROOT
BRANCH   4   7
HETATM    7  N   UNL     1     -11.637  14.223  66.842  1.00  0.00    -0.369 NA 
HETATM    8  H   UNL     1     -12.515  14.237  67.361  1.00  0.00     0.000 HD 
BRANCH   7   9
HETATM    9  C   UNL     1     -11.167  13.011  66.338  1.00  0.00    -0.300 A  
HETATM   10  C   UNL     1     -10.860  11.909  67.135  1.00  0.00    -0.301 A  
HETATM   11  C   UNL     1     -10.298  10.758  66.585  1.00  0.00    -0.294 A  
HETATM   12  C   UNL     1     -10.090  10.644  65.210  1.00  0.00    -0.297 A  
HETATM   13  C   UNL     1     -10.535  11.675  64.385  1.00  0.00    -0.374 A  
HETATM   14  C   UNL     1     -11.054  12.852  64.949  1.00  0.00    -0.326 A  
BRANCH  12  15
HETATM   15  N   UNL     1      -9.399   9.514  64.754  1.00  0.00    -0.405 NA 
HETATM   16  H   UNL     1      -9.941   8.651  64.794  1.00  0.00     0.000 HD 
BRANCH  15  17
HETATM   17  C   UNL     1      -8.101   9.347  64.253  1.00  0.00    -0.140 A  
HETATM   18  C   UNL     1      -7.029   9.942  64.929  1.00  0.00    -0.131 A  
HETATM   19  C   UNL     1      -5.713   9.726  64.517  1.00  0.00    -0.087 A  
HETATM   20  C   UNL     1      -5.457   8.908  63.421  1.00  0.00    -0.068 A  
HETATM   21  C   UNL     1      -6.517   8.334  62.720  1.00  0.00    -0.087 A  
HETATM   22  C   UNL     1      -7.834   8.567  63.124  1.00  0.00    -0.149 A  
ENDBRANCH  15  17
ENDBRANCH  12  15
ENDBRANCH   7   9
ENDBRANCH   4   7
TORSDOF 4
ENDMDL
MODEL      154
REMARK 921   NORMALIZED FREE ENERGY PREDICTED BY IDOCK:   -3.54 KCAL/MOL
REMARK 922        TOTAL FREE ENERGY PREDICTED BY IDOCK:   -5.04 KCAL/MOL
REMARK 923 INTER-LIGAND FREE ENERGY PREDICTED BY IDOCK:   -4.36 KCAL/MOL
REMARK 924 INTRA-LIGAND FREE ENERGY PREDICTED BY IDOCK:   -0.68 KCAL/MOL
REMARK 927      BINDING AFFINITY PREDICTED BY RF-SCORE:    0.00 PKD
ROOT
HETATM    1  C   UNL     1     -10.462   5.246  72.590  1.00  0.00    -0.265 C  
HETATM    2  C   UNL     1     -10.423   6.731  72.244  1.00  0.00    -0.233 C  
HETATM    3  C   UNL     1      -9.070   7.149  71.676  1.00  0.00    -0.141 C  
HETATM    4  C   UNL     1      -8.616   6.274  70.499  1.00  0.00    -0.139 C  
HETATM    5  C   UNL     1      -8.641   4.792  70.894  1.00  0.00    -0.126 C  
HETATM    6  C   UNL     1     -10.007   4.364  71.432  1.00  0.00    -0.248 C  
ENDROOT
BRANCH   4   7
HETATM    7  N   UNL     1      -9.485   6.477  69.335  1.00  0.00    -0.145 NA 
HETATM    8  H   UNL     1     -10.133   5.736  69.067  1.00  0.00     0.000 HD 
BRANCH   7   9
HETATM    9  C   UNL     1      -9.451   7.651  68.585  1.00  0.00    -0.151 A  
HETATM   10  C   UNL     1      -8.430   8.596  68.672  1.00  0.00    -0.130 A  
HETATM   11  C   UNL     1      -8.500   9.799  67.973  1.00  0.00    -0.118 A  
HETATM   12  C   UNL     1      -9.560  10.068  67.107  1.00  0.00    -0.165 A  
HETATM   13  C   UNL     1     -10.509   9.070  66.891  1.00  0.00    -0.293 A  
HETATM   14  C   UNL     1     -10.459   7.881  67.637  1.00  0.00    -0.303 A  
BRANCH  12  15
HETATM   15  N   UNL     1      -9.627  11.351  66.548  1.00  0.00    -0.193 NA 
HETATM   16  H   UNL     1      -9.250  11.411  65.602  1.00  0.00     0.000 HD 
BRANCH  15  17
HETATM   17  C   UNL     1     -10.115  12.566  67.045  1.00  0.00    -0.216 A  
HETATM   18  C   UNL     1     -11.247  12.559  67.869  1.00  0.00    -0.312 A  
HETATM   19  C   UNL     1     -11.713  13.736  68.458  1.00  0.00    -0.391 A  
HETATM   20  C   UNL     1     -11.045  14.935  68.230  1.00  0.00    -0.290 A  
HETATM   21  C   UNL     1      -9.934  14.962  67.387  1.00  0.00    -0.223 A  
HETATM   22  C   UNL     1      -9.482  13.785  66.783  1.00  0.00    -0.281 A  
ENDBRANCH  15  17
ENDBRANCH  12  15
ENDBRANCH   7   9
ENDBRANCH   4   7
TORSDOF 4
ENDMDL
MODEL      155
REMARK 921   NORMALIZED FREE ENERGY PREDICTED BY IDOCK:   -3.52 KCAL/MOL
REMARK 922        TOTAL FREE ENERGY PREDICTED BY IDOCK:   -5.02 KCAL/MOL
REMARK 923 INTER-LIGAND FREE ENERGY PREDICTED BY IDOCK:   -4.28 KCAL/MOL
REMARK 924 INTRA-LIGAND FREE ENERGY PREDICTED BY IDOCK:   -0.73 KCAL/MOL
REMARK 927      BINDING AFFINITY PREDICTED BY RF-SCORE:    0.00 PKD
ROOT
HETATM    1  C   UNL     1     -12.274  14.353  64.213  1.00  0.00    -0.450 C  
HETATM    2  C   UNL     1     -12.237  12.873  63.842  1.00  0.00    -0.525 C  
HETATM    3  C   UNL     1     -10.845  12.275  64.022  1.00  0.00    -0.439 C  
HETATM    4  C   UNL     1     -10.257  12.531  65.417  1.00  0.00    -0.283 C  
HETATM    5  C   UNL     1     -10.284  14.031  65.741  1.00  0.00    -0.343 C  
HETATM    6  C   UNL     1     -11.686  14.624  65.594  1.00  0.00    -0.304 C  
ENDROOT
BRANCH   4   7
HETATM    7  N   UNL     1     -11.012  11.803  66.443  1.00  0.00    -0.284 NA 
HETATM    8  H   UNL     1     -12.024  11.919  66.488  1.00  0.00     0.000 HD 
BRANCH   7   9
HETATM    9  C   UNL     1     -10.386  10.958  67.357  1.00  0.00    -0.211 A  
HETATM   10  C   UNL     1      -9.003  10.827  67.470  1.00  0.00    -0.132 A  
HETATM   11  C   UNL     1      -8.436   9.890  68.332  1.00  0.00    -0.111 A  
HETATM   12  C   UNL     1      -9.232   9.102  69.163  1.00  0.00    -0.144 A  
HETATM   13  C   UNL     1     -10.607   9.329  69.174  1.00  0.00    -0.228 A  
HETATM   14  C   UNL     1     -11.175  10.238  68.267  1.00  0.00    -0.295 A  
BRANCH  12  15
HETATM   15  N   UNL     1      -8.595   8.094  69.899  1.00  0.00    -0.129 NA 
HETATM   16  H   UNL     1      -8.719   8.176  70.908  1.00  0.00     0.000 HD 
BRANCH  15  17
HETATM   17  C   UNL     1      -7.821   6.994  69.508  1.00  0.00    -0.119 A  
HETATM   18  C   UNL     1      -8.235   6.224  68.414  1.00  0.00    -0.116 A  
HETATM   19  C   UNL     1      -7.447   5.176  67.936  1.00  0.00    -0.076 A  
HETATM   20  C   UNL     1      -6.231   4.890  68.548  1.00  0.00    -0.031 A  
HETATM   21  C   UNL     1      -5.820   5.629  69.657  1.00  0.00    -0.020 A  
HETATM   22  C   UNL     1      -6.621   6.665  70.146  1.00  0.00    -0.045 A  
ENDBRANCH  15  17
ENDBRANCH  12  15
ENDBRANCH   7   9
ENDBRANCH   4   7
TORSDOF 4
ENDMDL
MODEL      156
REMARK 921   NORMALIZED FREE ENERGY PREDICTED BY IDOCK:   -3.50 KCAL/MOL
REMARK 922        TOTAL FREE ENERGY PREDICTED BY IDOCK:   -4.99 KCAL/MOL
REMARK 923 INTER-LIGAND FREE ENERGY PREDICTED BY IDOCK:   -4.26 KCAL/MOL
REMARK 924 INTRA-LIGAND FREE ENERGY PREDICTED BY IDOCK:   -0.73 KCAL/MOL
REMARK 927      BINDING AFFINITY PREDICTED BY RF-SCORE:    0.00 PKD
ROOT
HETATM    1  C   UNL     1     -10.566   7.024  68.232  1.00  0.00    -0.238 C  
HETATM    2  C   UNL     1     -10.779   8.338  68.978  1.00  0.00    -0.098 C  
HETATM    3  C   UNL     1      -9.460   9.040  69.287  1.00  0.00    -0.157 C  
HETATM    4  C   UNL     1      -8.572   9.222  68.047  1.00  0.00    -0.121 C  
HETATM    5  C   UNL     1      -8.356   7.876  67.342  1.00  0.00    -0.123 C  
HETATM    6  C   UNL     1      -9.679   7.188  67.002  1.00  0.00    -0.222 C  
ENDROOT
BRANCH   4   7
HETATM    7  N   UNL     1      -9.180  10.167  67.105  1.00  0.00    -0.138 NA 
HETATM    8  H   UNL     1      -9.893   9.831  66.458  1.00  0.00     0.000 HD 
BRANCH   7   9
HETATM    9  C   UNL     1      -8.812  11.511  67.069  1.00  0.00    -0.173 A  
HETATM   10  C   UNL     1      -7.546  11.976  67.419  1.00  0.00    -0.151 A  
HETATM   11  C   UNL     1      -7.267  13.342  67.461  1.00  0.00    -0.157 A  
HETATM   12  C   UNL     1      -8.224  14.284  67.086  1.00  0.00    -0.160 A  
HETATM   13  C   UNL     1      -9.443  13.829  66.587  1.00  0.00    -0.289 A  
HETATM   14  C   UNL     1      -9.735  12.455  66.594  1.00  0.00    -0.229 A  
BRANCH  12  15
HETATM   15  N   UNL     1      -7.911  15.635  67.285  1.00  0.00    -0.178 NA 
HETATM   16  H   UNL     1      -6.916  15.845  67.215  1.00  0.00     0.000 HD 
BRANCH  15  17
HETATM   17  C   UNL     1      -8.711  16.752  67.561  1.00  0.00    -0.199 A  
HETATM   18  C   UNL     1      -8.764  17.798  66.632  1.00  0.00    -0.281 A  
HETATM   19  C   UNL     1      -9.617  18.886  66.825  1.00  0.00    -0.354 A  
HETATM   20  C   UNL     1     -10.429  18.937  67.954  1.00  0.00    -0.459 A  
HETATM   21  C   UNL     1     -10.364  17.917  68.903  1.00  0.00    -0.272 A  
HETATM   22  C   UNL     1      -9.495  16.838  68.716  1.00  0.00    -0.259 A  
ENDBRANCH  15  17
ENDBRANCH  12  15
ENDBRANCH   7   9
ENDBRANCH   4   7
TORSDOF 4
ENDMDL
MODEL      157
REMARK 921   NORMALIZED FREE ENERGY PREDICTED BY IDOCK:   -3.48 KCAL/MOL
REMARK 922        TOTAL FREE ENERGY PREDICTED BY IDOCK:   -4.97 KCAL/MOL
REMARK 923 INTER-LIGAND FREE ENERGY PREDICTED BY IDOCK:   -4.13 KCAL/MOL
REMARK 924 INTRA-LIGAND FREE ENERGY PREDICTED BY IDOCK:   -0.84 KCAL/MOL
REMARK 927      BINDING AFFINITY PREDICTED BY RF-SCORE:    0.00 PKD
ROOT
HETATM    1  C   UNL     1      -8.665  12.092  67.009  1.00  0.00    -0.188 C  
HETATM    2  C   UNL     1      -8.670  11.566  68.442  1.00  0.00    -0.160 C  
HETATM    3  C   UNL     1     -10.077  11.219  68.918  1.00  0.00    -0.185 C  
HETATM    4  C   UNL     1     -10.820  10.277  67.960  1.00  0.00    -0.275 C  
HETATM    5  C   UNL     1     -10.820  10.853  66.537  1.00  0.00    -0.234 C  
HETATM    6  C   UNL     1      -9.407  11.169  66.047  1.00  0.00    -0.228 C  
ENDROOT
BRANCH   4   7
HETATM    7  N   UNL     1     -10.194   8.951  67.942  1.00  0.00    -0.210 NA 
HETATM    8  H   UNL     1      -9.887   8.561  67.051  1.00  0.00     0.000 HD 
BRANCH   7   9
HETATM    9  C   UNL     1     -10.005   8.210  69.107  1.00  0.00    -0.192 A  
HETATM   10  C   UNL     1      -8.752   7.887  69.624  1.00  0.00    -0.134 A  
HETATM   11  C   UNL     1      -8.624   7.057  70.736  1.00  0.00    -0.143 A  
HETATM   12  C   UNL     1      -9.747   6.579  71.411  1.00  0.00    -0.172 A  
HETATM   13  C   UNL     1     -11.004   7.017  70.999  1.00  0.00    -0.279 A  
HETATM   14  C   UNL     1     -11.128   7.813  69.849  1.00  0.00    -0.142 A  
BRANCH  12  15
HETATM   15  N   UNL     1      -9.536   5.644  72.434  1.00  0.00    -0.150 NA 
HETATM   16  H   UNL     1      -9.068   6.026  73.255  1.00  0.00     0.000 HD 
BRANCH  15  17
HETATM   17  C   UNL     1      -9.849   4.282  72.538  1.00  0.00    -0.154 A  
HETATM   18  C   UNL     1     -10.788   3.871  73.491  1.00  0.00    -0.330 A  
HETATM   19  C   UNL     1     -11.195   2.538  73.568  1.00  0.00    -0.311 A  
HETATM   20  C   UNL     1     -10.666   1.601  72.686  1.00  0.00    -0.223 A  
HETATM   21  C   UNL     1      -9.708   1.991  71.751  1.00  0.00    -0.213 A  
HETATM   22  C   UNL     1      -9.288   3.323  71.690  1.00  0.00    -0.207 A  
ENDBRANCH  15  17
ENDBRANCH  12  15
ENDBRANCH   7   9
ENDBRANCH   4   7
TORSDOF 4
ENDMDL
MODEL      158
REMARK 921   NORMALIZED FREE ENERGY PREDICTED BY IDOCK:   -3.40 KCAL/MOL
REMARK 922        TOTAL FREE ENERGY PREDICTED BY IDOCK:   -4.87 KCAL/MOL
REMARK 923 INTER-LIGAND FREE ENERGY PREDICTED BY IDOCK:   -4.06 KCAL/MOL
REMARK 924 INTRA-LIGAND FREE ENERGY PREDICTED BY IDOCK:   -0.81 KCAL/MOL
REMARK 927      BINDING AFFINITY PREDICTED BY RF-SCORE:    0.00 PKD
ROOT
HETATM    1  C   UNL     1     -10.177   6.435  73.658  1.00  0.00    -0.284 C  
HETATM    2  C   UNL     1     -11.328   5.550  73.187  1.00  0.00    -0.282 C  
HETATM    3  C   UNL     1     -12.151   6.220  72.090  1.00  0.00    -0.304 C  
HETATM    4  C   UNL     1     -11.294   6.720  70.917  1.00  0.00    -0.315 C  
HETATM    5  C   UNL     1     -10.168   7.628  71.427  1.00  0.00    -0.208 C  
HETATM    6  C   UNL     1      -9.322   6.945  72.502  1.00  0.00    -0.154 C  
ENDROOT
BRANCH   4   7
HETATM    7  N   UNL     1     -10.709   5.593  70.182  1.00  0.00    -0.311 NA 
HETATM    8  H   UNL     1     -10.670   4.678  70.630  1.00  0.00     0.000 HD 
BRANCH   7   9
HETATM    9  C   UNL     1     -10.206   5.738  68.890  1.00  0.00    -0.204 A  
HETATM   10  C   UNL     1      -8.937   5.311  68.502  1.00  0.00    -0.118 A  
HETATM   11  C   UNL     1      -8.449   5.575  67.223  1.00  0.00    -0.110 A  
HETATM   12  C   UNL     1      -9.240   6.211  66.268  1.00  0.00    -0.147 A  
HETATM   13  C   UNL     1     -10.563   6.506  66.592  1.00  0.00    -0.241 A  
HETATM   14  C   UNL     1     -11.032   6.284  67.897  1.00  0.00    -0.421 A  
BRANCH  12  15
HETATM   15  N   UNL     1      -8.632   6.560  65.054  1.00  0.00    -0.342 NA 
HETATM   16  H   UNL     1      -8.762   5.872  64.313  1.00  0.00     0.000 HD 
BRANCH  15  17
HETATM   17  C   UNL     1      -7.878   7.676  64.669  1.00  0.00    -0.126 A  
HETATM   18  C   UNL     1      -6.483   7.622  64.769  1.00  0.00    -0.044 A  
HETATM   19  C   UNL     1      -5.690   8.676  64.311  1.00  0.00    -0.065 A  
HETATM   20  C   UNL     1      -6.289   9.797  63.745  1.00  0.00    -0.118 A  
HETATM   21  C   UNL     1      -7.679   9.877  63.667  1.00  0.00    -0.141 A  
HETATM   22  C   UNL     1      -8.471   8.828  64.143  1.00  0.00    -0.123 A  
ENDBRANCH  15  17
ENDBRANCH  12  15
ENDBRANCH   7   9
ENDBRANCH   4   7
TORSDOF 4
ENDMDL
MODEL      159
REMARK 921   NORMALIZED FREE ENERGY PREDICTED BY IDOCK:   -3.39 KCAL/MOL
REMARK 922        TOTAL FREE ENERGY PREDICTED BY IDOCK:   -4.86 KCAL/MOL
REMARK 923 INTER-LIGAND FREE ENERGY PREDICTED BY IDOCK:   -4.63 KCAL/MOL
REMARK 924 INTRA-LIGAND FREE ENERGY PREDICTED BY IDOCK:   -0.23 KCAL/MOL
REMARK 927      BINDING AFFINITY PREDICTED BY RF-SCORE:    0.00 PKD
ROOT
HETATM    1  C   UNL     1      -9.070   7.669  73.806  1.00  0.00    -0.332 C  
HETATM    2  C   UNL     1      -8.680   8.434  72.544  1.00  0.00    -0.277 C  
HETATM    3  C   UNL     1      -7.846   7.580  71.594  1.00  0.00    -0.086 C  
HETATM    4  C   UNL     1      -8.502   6.231  71.266  1.00  0.00    -0.124 C  
HETATM    5  C   UNL     1      -8.852   5.479  72.558  1.00  0.00    -0.130 C  
HETATM    6  C   UNL     1      -9.717   6.323  73.496  1.00  0.00    -0.177 C  
ENDROOT
BRANCH   4   7
HETATM    7  N   UNL     1      -9.723   6.424  70.475  1.00  0.00    -0.168 NA 
HETATM    8  H   UNL     1     -10.597   6.017  70.808  1.00  0.00     0.000 HD 
BRANCH   7   9
HETATM    9  C   UNL     1      -9.722   7.146  69.283  1.00  0.00    -0.159 A  
HETATM   10  C   UNL     1     -10.843   7.798  68.773  1.00  0.00    -0.006 A  
HETATM   11  C   UNL     1     -10.809   8.419  67.526  1.00  0.00    -0.083 A  
HETATM   12  C   UNL     1      -9.632   8.471  66.779  1.00  0.00    -0.210 A  
HETATM   13  C   UNL     1      -8.466   7.959  67.344  1.00  0.00    -0.122 A  
HETATM   14  C   UNL     1      -8.518   7.291  68.578  1.00  0.00    -0.125 A  
BRANCH  12  15
HETATM   15  N   UNL     1      -9.714   8.993  65.481  1.00  0.00    -0.461 NA 
HETATM   16  H   UNL     1      -9.528   8.309  64.747  1.00  0.00     0.000 HD 
BRANCH  15  17
HETATM   17  C   UNL     1     -10.004  10.277  65.002  1.00  0.00    -0.323 A  
HETATM   18  C   UNL     1     -10.426  11.260  65.905  1.00  0.00    -0.314 A  
HETATM   19  C   UNL     1     -10.637  12.575  65.487  1.00  0.00    -0.304 A  
HETATM   20  C   UNL     1     -10.424  12.920  64.156  1.00  0.00    -0.429 A  
HETATM   21  C   UNL     1     -10.032  11.944  63.240  1.00  0.00    -0.409 A  
HETATM   22  C   UNL     1      -9.841  10.625  63.658  1.00  0.00    -0.392 A  
ENDBRANCH  15  17
ENDBRANCH  12  15
ENDBRANCH   7   9
ENDBRANCH   4   7
TORSDOF 4
ENDMDL
MODEL      160
REMARK 921   NORMALIZED FREE ENERGY PREDICTED BY IDOCK:   -3.34 KCAL/MOL
REMARK 922        TOTAL FREE ENERGY PREDICTED BY IDOCK:   -4.80 KCAL/MOL
REMARK 923 INTER-LIGAND FREE ENERGY PREDICTED BY IDOCK:   -3.93 KCAL/MOL
REMARK 924 INTRA-LIGAND FREE ENERGY PREDICTED BY IDOCK:   -0.87 KCAL/MOL
REMARK 927      BINDING AFFINITY PREDICTED BY RF-SCORE:    0.00 PKD
ROOT
HETATM    1  C   UNL     1      -8.541   5.457  74.011  1.00  0.00    -0.115 C  
HETATM    2  C   UNL     1      -8.681   4.862  72.613  1.00  0.00    -0.119 C  
HETATM    3  C   UNL     1     -10.119   4.921  72.109  1.00  0.00    -0.250 C  
HETATM    4  C   UNL     1     -10.730   6.327  72.197  1.00  0.00    -0.231 C  
HETATM    5  C   UNL     1     -10.596   6.879  73.623  1.00  0.00    -0.371 C  
HETATM    6  C   UNL     1      -9.149   6.852  74.116  1.00  0.00    -0.238 C  
ENDROOT
BRANCH   4   7
HETATM    7  N   UNL     1     -10.066   7.242  71.263  1.00  0.00    -0.189 NA 
HETATM    8  H   UNL     1      -9.625   8.087  71.626  1.00  0.00     0.000 HD 
BRANCH   7   9
HETATM    9  C   UNL     1     -10.020   6.990  69.892  1.00  0.00    -0.177 A  
HETATM   10  C   UNL     1     -11.138   6.663  69.128  1.00  0.00    -0.332 A  
HETATM   11  C   UNL     1     -11.015   6.322  67.782  1.00  0.00    -0.427 A  
HETATM   12  C   UNL     1      -9.779   6.366  67.138  1.00  0.00    -0.141 A  
HETATM   13  C   UNL     1      -8.678   6.840  67.849  1.00  0.00    -0.120 A  
HETATM   14  C   UNL     1      -8.799   7.134  69.217  1.00  0.00    -0.136 A  
BRANCH  12  15
HETATM   15  N   UNL     1      -9.717   5.880  65.825  1.00  0.00    -0.370 NA 
HETATM   16  H   UNL     1     -10.230   6.446  65.149  1.00  0.00     0.000 HD 
BRANCH  15  17
HETATM   17  C   UNL     1      -9.083   4.763  65.267  1.00  0.00    -0.155 A  
HETATM   18  C   UNL     1      -9.233   3.516  65.886  1.00  0.00    -0.162 A  
HETATM   19  C   UNL     1      -8.695   2.362  65.314  1.00  0.00    -0.117 A  
HETATM   20  C   UNL     1      -8.001   2.445  64.111  1.00  0.00    -0.077 A  
HETATM   21  C   UNL     1      -7.818   3.685  63.499  1.00  0.00    -0.075 A  
HETATM   22  C   UNL     1      -8.342   4.841  64.085  1.00  0.00    -0.124 A  
ENDBRANCH  15  17
ENDBRANCH  12  15
ENDBRANCH   7   9
ENDBRANCH   4   7
TORSDOF 4
ENDMDL
MODEL      161
REMARK 921   NORMALIZED FREE ENERGY PREDICTED BY IDOCK:   -3.27 KCAL/MOL
REMARK 922        TOTAL FREE ENERGY PREDICTED BY IDOCK:   -4.71 KCAL/MOL
REMARK 923 INTER-LIGAND FREE ENERGY PREDICTED BY IDOCK:   -4.00 KCAL/MOL
REMARK 924 INTRA-LIGAND FREE ENERGY PREDICTED BY IDOCK:   -0.71 KCAL/MOL
REMARK 927      BINDING AFFINITY PREDICTED BY RF-SCORE:    0.00 PKD
ROOT
HETATM    1  C   UNL     1      -7.777   3.977  62.761  1.00  0.00    -0.061 C  
HETATM    2  C   UNL     1      -7.263   3.432  64.090  1.00  0.00    -0.058 C  
HETATM    3  C   UNL     1      -6.394   4.448  64.825  1.00  0.00    -0.034 C  
HETATM    4  C   UNL     1      -7.076   5.813  64.991  1.00  0.00    -0.064 C  
HETATM    5  C   UNL     1      -7.552   6.342  63.631  1.00  0.00    -0.090 C  
HETATM    6  C   UNL     1      -8.451   5.337  62.909  1.00  0.00    -0.096 C  
ENDROOT
BRANCH   4   7
HETATM    7  N   UNL     1      -8.224   5.716  65.898  1.00  0.00    -0.114 NA 
HETATM    8  H   UNL     1      -8.575   4.793  66.155  1.00  0.00     0.000 HD 
BRANCH   7   9
HETATM    9  C   UNL     1      -8.849   6.847  66.420  1.00  0.00    -0.145 A  
HETATM   10  C   UNL     1      -8.205   8.068  66.612  1.00  0.00    -0.108 A  
HETATM   11  C   UNL     1      -8.853   9.134  67.233  1.00  0.00    -0.132 A  
HETATM   12  C   UNL     1     -10.190   9.039  67.618  1.00  0.00    -0.242 A  
HETATM   13  C   UNL     1     -10.892   7.879  67.294  1.00  0.00    -0.189 A  
HETATM   14  C   UNL     1     -10.220   6.791  66.714  1.00  0.00    -0.273 A  
BRANCH  12  15
HETATM   15  N   UNL     1     -10.727  10.103  68.355  1.00  0.00    -0.216 NA 
HETATM   16  H   UNL     1     -10.751   9.940  69.361  1.00  0.00     0.000 HD 
BRANCH  15  17
HETATM   17  C   UNL     1     -11.238  11.348  67.968  1.00  0.00    -0.281 A  
HETATM   18  C   UNL     1     -11.624  12.262  68.956  1.00  0.00    -0.368 A  
HETATM   19  C   UNL     1     -12.052  13.547  68.617  1.00  0.00    -0.303 A  
HETATM   20  C   UNL     1     -12.096  13.931  67.280  1.00  0.00    -0.403 A  
HETATM   21  C   UNL     1     -11.743  13.021  66.284  1.00  0.00    -0.440 A  
HETATM   22  C   UNL     1     -11.333  11.729  66.626  1.00  0.00    -0.381 A  
ENDBRANCH  15  17
ENDBRANCH  12  15
ENDBRANCH   7   9
ENDBRANCH   4   7
TORSDOF 4
ENDMDL
MODEL      162
REMARK 921   NORMALIZED FREE ENERGY PREDICTED BY IDOCK:   -3.26 KCAL/MOL
REMARK 922        TOTAL FREE ENERGY PREDICTED BY IDOCK:   -4.69 KCAL/MOL
REMARK 923 INTER-LIGAND FREE ENERGY PREDICTED BY IDOCK:   -3.85 KCAL/MOL
REMARK 924 INTRA-LIGAND FREE ENERGY PREDICTED BY IDOCK:   -0.84 KCAL/MOL
REMARK 927      BINDING AFFINITY PREDICTED BY RF-SCORE:    0.00 PKD
ROOT
HETATM    1  C   UNL     1      -8.903   8.641  66.615  1.00  0.00    -0.155 C  
HETATM    2  C   UNL     1      -8.187   9.923  66.202  1.00  0.00    -0.118 C  
HETATM    3  C   UNL     1      -9.165  11.062  65.933  1.00  0.00    -0.220 C  
HETATM    4  C   UNL     1     -10.144  11.300  67.093  1.00  0.00    -0.192 C  
HETATM    5  C   UNL     1     -10.866   9.996  67.458  1.00  0.00    -0.326 C  
HETATM    6  C   UNL     1      -9.884   8.863  67.762  1.00  0.00    -0.208 C  
ENDROOT
BRANCH   4   7
HETATM    7  N   UNL     1      -9.439  11.807  68.274  1.00  0.00    -0.190 NA 
HETATM    8  H   UNL     1      -9.458  11.261  69.135  1.00  0.00     0.000 HD 
BRANCH   7   9
HETATM    9  C   UNL     1      -8.743  13.016  68.254  1.00  0.00    -0.173 A  
HETATM   10  C   UNL     1      -7.383  13.130  68.535  1.00  0.00    -0.111 A  
HETATM   11  C   UNL     1      -6.764  14.377  68.600  1.00  0.00    -0.090 A  
HETATM   12  C   UNL     1      -7.468  15.546  68.317  1.00  0.00    -0.115 A  
HETATM   13  C   UNL     1      -8.789  15.437  67.885  1.00  0.00    -0.168 A  
HETATM   14  C   UNL     1      -9.420  14.182  67.870  1.00  0.00    -0.211 A  
BRANCH  12  15
HETATM   15  N   UNL     1      -6.811  16.765  68.536  1.00  0.00    -0.157 NA 
HETATM   16  H   UNL     1      -6.384  16.845  69.458  1.00  0.00     0.000 HD 
BRANCH  15  17
HETATM   17  C   UNL     1      -6.632  17.893  67.725  1.00  0.00    -0.189 A  
HETATM   18  C   UNL     1      -6.856  19.164  68.268  1.00  0.00    -0.283 A  
HETATM   19  C   UNL     1      -6.602  20.317  67.523  1.00  0.00    -0.273 A  
HETATM   20  C   UNL     1      -6.116  20.208  66.224  1.00  0.00    -0.193 A  
HETATM   21  C   UNL     1      -5.916  18.948  65.660  1.00  0.00    -0.231 A  
HETATM   22  C   UNL     1      -6.190  17.796  66.402  1.00  0.00    -0.246 A  
ENDBRANCH  15  17
ENDBRANCH  12  15
ENDBRANCH   7   9
ENDBRANCH   4   7
TORSDOF 4
ENDMDL
MODEL      163
REMARK 921   NORMALIZED FREE ENERGY PREDICTED BY IDOCK:   -3.16 KCAL/MOL
REMARK 922        TOTAL FREE ENERGY PREDICTED BY IDOCK:   -4.57 KCAL/MOL
REMARK 923 INTER-LIGAND FREE ENERGY PREDICTED BY IDOCK:   -3.87 KCAL/MOL
REMARK 924 INTRA-LIGAND FREE ENERGY PREDICTED BY IDOCK:   -0.70 KCAL/MOL
REMARK 927      BINDING AFFINITY PREDICTED BY RF-SCORE:    0.00 PKD
ROOT
HETATM    1  C   UNL     1      -9.989  20.317  68.117  1.00  0.00    -0.421 C  
HETATM    2  C   UNL     1     -10.884  19.529  67.165  1.00  0.00    -0.555 C  
HETATM    3  C   UNL     1     -10.096  18.931  66.004  1.00  0.00    -0.372 C  
HETATM    4  C   UNL     1      -8.882  18.110  66.461  1.00  0.00    -0.271 C  
HETATM    5  C   UNL     1      -7.992  18.944  67.391  1.00  0.00    -0.264 C  
HETATM    6  C   UNL     1      -8.775  19.515  68.575  1.00  0.00    -0.388 C  
ENDROOT
BRANCH   4   7
HETATM    7  N   UNL     1      -9.310  16.896  67.165  1.00  0.00    -0.231 NA 
HETATM    8  H   UNL     1     -10.304  16.672  67.205  1.00  0.00     0.000 HD 
BRANCH   7   9
HETATM    9  C   UNL     1      -8.397  16.041  67.780  1.00  0.00    -0.150 A  
HETATM   10  C   UNL     1      -7.236  15.577  67.165  1.00  0.00    -0.208 A  
HETATM   11  C   UNL     1      -6.413  14.642  67.792  1.00  0.00    -0.182 A  
HETATM   12  C   UNL     1      -6.686  14.195  69.085  1.00  0.00    -0.118 A  
HETATM   13  C   UNL     1      -7.757  14.764  69.771  1.00  0.00     0.068 A  
HETATM   14  C   UNL     1      -8.610  15.667  69.116  1.00  0.00    -0.251 A  
BRANCH  12  15
HETATM   15  N   UNL     1      -5.891  13.158  69.590  1.00  0.00    -0.101 NA 
HETATM   16  H   UNL     1      -5.088  13.478  70.131  1.00  0.00     0.000 HD 
BRANCH  15  17
HETATM   17  C   UNL     1      -5.992  11.764  69.491  1.00  0.00    -0.092 A  
HETATM   18  C   UNL     1      -5.884  10.990  70.653  1.00  0.00    -0.105 A  
HETATM   19  C   UNL     1      -6.069   9.607  70.613  1.00  0.00    -0.078 A  
HETATM   20  C   UNL     1      -6.368   8.984  69.405  1.00  0.00    -0.044 A  
HETATM   21  C   UNL     1      -6.448   9.739  68.236  1.00  0.00    -0.056 A  
HETATM   22  C   UNL     1      -6.243  11.121  68.276  1.00  0.00    -0.049 A  
ENDBRANCH  15  17
ENDBRANCH  12  15
ENDBRANCH   7   9
ENDBRANCH   4   7
TORSDOF 4
ENDMDL
MODEL      164
REMARK 921   NORMALIZED FREE ENERGY PREDICTED BY IDOCK:   -3.09 KCAL/MOL
REMARK 922        TOTAL FREE ENERGY PREDICTED BY IDOCK:   -4.49 KCAL/MOL
REMARK 923 INTER-LIGAND FREE ENERGY PREDICTED BY IDOCK:   -3.74 KCAL/MOL
REMARK 924 INTRA-LIGAND FREE ENERGY PREDICTED BY IDOCK:   -0.74 KCAL/MOL
REMARK 927      BINDING AFFINITY PREDICTED BY RF-SCORE:    0.00 PKD
ROOT
HETATM    1  C   UNL     1      -9.973  10.321  64.449  1.00  0.00    -0.331 C  
HETATM    2  C   UNL     1      -9.220   9.613  63.326  1.00  0.00    -0.132 C  
HETATM    3  C   UNL     1      -7.793   9.258  63.731  1.00  0.00    -0.133 C  
HETATM    4  C   UNL     1      -7.720   8.477  65.052  1.00  0.00    -0.102 C  
HETATM    5  C   UNL     1      -8.461   9.234  66.162  1.00  0.00    -0.135 C  
HETATM    6  C   UNL     1      -9.903   9.561  65.769  1.00  0.00    -0.363 C  
ENDROOT
BRANCH   4   7
HETATM    7  N   UNL     1      -8.310   7.143  64.901  1.00  0.00    -0.312 NA 
HETATM    8  H   UNL     1      -8.477   6.778  63.964  1.00  0.00     0.000 HD 
BRANCH   7   9
HETATM    9  C   UNL     1      -8.651   6.360  66.003  1.00  0.00    -0.147 A  
HETATM   10  C   UNL     1      -9.953   5.956  66.293  1.00  0.00    -0.107 A  
HETATM   11  C   UNL     1     -10.246   5.260  67.464  1.00  0.00    -0.229 A  
HETATM   12  C   UNL     1      -9.237   4.881  68.349  1.00  0.00    -0.124 A  
HETATM   13  C   UNL     1      -7.915   5.142  67.997  1.00  0.00    -0.091 A  
HETATM   14  C   UNL     1      -7.630   5.888  66.842  1.00  0.00    -0.099 A  
BRANCH  12  15
HETATM   15  N   UNL     1      -9.628   4.304  69.565  1.00  0.00    -0.192 NA 
HETATM   16  H   UNL     1      -9.801   3.301  69.512  1.00  0.00     0.000 HD 
BRANCH  15  17
HETATM   17  C   UNL     1      -9.826   4.849  70.841  1.00  0.00    -0.207 A  
HETATM   18  C   UNL     1      -9.631   6.222  71.032  1.00  0.00    -0.191 A  
HETATM   19  C   UNL     1      -9.905   6.820  72.264  1.00  0.00    -0.166 A  
HETATM   20  C   UNL     1     -10.381   6.047  73.318  1.00  0.00    -0.238 A  
HETATM   21  C   UNL     1     -10.551   4.673  73.150  1.00  0.00    -0.283 A  
HETATM   22  C   UNL     1     -10.258   4.074  71.921  1.00  0.00    -0.160 A  
ENDBRANCH  15  17
ENDBRANCH  12  15
ENDBRANCH   7   9
ENDBRANCH   4   7
TORSDOF 4
ENDMDL
MODEL      165
REMARK 921   NORMALIZED FREE ENERGY PREDICTED BY IDOCK:   -3.00 KCAL/MOL
REMARK 922        TOTAL FREE ENERGY PREDICTED BY IDOCK:   -4.38 KCAL/MOL
REMARK 923 INTER-LIGAND FREE ENERGY PREDICTED BY IDOCK:   -3.53 KCAL/MOL
REMARK 924 INTRA-LIGAND FREE ENERGY PREDICTED BY IDOCK:   -0.84 KCAL/MOL
REMARK 927      BINDING AFFINITY PREDICTED BY RF-SCORE:    0.00 PKD
ROOT
HETATM    1  C   UNL     1      -8.448   4.647  63.709  1.00  0.00    -0.126 C  
HETATM    2  C   UNL     1      -8.231   3.864  65.000  1.00  0.00    -0.097 C  
HETATM    3  C   UNL     1      -7.183   4.517  65.895  1.00  0.00    -0.076 C  
HETATM    4  C   UNL     1      -7.466   6.002  66.166  1.00  0.00    -0.085 C  
HETATM    5  C   UNL     1      -7.649   6.761  64.845  1.00  0.00    -0.102 C  
HETATM    6  C   UNL     1      -8.724   6.126  63.962  1.00  0.00     0.401 C  
ENDROOT
BRANCH   4   7
HETATM    7  N   UNL     1      -8.674   6.161  66.984  1.00  0.00    -0.107 NA 
HETATM    8  H   UNL     1      -9.187   5.330  67.275  1.00  0.00     0.000 HD 
BRANCH   7   9
HETATM    9  C   UNL     1      -9.139   7.416  67.374  1.00  0.00    -0.122 A  
HETATM   10  C   UNL     1     -10.373   7.938  66.988  1.00  0.00    -0.411 A  
HETATM   11  C   UNL     1     -10.741   9.239  67.326  1.00  0.00    -0.244 A  
HETATM   12  C   UNL     1      -9.918  10.038  68.120  1.00  0.00    -0.153 A  
HETATM   13  C   UNL     1      -8.753   9.477  68.640  1.00  0.00    -0.127 A  
HETATM   14  C   UNL     1      -8.364   8.183  68.256  1.00  0.00    -0.126 A  
BRANCH  12  15
HETATM   15  N   UNL     1     -10.296  11.375  68.300  1.00  0.00    -0.186 NA 
HETATM   16  H   UNL     1      -9.952  12.004  67.575  1.00  0.00     0.000 HD 
BRANCH  15  17
HETATM   17  C   UNL     1     -11.058  12.009  69.290  1.00  0.00    -0.185 A  
HETATM   18  C   UNL     1     -11.341  13.374  69.160  1.00  0.00    -0.333 A  
HETATM   19  C   UNL     1     -12.172  14.024  70.074  1.00  0.00    -0.414 A  
HETATM   20  C   UNL     1     -12.731  13.310  71.130  1.00  0.00    -0.404 A  
HETATM   21  C   UNL     1     -12.433  11.957  71.288  1.00  0.00    -0.319 A  
HETATM   22  C   UNL     1     -11.586  11.314  70.382  1.00  0.00    -0.319 A  
ENDBRANCH  15  17
ENDBRANCH  12  15
ENDBRANCH   7   9
ENDBRANCH   4   7
TORSDOF 4
ENDMDL
MODEL      166
REMARK 921   NORMALIZED FREE ENERGY PREDICTED BY IDOCK:   -2.91 KCAL/MOL
REMARK 922        TOTAL FREE ENERGY PREDICTED BY IDOCK:   -4.26 KCAL/MOL
REMARK 923 INTER-LIGAND FREE ENERGY PREDICTED BY IDOCK:   -3.52 KCAL/MOL
REMARK 924 INTRA-LIGAND FREE ENERGY PREDICTED BY IDOCK:   -0.74 KCAL/MOL
REMARK 927      BINDING AFFINITY PREDICTED BY RF-SCORE:    0.00 PKD
ROOT
HETATM    1  C   UNL     1     -10.617   7.709  73.416  1.00  0.00    -0.353 C  
HETATM    2  C   UNL     1     -11.058   6.493  72.606  1.00  0.00    -0.291 C  
HETATM    3  C   UNL     1     -11.465   6.871  71.185  1.00  0.00    -0.347 C  
HETATM    4  C   UNL     1     -10.394   7.690  70.451  1.00  0.00    -0.214 C  
HETATM    5  C   UNL     1      -9.999   8.919  71.282  1.00  0.00    -0.358 C  
HETATM    6  C   UNL     1      -9.558   8.537  72.695  1.00  0.00    -0.294 C  
ENDROOT
BRANCH   4   7
HETATM    7  N   UNL     1      -9.201   6.877  70.196  1.00  0.00    -0.155 NA 
HETATM    8  H   UNL     1      -8.624   6.583  70.984  1.00  0.00     0.000 HD 
BRANCH   7   9
HETATM    9  C   UNL     1      -8.832   6.494  68.907  1.00  0.00    -0.126 A  
HETATM   10  C   UNL     1      -9.407   7.017  67.750  1.00  0.00    -0.127 A  
HETATM   11  C   UNL     1      -9.069   6.522  66.492  1.00  0.00    -0.166 A  
HETATM   12  C   UNL     1      -8.093   5.537  66.343  1.00  0.00    -0.105 A  
HETATM   13  C   UNL     1      -7.400   5.115  67.476  1.00  0.00    -0.082 A  
HETATM   14  C   UNL     1      -7.779   5.581  68.745  1.00  0.00    -0.091 A  
BRANCH  12  15
HETATM   15  N   UNL     1      -7.908   4.999  65.063  1.00  0.00    -0.087 NA 
HETATM   16  H   UNL     1      -7.063   5.323  64.594  1.00  0.00     0.000 HD 
BRANCH  15  17
HETATM   17  C   UNL     1      -8.669   4.098  64.305  1.00  0.00    -0.127 A  
HETATM   18  C   UNL     1      -9.045   2.876  64.876  1.00  0.00    -0.141 A  
HETATM   19  C   UNL     1      -9.878   1.990  64.191  1.00  0.00    -0.084 A  
HETATM   20  C   UNL     1     -10.347   2.322  62.924  1.00  0.00    -0.126 A  
HETATM   21  C   UNL     1      -9.956   3.522  62.331  1.00  0.00    -0.117 A  
HETATM   22  C   UNL     1      -9.107   4.398  63.012  1.00  0.00    -0.130 A  
ENDBRANCH  15  17
ENDBRANCH  12  15
ENDBRANCH   7   9
ENDBRANCH   4   7
TORSDOF 4
ENDMDL
MODEL      167
REMARK 921   NORMALIZED FREE ENERGY PREDICTED BY IDOCK:   -2.91 KCAL/MOL
REMARK 922        TOTAL FREE ENERGY PREDICTED BY IDOCK:   -4.26 KCAL/MOL
REMARK 923 INTER-LIGAND FREE ENERGY PREDICTED BY IDOCK:   -3.49 KCAL/MOL
REMARK 924 INTRA-LIGAND FREE ENERGY PREDICTED BY IDOCK:   -0.77 KCAL/MOL
REMARK 927      BINDING AFFINITY PREDICTED BY RF-SCORE:    0.00 PKD
ROOT
HETATM    1  C   UNL     1     -11.522  12.360  67.810  1.00  0.00    -0.383 C  
HETATM    2  C   UNL     1     -11.894  12.420  69.289  1.00  0.00    -0.361 C  
HETATM    3  C   UNL     1     -12.243  11.043  69.846  1.00  0.00    -0.408 C  
HETATM    4  C   UNL     1     -11.160   9.990  69.569  1.00  0.00    -0.238 C  
HETATM    5  C   UNL     1     -10.836   9.939  68.070  1.00  0.00    -0.294 C  
HETATM    6  C   UNL     1     -10.452  11.313  67.519  1.00  0.00    -0.234 C  
ENDROOT
BRANCH   4   7
HETATM    7  N   UNL     1      -9.936  10.294  70.316  1.00  0.00    -0.395 NA 
HETATM    8  H   UNL     1      -9.703  11.267  70.510  1.00  0.00     0.000 HD 
BRANCH   7   9
HETATM    9  C   UNL     1      -9.081   9.289  70.770  1.00  0.00    -0.244 A  
HETATM   10  C   UNL     1      -7.757   9.156  70.358  1.00  0.00    -0.132 A  
HETATM   11  C   UNL     1      -6.982   8.072  70.767  1.00  0.00    -0.045 A  
HETATM   12  C   UNL     1      -7.483   7.124  71.660  1.00  0.00    -0.086 A  
HETATM   13  C   UNL     1      -8.751   7.329  72.200  1.00  0.00    -0.134 A  
HETATM   14  C   UNL     1      -9.545   8.394  71.745  1.00  0.00    -0.303 A  
BRANCH  12  15
HETATM   15  N   UNL     1      -6.691   5.997  71.915  1.00  0.00    -0.062 NA 
HETATM   16  H   UNL     1      -6.114   6.077  72.752  1.00  0.00     0.000 HD 
BRANCH  15  17
HETATM   17  C   UNL     1      -6.545   4.780  71.237  1.00  0.00    -0.030 A  
HETATM   18  C   UNL     1      -7.581   3.840  71.294  1.00  0.00    -0.055 A  
HETATM   19  C   UNL     1      -7.515   2.655  70.560  1.00  0.00    -0.036 A  
HETATM   20  C   UNL     1      -6.409   2.400  69.755  1.00  0.00    -0.028 A  
HETATM   21  C   UNL     1      -5.356   3.314  69.711  1.00  0.00    -0.012 A  
HETATM   22  C   UNL     1      -5.417   4.491  70.463  1.00  0.00    -0.011 A  
ENDBRANCH  15  17
ENDBRANCH  12  15
ENDBRANCH   7   9
ENDBRANCH   4   7
TORSDOF 4
ENDMDL
MODEL      168
REMARK 921   NORMALIZED FREE ENERGY PREDICTED BY IDOCK:   -2.89 KCAL/MOL
REMARK 922        TOTAL FREE ENERGY PREDICTED BY IDOCK:   -4.23 KCAL/MOL
REMARK 923 INTER-LIGAND FREE ENERGY PREDICTED BY IDOCK:   -3.50 KCAL/MOL
REMARK 924 INTRA-LIGAND FREE ENERGY PREDICTED BY IDOCK:   -0.73 KCAL/MOL
REMARK 927      BINDING AFFINITY PREDICTED BY RF-SCORE:    0.00 PKD
ROOT
HETATM    1  C   UNL     1      -5.169   8.100  64.355  1.00  0.00    -0.036 C  
HETATM    2  C   UNL     1      -5.129   9.619  64.492  1.00  0.00    -0.055 C  
HETATM    3  C   UNL     1      -6.515  10.241  64.351  1.00  0.00    -0.087 C  
HETATM    4  C   UNL     1      -7.556   9.608  65.286  1.00  0.00    -0.113 C  
HETATM    5  C   UNL     1      -7.588   8.085  65.098  1.00  0.00    -0.098 C  
HETATM    6  C   UNL     1      -6.204   7.457  65.274  1.00  0.00    -0.038 C  
ENDROOT
BRANCH   4   7
HETATM    7  N   UNL     1      -7.251   9.914  66.688  1.00  0.00    -0.089 NA 
HETATM    8  H   UNL     1      -6.400  10.430  66.908  1.00  0.00     0.000 HD 
BRANCH   7   9
HETATM    9  C   UNL     1      -8.093   9.521  67.728  1.00  0.00    -0.106 A  
HETATM   10  C   UNL     1      -7.846   8.422  68.548  1.00  0.00    -0.120 A  
HETATM   11  C   UNL     1      -8.775   8.016  69.506  1.00  0.00    -0.136 A  
HETATM   12  C   UNL     1      -9.948   8.739  69.723  1.00  0.00    -0.190 A  
HETATM   13  C   UNL     1     -10.135   9.925  69.017  1.00  0.00    -0.199 A  
HETATM   14  C   UNL     1      -9.221  10.301  68.019  1.00  0.00    -0.138 A  
BRANCH  12  15
HETATM   15  N   UNL     1     -10.889   8.191  70.605  1.00  0.00    -0.229 NA 
HETATM   16  H   UNL     1     -11.851   8.462  70.405  1.00  0.00     0.000 HD 
BRANCH  15  17
HETATM   17  C   UNL     1     -10.755   7.341  71.711  1.00  0.00    -0.218 A  
HETATM   18  C   UNL     1     -10.058   7.794  72.837  1.00  0.00    -0.363 A  
HETATM   19  C   UNL     1      -9.979   7.016  73.993  1.00  0.00    -0.353 A  
HETATM   20  C   UNL     1     -10.602   5.772  74.033  1.00  0.00    -0.234 A  
HETATM   21  C   UNL     1     -11.274   5.295  72.908  1.00  0.00    -0.375 A  
HETATM   22  C   UNL     1     -11.334   6.069  71.746  1.00  0.00    -0.324 A  
ENDBRANCH  15  17
ENDBRANCH  12  15
ENDBRANCH   7   9
ENDBRANCH   4   7
TORSDOF 4
ENDMDL
MODEL      169
REMARK 921   NORMALIZED FREE ENERGY PREDICTED BY IDOCK:   -2.88 KCAL/MOL
REMARK 922        TOTAL FREE ENERGY PREDICTED BY IDOCK:   -4.23 KCAL/MOL
REMARK 923 INTER-LIGAND FREE ENERGY PREDICTED BY IDOCK:   -3.51 KCAL/MOL
REMARK 924 INTRA-LIGAND FREE ENERGY PREDICTED BY IDOCK:   -0.71 KCAL/MOL
REMARK 927      BINDING AFFINITY PREDICTED BY RF-SCORE:    0.00 PKD
ROOT
HETATM    1  C   UNL     1      -9.655   7.763  73.302  1.00  0.00    -0.346 C  
HETATM    2  C   UNL     1     -10.957   7.024  73.008  1.00  0.00    -0.327 C  
HETATM    3  C   UNL     1     -11.708   7.636  71.830  1.00  0.00    -0.319 C  
HETATM    4  C   UNL     1     -10.837   7.783  70.574  1.00  0.00    -0.241 C  
HETATM    5  C   UNL     1      -9.552   8.557  70.902  1.00  0.00    -0.228 C  
HETATM    6  C   UNL     1      -8.782   7.923  72.061  1.00  0.00    -0.180 C  
ENDROOT
BRANCH   4   7
HETATM    7  N   UNL     1     -10.481   6.469  70.029  1.00  0.00    -0.200 NA 
HETATM    8  H   UNL     1     -10.577   5.645  70.622  1.00  0.00     0.000 HD 
BRANCH   7   9
HETATM    9  C   UNL     1     -10.017   6.313  68.723  1.00  0.00    -0.149 A  
HETATM   10  C   UNL     1      -8.666   6.278  68.382  1.00  0.00    -0.116 A  
HETATM   11  C   UNL     1      -8.262   6.222  67.049  1.00  0.00    -0.109 A  
HETATM   12  C   UNL     1      -9.196   6.129  66.017  1.00  0.00    -0.095 A  
HETATM   13  C   UNL     1     -10.543   6.008  66.351  1.00  0.00    -0.142 A  
HETATM   14  C   UNL     1     -10.946   6.115  67.691  1.00  0.00    -0.400 A  
BRANCH  12  15
HETATM   15  N   UNL     1      -8.716   6.214  64.703  1.00  0.00    -0.348 NA 
HETATM   16  H   UNL     1      -9.087   7.005  64.177  1.00  0.00     0.000 HD 
BRANCH  15  17
HETATM   17  C   UNL     1      -7.821   5.417  63.977  1.00  0.00    -0.101 A  
HETATM   18  C   UNL     1      -7.943   4.024  64.044  1.00  0.00    -0.089 A  
HETATM   19  C   UNL     1      -7.132   3.195  63.267  1.00  0.00    -0.048 A  
HETATM   20  C   UNL     1      -6.190   3.755  62.410  1.00  0.00    -0.017 A  
HETATM   21  C   UNL     1      -6.037   5.140  62.356  1.00  0.00    -0.014 A  
HETATM   22  C   UNL     1      -6.838   5.967  63.149  1.00  0.00    -0.043 A  
ENDBRANCH  15  17
ENDBRANCH  12  15
ENDBRANCH   7   9
ENDBRANCH   4   7
TORSDOF 4
ENDMDL
MODEL      170
REMARK 921   NORMALIZED FREE ENERGY PREDICTED BY IDOCK:   -2.87 KCAL/MOL
REMARK 922        TOTAL FREE ENERGY PREDICTED BY IDOCK:   -4.21 KCAL/MOL
REMARK 923 INTER-LIGAND FREE ENERGY PREDICTED BY IDOCK:   -3.59 KCAL/MOL
REMARK 924 INTRA-LIGAND FREE ENERGY PREDICTED BY IDOCK:   -0.63 KCAL/MOL
REMARK 927      BINDING AFFINITY PREDICTED BY RF-SCORE:    0.00 PKD
ROOT
HETATM    1  C   UNL     1     -10.418  18.871  66.641  1.00  0.00    -0.496 C  
HETATM    2  C   UNL     1     -10.645  17.527  65.956  1.00  0.00    -0.217 C  
HETATM    3  C   UNL     1      -9.368  16.695  65.895  1.00  0.00    -0.192 C  
HETATM    4  C   UNL     1      -8.691  16.533  67.263  1.00  0.00    -0.188 C  
HETATM    5  C   UNL     1      -8.452  17.906  67.907  1.00  0.00    -0.251 C  
HETATM    6  C   UNL     1      -9.739  18.727  67.999  1.00  0.00    -0.366 C  
ENDROOT
BRANCH   4   7
HETATM    7  N   UNL     1      -9.516  15.718  68.160  1.00  0.00    -0.198 NA 
HETATM    8  H   UNL     1     -10.267  16.165  68.685  1.00  0.00     0.000 HD 
BRANCH   7   9
HETATM    9  C   UNL     1      -9.304  14.348  68.315  1.00  0.00    -0.206 A  
HETATM   10  C   UNL     1      -8.041  13.766  68.402  1.00  0.00    -0.148 A  
HETATM   11  C   UNL     1      -7.890  12.381  68.454  1.00  0.00    -0.142 A  
HETATM   12  C   UNL     1      -8.998  11.536  68.493  1.00  0.00    -0.146 A  
HETATM   13  C   UNL     1     -10.267  12.109  68.563  1.00  0.00    -0.214 A  
HETATM   14  C   UNL     1     -10.414  13.502  68.459  1.00  0.00    -0.250 A  
BRANCH  12  15
HETATM   15  N   UNL     1      -8.762  10.157  68.408  1.00  0.00    -0.120 NA 
HETATM   16  H   UNL     1      -9.364   9.674  67.741  1.00  0.00     0.000 HD 
BRANCH  15  17
HETATM   17  C   UNL     1      -7.854   9.319  69.066  1.00  0.00    -0.082 A  
HETATM   18  C   UNL     1      -7.309   8.229  68.375  1.00  0.00    -0.094 A  
HETATM   19  C   UNL     1      -6.333   7.423  68.963  1.00  0.00    -0.039 A  
HETATM   20  C   UNL     1      -5.890   7.702  70.252  1.00  0.00    -0.023 A  
HETATM   21  C   UNL     1      -6.445   8.765  70.963  1.00  0.00    -0.056 A  
HETATM   22  C   UNL     1      -7.436   9.559  70.378  1.00  0.00    -0.158 A  
ENDBRANCH  15  17
ENDBRANCH  12  15
ENDBRANCH   7   9
ENDBRANCH   4   7
TORSDOF 4
ENDMDL
MODEL      171
REMARK 921   NORMALIZED FREE ENERGY PREDICTED BY IDOCK:   -2.72 KCAL/MOL
REMARK 922        TOTAL FREE ENERGY PREDICTED BY IDOCK:   -4.02 KCAL/MOL
REMARK 923 INTER-LIGAND FREE ENERGY PREDICTED BY IDOCK:   -3.16 KCAL/MOL
REMARK 924 INTRA-LIGAND FREE ENERGY PREDICTED BY IDOCK:   -0.86 KCAL/MOL
REMARK 927      BINDING AFFINITY PREDICTED BY RF-SCORE:    0.00 PKD
ROOT
HETATM    1  C   UNL     1     -10.700   7.666  72.929  1.00  0.00    -0.428 C  
HETATM    2  C   UNL     1     -10.007   7.842  71.581  1.00  0.00    -0.227 C  
HETATM    3  C   UNL     1      -8.858   6.856  71.397  1.00  0.00    -0.133 C  
HETATM    4  C   UNL     1      -9.272   5.398  71.642  1.00  0.00    -0.146 C  
HETATM    5  C   UNL     1      -9.937   5.255  73.018  1.00  0.00    -0.188 C  
HETATM    6  C   UNL     1     -11.111   6.220  73.189  1.00  0.00    -0.201 C  
ENDROOT
BRANCH   4   7
HETATM    7  N   UNL     1     -10.204   4.940  70.606  1.00  0.00    -0.234 NA 
HETATM    8  H   UNL     1     -11.128   4.611  70.884  1.00  0.00     0.000 HD 
BRANCH   7   9
HETATM    9  C   UNL     1      -9.863   4.943  69.254  1.00  0.00    -0.201 A  
HETATM   10  C   UNL     1     -10.529   5.697  68.290  1.00  0.00    -0.257 A  
HETATM   11  C   UNL     1     -10.209   5.581  66.939  1.00  0.00    -0.275 A  
HETATM   12  C   UNL     1      -9.164   4.761  66.513  1.00  0.00    -0.133 A  
HETATM   13  C   UNL     1      -8.390   4.121  67.479  1.00  0.00    -0.098 A  
HETATM   14  C   UNL     1      -8.749   4.202  68.834  1.00  0.00    -0.125 A  
BRANCH  12  15
HETATM   15  N   UNL     1      -8.995   4.596  65.132  1.00  0.00    -0.146 NA 
HETATM   16  H   UNL     1      -9.688   3.987  64.699  1.00  0.00     0.000 HD 
BRANCH  15  17
HETATM   17  C   UNL     1      -8.050   5.111  64.235  1.00  0.00    -0.125 A  
HETATM   18  C   UNL     1      -7.536   6.395  64.451  1.00  0.00    -0.090 A  
HETATM   19  C   UNL     1      -6.527   6.910  63.634  1.00  0.00    -0.043 A  
HETATM   20  C   UNL     1      -6.021   6.140  62.592  1.00  0.00    -0.026 A  
HETATM   21  C   UNL     1      -6.545   4.872  62.347  1.00  0.00    -0.026 A  
HETATM   22  C   UNL     1      -7.568   4.366  63.154  1.00  0.00    -0.058 A  
ENDBRANCH  15  17
ENDBRANCH  12  15
ENDBRANCH   7   9
ENDBRANCH   4   7
TORSDOF 4
ENDMDL
MODEL      172
REMARK 921   NORMALIZED FREE ENERGY PREDICTED BY IDOCK:   -2.63 KCAL/MOL
REMARK 922        TOTAL FREE ENERGY PREDICTED BY IDOCK:   -3.91 KCAL/MOL
REMARK 923 INTER-LIGAND FREE ENERGY PREDICTED BY IDOCK:   -3.23 KCAL/MOL
REMARK 924 INTRA-LIGAND FREE ENERGY PREDICTED BY IDOCK:   -0.68 KCAL/MOL
REMARK 927      BINDING AFFINITY PREDICTED BY RF-SCORE:    0.00 PKD
ROOT
HETATM    1  C   UNL     1      -9.008   3.387  62.373  1.00  0.00    -0.084 C  
HETATM    2  C   UNL     1      -7.830   4.217  62.873  1.00  0.00    -0.066 C  
HETATM    3  C   UNL     1      -8.265   5.276  63.881  1.00  0.00    -0.127 C  
HETATM    4  C   UNL     1      -9.092   4.699  65.040  1.00  0.00    -0.156 C  
HETATM    5  C   UNL     1     -10.283   3.896  64.499  1.00  0.00    -0.231 C  
HETATM    6  C   UNL     1      -9.843   2.812  63.513  1.00  0.00    -0.123 C  
ENDROOT
BRANCH   4   7
HETATM    7  N   UNL     1      -8.268   3.827  65.884  1.00  0.00    -0.100 NA 
HETATM    8  H   UNL     1      -7.641   3.156  65.439  1.00  0.00     0.000 HD 
BRANCH   7   9
HETATM    9  C   UNL     1      -8.316   3.890  67.276  1.00  0.00    -0.099 A  
HETATM   10  C   UNL     1      -9.399   3.448  68.033  1.00  0.00    -0.241 A  
HETATM   11  C   UNL     1      -9.433   3.630  69.415  1.00  0.00    -0.249 A  
HETATM   12  C   UNL     1      -8.354   4.194  70.094  1.00  0.00    -0.064 A  
HETATM   13  C   UNL     1      -7.202   4.499  69.371  1.00  0.00    -0.051 A  
HETATM   14  C   UNL     1      -7.194   4.361  67.973  1.00  0.00    -0.064 A  
BRANCH  12  15
HETATM   15  N   UNL     1      -8.521   4.466  71.458  1.00  0.00    -0.102 NA 
HETATM   16  H   UNL     1      -8.072   3.788  72.074  1.00  0.00     0.000 HD 
BRANCH  15  17
HETATM   17  C   UNL     1      -9.189   5.494  72.136  1.00  0.00    -0.143 A  
HETATM   18  C   UNL     1      -9.785   6.522  71.395  1.00  0.00    -0.184 A  
HETATM   19  C   UNL     1     -10.537   7.516  72.023  1.00  0.00    -0.248 A  
HETATM   20  C   UNL     1     -10.703   7.488  73.404  1.00  0.00    -0.387 A  
HETATM   21  C   UNL     1     -10.090   6.488  74.158  1.00  0.00    -0.374 A  
HETATM   22  C   UNL     1      -9.322   5.505  73.527  1.00  0.00    -0.137 A  
ENDBRANCH  15  17
ENDBRANCH  12  15
ENDBRANCH   7   9
ENDBRANCH   4   7
TORSDOF 4
ENDMDL
MODEL      173
REMARK 921   NORMALIZED FREE ENERGY PREDICTED BY IDOCK:   -2.57 KCAL/MOL
REMARK 922        TOTAL FREE ENERGY PREDICTED BY IDOCK:   -3.84 KCAL/MOL
REMARK 923 INTER-LIGAND FREE ENERGY PREDICTED BY IDOCK:   -3.68 KCAL/MOL
REMARK 924 INTRA-LIGAND FREE ENERGY PREDICTED BY IDOCK:   -0.16 KCAL/MOL
REMARK 927      BINDING AFFINITY PREDICTED BY RF-SCORE:    0.00 PKD
ROOT
HETATM    1  C   UNL     1     -10.573   9.003  69.535  1.00  0.00    -0.231 C  
HETATM    2  C   UNL     1     -10.519   9.810  70.828  1.00  0.00    -0.339 C  
HETATM    3  C   UNL     1     -11.734   9.551  71.714  1.00  0.00    -0.411 C  
HETATM    4  C   UNL     1     -11.976   8.059  71.980  1.00  0.00    -0.327 C  
HETATM    5  C   UNL     1     -12.054   7.285  70.656  1.00  0.00    -0.226 C  
HETATM    6  C   UNL     1     -10.820   7.518  69.783  1.00  0.00    -0.234 C  
ENDROOT
BRANCH   4   7
HETATM    7  N   UNL     1     -10.901   7.495  72.804  1.00  0.00    -0.313 NA 
HETATM    8  H   UNL     1     -10.544   8.038  73.590  1.00  0.00     0.000 HD 
BRANCH   7   9
HETATM    9  C   UNL     1     -10.354   6.239  72.544  1.00  0.00    -0.192 A  
HETATM   10  C   UNL     1      -9.071   6.044  72.037  1.00  0.00    -0.144 A  
HETATM   11  C   UNL     1      -8.616   4.770  71.701  1.00  0.00    -0.129 A  
HETATM   12  C   UNL     1      -9.403   3.641  71.928  1.00  0.00    -0.125 A  
HETATM   13  C   UNL     1     -10.626   3.805  72.576  1.00  0.00    -0.107 A  
HETATM   14  C   UNL     1     -11.099   5.095  72.865  1.00  0.00    -0.359 A  
BRANCH  12  15
HETATM   15  N   UNL     1      -8.930   2.416  71.439  1.00  0.00    -0.077 NA 
HETATM   16  H   UNL     1      -8.980   1.654  72.114  1.00  0.00     0.000 HD 
BRANCH  15  17
HETATM   17  C   UNL     1      -8.400   2.043  70.197  1.00  0.00    -0.041 A  
HETATM   18  C   UNL     1      -9.260   1.927  69.098  1.00  0.00    -0.190 A  
HETATM   19  C   UNL     1      -8.762   1.647  67.824  1.00  0.00    -0.121 A  
HETATM   20  C   UNL     1      -7.393   1.482  67.638  1.00  0.00    -0.053 A  
HETATM   21  C   UNL     1      -6.528   1.565  68.729  1.00  0.00    -0.025 A  
HETATM   22  C   UNL     1      -7.032   1.827  70.006  1.00  0.00    -0.033 A  
ENDBRANCH  15  17
ENDBRANCH  12  15
ENDBRANCH   7   9
ENDBRANCH   4   7
TORSDOF 4
ENDMDL
MODEL      174
REMARK 921   NORMALIZED FREE ENERGY PREDICTED BY IDOCK:   -2.35 KCAL/MOL
REMARK 922        TOTAL FREE ENERGY PREDICTED BY IDOCK:   -3.58 KCAL/MOL
REMARK 923 INTER-LIGAND FREE ENERGY PREDICTED BY IDOCK:   -2.85 KCAL/MOL
REMARK 924 INTRA-LIGAND FREE ENERGY PREDICTED BY IDOCK:   -0.72 KCAL/MOL
REMARK 927      BINDING AFFINITY PREDICTED BY RF-SCORE:    0.00 PKD
ROOT
HETATM    1  C   UNL     1      -9.757   9.600  65.377  1.00  0.00    -0.365 C  
HETATM    2  C   UNL     1      -8.340   9.683  64.816  1.00  0.00    -0.156 C  
HETATM    3  C   UNL     1      -7.293   9.775  65.922  1.00  0.00    -0.103 C  
HETATM    4  C   UNL     1      -7.429   8.662  66.972  1.00  0.00    -0.084 C  
HETATM    5  C   UNL     1      -8.857   8.630  67.534  1.00  0.00    -0.139 C  
HETATM    6  C   UNL     1      -9.906   8.504  66.427  1.00  0.00    -0.327 C  
ENDROOT
BRANCH   4   7
HETATM    7  N   UNL     1      -7.111   7.354  66.389  1.00  0.00    -0.072 NA 
HETATM    8  H   UNL     1      -6.695   7.315  65.459  1.00  0.00     0.000 HD 
BRANCH   7   9
HETATM    9  C   UNL     1      -7.361   6.164  67.071  1.00  0.00    -0.083 A  
HETATM   10  C   UNL     1      -8.224   5.173  66.607  1.00  0.00    -0.108 A  
HETATM   11  C   UNL     1      -8.512   4.050  67.380  1.00  0.00    -0.102 A  
HETATM   12  C   UNL     1      -7.892   3.845  68.613  1.00  0.00    -0.067 A  
HETATM   13  C   UNL     1      -6.912   4.749  69.019  1.00  0.00    -0.052 A  
HETATM   14  C   UNL     1      -6.663   5.904  68.260  1.00  0.00    -0.057 A  
BRANCH  12  15
HETATM   15  N   UNL     1      -8.336   2.765  69.387  1.00  0.00    -0.057 NA 
HETATM   16  H   UNL     1      -8.051   1.854  69.029  1.00  0.00     0.000 HD 
BRANCH  15  17
HETATM   17  C   UNL     1      -9.097   2.702  70.561  1.00  0.00    -0.115 A  
HETATM   18  C   UNL     1      -9.464   3.894  71.198  1.00  0.00    -0.233 A  
HETATM   19  C   UNL     1     -10.298   3.881  72.318  1.00  0.00    -0.170 A  
HETATM   20  C   UNL     1     -10.777   2.671  72.809  1.00  0.00    -0.141 A  
HETATM   21  C   UNL     1     -10.396   1.475  72.202  1.00  0.00    -0.224 A  
HETATM   22  C   UNL     1      -9.545   1.490  71.094  1.00  0.00    -0.199 A  
ENDBRANCH  15  17
ENDBRANCH  12  15
ENDBRANCH   7   9
ENDBRANCH   4   7
TORSDOF 4
ENDMDL
MODEL      175
REMARK 921   NORMALIZED FREE ENERGY PREDICTED BY IDOCK:   -2.02 KCAL/MOL
REMARK 922        TOTAL FREE ENERGY PREDICTED BY IDOCK:   -3.16 KCAL/MOL
REMARK 923 INTER-LIGAND FREE ENERGY PREDICTED BY IDOCK:   -3.15 KCAL/MOL
REMARK 924 INTRA-LIGAND FREE ENERGY PREDICTED BY IDOCK:   -0.01 KCAL/MOL
REMARK 927      BINDING AFFINITY PREDICTED BY RF-SCORE:    0.00 PKD
ROOT
HETATM    1  C   UNL     1      -5.659   7.316  64.267  1.00  0.00    -0.033 C  
HETATM    2  C   UNL     1      -6.308   8.645  63.893  1.00  0.00    -0.072 C  
HETATM    3  C   UNL     1      -7.787   8.683  64.266  1.00  0.00    -0.140 C  
HETATM    4  C   UNL     1      -8.046   8.312  65.734  1.00  0.00    -0.109 C  
HETATM    5  C   UNL     1      -7.404   6.958  66.064  1.00  0.00    -0.075 C  
HETATM    6  C   UNL     1      -5.914   6.931  65.721  1.00  0.00    -0.035 C  
ENDROOT
BRANCH   4   7
HETATM    7  N   UNL     1      -7.501   9.335  66.633  1.00  0.00    -0.093 NA 
HETATM    8  H   UNL     1      -6.685   9.110  67.202  1.00  0.00     0.000 HD 
BRANCH   7   9
HETATM    9  C   UNL     1      -8.067  10.606  66.733  1.00  0.00    -0.131 A  
HETATM   10  C   UNL     1      -7.322  11.773  66.889  1.00  0.00    -0.104 A  
HETATM   11  C   UNL     1      -7.947  13.004  67.085  1.00  0.00    -0.095 A  
HETATM   12  C   UNL     1      -9.337  13.118  67.060  1.00  0.00    -0.238 A  
HETATM   13  C   UNL     1     -10.090  11.987  66.753  1.00  0.00    -0.223 A  
HETATM   14  C   UNL     1      -9.457  10.741  66.606  1.00  0.00    -0.201 A  
BRANCH  12  15
HETATM   15  N   UNL     1      -9.888  14.361  67.400  1.00  0.00    -0.222 NA 
HETATM   16  H   UNL     1     -10.905  14.397  67.327  1.00  0.00     0.000 HD 
BRANCH  15  17
HETATM   17  C   UNL     1      -9.304  15.563  67.820  1.00  0.00    -0.195 A  
HETATM   18  C   UNL     1      -8.005  15.543  68.340  1.00  0.00    -0.127 A  
HETATM   19  C   UNL     1      -7.352  16.728  68.685  1.00  0.00    -0.218 A  
HETATM   20  C   UNL     1      -7.996  17.948  68.509  1.00  0.00    -0.302 A  
HETATM   21  C   UNL     1      -9.301  17.981  68.020  1.00  0.00    -0.273 A  
HETATM   22  C   UNL     1      -9.959  16.792  67.694  1.00  0.00    -0.262 A  
ENDBRANCH  15  17
ENDBRANCH  12  15
ENDBRANCH   7   9
ENDBRANCH   4   7
TORSDOF 4
ENDMDL
MODEL      176
REMARK 921   NORMALIZED FREE ENERGY PREDICTED BY IDOCK:   -1.96 KCAL/MOL
REMARK 922        TOTAL FREE ENERGY PREDICTED BY IDOCK:   -3.10 KCAL/MOL
REMARK 923 INTER-LIGAND FREE ENERGY PREDICTED BY IDOCK:   -2.53 KCAL/MOL
REMARK 924 INTRA-LIGAND FREE ENERGY PREDICTED BY IDOCK:   -0.57 KCAL/MOL
REMARK 927      BINDING AFFINITY PREDICTED BY RF-SCORE:    0.00 PKD
ROOT
HETATM    1  C   UNL     1     -10.631   9.538  68.011  1.00  0.00    -0.282 C  
HETATM    2  C   UNL     1     -10.361  10.564  69.108  1.00  0.00    -0.240 C  
HETATM    3  C   UNL     1     -10.956  10.138  70.447  1.00  0.00    -0.386 C  
HETATM    4  C   UNL     1     -10.534   8.723  70.869  1.00  0.00    -0.221 C  
HETATM    5  C   UNL     1     -10.848   7.717  69.754  1.00  0.00    -0.222 C  
HETATM    6  C   UNL     1     -10.223   8.126  68.419  1.00  0.00    -0.240 C  
ENDROOT
BRANCH   4   7
HETATM    7  N   UNL     1      -9.100   8.676  71.170  1.00  0.00    -0.188 NA 
HETATM    8  H   UNL     1      -8.624   9.534  71.450  1.00  0.00     0.000 HD 
BRANCH   7   9
HETATM    9  C   UNL     1      -8.367   7.492  71.086  1.00  0.00    -0.109 A  
HETATM   10  C   UNL     1      -7.344   7.280  70.164  1.00  0.00    -0.079 A  
HETATM   11  C   UNL     1      -6.716   6.039  70.060  1.00  0.00    -0.052 A  
HETATM   12  C   UNL     1      -7.042   4.992  70.921  1.00  0.00    -0.055 A  
HETATM   13  C   UNL     1      -7.953   5.237  71.947  1.00  0.00    -0.113 A  
HETATM   14  C   UNL     1      -8.618   6.472  72.016  1.00  0.00    -0.125 A  
BRANCH  12  15
HETATM   15  N   UNL     1      -6.465   3.741  70.664  1.00  0.00    -0.030 NA 
HETATM   16  H   UNL     1      -5.962   3.346  71.458  1.00  0.00     0.000 HD 
BRANCH  15  17
HETATM   17  C   UNL     1      -6.450   2.933  69.520  1.00  0.00    -0.029 A  
HETATM   18  C   UNL     1      -7.634   2.761  68.792  1.00  0.00    -0.047 A  
HETATM   19  C   UNL     1      -7.643   2.039  67.598  1.00  0.00    -0.059 A  
HETATM   20  C   UNL     1      -6.462   1.482  67.117  1.00  0.00    -0.024 A  
HETATM   21  C   UNL     1      -5.281   1.620  67.847  1.00  0.00    -0.012 A  
HETATM   22  C   UNL     1      -5.280   2.328  69.052  1.00  0.00    -0.012 A  
ENDBRANCH  15  17
ENDBRANCH  12  15
ENDBRANCH   7   9
ENDBRANCH   4   7
TORSDOF 4
ENDMDL
MODEL      177
REMARK 921   NORMALIZED FREE ENERGY PREDICTED BY IDOCK:   -1.91 KCAL/MOL
REMARK 922        TOTAL FREE ENERGY PREDICTED BY IDOCK:   -3.03 KCAL/MOL
REMARK 923 INTER-LIGAND FREE ENERGY PREDICTED BY IDOCK:   -4.51 KCAL/MOL
REMARK 924 INTRA-LIGAND FREE ENERGY PREDICTED BY IDOCK:    1.47 KCAL/MOL
REMARK 927      BINDING AFFINITY PREDICTED BY RF-SCORE:    0.00 PKD
ROOT
HETATM    1  C   UNL     1     -13.010  12.507  64.844  1.00  0.00    -0.022 C  
HETATM    2  C   UNL     1     -12.127  12.281  66.068  1.00  0.00    -0.229 C  
HETATM    3  C   UNL     1     -11.224  11.062  65.903  1.00  0.00     0.071 C  
HETATM    4  C   UNL     1     -10.406  11.092  64.603  1.00  0.00    -0.345 C  
HETATM    5  C   UNL     1     -11.331  11.291  63.394  1.00  0.00    -0.022 C  
HETATM    6  C   UNL     1     -12.212  12.532  63.544  1.00  0.00    -0.652 C  
ENDROOT
BRANCH   4   7
HETATM    7  N   UNL     1      -9.416  12.173  64.635  1.00  0.00    -0.449 NA 
HETATM    8  H   UNL     1      -8.542  12.059  64.123  1.00  0.00     0.000 HD 
BRANCH   7   9
HETATM    9  C   UNL     1      -9.637  13.353  65.345  1.00  0.00     0.117 A  
HETATM   10  C   UNL     1      -9.226  13.552  66.661  1.00  0.00    -0.221 A  
HETATM   11  C   UNL     1      -9.564  14.715  67.353  1.00  0.00    -0.215 A  
HETATM   12  C   UNL     1     -10.263  15.747  66.727  1.00  0.00    -0.282 A  
HETATM   13  C   UNL     1     -10.546  15.628  65.368  1.00  0.00    -0.436 A  
HETATM   14  C   UNL     1     -10.247  14.434  64.691  1.00  0.00    -0.099 A  
BRANCH  12  15
HETATM   15  N   UNL     1     -10.681  16.820  67.526  1.00  0.00    -0.310 NA 
HETATM   16  H   UNL     1     -11.389  16.571  68.217  1.00  0.00     0.000 HD 
BRANCH  15  17
HETATM   17  C   UNL     1     -10.308  18.170  67.554  1.00  0.00    -0.392 A  
HETATM   18  C   UNL     1     -10.701  18.962  68.639  1.00  0.00     0.276 A  
HETATM   19  C   UNL     1     -10.275  20.287  68.752  1.00  0.00    -0.217 A  
HETATM   20  C   UNL     1      -9.446  20.832  67.777  1.00  0.00    -0.265 A  
HETATM   21  C   UNL     1      -9.071  20.063  66.675  1.00  0.00    -0.463 A  
HETATM   22  C   UNL     1      -9.515  18.743  66.556  1.00  0.00    -0.353 A  
ENDBRANCH  15  17
ENDBRANCH  12  15
ENDBRANCH   7   9
ENDBRANCH   4   7
TORSDOF 4
ENDMDL
MODEL      178
REMARK 921   NORMALIZED FREE ENERGY PREDICTED BY IDOCK:   -1.60 KCAL/MOL
REMARK 922        TOTAL FREE ENERGY PREDICTED BY IDOCK:   -2.65 KCAL/MOL
REMARK 923 INTER-LIGAND FREE ENERGY PREDICTED BY IDOCK:   -3.45 KCAL/MOL
REMARK 924 INTRA-LIGAND FREE ENERGY PREDICTED BY IDOCK:    0.80 KCAL/MOL
REMARK 927      BINDING AFFINITY PREDICTED BY RF-SCORE:    0.00 PKD
ROOT
HETATM    1  C   UNL     1     -11.640  14.336  68.624  1.00  0.00    -0.352 C  
HETATM    2  C   UNL     1     -11.532  15.214  67.381  1.00  0.00    -0.284 C  
HETATM    3  C   UNL     1     -10.305  16.119  67.426  1.00  0.00    -0.294 C  
HETATM    4  C   UNL     1      -9.003  15.354  67.702  1.00  0.00    -0.181 C  
HETATM    5  C   UNL     1      -9.140  14.507  68.975  1.00  0.00    -0.053 C  
HETATM    6  C   UNL     1     -10.350  13.574  68.915  1.00  0.00    -0.109 C  
ENDROOT
BRANCH   4   7
HETATM    7  N   UNL     1      -8.664  14.478  66.576  1.00  0.00    -0.461 NA 
HETATM    8  H   UNL     1      -8.400  14.897  65.685  1.00  0.00     0.000 HD 
BRANCH   7   9
HETATM    9  C   UNL     1      -8.693  13.088  66.688  1.00  0.00    -0.019 A  
HETATM   10  C   UNL     1      -7.731  12.347  67.371  1.00  0.00    -0.170 A  
HETATM   11  C   UNL     1      -7.757  10.953  67.363  1.00  0.00    -0.108 A  
HETATM   12  C   UNL     1      -8.786  10.256  66.731  1.00  0.00    -0.126 A  
HETATM   13  C   UNL     1      -9.837  10.983  66.176  1.00  0.00    -0.268 A  
HETATM   14  C   UNL     1      -9.779  12.386  66.144  1.00  0.00    -0.254 A  
BRANCH  12  15
HETATM   15  N   UNL     1      -8.667   8.862  66.652  1.00  0.00    -0.125 NA 
HETATM   16  H   UNL     1      -8.911   8.375  67.514  1.00  0.00     0.000 HD 
BRANCH  15  17
HETATM   17  C   UNL     1      -8.274   8.011  65.610  1.00  0.00    -0.135 A  
HETATM   18  C   UNL     1      -7.540   8.539  64.541  1.00  0.00    -0.115 A  
HETATM   19  C   UNL     1      -7.052   7.711  63.529  1.00  0.00    -0.070 A  
HETATM   20  C   UNL     1      -7.292   6.341  63.579  1.00  0.00    -0.068 A  
HETATM   21  C   UNL     1      -8.047   5.807  64.622  1.00  0.00    -0.132 A  
HETATM   22  C   UNL     1      -8.551   6.641  65.624  1.00  0.00    -0.130 A  
ENDBRANCH  15  17
ENDBRANCH  12  15
ENDBRANCH   7   9
ENDBRANCH   4   7
TORSDOF 4
ENDMDL
MODEL      179
REMARK 921   NORMALIZED FREE ENERGY PREDICTED BY IDOCK:   -1.24 KCAL/MOL
REMARK 922        TOTAL FREE ENERGY PREDICTED BY IDOCK:   -2.21 KCAL/MOL
REMARK 923 INTER-LIGAND FREE ENERGY PREDICTED BY IDOCK:   -1.94 KCAL/MOL
REMARK 924 INTRA-LIGAND FREE ENERGY PREDICTED BY IDOCK:   -0.26 KCAL/MOL
REMARK 927      BINDING AFFINITY PREDICTED BY RF-SCORE:    0.00 PKD
ROOT
HETATM    1  C   UNL     1      -8.091  12.495  66.956  1.00  0.00    -0.105 C  
HETATM    2  C   UNL     1      -7.354  11.518  66.046  1.00  0.00     0.329 C  
HETATM    3  C   UNL     1      -5.923  11.270  66.514  1.00  0.00    -0.144 C  
HETATM    4  C   UNL     1      -5.837  10.856  67.990  1.00  0.00    -0.045 C  
HETATM    5  C   UNL     1      -6.563  11.877  68.875  1.00  0.00    -0.087 C  
HETATM    6  C   UNL     1      -8.009  12.100  68.427  1.00  0.00    -0.152 C  
ENDROOT
BRANCH   4   7
HETATM    7  N   UNL     1      -6.433   9.531  68.195  1.00  0.00    -0.057 NA 
HETATM    8  H   UNL     1      -6.497   8.890  67.404  1.00  0.00     0.000 HD 
BRANCH   7   9
HETATM    9  C   UNL     1      -6.914   9.124  69.438  1.00  0.00    -0.052 A  
HETATM   10  C   UNL     1      -6.321   9.473  70.650  1.00  0.00    -0.086 A  
HETATM   11  C   UNL     1      -6.787   8.952  71.856  1.00  0.00    -0.021 A  
HETATM   12  C   UNL     1      -7.906   8.121  71.897  1.00  0.00    -0.112 A  
HETATM   13  C   UNL     1      -8.602   7.887  70.712  1.00  0.00    -0.132 A  
HETATM   14  C   UNL     1      -8.098   8.374  69.495  1.00  0.00    -0.113 A  
BRANCH  12  15
HETATM   15  N   UNL     1      -8.228   7.532  73.127  1.00  0.00    -0.114 NA 
HETATM   16  H   UNL     1      -8.102   8.151  73.928  1.00  0.00     0.000 HD 
BRANCH  15  17
HETATM   17  C   UNL     1      -8.690   6.253  73.463  1.00  0.00    -0.124 A  
HETATM   18  C   UNL     1      -9.982   6.111  73.983  1.00  0.00    -0.255 A  
HETATM   19  C   UNL     1     -10.514   4.847  74.245  1.00  0.00    -0.336 A  
HETATM   20  C   UNL     1      -9.757   3.710  73.985  1.00  0.00    -0.141 A  
HETATM   21  C   UNL     1      -8.457   3.838  73.495  1.00  0.00    -0.087 A  
HETATM   22  C   UNL     1      -7.920   5.105  73.252  1.00  0.00    -0.107 A  
ENDBRANCH  15  17
ENDBRANCH  12  15
ENDBRANCH   7   9
ENDBRANCH   4   7
TORSDOF 4
ENDMDL
MODEL      180
REMARK 921   NORMALIZED FREE ENERGY PREDICTED BY IDOCK:   -1.01 KCAL/MOL
REMARK 922        TOTAL FREE ENERGY PREDICTED BY IDOCK:   -1.92 KCAL/MOL
REMARK 923 INTER-LIGAND FREE ENERGY PREDICTED BY IDOCK:   -1.90 KCAL/MOL
REMARK 924 INTRA-LIGAND FREE ENERGY PREDICTED BY IDOCK:   -0.03 KCAL/MOL
REMARK 927      BINDING AFFINITY PREDICTED BY RF-SCORE:    0.00 PKD
ROOT
HETATM    1  C   UNL     1      -7.208  17.824  69.745  1.00  0.00     0.551 C  
HETATM    2  C   UNL     1      -7.472  18.190  68.288  1.00  0.00    -0.280 C  
HETATM    3  C   UNL     1      -6.285  17.851  67.390  1.00  0.00    -0.167 C  
HETATM    4  C   UNL     1      -5.815  16.397  67.540  1.00  0.00    -0.155 C  
HETATM    5  C   UNL     1      -5.531  16.076  69.014  1.00  0.00    -0.112 C  
HETATM    6  C   UNL     1      -6.732  16.384  69.909  1.00  0.00     0.067 C  
ENDROOT
BRANCH   4   7
HETATM    7  N   UNL     1      -6.828  15.466  67.032  1.00  0.00    -0.255 NA 
HETATM    8  H   UNL     1      -7.481  15.788  66.318  1.00  0.00     0.000 HD 
BRANCH   7   9
HETATM    9  C   UNL     1      -6.923  14.155  67.496  1.00  0.00    -0.152 A  
HETATM   10  C   UNL     1      -5.830  13.301  67.632  1.00  0.00    -0.107 A  
HETATM   11  C   UNL     1      -6.000  11.968  68.004  1.00  0.00    -0.058 A  
HETATM   12  C   UNL     1      -7.261  11.464  68.322  1.00  0.00    -0.082 A  
HETATM   13  C   UNL     1      -8.341  12.345  68.340  1.00  0.00    -0.137 A  
HETATM   14  C   UNL     1      -8.172  13.673  67.916  1.00  0.00    -0.171 A  
BRANCH  12  15
HETATM   15  N   UNL     1      -7.366  10.086  68.554  1.00  0.00    -0.076 NA 
HETATM   16  H   UNL     1      -6.718   9.523  68.003  1.00  0.00     0.000 HD 
BRANCH  15  17
HETATM   17  C   UNL     1      -8.194   9.338  69.400  1.00  0.00    -0.114 A  
HETATM   18  C   UNL     1      -8.955  10.002  70.370  1.00  0.00     0.179 A  
HETATM   19  C   UNL     1      -9.860   9.306  71.172  1.00  0.00    -0.342 A  
HETATM   20  C   UNL     1     -10.015   7.933  71.009  1.00  0.00    -0.200 A  
HETATM   21  C   UNL     1      -9.241   7.254  70.068  1.00  0.00    -0.148 A  
HETATM   22  C   UNL     1      -8.322   7.951  69.280  1.00  0.00    -0.136 A  
ENDBRANCH  15  17
ENDBRANCH  12  15
ENDBRANCH   7   9
ENDBRANCH   4   7
TORSDOF 4
ENDMDL
MODEL      181
REMARK 921   NORMALIZED FREE ENERGY PREDICTED BY IDOCK:   -0.94 KCAL/MOL
REMARK 922        TOTAL FREE ENERGY PREDICTED BY IDOCK:   -1.83 KCAL/MOL
REMARK 923 INTER-LIGAND FREE ENERGY PREDICTED BY IDOCK:   -1.52 KCAL/MOL
REMARK 924 INTRA-LIGAND FREE ENERGY PREDICTED BY IDOCK:   -0.31 KCAL/MOL
REMARK 927      BINDING AFFINITY PREDICTED BY RF-SCORE:    0.00 PKD
ROOT
HETATM    1  C   UNL     1      -9.029   4.899  62.407  1.00  0.00    -0.104 C  
HETATM    2  C   UNL     1      -8.509   3.473  62.566  1.00  0.00    -0.077 C  
HETATM    3  C   UNL     1      -7.291   3.409  63.483  1.00  0.00    -0.054 C  
HETATM    4  C   UNL     1      -7.524   4.089  64.840  1.00  0.00    -0.076 C  
HETATM    5  C   UNL     1      -8.017   5.528  64.639  1.00  0.00    -0.115 C  
HETATM    6  C   UNL     1      -9.259   5.590  63.748  1.00  0.00     0.612 C  
ENDROOT
BRANCH   4   7
HETATM    7  N   UNL     1      -8.512   3.348  65.631  1.00  0.00    -0.106 NA 
HETATM    8  H   UNL     1      -9.050   2.607  65.183  1.00  0.00     0.000 HD 
BRANCH   7   9
HETATM    9  C   UNL     1      -8.737   3.627  66.979  1.00  0.00    -0.116 A  
HETATM   10  C   UNL     1      -8.465   4.859  67.569  1.00  0.00    -0.104 A  
HETATM   11  C   UNL     1      -8.614   5.048  68.942  1.00  0.00    -0.091 A  
HETATM   12  C   UNL     1      -9.108   4.032  69.760  1.00  0.00    -0.115 A  
HETATM   13  C   UNL     1      -9.529   2.846  69.161  1.00  0.00    -0.154 A  
HETATM   14  C   UNL     1      -9.329   2.644  67.786  1.00  0.00    -0.229 A  
BRANCH  12  15
HETATM   15  N   UNL     1      -9.099   4.255  71.143  1.00  0.00    -0.120 NA 
HETATM   16  H   UNL     1      -9.140   5.239  71.404  1.00  0.00     0.000 HD 
BRANCH  15  17
HETATM   17  C   UNL     1      -9.046   3.378  72.234  1.00  0.00    -0.101 A  
HETATM   18  C   UNL     1     -10.187   3.209  73.029  1.00  0.00    -0.232 A  
HETATM   19  C   UNL     1     -10.205   2.279  74.069  1.00  0.00    -0.175 A  
HETATM   20  C   UNL     1      -9.078   1.503  74.323  1.00  0.00    -0.067 A  
HETATM   21  C   UNL     1      -7.925   1.682  73.559  1.00  0.00    -0.041 A  
HETATM   22  C   UNL     1      -7.904   2.628  72.531  1.00  0.00    -0.054 A  
ENDBRANCH  15  17
ENDBRANCH  12  15
ENDBRANCH   7   9
ENDBRANCH   4   7
TORSDOF 4
ENDMDL
MODEL      182
REMARK 921   NORMALIZED FREE ENERGY PREDICTED BY IDOCK:   -0.93 KCAL/MOL
REMARK 922        TOTAL FREE ENERGY PREDICTED BY IDOCK:   -1.82 KCAL/MOL
REMARK 923 INTER-LIGAND FREE ENERGY PREDICTED BY IDOCK:   -2.65 KCAL/MOL
REMARK 924 INTRA-LIGAND FREE ENERGY PREDICTED BY IDOCK:    0.82 KCAL/MOL
REMARK 927      BINDING AFFINITY PREDICTED BY RF-SCORE:    0.00 PKD
ROOT
HETATM    1  C   UNL     1      -8.962   4.858  62.436  1.00  0.00    -0.104 C  
HETATM    2  C   UNL     1      -8.533   3.449  62.834  1.00  0.00    -0.085 C  
HETATM    3  C   UNL     1      -7.284   3.460  63.712  1.00  0.00    -0.050 C  
HETATM    4  C   UNL     1      -7.414   4.386  64.930  1.00  0.00    -0.073 C  
HETATM    5  C   UNL     1      -7.818   5.799  64.487  1.00  0.00    -0.113 C  
HETATM    6  C   UNL     1      -9.089   5.791  63.636  1.00  0.00     0.683 C  
ENDROOT
BRANCH   4   7
HETATM    7  N   UNL     1      -8.415   3.872  65.870  1.00  0.00    -0.109 NA 
HETATM    8  H   UNL     1      -8.759   2.918  65.756  1.00  0.00     0.000 HD 
BRANCH   7   9
HETATM    9  C   UNL     1      -8.911   4.648  66.917  1.00  0.00    -0.111 A  
HETATM   10  C   UNL     1      -8.928   6.042  66.905  1.00  0.00    -0.117 A  
HETATM   11  C   UNL     1      -9.341   6.766  68.022  1.00  0.00    -0.118 A  
HETATM   12  C   UNL     1      -9.818   6.120  69.163  1.00  0.00    -0.145 A  
HETATM   13  C   UNL     1      -9.951   4.733  69.133  1.00  0.00    -0.233 A  
HETATM   14  C   UNL     1      -9.486   4.008  68.024  1.00  0.00    -0.220 A  
BRANCH  12  15
HETATM   15  N   UNL     1     -10.085   6.912  70.288  1.00  0.00    -0.182 NA 
HETATM   16  H   UNL     1     -10.328   7.877  70.068  1.00  0.00     0.000 HD 
BRANCH  15  17
HETATM   17  C   UNL     1     -10.080   6.625  71.660  1.00  0.00    -0.184 A  
HETATM   18  C   UNL     1      -9.501   7.542  72.545  1.00  0.00    -0.207 A  
HETATM   19  C   UNL     1      -9.555   7.339  73.925  1.00  0.00    -0.322 A  
HETATM   20  C   UNL     1     -10.195   6.213  74.434  1.00  0.00    -0.332 A  
HETATM   21  C   UNL     1     -10.750   5.277  73.563  1.00  0.00    -0.337 A  
HETATM   22  C   UNL     1     -10.677   5.473  72.181  1.00  0.00    -0.288 A  
ENDBRANCH  15  17
ENDBRANCH  12  15
ENDBRANCH   7   9
ENDBRANCH   4   7
TORSDOF 4
ENDMDL
MODEL      183
REMARK 921   NORMALIZED FREE ENERGY PREDICTED BY IDOCK:   -0.80 KCAL/MOL
REMARK 922        TOTAL FREE ENERGY PREDICTED BY IDOCK:   -1.66 KCAL/MOL
REMARK 923 INTER-LIGAND FREE ENERGY PREDICTED BY IDOCK:   -3.31 KCAL/MOL
REMARK 924 INTRA-LIGAND FREE ENERGY PREDICTED BY IDOCK:    1.64 KCAL/MOL
REMARK 927      BINDING AFFINITY PREDICTED BY RF-SCORE:    0.00 PKD
ROOT
HETATM    1  C   UNL     1     -10.389   7.777  70.155  1.00  0.00    -0.218 C  
HETATM    2  C   UNL     1      -9.837   8.355  71.454  1.00  0.00    -0.259 C  
HETATM    3  C   UNL     1     -10.858   8.293  72.586  1.00  0.00    -0.381 C  
HETATM    4  C   UNL     1     -11.446   6.889  72.788  1.00  0.00    -0.145 C  
HETATM    5  C   UNL     1     -12.018   6.354  71.468  1.00  0.00    -0.331 C  
HETATM    6  C   UNL     1     -10.984   6.384  70.341  1.00  0.00    -0.367 C  
ENDROOT
BRANCH   4   7
HETATM    7  N   UNL     1     -10.423   5.961  73.281  1.00  0.00    -0.220 NA 
HETATM    8  H   UNL     1     -10.269   5.883  74.286  1.00  0.00     0.000 HD 
BRANCH   7   9
HETATM    9  C   UNL     1      -9.656   5.183  72.415  1.00  0.00    -0.148 A  
HETATM   10  C   UNL     1      -8.512   5.646  71.766  1.00  0.00    -0.127 A  
HETATM   11  C   UNL     1      -7.844   4.855  70.834  1.00  0.00    -0.083 A  
HETATM   12  C   UNL     1      -8.255   3.548  70.571  1.00  0.00    -0.053 A  
HETATM   13  C   UNL     1      -9.302   3.019  71.323  1.00  0.00    -0.208 A  
HETATM   14  C   UNL     1     -10.002   3.837  72.224  1.00  0.00    -0.239 A  
BRANCH  12  15
HETATM   15  N   UNL     1      -7.616   2.868  69.525  1.00  0.00    -0.044 NA 
HETATM   16  H   UNL     1      -7.035   2.088  69.832  1.00  0.00     0.000 HD 
BRANCH  15  17
HETATM   17  C   UNL     1      -7.626   3.060  68.138  1.00  0.00    -0.056 A  
HETATM   18  C   UNL     1      -8.658   2.494  67.380  1.00  0.00    -0.122 A  
HETATM   19  C   UNL     1      -8.756   2.736  66.008  1.00  0.00    -0.131 A  
HETATM   20  C   UNL     1      -7.820   3.552  65.381  1.00  0.00    -0.086 A  
HETATM   21  C   UNL     1      -6.770   4.097  66.118  1.00  0.00    -0.049 A  
HETATM   22  C   UNL     1      -6.663   3.838  67.487  1.00  0.00    -0.043 A  
ENDBRANCH  15  17
ENDBRANCH  12  15
ENDBRANCH   7   9
ENDBRANCH   4   7
TORSDOF 4
ENDMDL
MODEL      184
REMARK 921   NORMALIZED FREE ENERGY PREDICTED BY IDOCK:   -0.65 KCAL/MOL
REMARK 922        TOTAL FREE ENERGY PREDICTED BY IDOCK:   -1.48 KCAL/MOL
REMARK 923 INTER-LIGAND FREE ENERGY PREDICTED BY IDOCK:   -2.72 KCAL/MOL
REMARK 924 INTRA-LIGAND FREE ENERGY PREDICTED BY IDOCK:    1.24 KCAL/MOL
REMARK 927      BINDING AFFINITY PREDICTED BY RF-SCORE:    0.00 PKD
ROOT
HETATM    1  C   UNL     1      -9.200   5.141  62.372  1.00  0.00     0.056 C  
HETATM    2  C   UNL     1      -8.505   4.491  63.565  1.00  0.00    -0.114 C  
HETATM    3  C   UNL     1      -7.091   5.028  63.765  1.00  0.00    -0.049 C  
HETATM    4  C   UNL     1      -7.035   6.561  63.835  1.00  0.00    -0.047 C  
HETATM    5  C   UNL     1      -7.716   7.177  62.606  1.00  0.00    -0.125 C  
HETATM    6  C   UNL     1      -9.146   6.665  62.425  1.00  0.00     0.757 C  
ENDROOT
BRANCH   4   7
HETATM    7  N   UNL     1      -7.697   7.051  65.049  1.00  0.00    -0.108 NA 
HETATM    8  H   UNL     1      -7.846   6.408  65.826  1.00  0.00     0.000 HD 
BRANCH   7   9
HETATM    9  C   UNL     1      -8.129   8.371  65.170  1.00  0.00    -0.147 A  
HETATM   10  C   UNL     1      -8.493   9.169  64.088  1.00  0.00    -0.198 A  
HETATM   11  C   UNL     1      -8.819  10.513  64.262  1.00  0.00    -0.209 A  
HETATM   12  C   UNL     1      -8.860  11.086  65.533  1.00  0.00    -0.169 A  
HETATM   13  C   UNL     1      -8.648  10.263  66.637  1.00  0.00    -0.130 A  
HETATM   14  C   UNL     1      -8.271   8.923  66.452  1.00  0.00    -0.115 A  
BRANCH  12  15
HETATM   15  N   UNL     1      -9.062  12.470  65.610  1.00  0.00    -0.386 NA 
HETATM   16  H   UNL     1      -8.319  12.971  66.096  1.00  0.00     0.000 HD 
BRANCH  15  17
HETATM   17  C   UNL     1     -10.095  13.295  65.146  1.00  0.00    -0.231 A  
HETATM   18  C   UNL     1     -10.792  12.927  63.989  1.00  0.00    -0.443 A  
HETATM   19  C   UNL     1     -11.886  13.670  63.543  1.00  0.00    -0.217 A  
HETATM   20  C   UNL     1     -12.297  14.792  64.257  1.00  0.00    -0.345 A  
HETATM   21  C   UNL     1     -11.594  15.187  65.395  1.00  0.00    -0.171 A  
HETATM   22  C   UNL     1     -10.487  14.451  65.827  1.00  0.00    -0.329 A  
ENDBRANCH  15  17
ENDBRANCH  12  15
ENDBRANCH   7   9
ENDBRANCH   4   7
TORSDOF 4
ENDMDL
MODEL      185
REMARK 921   NORMALIZED FREE ENERGY PREDICTED BY IDOCK:    0.22 KCAL/MOL
REMARK 922        TOTAL FREE ENERGY PREDICTED BY IDOCK:   -0.40 KCAL/MOL
REMARK 923 INTER-LIGAND FREE ENERGY PREDICTED BY IDOCK:   -2.33 KCAL/MOL
REMARK 924 INTRA-LIGAND FREE ENERGY PREDICTED BY IDOCK:    1.93 KCAL/MOL
REMARK 927      BINDING AFFINITY PREDICTED BY RF-SCORE:    0.00 PKD
ROOT
HETATM    1  C   UNL     1      -9.295   6.696  70.116  1.00  0.00    -0.159 C  
HETATM    2  C   UNL     1      -8.034   6.615  70.972  1.00  0.00    -0.107 C  
HETATM    3  C   UNL     1      -8.345   6.210  72.410  1.00  0.00    -0.115 C  
HETATM    4  C   UNL     1      -9.184   4.927  72.504  1.00  0.00    -0.132 C  
HETATM    5  C   UNL     1     -10.457   5.057  71.655  1.00  0.00    -0.232 C  
HETATM    6  C   UNL     1     -10.143   5.431  70.205  1.00  0.00    -0.318 C  
ENDROOT
BRANCH   4   7
HETATM    7  N   UNL     1      -8.415   3.766  72.043  1.00  0.00    -0.089 NA 
HETATM    8  H   UNL     1      -8.003   3.140  72.735  1.00  0.00     0.000 HD 
BRANCH   7   9
HETATM    9  C   UNL     1      -8.233   3.493  70.688  1.00  0.00    -0.057 A  
HETATM   10  C   UNL     1      -7.111   3.890  69.963  1.00  0.00    -0.042 A  
HETATM   11  C   UNL     1      -7.031   3.678  68.588  1.00  0.00    -0.050 A  
HETATM   12  C   UNL     1      -8.038   2.998  67.904  1.00  0.00    -0.077 A  
HETATM   13  C   UNL     1      -9.092   2.460  68.640  1.00  0.00    -0.200 A  
HETATM   14  C   UNL     1      -9.192   2.721  70.016  1.00  0.00    -0.205 A  
BRANCH  12  15
HETATM   15  N   UNL     1      -7.947   2.945  66.507  1.00  0.00    -0.080 NA 
HETATM   16  H   UNL     1      -7.938   1.999  66.128  1.00  0.00     0.000 HD 
BRANCH  15  17
HETATM   17  C   UNL     1      -7.866   3.949  65.533  1.00  0.00    -0.093 A  
HETATM   18  C   UNL     1      -8.859   4.023  64.549  1.00  0.00    -0.128 A  
HETATM   19  C   UNL     1      -8.867   5.061  63.615  1.00  0.00    -0.025 A  
HETATM   20  C   UNL     1      -7.879   6.040  63.661  1.00  0.00    -0.112 A  
HETATM   21  C   UNL     1      -6.868   5.962  64.618  1.00  0.00    -0.047 A  
HETATM   22  C   UNL     1      -6.852   4.911  65.538  1.00  0.00    -0.061 A  
ENDBRANCH  15  17
ENDBRANCH  12  15
ENDBRANCH   7   9
ENDBRANCH   4   7
TORSDOF 4
ENDMDL
MODEL      186
REMARK 921   NORMALIZED FREE ENERGY PREDICTED BY IDOCK:    1.10 KCAL/MOL
REMARK 922        TOTAL FREE ENERGY PREDICTED BY IDOCK:    0.69 KCAL/MOL
REMARK 923 INTER-LIGAND FREE ENERGY PREDICTED BY IDOCK:   -2.45 KCAL/MOL
REMARK 924 INTRA-LIGAND FREE ENERGY PREDICTED BY IDOCK:    3.14 KCAL/MOL
REMARK 927      BINDING AFFINITY PREDICTED BY RF-SCORE:    0.00 PKD
ROOT
HETATM    1  C   UNL     1      -9.545   9.276  65.895  1.00  0.00    -0.345 C  
HETATM    2  C   UNL     1      -8.293   9.308  65.023  1.00  0.00    -0.160 C  
HETATM    3  C   UNL     1      -7.405  10.506  65.343  1.00  0.00    -0.084 C  
HETATM    4  C   UNL     1      -7.066  10.621  66.837  1.00  0.00    -0.109 C  
HETATM    5  C   UNL     1      -8.350  10.615  67.678  1.00  0.00    -0.114 C  
HETATM    6  C   UNL     1      -9.224   9.396  67.382  1.00  0.00    -0.145 C  
ENDROOT
BRANCH   4   7
HETATM    7  N   UNL     1      -6.207   9.512  67.263  1.00  0.00    -0.063 NA 
HETATM    8  H   UNL     1      -5.414   9.248  66.679  1.00  0.00     0.000 HD 
BRANCH   7   9
HETATM    9  C   UNL     1      -6.443   8.808  68.443  1.00  0.00    -0.055 A  
HETATM   10  C   UNL     1      -5.559   7.872  68.976  1.00  0.00    -0.030 A  
HETATM   11  C   UNL     1      -5.894   7.125  70.104  1.00  0.00    -0.024 A  
HETATM   12  C   UNL     1      -7.096   7.340  70.778  1.00  0.00    -0.065 A  
HETATM   13  C   UNL     1      -7.921   8.377  70.348  1.00  0.00    -0.099 A  
HETATM   14  C   UNL     1      -7.601   9.092  69.182  1.00  0.00    -0.073 A  
BRANCH  12  15
HETATM   15  N   UNL     1      -7.419   6.458  71.819  1.00  0.00    -0.092 NA 
HETATM   16  H   UNL     1      -6.619   5.947  72.191  1.00  0.00     0.000 HD 
BRANCH  15  17
HETATM   17  C   UNL     1      -8.634   6.149  72.443  1.00  0.00    -0.119 A  
HETATM   18  C   UNL     1      -8.745   6.304  73.830  1.00  0.00    -0.128 A  
HETATM   19  C   UNL     1      -9.963   6.095  74.480  1.00  0.00    -0.343 A  
HETATM   20  C   UNL     1     -11.085   5.729  73.744  1.00  0.00     0.092 A  
HETATM   21  C   UNL     1     -10.981   5.541  72.366  1.00  0.00    -0.310 A  
HETATM   22  C   UNL     1      -9.756   5.733  71.721  1.00  0.00    -0.185 A  
ENDBRANCH  15  17
ENDBRANCH  12  15
ENDBRANCH   7   9
ENDBRANCH   4   7
TORSDOF 4
ENDMDL
MODEL      187
REMARK 921   NORMALIZED FREE ENERGY PREDICTED BY IDOCK:    2.12 KCAL/MOL
REMARK 922        TOTAL FREE ENERGY PREDICTED BY IDOCK:    1.95 KCAL/MOL
REMARK 923 INTER-LIGAND FREE ENERGY PREDICTED BY IDOCK:    1.62 KCAL/MOL
REMARK 924 INTRA-LIGAND FREE ENERGY PREDICTED BY IDOCK:    0.32 KCAL/MOL
REMARK 927      BINDING AFFINITY PREDICTED BY RF-SCORE:    0.00 PKD
ROOT
HETATM    1  C   UNL     1      -7.643  10.281  71.693  1.00  0.00     2.934 C  
HETATM    2  C   UNL     1      -7.777   9.822  70.244  1.00  0.00    -0.187 C  
HETATM    3  C   UNL     1      -6.507   9.144  69.741  1.00  0.00    -0.039 C  
HETATM    4  C   UNL     1      -6.026   8.011  70.658  1.00  0.00    -0.033 C  
HETATM    5  C   UNL     1      -5.875   8.518  72.099  1.00  0.00    -0.059 C  
HETATM    6  C   UNL     1      -7.160   9.167  72.616  1.00  0.00     0.497 C  
ENDROOT
BRANCH   4   7
HETATM    7  N   UNL     1      -6.971   6.889  70.639  1.00  0.00    -0.062 NA 
HETATM    8  H   UNL     1      -7.129   6.361  71.497  1.00  0.00     0.000 HD 
BRANCH   7   9
HETATM    9  C   UNL     1      -7.658   6.524  69.482  1.00  0.00    -0.095 A  
HETATM   10  C   UNL     1      -8.943   5.985  69.483  1.00  0.00    -0.131 A  
HETATM   11  C   UNL     1      -9.539   5.544  68.303  1.00  0.00    -0.148 A  
HETATM   12  C   UNL     1      -8.900   5.694  67.073  1.00  0.00    -0.111 A  
HETATM   13  C   UNL     1      -7.682   6.370  67.038  1.00  0.00    -0.100 A  
HETATM   14  C   UNL     1      -7.064   6.766  68.235  1.00  0.00    -0.086 A  
BRANCH  12  15
HETATM   15  N   UNL     1      -9.505   5.105  65.955  1.00  0.00    -0.159 NA 
HETATM   16  H   UNL     1     -10.523   5.160  65.957  1.00  0.00     0.000 HD 
BRANCH  15  17
HETATM   17  C   UNL     1      -8.973   4.453  64.835  1.00  0.00    -0.147 A  
HETATM   18  C   UNL     1      -7.683   4.786  64.403  1.00  0.00    -0.082 A  
HETATM   19  C   UNL     1      -7.080   4.099  63.348  1.00  0.00    -0.045 A  
HETATM   20  C   UNL     1      -7.764   3.065  62.715  1.00  0.00    -0.066 A  
HETATM   21  C   UNL     1      -9.061   2.743  63.115  1.00  0.00    -0.094 A  
HETATM   22  C   UNL     1      -9.669   3.447  64.159  1.00  0.00    -0.164 A  
ENDBRANCH  15  17
ENDBRANCH  12  15
ENDBRANCH   7   9
ENDBRANCH   4   7
TORSDOF 4
ENDMDL
MODEL      188
REMARK 921   NORMALIZED FREE ENERGY PREDICTED BY IDOCK:    3.87 KCAL/MOL
REMARK 922        TOTAL FREE ENERGY PREDICTED BY IDOCK:    4.10 KCAL/MOL
REMARK 923 INTER-LIGAND FREE ENERGY PREDICTED BY IDOCK:    1.46 KCAL/MOL
REMARK 924 INTRA-LIGAND FREE ENERGY PREDICTED BY IDOCK:    2.64 KCAL/MOL
REMARK 927      BINDING AFFINITY PREDICTED BY RF-SCORE:    0.00 PKD
ROOT
HETATM    1  C   UNL     1      -7.292   5.831  65.286  1.00  0.00    -0.075 C  
HETATM    2  C   UNL     1      -6.905   7.298  65.122  1.00  0.00    -0.047 C  
HETATM    3  C   UNL     1      -6.857   7.715  63.655  1.00  0.00    -0.058 C  
HETATM    4  C   UNL     1      -8.144   7.372  62.891  1.00  0.00    -0.063 C  
HETATM    5  C   UNL     1      -8.483   5.884  63.055  1.00  0.00     0.060 C  
HETATM    6  C   UNL     1      -8.565   5.474  64.526  1.00  0.00    -0.042 C  
ENDROOT
BRANCH   4   7
HETATM    7  N   UNL     1      -9.268   8.179  63.376  1.00  0.00     0.606 NA 
HETATM    8  H   UNL     1     -10.220   7.873  63.174  1.00  0.00     0.000 HD 
BRANCH   7   9
HETATM    9  C   UNL     1      -9.074   9.351  64.105  1.00  0.00    -0.080 A  
HETATM   10  C   UNL     1     -10.047  10.337  64.259  1.00  0.00    -0.191 A  
HETATM   11  C   UNL     1      -9.761  11.534  64.914  1.00  0.00    -0.264 A  
HETATM   12  C   UNL     1      -8.514  11.755  65.500  1.00  0.00     0.492 A  
HETATM   13  C   UNL     1      -7.584  10.717  65.488  1.00  0.00    -0.005 A  
HETATM   14  C   UNL     1      -7.860   9.534  64.784  1.00  0.00    -0.120 A  
BRANCH  12  15
HETATM   15  N   UNL     1      -8.263  13.031  66.019  1.00  0.00     0.545 NA 
HETATM   16  H   UNL     1      -8.077  13.739  65.308  1.00  0.00     0.000 HD 
BRANCH  15  17
HETATM   17  C   UNL     1      -8.218  13.518  67.332  1.00  0.00    -0.181 A  
HETATM   18  C   UNL     1      -9.220  14.394  67.767  1.00  0.00    -0.192 A  
HETATM   19  C   UNL     1      -9.265  14.830  69.092  1.00  0.00    -0.089 A  
HETATM   20  C   UNL     1      -8.305  14.390  69.998  1.00  0.00     0.999 A  
HETATM   21  C   UNL     1      -7.284  13.542  69.571  1.00  0.00     0.274 A  
HETATM   22  C   UNL     1      -7.231  13.122  68.239  1.00  0.00    -0.107 A  
ENDBRANCH  15  17
ENDBRANCH  12  15
ENDBRANCH   7   9
ENDBRANCH   4   7
TORSDOF 4
ENDMDL
MODEL      189
REMARK 921   NORMALIZED FREE ENERGY PREDICTED BY IDOCK:    7.15 KCAL/MOL
REMARK 922        TOTAL FREE ENERGY PREDICTED BY IDOCK:    8.15 KCAL/MOL
REMARK 923 INTER-LIGAND FREE ENERGY PREDICTED BY IDOCK:    6.59 KCAL/MOL
REMARK 924 INTRA-LIGAND FREE ENERGY PREDICTED BY IDOCK:    1.57 KCAL/MOL
REMARK 927      BINDING AFFINITY PREDICTED BY RF-SCORE:    0.00 PKD
ROOT
HETATM    1  C   UNL     1     -13.050  13.151  68.599  1.00  0.00     2.548 C  
HETATM    2  C   UNL     1     -11.916  13.757  69.422  1.00  0.00    -0.397 C  
HETATM    3  C   UNL     1     -11.131  12.693  70.182  1.00  0.00     0.616 C  
HETATM    4  C   UNL     1     -10.639  11.551  69.281  1.00  0.00    -0.078 C  
HETATM    5  C   UNL     1     -11.811  10.948  68.494  1.00  0.00    -0.236 C  
HETATM    6  C   UNL     1     -12.577  12.010  67.704  1.00  0.00     1.733 C  
ENDROOT
BRANCH   4   7
HETATM    7  N   UNL     1      -9.623  12.031  68.340  1.00  0.00    -0.245 NA 
HETATM    8  H   UNL     1      -9.253  11.388  67.640  1.00  0.00     0.000 HD 
BRANCH   7   9
HETATM    9  C   UNL     1      -9.148  13.342  68.372  1.00  0.00    -0.137 A  
HETATM   10  C   UNL     1      -9.913  14.451  68.014  1.00  0.00    -0.225 A  
HETATM   11  C   UNL     1      -9.353  15.726  67.969  1.00  0.00    -0.197 A  
HETATM   12  C   UNL     1      -8.030  15.946  68.350  1.00  0.00    -0.147 A  
HETATM   13  C   UNL     1      -7.299  14.873  68.857  1.00  0.00    -0.136 A  
HETATM   14  C   UNL     1      -7.852  13.583  68.852  1.00  0.00     0.059 A  
BRANCH  12  15
HETATM   15  N   UNL     1      -7.505  17.230  68.148  1.00  0.00    -0.201 NA 
HETATM   16  H   UNL     1      -6.684  17.251  67.544  1.00  0.00     0.000 HD 
BRANCH  15  17
HETATM   17  C   UNL     1      -7.897  18.489  68.620  1.00  0.00    -0.314 A  
HETATM   18  C   UNL     1      -7.195  19.624  68.197  1.00  0.00    -0.337 A  
HETATM   19  C   UNL     1      -7.608  20.904  68.570  1.00  0.00     0.642 A  
HETATM   20  C   UNL     1      -8.734  21.060  69.372  1.00  0.00     2.732 A  
HETATM   21  C   UNL     1      -9.426  19.937  69.826  1.00  0.00     0.403 A  
HETATM   22  C   UNL     1      -8.998  18.656  69.466  1.00  0.00     0.502 A  
ENDBRANCH  15  17
ENDBRANCH  12  15
ENDBRANCH   7   9
ENDBRANCH   4   7
TORSDOF 4
ENDMDL
MODEL      190
REMARK 921   NORMALIZED FREE ENERGY PREDICTED BY IDOCK:   12.53 KCAL/MOL
REMARK 922        TOTAL FREE ENERGY PREDICTED BY IDOCK:   14.79 KCAL/MOL
REMARK 923 INTER-LIGAND FREE ENERGY PREDICTED BY IDOCK:   13.67 KCAL/MOL
REMARK 924 INTRA-LIGAND FREE ENERGY PREDICTED BY IDOCK:    1.12 KCAL/MOL
REMARK 927      BINDING AFFINITY PREDICTED BY RF-SCORE:    0.00 PKD
ROOT
HETATM    1  C   UNL     1      -7.871  18.486  71.645  1.00  0.00     7.753 C  
HETATM    2  C   UNL     1      -7.551  19.505  70.555  1.00  0.00     1.168 C  
HETATM    3  C   UNL     1      -6.049  19.659  70.341  1.00  0.00    -0.272 C  
HETATM    4  C   UNL     1      -5.336  18.320  70.101  1.00  0.00    -0.240 C  
HETATM    5  C   UNL     1      -5.658  17.333  71.231  1.00  0.00     0.406 C  
HETATM    6  C   UNL     1      -7.164  17.152  71.422  1.00  0.00     5.920 C  
ENDROOT
BRANCH   4   7
HETATM    7  N   UNL     1      -5.745  17.736  68.819  1.00  0.00    -0.172 NA 
HETATM    8  H   UNL     1      -6.020  18.356  68.058  1.00  0.00     0.000 HD 
BRANCH   7   9
HETATM    9  C   UNL     1      -5.767  16.357  68.612  1.00  0.00    -0.109 A  
HETATM   10  C   UNL     1      -5.190  15.434  69.483  1.00  0.00    -0.098 A  
HETATM   11  C   UNL     1      -5.155  14.076  69.171  1.00  0.00    -0.078 A  
HETATM   12  C   UNL     1      -5.757  13.587  68.013  1.00  0.00    -0.124 A  
HETATM   13  C   UNL     1      -6.470  14.475  67.210  1.00  0.00     0.290 A  
HETATM   14  C   UNL     1      -6.459  15.849  67.503  1.00  0.00    -0.205 A  
BRANCH  12  15
HETATM   15  N   UNL     1      -5.560  12.234  67.705  1.00  0.00    -0.080 NA 
HETATM   16  H   UNL     1      -4.694  11.846  68.078  1.00  0.00     0.000 HD 
BRANCH  15  17
HETATM   17  C   UNL     1      -6.331  11.314  66.982  1.00  0.00    -0.111 A  
HETATM   18  C   UNL     1      -7.605  11.692  66.541  1.00  0.00     0.016 A  
HETATM   19  C   UNL     1      -8.369  10.841  65.741  1.00  0.00    -0.158 A  
HETATM   20  C   UNL     1      -7.861   9.600  65.371  1.00  0.00    -0.117 A  
HETATM   21  C   UNL     1      -6.607   9.198  65.827  1.00  0.00    -0.068 A  
HETATM   22  C   UNL     1      -5.852  10.045  66.644  1.00  0.00    -0.055 A  
ENDBRANCH  15  17
ENDBRANCH  12  15
ENDBRANCH   7   9
ENDBRANCH   4   7
TORSDOF 4
ENDMDL
MODEL      191
REMARK 921   NORMALIZED FREE ENERGY PREDICTED BY IDOCK:   27.05 KCAL/MOL
REMARK 922        TOTAL FREE ENERGY PREDICTED BY IDOCK:   32.71 KCAL/MOL
REMARK 923 INTER-LIGAND FREE ENERGY PREDICTED BY IDOCK:   32.68 KCAL/MOL
REMARK 924 INTRA-LIGAND FREE ENERGY PREDICTED BY IDOCK:    0.03 KCAL/MOL
REMARK 927      BINDING AFFINITY PREDICTED BY RF-SCORE:    0.00 PKD
ROOT
HETATM    1  C   UNL     1     -13.715  12.463  66.455  1.00  0.00     7.404 C  
HETATM    2  C   UNL     1     -12.274  12.396  66.951  1.00  0.00     0.140 C  
HETATM    3  C   UNL     1     -11.306  13.073  65.986  1.00  0.00    -0.343 C  
HETATM    4  C   UNL     1     -11.722  14.507  65.626  1.00  0.00    -0.335 C  
HETATM    5  C   UNL     1     -13.165  14.530  65.104  1.00  0.00     0.437 C  
HETATM    6  C   UNL     1     -14.140  13.881  66.087  1.00  0.00     5.324 C  
ENDROOT
BRANCH   4   7
HETATM    7  N   UNL     1     -11.618  15.388  66.794  1.00  0.00    -0.058 NA 
HETATM    8  H   UNL     1     -12.121  16.275  66.790  1.00  0.00     0.000 HD 
BRANCH   7   9
HETATM    9  C   UNL     1     -10.853  15.048  67.908  1.00  0.00    -0.280 A  
HETATM   10  C   UNL     1      -9.496  14.736  67.849  1.00  0.00    -0.201 A  
HETATM   11  C   UNL     1      -8.807  14.304  68.981  1.00  0.00     0.062 A  
HETATM   12  C   UNL     1      -9.434  14.238  70.225  1.00  0.00     1.828 A  
HETATM   13  C   UNL     1     -10.747  14.693  70.330  1.00  0.00     0.082 A  
HETATM   14  C   UNL     1     -11.450  15.079  69.177  1.00  0.00    -0.320 A  
BRANCH  12  15
HETATM   15  N   UNL     1      -8.713  13.667  71.282  1.00  0.00     6.777 NA 
HETATM   16  H   UNL     1      -9.140  12.826  71.669  1.00  0.00     0.000 HD 
BRANCH  15  17
HETATM   17  C   UNL     1      -7.514  14.035  71.906  1.00  0.00     5.072 A  
HETATM   18  C   UNL     1      -6.523  14.675  71.153  1.00  0.00     0.363 A  
HETATM   19  C   UNL     1      -5.352  15.140  71.755  1.00  0.00     0.045 A  
HETATM   20  C   UNL     1      -5.164  14.970  73.123  1.00  0.00     0.164 A  
HETATM   21  C   UNL     1      -6.129  14.308  73.880  1.00  0.00     0.378 A  
HETATM   22  C   UNL     1      -7.291  13.827  73.271  1.00  0.00     6.138 A  
ENDBRANCH  15  17
ENDBRANCH  12  15
ENDBRANCH   7   9
ENDBRANCH   4   7
TORSDOF 4
ENDMDL
