MODEL        1
REMARK 921   NORMALIZED FREE ENERGY PREDICTED BY IDOCK:   -6.58 KCAL/MOL
REMARK 922        TOTAL FREE ENERGY PREDICTED BY IDOCK:  -10.90 KCAL/MOL
REMARK 923 INTER-LIGAND FREE ENERGY PREDICTED BY IDOCK:   -8.88 KCAL/MOL
REMARK 924 INTRA-LIGAND FREE ENERGY PREDICTED BY IDOCK:   -2.01 KCAL/MOL
REMARK 927      BINDING AFFINITY PREDICTED BY RF-SCORE:    0.00 PKD
ROOT
HETATM    1  C   UNL     1     -11.522  13.445  67.474  1.00  0.00    -0.357 C  
HETATM    2  C   UNL     1     -11.261  12.784  68.838  1.00  0.00    -0.332 C  
HETATM    3  C   UNL     1     -11.558  11.307  68.775  1.00  0.00    -0.316 C  
HETATM    4  C   UNL     1     -10.826  10.538  67.714  1.00  0.00    -0.347 C  
HETATM    5  O   UNL     1     -12.299  10.750  69.583  1.00  0.00    -0.316 OA 
HETATM    6  C   UNL     1     -11.114  11.166  66.359  1.00  0.00    -0.204 C  
HETATM    7  C   UNL     1     -10.785  12.669  66.346  1.00  0.00    -0.278 C  
HETATM    8  C   UNL     1     -11.049  13.375  64.991  1.00  0.00    -0.319 C  
HETATM    9  C   UNL     1     -12.532  13.524  64.606  1.00  0.00    -0.372 C  
HETATM   10  C   UNL     1     -10.343  12.644  63.835  1.00  0.00    -0.405 C  
HETATM   11  O   UNL     1     -10.450  14.687  65.027  1.00  0.00    -0.393 OA 
HETATM   12  C   UNL     1     -10.606  15.416  66.178  1.00  0.00    -0.316 A  
HETATM   13  C   UNL     1     -10.171  16.747  66.070  1.00  0.00    -0.361 A  
HETATM   14  C   UNL     1     -10.279  17.645  67.140  1.00  0.00    -0.342 A  
HETATM   15  H   UNL     1     -12.202  14.542  69.652  1.00  0.00     0.000 HD 
HETATM   16  C   UNL     1     -10.872  17.159  68.315  1.00  0.00    -0.314 A  
HETATM   17  C   UNL     1     -11.300  15.831  68.423  1.00  0.00    -0.372 A  
HETATM   18  O   UNL     1     -11.912  15.444  69.579  1.00  0.00    -0.325 OA 
HETATM   19  C   UNL     1     -11.134  14.914  67.378  1.00  0.00    -0.325 A  
ENDROOT
BRANCH  14  20
HETATM   20  C   UNL     1      -9.787  19.102  67.066  1.00  0.00    -0.407 C  
HETATM   21  C   UNL     1     -10.412  19.908  65.903  1.00  0.00    -0.567 C  
HETATM   22  C   UNL     1     -10.196  19.829  68.371  1.00  0.00    -0.568 C  
BRANCH  20  23
HETATM   23  C   UNL     1      -8.229  19.161  66.948  1.00  0.00    -0.287 C  
BRANCH  23  24
HETATM   24  C   UNL     1      -7.484  19.251  68.284  1.00  0.00    -0.335 C  
BRANCH  24  25
HETATM   25  C   UNL     1      -6.490  18.100  68.463  1.00  0.00    -0.214 C  
BRANCH  25  26
HETATM   26  C   UNL     1      -7.196  16.868  69.032  1.00  0.00    -0.232 C  
BRANCH  26  27
HETATM   27  C   UNL     1      -7.265  15.730  68.018  1.00  0.00    -0.141 C  
HETATM   28  C   UNL     1      -7.684  14.429  68.686  1.00  0.00    -0.138 C  
ENDBRANCH  26  27
ENDBRANCH  25  26
ENDBRANCH  24  25
ENDBRANCH  23  24
ENDBRANCH  20  23
ENDBRANCH  14  20
TORSDOF 6
ENDMDL
MODEL        2
REMARK 921   NORMALIZED FREE ENERGY PREDICTED BY IDOCK:   -6.18 KCAL/MOL
REMARK 922        TOTAL FREE ENERGY PREDICTED BY IDOCK:  -10.37 KCAL/MOL
REMARK 923 INTER-LIGAND FREE ENERGY PREDICTED BY IDOCK:   -9.35 KCAL/MOL
REMARK 924 INTRA-LIGAND FREE ENERGY PREDICTED BY IDOCK:   -1.01 KCAL/MOL
REMARK 927      BINDING AFFINITY PREDICTED BY RF-SCORE:    0.00 PKD
ROOT
HETATM    1  C   UNL     1     -11.681  13.433  68.229  1.00  0.00    -0.391 C  
HETATM    2  C   UNL     1     -11.547  12.978  69.693  1.00  0.00    -0.322 C  
HETATM    3  C   UNL     1     -11.948  11.531  69.835  1.00  0.00    -0.351 C  
HETATM    4  C   UNL     1     -11.215  10.560  68.954  1.00  0.00    -0.323 C  
HETATM    5  O   UNL     1     -12.772  11.156  70.666  1.00  0.00    -0.313 OA 
HETATM    6  C   UNL     1     -11.380  10.986  67.504  1.00  0.00    -0.332 C  
HETATM    7  C   UNL     1     -10.941  12.444  67.285  1.00  0.00    -0.302 C  
HETATM    8  C   UNL     1     -11.074  12.946  65.823  1.00  0.00    -0.284 C  
HETATM    9  C   UNL     1     -12.518  13.127  65.321  1.00  0.00    -0.550 C  
HETATM   10  C   UNL     1     -10.360  11.999  64.842  1.00  0.00    -0.316 C  
HETATM   11  O   UNL     1     -10.383  14.206  65.700  1.00  0.00    -0.303 OA 
HETATM   12  C   UNL     1     -10.550  15.115  66.714  1.00  0.00    -0.298 A  
HETATM   13  C   UNL     1     -10.014  16.382  66.435  1.00  0.00    -0.318 A  
HETATM   14  C   UNL     1     -10.115  17.441  67.346  1.00  0.00    -0.321 A  
HETATM   15  H   UNL     1     -12.401  14.898  70.164  1.00  0.00     0.000 HD 
HETATM   16  C   UNL     1     -10.808  17.183  68.538  1.00  0.00    -0.281 A  
HETATM   17  C   UNL     1     -11.338  15.918  68.817  1.00  0.00    -0.378 A  
HETATM   18  O   UNL     1     -12.041  15.757  69.975  1.00  0.00    -0.365 OA 
HETATM   19  C   UNL     1     -11.181  14.841  67.937  1.00  0.00    -0.318 A  
ENDROOT
BRANCH  14  20
HETATM   20  C   UNL     1      -9.514  18.834  67.085  1.00  0.00    -0.328 C  
HETATM   21  C   UNL     1     -10.316  19.672  66.062  1.00  0.00    -0.620 C  
HETATM   22  C   UNL     1      -9.526  19.635  68.411  1.00  0.00    -0.452 C  
BRANCH  20  23
HETATM   23  C   UNL     1      -8.032  18.721  66.601  1.00  0.00    -0.278 C  
BRANCH  23  24
HETATM   24  C   UNL     1      -7.555  19.873  65.709  1.00  0.00    -0.309 C  
BRANCH  24  25
HETATM   25  C   UNL     1      -6.637  20.838  66.463  1.00  0.00    -0.331 C  
BRANCH  25  26
HETATM   26  C   UNL     1      -5.788  20.080  67.485  1.00  0.00    -0.200 C  
BRANCH  26  27
HETATM   27  C   UNL     1      -5.521  20.912  68.735  1.00  0.00    -0.391 C  
HETATM   28  C   UNL     1      -6.073  20.225  69.975  1.00  0.00    -0.381 C  
ENDBRANCH  26  27
ENDBRANCH  25  26
ENDBRANCH  24  25
ENDBRANCH  23  24
ENDBRANCH  20  23
ENDBRANCH  14  20
TORSDOF 6
ENDMDL
MODEL        3
REMARK 921   NORMALIZED FREE ENERGY PREDICTED BY IDOCK:   -5.92 KCAL/MOL
REMARK 922        TOTAL FREE ENERGY PREDICTED BY IDOCK:  -10.02 KCAL/MOL
REMARK 923 INTER-LIGAND FREE ENERGY PREDICTED BY IDOCK:   -8.57 KCAL/MOL
REMARK 924 INTRA-LIGAND FREE ENERGY PREDICTED BY IDOCK:   -1.45 KCAL/MOL
REMARK 927      BINDING AFFINITY PREDICTED BY RF-SCORE:    0.00 PKD
ROOT
HETATM    1  C   UNL     1     -11.030  12.133  66.197  1.00  0.00    -0.335 C  
HETATM    2  C   UNL     1     -12.263  12.976  65.825  1.00  0.00    -0.511 C  
HETATM    3  C   UNL     1     -12.093  13.585  64.457  1.00  0.00    -0.416 C  
HETATM    4  C   UNL     1     -11.810  12.620  63.341  1.00  0.00    -0.594 C  
HETATM    5  O   UNL     1     -12.245  14.788  64.249  1.00  0.00    -0.493 OA 
HETATM    6  C   UNL     1     -10.568  11.813  63.689  1.00  0.00    -0.496 C  
HETATM    7  C   UNL     1     -10.700  11.126  65.059  1.00  0.00    -0.301 C  
HETATM    8  C   UNL     1      -9.471  10.277  65.476  1.00  0.00    -0.223 C  
HETATM    9  C   UNL     1      -8.202  11.082  65.812  1.00  0.00    -0.064 C  
HETATM   10  C   UNL     1      -9.097   9.262  64.380  1.00  0.00    -0.111 C  
HETATM   11  O   UNL     1      -9.825   9.479  66.623  1.00  0.00    -0.197 OA 
HETATM   12  C   UNL     1     -10.556  10.089  67.611  1.00  0.00    -0.270 A  
HETATM   13  C   UNL     1     -10.693   9.316  68.775  1.00  0.00    -0.184 A  
HETATM   14  C   UNL     1     -11.386   9.792  69.896  1.00  0.00    -0.238 A  
HETATM   15  H   UNL     1     -12.173  13.652  67.868  1.00  0.00     0.000 HD 
HETATM   16  C   UNL     1     -11.907  11.092  69.812  1.00  0.00    -0.421 A  
HETATM   17  C   UNL     1     -11.774  11.858  68.648  1.00  0.00    -0.323 A  
HETATM   18  O   UNL     1     -12.264  13.132  68.658  1.00  0.00    -0.252 OA 
HETATM   19  C   UNL     1     -11.139  11.361  67.504  1.00  0.00    -0.339 A  
ENDROOT
BRANCH  14  20
HETATM   20  C   UNL     1     -11.580   8.961  71.178  1.00  0.00    -0.360 C  
HETATM   21  C   UNL     1     -10.323   8.908  72.078  1.00  0.00    -0.378 C  
HETATM   22  C   UNL     1     -12.698   9.616  72.027  1.00  0.00    -0.470 C  
BRANCH  20  23
HETATM   23  C   UNL     1     -12.024   7.502  70.836  1.00  0.00    -0.278 C  
BRANCH  23  24
HETATM   24  C   UNL     1     -11.044   6.409  71.278  1.00  0.00    -0.334 C  
BRANCH  24  25
HETATM   25  C   UNL     1     -10.603   5.529  70.106  1.00  0.00    -0.367 C  
BRANCH  25  26
HETATM   26  C   UNL     1      -9.222   5.956  69.606  1.00  0.00    -0.151 C  
BRANCH  26  27
HETATM   27  C   UNL     1      -9.163   6.029  68.083  1.00  0.00    -0.116 C  
HETATM   28  C   UNL     1     -10.556   5.930  67.479  1.00  0.00    -0.347 C  
ENDBRANCH  26  27
ENDBRANCH  25  26
ENDBRANCH  24  25
ENDBRANCH  23  24
ENDBRANCH  20  23
ENDBRANCH  14  20
TORSDOF 6
ENDMDL
MODEL        4
REMARK 921   NORMALIZED FREE ENERGY PREDICTED BY IDOCK:   -5.91 KCAL/MOL
REMARK 922        TOTAL FREE ENERGY PREDICTED BY IDOCK:  -10.00 KCAL/MOL
REMARK 923 INTER-LIGAND FREE ENERGY PREDICTED BY IDOCK:   -8.17 KCAL/MOL
REMARK 924 INTRA-LIGAND FREE ENERGY PREDICTED BY IDOCK:   -1.83 KCAL/MOL
REMARK 927      BINDING AFFINITY PREDICTED BY RF-SCORE:    0.00 PKD
ROOT
HETATM    1  C   UNL     1     -11.769  11.082  69.939  1.00  0.00    -0.424 C  
HETATM    2  C   UNL     1     -12.412  11.215  71.330  1.00  0.00    -0.466 C  
HETATM    3  C   UNL     1     -12.745   9.856  71.891  1.00  0.00    -0.409 C  
HETATM    4  C   UNL     1     -11.602   8.885  71.974  1.00  0.00    -0.435 C  
HETATM    5  O   UNL     1     -13.864   9.577  72.318  1.00  0.00    -0.416 OA 
HETATM    6  C   UNL     1     -10.990   8.721  70.592  1.00  0.00    -0.278 C  
HETATM    7  C   UNL     1     -10.584  10.075  69.985  1.00  0.00    -0.344 C  
HETATM    8  C   UNL     1      -9.944   9.984  68.575  1.00  0.00    -0.162 C  
HETATM    9  C   UNL     1     -10.904   9.572  67.444  1.00  0.00    -0.215 C  
HETATM   10  C   UNL     1      -8.764   8.995  68.562  1.00  0.00    -0.133 C  
HETATM   11  O   UNL     1      -9.366  11.263  68.243  1.00  0.00    -0.166 OA 
HETATM   12  C   UNL     1     -10.099  12.381  68.550  1.00  0.00    -0.185 A  
HETATM   13  C   UNL     1      -9.568  13.570  68.025  1.00  0.00    -0.221 A  
HETATM   14  C   UNL     1     -10.200  14.806  68.216  1.00  0.00    -0.227 A  
HETATM   15  H   UNL     1     -13.491  12.862  70.458  1.00  0.00     0.000 HD 
HETATM   16  C   UNL     1     -11.407  14.793  68.930  1.00  0.00    -0.302 A  
HETATM   17  C   UNL     1     -11.932  13.608  69.459  1.00  0.00    -0.341 A  
HETATM   18  O   UNL     1     -13.135  13.667  70.100  1.00  0.00     0.081 OA 
HETATM   19  C   UNL     1     -11.270  12.382  69.325  1.00  0.00    -0.264 A  
ENDROOT
BRANCH  14  20
HETATM   20  C   UNL     1      -9.631  16.131  67.679  1.00  0.00    -0.222 C  
HETATM   21  C   UNL     1     -10.519  17.358  67.993  1.00  0.00    -0.383 C  
HETATM   22  C   UNL     1      -8.265  16.396  68.360  1.00  0.00    -0.190 C  
BRANCH  20  23
HETATM   23  C   UNL     1      -9.396  16.054  66.136  1.00  0.00    -0.377 C  
BRANCH  23  24
HETATM   24  C   UNL     1     -10.672  16.055  65.287  1.00  0.00    -0.417 C  
BRANCH  24  25
HETATM   25  C   UNL     1     -10.946  14.684  64.664  1.00  0.00    -0.340 C  
BRANCH  25  26
HETATM   26  C   UNL     1     -12.245  14.094  65.218  1.00  0.00    -0.440 C  
BRANCH  26  27
HETATM   27  C   UNL     1     -12.146  12.586  65.421  1.00  0.00    -0.494 C  
HETATM   28  C   UNL     1     -11.189  11.962  64.417  1.00  0.00    -0.401 C  
ENDBRANCH  26  27
ENDBRANCH  25  26
ENDBRANCH  24  25
ENDBRANCH  23  24
ENDBRANCH  20  23
ENDBRANCH  14  20
TORSDOF 6
ENDMDL
MODEL        5
REMARK 921   NORMALIZED FREE ENERGY PREDICTED BY IDOCK:   -5.74 KCAL/MOL
REMARK 922        TOTAL FREE ENERGY PREDICTED BY IDOCK:   -9.76 KCAL/MOL
REMARK 923 INTER-LIGAND FREE ENERGY PREDICTED BY IDOCK:   -8.41 KCAL/MOL
REMARK 924 INTRA-LIGAND FREE ENERGY PREDICTED BY IDOCK:   -1.36 KCAL/MOL
REMARK 927      BINDING AFFINITY PREDICTED BY RF-SCORE:    0.00 PKD
ROOT
HETATM    1  C   UNL     1     -11.047  14.136  66.454  1.00  0.00    -0.320 C  
HETATM    2  C   UNL     1     -10.667  14.578  65.030  1.00  0.00    -0.444 C  
HETATM    3  C   UNL     1     -10.908  16.056  64.855  1.00  0.00    -0.372 C  
HETATM    4  C   UNL     1     -10.219  16.953  65.843  1.00  0.00    -0.330 C  
HETATM    5  O   UNL     1     -11.569  16.509  63.922  1.00  0.00    -1.175 OA 
HETATM    6  C   UNL     1     -10.624  16.543  67.250  1.00  0.00    -0.285 C  
HETATM    7  C   UNL     1     -10.358  15.049  67.507  1.00  0.00    -0.241 C  
HETATM    8  C   UNL     1     -10.741  14.561  68.928  1.00  0.00    -0.254 C  
HETATM    9  C   UNL     1     -12.252  14.516  69.221  1.00  0.00    -0.264 C  
HETATM   10  C   UNL     1     -10.087  15.436  70.013  1.00  0.00    -0.224 C  
HETATM   11  O   UNL     1     -10.195  13.241  69.129  1.00  0.00     0.010 OA 
HETATM   12  C   UNL     1     -10.301  12.353  68.089  1.00  0.00    -0.226 A  
HETATM   13  C   UNL     1      -9.929  11.041  68.422  1.00  0.00    -0.194 A  
HETATM   14  C   UNL     1     -10.000   9.997  67.490  1.00  0.00    -0.232 A  
HETATM   15  H   UNL     1     -11.620  12.748  64.417  1.00  0.00     0.000 HD 
HETATM   16  C   UNL     1     -10.492  10.321  66.217  1.00  0.00    -0.214 A  
HETATM   17  C   UNL     1     -10.857  11.630  65.884  1.00  0.00    -0.287 A  
HETATM   18  O   UNL     1     -11.373  11.858  64.642  1.00  0.00    -0.317 OA 
HETATM   19  C   UNL     1     -10.726  12.687  66.793  1.00  0.00    -0.261 A  
ENDROOT
BRANCH  14  20
HETATM   20  C   UNL     1      -9.573   8.554  67.813  1.00  0.00    -0.185 C  
HETATM   21  C   UNL     1     -10.458   7.481  67.136  1.00  0.00    -0.407 C  
HETATM   22  C   UNL     1      -8.135   8.332  67.281  1.00  0.00    -0.109 C  
BRANCH  20  23
HETATM   23  C   UNL     1      -9.562   8.306  69.356  1.00  0.00    -0.171 C  
BRANCH  23  24
HETATM   24  C   UNL     1     -10.751   7.500  69.889  1.00  0.00    -0.254 C  
BRANCH  24  25
HETATM   25  C   UNL     1     -11.037   7.807  71.361  1.00  0.00    -0.268 C  
BRANCH  25  26
HETATM   26  C   UNL     1     -11.131   9.317  71.584  1.00  0.00    -0.438 C  
BRANCH  26  27
HETATM   27  C   UNL     1     -12.532   9.850  71.302  1.00  0.00    -0.479 C  
HETATM   28  C   UNL     1     -12.516  11.362  71.129  1.00  0.00    -0.465 C  
ENDBRANCH  26  27
ENDBRANCH  25  26
ENDBRANCH  24  25
ENDBRANCH  23  24
ENDBRANCH  20  23
ENDBRANCH  14  20
TORSDOF 6
ENDMDL
MODEL        6
REMARK 921   NORMALIZED FREE ENERGY PREDICTED BY IDOCK:   -5.67 KCAL/MOL
REMARK 922        TOTAL FREE ENERGY PREDICTED BY IDOCK:   -9.68 KCAL/MOL
REMARK 923 INTER-LIGAND FREE ENERGY PREDICTED BY IDOCK:   -8.21 KCAL/MOL
REMARK 924 INTRA-LIGAND FREE ENERGY PREDICTED BY IDOCK:   -1.47 KCAL/MOL
REMARK 927      BINDING AFFINITY PREDICTED BY RF-SCORE:    0.00 PKD
ROOT
HETATM    1  C   UNL     1     -12.094  13.887  69.810  1.00  0.00    -0.404 C  
HETATM    2  C   UNL     1     -10.945  14.078  68.805  1.00  0.00    -0.282 C  
HETATM    3  C   UNL     1     -10.687  15.545  68.570  1.00  0.00    -0.259 C  
HETATM    4  C   UNL     1     -10.403  16.364  69.796  1.00  0.00    -0.197 C  
HETATM    5  O   UNL     1     -10.643  16.033  67.442  1.00  0.00    -0.307 OA 
HETATM    6  C   UNL     1     -11.557  16.208  70.774  1.00  0.00    -0.382 C  
HETATM    7  C   UNL     1     -11.838  14.729  71.092  1.00  0.00    -0.387 C  
HETATM    8  C   UNL     1     -13.001  14.494  72.091  1.00  0.00    -0.346 C  
HETATM    9  C   UNL     1     -14.405  14.821  71.553  1.00  0.00    -0.592 C  
HETATM   10  C   UNL     1     -12.799  15.309  73.382  1.00  0.00    -0.667 C  
HETATM   11  O   UNL     1     -12.980  13.114  72.511  1.00  0.00    -0.289 OA 
HETATM   12  C   UNL     1     -12.756  12.167  71.545  1.00  0.00    -0.243 A  
HETATM   13  C   UNL     1     -12.945  10.848  71.986  1.00  0.00    -0.418 A  
HETATM   14  C   UNL     1     -12.786   9.754  71.126  1.00  0.00    -0.433 A  
HETATM   15  H   UNL     1     -11.870  12.455  67.735  1.00  0.00     0.000 HD 
HETATM   16  C   UNL     1     -12.461  10.042  69.792  1.00  0.00     0.277 A  
HETATM   17  C   UNL     1     -12.267  11.357  69.355  1.00  0.00    -0.221 A  
HETATM   18  O   UNL     1     -12.001  11.562  68.032  1.00  0.00    -0.595 OA 
HETATM   19  C   UNL     1     -12.362  12.448  70.227  1.00  0.00    -0.264 A  
ENDROOT
BRANCH  14  20
HETATM   20  C   UNL     1     -12.957   8.294  71.585  1.00  0.00    -0.357 C  
HETATM   21  C   UNL     1     -11.955   7.869  72.684  1.00  0.00    -0.299 C  
HETATM   22  C   UNL     1     -14.371   8.130  72.196  1.00  0.00    -0.469 C  
BRANCH  20  23
HETATM   23  C   UNL     1     -12.835   7.311  70.376  1.00  0.00     0.397 C  
BRANCH  23  24
HETATM   24  C   UNL     1     -11.519   6.528  70.312  1.00  0.00    -0.474 C  
BRANCH  24  25
HETATM   25  C   UNL     1     -10.970   6.448  68.885  1.00  0.00    -0.412 C  
BRANCH  25  26
HETATM   26  C   UNL     1      -9.890   7.510  68.667  1.00  0.00    -0.169 C  
BRANCH  26  27
HETATM   27  C   UNL     1      -9.119   7.812  69.949  1.00  0.00    -0.147 C  
HETATM   28  C   UNL     1      -9.149   9.300  70.264  1.00  0.00    -0.271 C  
ENDBRANCH  26  27
ENDBRANCH  25  26
ENDBRANCH  24  25
ENDBRANCH  23  24
ENDBRANCH  20  23
ENDBRANCH  14  20
TORSDOF 6
ENDMDL
MODEL        7
REMARK 921   NORMALIZED FREE ENERGY PREDICTED BY IDOCK:   -5.67 KCAL/MOL
REMARK 922        TOTAL FREE ENERGY PREDICTED BY IDOCK:   -9.67 KCAL/MOL
REMARK 923 INTER-LIGAND FREE ENERGY PREDICTED BY IDOCK:   -8.15 KCAL/MOL
REMARK 924 INTRA-LIGAND FREE ENERGY PREDICTED BY IDOCK:   -1.52 KCAL/MOL
REMARK 927      BINDING AFFINITY PREDICTED BY RF-SCORE:    0.00 PKD
ROOT
HETATM    1  C   UNL     1     -11.587  13.329  70.150  1.00  0.00    -0.155 C  
HETATM    2  C   UNL     1     -12.860  12.724  70.766  1.00  0.00    -0.109 C  
HETATM    3  C   UNL     1     -13.485  13.690  71.740  1.00  0.00    -0.384 C  
HETATM    4  C   UNL     1     -13.808  15.052  71.195  1.00  0.00    -0.468 C  
HETATM    5  O   UNL     1     -13.779  13.368  72.890  1.00  0.00    -0.623 OA 
HETATM    6  C   UNL     1     -12.542  15.668  70.620  1.00  0.00    -0.461 C  
HETATM    7  C   UNL     1     -11.881  14.746  69.581  1.00  0.00    -0.362 C  
HETATM    8  C   UNL     1     -10.586  15.314  68.946  1.00  0.00    -0.242 C  
HETATM    9  C   UNL     1      -9.374  15.400  69.891  1.00  0.00    -0.003 C  
HETATM   10  C   UNL     1     -10.820  16.722  68.368  1.00  0.00    -0.355 C  
HETATM   11  O   UNL     1     -10.227  14.497  67.812  1.00  0.00    -0.224 OA 
HETATM   12  C   UNL     1     -10.332  13.138  67.960  1.00  0.00    -0.238 A  
HETATM   13  C   UNL     1      -9.784  12.407  66.895  1.00  0.00    -0.217 A  
HETATM   14  C   UNL     1      -9.779  11.006  66.889  1.00  0.00    -0.215 A  
HETATM   15  H   UNL     1     -11.710  10.907  70.877  1.00  0.00     0.000 HD 
HETATM   16  C   UNL     1     -10.320  10.369  68.016  1.00  0.00    -0.212 A  
HETATM   17  C   UNL     1     -10.872  11.099  69.074  1.00  0.00    -0.231 A  
HETATM   18  O   UNL     1     -11.335  10.411  70.158  1.00  0.00    -0.276 OA 
HETATM   19  C   UNL     1     -10.937  12.497  69.053  1.00  0.00    -0.237 A  
ENDROOT
BRANCH  14  20
HETATM   20  C   UNL     1      -9.212  10.173  65.725  1.00  0.00    -0.221 C  
HETATM   21  C   UNL     1      -7.782  10.587  65.307  1.00  0.00    -0.085 C  
HETATM   22  C   UNL     1      -9.125   8.692  66.173  1.00  0.00    -0.250 C  
BRANCH  20  23
HETATM   23  C   UNL     1     -10.150  10.246  64.476  1.00  0.00    -0.286 C  
BRANCH  23  24
HETATM   24  C   UNL     1      -9.719  11.253  63.404  1.00  0.00    -0.385 C  
BRANCH  24  25
HETATM   25  C   UNL     1     -10.554  12.535  63.456  1.00  0.00    -0.394 C  
BRANCH  25  26
HETATM   26  C   UNL     1     -12.015  12.209  63.771  1.00  0.00    -0.607 C  
BRANCH  26  27
HETATM   27  C   UNL     1     -12.599  13.155  64.815  1.00  0.00    -0.426 C  
HETATM   28  C   UNL     1     -11.993  14.545  64.692  1.00  0.00    -0.478 C  
ENDBRANCH  26  27
ENDBRANCH  25  26
ENDBRANCH  24  25
ENDBRANCH  23  24
ENDBRANCH  20  23
ENDBRANCH  14  20
TORSDOF 6
ENDMDL
MODEL        8
REMARK 921   NORMALIZED FREE ENERGY PREDICTED BY IDOCK:   -5.65 KCAL/MOL
REMARK 922        TOTAL FREE ENERGY PREDICTED BY IDOCK:   -9.65 KCAL/MOL
REMARK 923 INTER-LIGAND FREE ENERGY PREDICTED BY IDOCK:   -8.22 KCAL/MOL
REMARK 924 INTRA-LIGAND FREE ENERGY PREDICTED BY IDOCK:   -1.42 KCAL/MOL
REMARK 927      BINDING AFFINITY PREDICTED BY RF-SCORE:    0.00 PKD
ROOT
HETATM    1  C   UNL     1      -9.802  13.543  66.201  1.00  0.00    -0.292 C  
HETATM    2  C   UNL     1      -9.463  14.866  66.910  1.00  0.00    -0.251 C  
HETATM    3  C   UNL     1      -9.640  16.030  65.968  1.00  0.00    -0.350 C  
HETATM    4  C   UNL     1     -10.993  16.154  65.328  1.00  0.00    -0.280 C  
HETATM    5  O   UNL     1      -8.758  16.868  65.785  1.00  0.00    -0.512 OA 
HETATM    6  C   UNL     1     -11.313  14.862  64.594  1.00  0.00    -0.362 C  
HETATM    7  C   UNL     1     -11.195  13.638  65.518  1.00  0.00    -0.301 C  
HETATM    8  C   UNL     1     -11.517  12.282  64.836  1.00  0.00    -0.332 C  
HETATM    9  C   UNL     1     -10.484  11.809  63.797  1.00  0.00    -0.466 C  
HETATM   10  C   UNL     1     -12.888  12.320  64.138  1.00  0.00    -0.371 C  
HETATM   11  O   UNL     1     -11.641  11.268  65.854  1.00  0.00    -0.127 OA 
HETATM   12  C   UNL     1     -10.717  11.280  66.867  1.00  0.00    -0.273 A  
HETATM   13  C   UNL     1     -10.779  10.156  67.706  1.00  0.00    -0.328 A  
HETATM   14  C   UNL     1      -9.894   9.987  68.779  1.00  0.00    -0.173 A  
HETATM   15  H   UNL     1      -7.816  13.765  67.755  1.00  0.00     0.000 HD 
HETATM   16  C   UNL     1      -8.919  10.981  68.953  1.00  0.00    -0.123 A  
HETATM   17  C   UNL     1      -8.861  12.104  68.120  1.00  0.00    -0.187 A  
HETATM   18  O   UNL     1      -7.855  13.003  68.321  1.00  0.00    -0.129 OA 
HETATM   19  C   UNL     1      -9.786  12.306  67.089  1.00  0.00    -0.203 A  
ENDROOT
BRANCH  14  20
HETATM   20  C   UNL     1      -9.952   8.782  69.735  1.00  0.00    -0.193 C  
HETATM   21  C   UNL     1      -9.570   7.441  69.065  1.00  0.00    -0.148 C  
HETATM   22  C   UNL     1      -8.930   9.007  70.877  1.00  0.00    -0.300 C  
BRANCH  20  23
HETATM   23  C   UNL     1     -11.371   8.646  70.376  1.00  0.00    -0.203 C  
BRANCH  23  24
HETATM   24  C   UNL     1     -11.578   9.454  71.662  1.00  0.00    -0.466 C  
BRANCH  24  25
HETATM   25  C   UNL     1     -12.993  10.030  71.754  1.00  0.00    -0.560 C  
BRANCH  25  26
HETATM   26  C   UNL     1     -12.954  11.558  71.679  1.00  0.00    -0.499 C  
BRANCH  26  27
HETATM   27  C   UNL     1     -12.208  12.051  70.443  1.00  0.00    -0.379 C  
HETATM   28  C   UNL     1     -12.145  13.571  70.415  1.00  0.00    -0.415 C  
ENDBRANCH  26  27
ENDBRANCH  25  26
ENDBRANCH  24  25
ENDBRANCH  23  24
ENDBRANCH  20  23
ENDBRANCH  14  20
TORSDOF 6
ENDMDL
MODEL        9
REMARK 921   NORMALIZED FREE ENERGY PREDICTED BY IDOCK:   -5.62 KCAL/MOL
REMARK 922        TOTAL FREE ENERGY PREDICTED BY IDOCK:   -9.61 KCAL/MOL
REMARK 923 INTER-LIGAND FREE ENERGY PREDICTED BY IDOCK:   -7.91 KCAL/MOL
REMARK 924 INTRA-LIGAND FREE ENERGY PREDICTED BY IDOCK:   -1.70 KCAL/MOL
REMARK 927      BINDING AFFINITY PREDICTED BY RF-SCORE:    0.00 PKD
ROOT
HETATM    1  C   UNL     1     -10.356   9.041  69.169  1.00  0.00    -0.229 C  
HETATM    2  C   UNL     1      -9.988   9.632  70.541  1.00  0.00    -0.318 C  
HETATM    3  C   UNL     1      -9.498   8.548  71.468  1.00  0.00    -0.222 C  
HETATM    4  C   UNL     1      -8.344   7.730  70.966  1.00  0.00    -0.114 C  
HETATM    5  O   UNL     1      -9.965   8.385  72.594  1.00  0.00    -0.288 OA 
HETATM    6  C   UNL     1      -8.720   7.113  69.628  1.00  0.00    -0.141 C  
HETATM    7  C   UNL     1      -9.185   8.179  68.620  1.00  0.00    -0.143 C  
HETATM    8  C   UNL     1      -9.578   7.621  67.227  1.00  0.00    -0.157 C  
HETATM    9  C   UNL     1     -10.870   6.784  67.196  1.00  0.00    -0.462 C  
HETATM   10  C   UNL     1      -8.451   6.753  66.636  1.00  0.00    -0.120 C  
HETATM   11  O   UNL     1      -9.723   8.724  66.309  1.00  0.00    -0.247 OA 
HETATM   12  C   UNL     1     -10.376   9.840  66.767  1.00  0.00    -0.218 A  
HETATM   13  C   UNL     1     -10.653  10.787  65.769  1.00  0.00    -0.204 A  
HETATM   14  C   UNL     1     -11.338  11.976  66.051  1.00  0.00    -0.398 A  
HETATM   15  H   UNL     1     -11.780  10.801  70.301  1.00  0.00     0.000 HD 
HETATM   16  C   UNL     1     -11.764  12.159  67.375  1.00  0.00    -0.374 A  
HETATM   17  C   UNL     1     -11.482  11.217  68.371  1.00  0.00    -0.306 A  
HETATM   18  O   UNL     1     -11.971  11.441  69.625  1.00  0.00    -0.308 OA 
HETATM   19  C   UNL     1     -10.742  10.059  68.105  1.00  0.00    -0.282 A  
ENDROOT
BRANCH  14  20
HETATM   20  C   UNL     1     -11.632  13.048  64.986  1.00  0.00    -0.359 C  
HETATM   21  C   UNL     1     -12.111  12.465  63.636  1.00  0.00    -0.648 C  
HETATM   22  C   UNL     1     -12.778  13.955  65.501  1.00  0.00    -0.536 C  
BRANCH  20  23
HETATM   23  C   UNL     1     -10.378  13.947  64.737  1.00  0.00    -0.419 C  
BRANCH  23  24
HETATM   24  C   UNL     1     -10.544  15.414  65.150  1.00  0.00    -0.458 C  
BRANCH  24  25
HETATM   25  C   UNL     1      -9.437  15.867  66.106  1.00  0.00    -0.375 C  
BRANCH  25  26
HETATM   26  C   UNL     1      -9.369  14.941  67.322  1.00  0.00    -0.210 C  
BRANCH  26  27
HETATM   27  C   UNL     1      -8.008  14.263  67.447  1.00  0.00    -0.211 C  
HETATM   28  C   UNL     1      -8.159  12.815  67.890  1.00  0.00    -0.159 C  
ENDBRANCH  26  27
ENDBRANCH  25  26
ENDBRANCH  24  25
ENDBRANCH  23  24
ENDBRANCH  20  23
ENDBRANCH  14  20
TORSDOF 6
ENDMDL
MODEL       10
REMARK 921   NORMALIZED FREE ENERGY PREDICTED BY IDOCK:   -5.60 KCAL/MOL
REMARK 922        TOTAL FREE ENERGY PREDICTED BY IDOCK:   -9.58 KCAL/MOL
REMARK 923 INTER-LIGAND FREE ENERGY PREDICTED BY IDOCK:   -8.76 KCAL/MOL
REMARK 924 INTRA-LIGAND FREE ENERGY PREDICTED BY IDOCK:   -0.82 KCAL/MOL
REMARK 927      BINDING AFFINITY PREDICTED BY RF-SCORE:    0.00 PKD
ROOT
HETATM    1  C   UNL     1     -11.064  12.225  66.066  1.00  0.00    -0.347 C  
HETATM    2  C   UNL     1     -12.307  13.054  65.698  1.00  0.00    -0.504 C  
HETATM    3  C   UNL     1     -12.155  13.652  64.323  1.00  0.00    -0.434 C  
HETATM    4  C   UNL     1     -11.873  12.679  63.214  1.00  0.00    -0.504 C  
HETATM    5  O   UNL     1     -12.318  14.851  64.105  1.00  0.00    -0.668 OA 
HETATM    6  C   UNL     1     -10.622  11.886  63.557  1.00  0.00    -0.507 C  
HETATM    7  C   UNL     1     -10.736  11.210  64.934  1.00  0.00    -0.318 C  
HETATM    8  C   UNL     1      -9.496  10.376  65.348  1.00  0.00    -0.232 C  
HETATM    9  C   UNL     1      -8.231  11.194  65.665  1.00  0.00     0.047 C  
HETATM   10  C   UNL     1      -9.123   9.354  64.258  1.00  0.00    -0.159 C  
HETATM   11  O   UNL     1      -9.834   9.585  66.506  1.00  0.00    -0.203 OA 
HETATM   12  C   UNL     1     -10.560  10.197  67.494  1.00  0.00    -0.273 A  
HETATM   13  C   UNL     1     -10.681   9.434  68.666  1.00  0.00    -0.196 A  
HETATM   14  C   UNL     1     -11.368   9.914  69.789  1.00  0.00    -0.241 A  
HETATM   15  H   UNL     1     -12.205  13.749  67.733  1.00  0.00     0.000 HD 
HETATM   16  C   UNL     1     -11.900  11.209  69.698  1.00  0.00    -0.419 A  
HETATM   17  C   UNL     1     -11.784  11.966  68.526  1.00  0.00    -0.330 A  
HETATM   18  O   UNL     1     -12.285  13.235  68.529  1.00  0.00    -0.272 OA 
HETATM   19  C   UNL     1     -11.155  11.464  67.381  1.00  0.00    -0.349 A  
ENDROOT
BRANCH  14  20
HETATM   20  C   UNL     1     -11.544   9.093  71.080  1.00  0.00    -0.370 C  
HETATM   21  C   UNL     1     -12.613   9.669  72.038  1.00  0.00    -0.443 C  
HETATM   22  C   UNL     1     -12.020   7.669  70.699  1.00  0.00    -0.122 C  
BRANCH  20  23
HETATM   23  C   UNL     1     -10.189   8.961  71.848  1.00  0.00    -0.403 C  
BRANCH  23  24
HETATM   24  C   UNL     1      -9.839   7.538  72.299  1.00  0.00    -0.213 C  
BRANCH  24  25
HETATM   25  C   UNL     1      -9.964   7.373  73.815  1.00  0.00    -0.333 C  
BRANCH  25  26
HETATM   26  C   UNL     1     -10.191   5.903  74.175  1.00  0.00    -0.291 C  
BRANCH  26  27
HETATM   27  C   UNL     1     -11.089   5.199  73.163  1.00  0.00    -0.391 C  
HETATM   28  C   UNL     1     -11.186   3.711  73.462  1.00  0.00    -0.285 C  
ENDBRANCH  26  27
ENDBRANCH  25  26
ENDBRANCH  24  25
ENDBRANCH  23  24
ENDBRANCH  20  23
ENDBRANCH  14  20
TORSDOF 6
ENDMDL
MODEL       11
REMARK 921   NORMALIZED FREE ENERGY PREDICTED BY IDOCK:   -5.58 KCAL/MOL
REMARK 922        TOTAL FREE ENERGY PREDICTED BY IDOCK:   -9.55 KCAL/MOL
REMARK 923 INTER-LIGAND FREE ENERGY PREDICTED BY IDOCK:   -7.70 KCAL/MOL
REMARK 924 INTRA-LIGAND FREE ENERGY PREDICTED BY IDOCK:   -1.86 KCAL/MOL
REMARK 927      BINDING AFFINITY PREDICTED BY RF-SCORE:    0.00 PKD
ROOT
HETATM    1  C   UNL     1      -9.796   8.350  67.727  1.00  0.00    -0.218 C  
HETATM    2  C   UNL     1      -9.769   7.073  66.869  1.00  0.00    -0.228 C  
HETATM    3  C   UNL     1      -9.495   5.864  67.728  1.00  0.00    -0.113 C  
HETATM    4  C   UNL     1     -10.435   5.655  68.881  1.00  0.00    -0.310 C  
HETATM    5  O   UNL     1      -8.603   5.059  67.466  1.00  0.00    -0.105 OA 
HETATM    6  C   UNL     1     -10.433   6.901  69.752  1.00  0.00    -0.240 C  
HETATM    7  C   UNL     1     -10.754   8.167  68.938  1.00  0.00    -0.090 C  
HETATM    8  C   UNL     1     -10.777   9.478  69.766  1.00  0.00    -0.239 C  
HETATM    9  C   UNL     1      -9.407   9.953  70.283  1.00  0.00    -0.142 C  
HETATM   10  C   UNL     1     -11.711   9.352  70.984  1.00  0.00    -0.395 C  
HETATM   11  O   UNL     1     -11.352  10.527  68.959  1.00  0.00    -0.249 OA 
HETATM   12  C   UNL     1     -10.958  10.596  67.647  1.00  0.00    -0.310 A  
HETATM   13  C   UNL     1     -11.401  11.750  66.982  1.00  0.00    -0.387 A  
HETATM   14  C   UNL     1     -11.071  12.000  65.643  1.00  0.00    -0.361 A  
HETATM   15  H   UNL     1      -8.674   8.278  65.459  1.00  0.00     0.000 HD 
HETATM   16  C   UNL     1     -10.247  11.058  65.010  1.00  0.00    -0.360 A  
HETATM   17  C   UNL     1      -9.810   9.906  65.673  1.00  0.00    -0.298 A  
HETATM   18  O   UNL     1      -8.971   9.060  65.008  1.00  0.00    -0.202 OA 
HETATM   19  C   UNL     1     -10.192   9.621  66.989  1.00  0.00    -0.308 A  
ENDROOT
BRANCH  14  20
HETATM   20  C   UNL     1     -11.564  13.240  64.875  1.00  0.00    -0.353 C  
HETATM   21  C   UNL     1     -12.072  12.922  63.448  1.00  0.00    -0.610 C  
HETATM   22  C   UNL     1     -12.765  13.851  65.639  1.00  0.00    -0.534 C  
BRANCH  20  23
HETATM   23  C   UNL     1     -10.443  14.325  64.787  1.00  0.00    -0.421 C  
BRANCH  23  24
HETATM   24  C   UNL     1     -10.703  15.589  65.615  1.00  0.00    -0.378 C  
BRANCH  24  25
HETATM   25  C   UNL     1      -9.940  15.570  66.942  1.00  0.00    -0.251 C  
BRANCH  25  26
HETATM   26  C   UNL     1      -8.669  14.726  66.816  1.00  0.00    -0.255 C  
BRANCH  26  27
HETATM   27  C   UNL     1      -8.474  13.806  68.017  1.00  0.00    -0.176 C  
HETATM   28  C   UNL     1      -7.801  12.506  67.603  1.00  0.00    -0.162 C  
ENDBRANCH  26  27
ENDBRANCH  25  26
ENDBRANCH  24  25
ENDBRANCH  23  24
ENDBRANCH  20  23
ENDBRANCH  14  20
TORSDOF 6
ENDMDL
MODEL       12
REMARK 921   NORMALIZED FREE ENERGY PREDICTED BY IDOCK:   -5.57 KCAL/MOL
REMARK 922        TOTAL FREE ENERGY PREDICTED BY IDOCK:   -9.53 KCAL/MOL
REMARK 923 INTER-LIGAND FREE ENERGY PREDICTED BY IDOCK:   -7.81 KCAL/MOL
REMARK 924 INTRA-LIGAND FREE ENERGY PREDICTED BY IDOCK:   -1.72 KCAL/MOL
REMARK 927      BINDING AFFINITY PREDICTED BY RF-SCORE:    0.00 PKD
ROOT
HETATM    1  C   UNL     1      -9.453  12.878  66.680  1.00  0.00    -0.255 C  
HETATM    2  C   UNL     1      -8.501  11.671  66.752  1.00  0.00    -0.177 C  
HETATM    3  C   UNL     1      -9.261  10.386  66.544  1.00  0.00    -0.160 C  
HETATM    4  C   UNL     1     -10.064  10.297  65.278  1.00  0.00    -0.359 C  
HETATM    5  O   UNL     1      -9.178   9.439  67.325  1.00  0.00    -0.129 OA 
HETATM    6  C   UNL     1     -11.033  11.467  65.224  1.00  0.00    -0.291 C  
HETATM    7  C   UNL     1     -10.309  12.815  65.383  1.00  0.00    -0.310 C  
HETATM    8  C   UNL     1     -11.237  14.057  65.330  1.00  0.00    -0.319 C  
HETATM    9  C   UNL     1     -12.176  14.226  66.538  1.00  0.00    -0.419 C  
HETATM   10  C   UNL     1     -12.112  14.044  64.063  1.00  0.00    -0.413 C  
HETATM   11  O   UNL     1     -10.422  15.241  65.212  1.00  0.00    -0.358 OA 
HETATM   12  C   UNL     1      -9.296  15.308  65.991  1.00  0.00    -0.311 A  
HETATM   13  C   UNL     1      -8.665  16.562  65.971  1.00  0.00    -0.255 A  
HETATM   14  C   UNL     1      -7.515  16.820  66.729  1.00  0.00    -0.279 A  
HETATM   15  H   UNL     1      -7.611  12.720  68.408  1.00  0.00     0.000 HD 
HETATM   16  C   UNL     1      -7.044  15.773  67.536  1.00  0.00    -0.215 A  
HETATM   17  C   UNL     1      -7.671  14.522  67.551  1.00  0.00    -0.188 A  
HETATM   18  O   UNL     1      -7.185  13.569  68.398  1.00  0.00    -0.092 OA 
HETATM   19  C   UNL     1      -8.781  14.242  66.745  1.00  0.00    -0.161 A  
ENDROOT
BRANCH  14  20
HETATM   20  C   UNL     1      -6.782  18.173  66.708  1.00  0.00    -0.221 C  
HETATM   21  C   UNL     1      -6.351  18.665  68.110  1.00  0.00    -0.212 C  
HETATM   22  C   UNL     1      -5.481  18.018  65.881  1.00  0.00    -0.235 C  
BRANCH  20  23
HETATM   23  C   UNL     1      -7.659  19.274  66.028  1.00  0.00    -0.290 C  
BRANCH  23  24
HETATM   24  C   UNL     1      -8.524  20.095  66.991  1.00  0.00    -0.397 C  
BRANCH  24  25
HETATM   25  C   UNL     1      -9.982  20.167  66.530  1.00  0.00    -0.586 C  
BRANCH  25  26
HETATM   26  C   UNL     1     -10.817  19.090  67.226  1.00  0.00    -0.494 C  
BRANCH  26  27
HETATM   27  C   UNL     1     -10.233  18.701  68.581  1.00  0.00    -0.359 C  
HETATM   28  C   UNL     1     -10.482  17.230  68.878  1.00  0.00    -0.327 C  
ENDBRANCH  26  27
ENDBRANCH  25  26
ENDBRANCH  24  25
ENDBRANCH  23  24
ENDBRANCH  20  23
ENDBRANCH  14  20
TORSDOF 6
ENDMDL
MODEL       13
REMARK 921   NORMALIZED FREE ENERGY PREDICTED BY IDOCK:   -5.56 KCAL/MOL
REMARK 922        TOTAL FREE ENERGY PREDICTED BY IDOCK:   -9.53 KCAL/MOL
REMARK 923 INTER-LIGAND FREE ENERGY PREDICTED BY IDOCK:   -7.77 KCAL/MOL
REMARK 924 INTRA-LIGAND FREE ENERGY PREDICTED BY IDOCK:   -1.75 KCAL/MOL
REMARK 927      BINDING AFFINITY PREDICTED BY RF-SCORE:    0.00 PKD
ROOT
HETATM    1  C   UNL     1     -10.808  13.763  67.873  1.00  0.00    -0.257 C  
HETATM    2  C   UNL     1     -10.717  12.896  69.141  1.00  0.00    -0.060 C  
HETATM    3  C   UNL     1     -11.671  11.732  69.055  1.00  0.00    -0.328 C  
HETATM    4  C   UNL     1     -11.518  10.848  67.851  1.00  0.00    -0.344 C  
HETATM    5  O   UNL     1     -12.480  11.477  69.946  1.00  0.00    -0.200 OA 
HETATM    6  C   UNL     1     -11.647  11.696  66.595  1.00  0.00    -0.194 C  
HETATM    7  C   UNL     1     -10.662  12.878  66.602  1.00  0.00    -0.280 C  
HETATM    8  C   UNL     1     -10.732  13.784  65.345  1.00  0.00    -0.317 C  
HETATM    9  C   UNL     1     -12.011  14.631  65.217  1.00  0.00    -0.302 C  
HETATM   10  C   UNL     1     -10.596  12.956  64.054  1.00  0.00    -0.418 C  
HETATM   11  O   UNL     1      -9.593  14.669  65.346  1.00  0.00    -0.225 OA 
HETATM   12  C   UNL     1      -9.249  15.246  66.541  1.00  0.00    -0.290 A  
HETATM   13  C   UNL     1      -8.263  16.240  66.429  1.00  0.00    -0.354 A  
HETATM   14  C   UNL     1      -7.808  16.954  67.545  1.00  0.00    -0.186 A  
HETATM   15  H   UNL     1     -10.625  14.778  70.184  1.00  0.00     0.000 HD 
HETATM   16  C   UNL     1      -8.409  16.652  68.776  1.00  0.00    -0.252 A  
HETATM   17  C   UNL     1      -9.387  15.657  68.887  1.00  0.00    -0.223 A  
HETATM   18  O   UNL     1      -9.961  15.453  70.109  1.00  0.00    -0.258 OA 
HETATM   19  C   UNL     1      -9.797  14.897  67.786  1.00  0.00    -0.217 A  
ENDROOT
BRANCH  14  20
HETATM   20  C   UNL     1      -6.709  18.029  67.462  1.00  0.00    -0.191 C  
HETATM   21  C   UNL     1      -6.273  18.576  68.842  1.00  0.00    -0.233 C  
HETATM   22  C   UNL     1      -5.446  17.397  66.825  1.00  0.00    -0.212 C  
BRANCH  20  23
HETATM   23  C   UNL     1      -7.161  19.223  66.560  1.00  0.00    -0.227 C  
BRANCH  23  24
HETATM   24  C   UNL     1      -7.570  20.488  67.321  1.00  0.00    -0.386 C  
BRANCH  24  25
HETATM   25  C   UNL     1      -9.050  20.824  67.120  1.00  0.00    -0.316 C  
BRANCH  25  26
HETATM   26  C   UNL     1      -9.923  19.952  68.024  1.00  0.00    -0.556 C  
BRANCH  26  27
HETATM   27  C   UNL     1     -10.899  19.096  67.222  1.00  0.00    -0.529 C  
HETATM   28  C   UNL     1     -10.679  19.275  65.727  1.00  0.00    -0.417 C  
ENDBRANCH  26  27
ENDBRANCH  25  26
ENDBRANCH  24  25
ENDBRANCH  23  24
ENDBRANCH  20  23
ENDBRANCH  14  20
TORSDOF 6
ENDMDL
MODEL       14
REMARK 921   NORMALIZED FREE ENERGY PREDICTED BY IDOCK:   -5.54 KCAL/MOL
REMARK 922        TOTAL FREE ENERGY PREDICTED BY IDOCK:   -9.50 KCAL/MOL
REMARK 923 INTER-LIGAND FREE ENERGY PREDICTED BY IDOCK:   -8.54 KCAL/MOL
REMARK 924 INTRA-LIGAND FREE ENERGY PREDICTED BY IDOCK:   -0.96 KCAL/MOL
REMARK 927      BINDING AFFINITY PREDICTED BY RF-SCORE:    0.00 PKD
ROOT
HETATM    1  C   UNL     1      -9.961   8.389  68.075  1.00  0.00    -0.221 C  
HETATM    2  C   UNL     1     -10.419   7.345  67.041  1.00  0.00    -0.404 C  
HETATM    3  C   UNL     1     -10.164   5.949  67.550  1.00  0.00    -0.190 C  
HETATM    4  C   UNL     1     -10.776   5.617  68.881  1.00  0.00    -0.280 C  
HETATM    5  O   UNL     1      -9.552   5.110  66.891  1.00  0.00    -0.130 OA 
HETATM    6  C   UNL     1     -10.293   6.624  69.913  1.00  0.00    -0.232 C  
HETATM    7  C   UNL     1     -10.569   8.071  69.470  1.00  0.00    -0.216 C  
HETATM    8  C   UNL     1     -10.109   9.154  70.481  1.00  0.00    -0.235 C  
HETATM    9  C   UNL     1      -8.584   9.310  70.626  1.00  0.00    -0.270 C  
HETATM   10  C   UNL     1     -10.681   8.885  71.884  1.00  0.00    -0.426 C  
HETATM   11  O   UNL     1     -10.665  10.425  70.084  1.00  0.00    -0.280 OA 
HETATM   12  C   UNL     1     -10.637  10.733  68.748  1.00  0.00    -0.200 A  
HETATM   13  C   UNL     1     -11.011  12.055  68.462  1.00  0.00    -0.280 A  
HETATM   14  C   UNL     1     -11.015  12.552  67.152  1.00  0.00    -0.302 A  
HETATM   15  H   UNL     1      -9.536   8.675  65.596  1.00  0.00     0.000 HD 
HETATM   16  C   UNL     1     -10.595  11.673  66.143  1.00  0.00    -0.306 A  
HETATM   17  C   UNL     1     -10.229  10.353  66.429  1.00  0.00    -0.230 A  
HETATM   18  O   UNL     1      -9.785   9.572  65.401  1.00  0.00    -0.294 OA 
HETATM   19  C   UNL     1     -10.286   9.835  67.728  1.00  0.00    -0.274 A  
ENDROOT
BRANCH  14  20
HETATM   20  C   UNL     1     -11.446  13.987  66.800  1.00  0.00    -0.379 C  
HETATM   21  C   UNL     1     -10.286  14.874  66.290  1.00  0.00    -0.302 C  
HETATM   22  C   UNL     1     -12.485  13.924  65.653  1.00  0.00    -0.538 C  
BRANCH  20  23
HETATM   23  C   UNL     1     -12.121  14.685  68.026  1.00  0.00    -0.206 C  
BRANCH  23  24
HETATM   24  C   UNL     1     -11.352  15.886  68.588  1.00  0.00    -0.376 C  
BRANCH  24  25
HETATM   25  C   UNL     1     -11.517  16.012  70.104  1.00  0.00    -0.350 C  
BRANCH  25  26
HETATM   26  C   UNL     1     -12.391  14.877  70.643  1.00  0.00    -0.406 C  
BRANCH  26  27
HETATM   27  C   UNL     1     -13.572  15.401  71.453  1.00  0.00    -0.604 C  
HETATM   28  C   UNL     1     -14.298  14.264  72.156  1.00  0.00    -0.608 C  
ENDBRANCH  26  27
ENDBRANCH  25  26
ENDBRANCH  24  25
ENDBRANCH  23  24
ENDBRANCH  20  23
ENDBRANCH  14  20
TORSDOF 6
ENDMDL
MODEL       15
REMARK 921   NORMALIZED FREE ENERGY PREDICTED BY IDOCK:   -5.53 KCAL/MOL
REMARK 922        TOTAL FREE ENERGY PREDICTED BY IDOCK:   -9.49 KCAL/MOL
REMARK 923 INTER-LIGAND FREE ENERGY PREDICTED BY IDOCK:   -8.14 KCAL/MOL
REMARK 924 INTRA-LIGAND FREE ENERGY PREDICTED BY IDOCK:   -1.35 KCAL/MOL
REMARK 927      BINDING AFFINITY PREDICTED BY RF-SCORE:    0.00 PKD
ROOT
HETATM    1  C   UNL     1      -9.865   8.217  67.740  1.00  0.00    -0.209 C  
HETATM    2  C   UNL     1      -9.928   6.921  66.913  1.00  0.00    -0.264 C  
HETATM    3  C   UNL     1      -9.653   5.723  67.787  1.00  0.00    -0.115 C  
HETATM    4  C   UNL     1     -10.538   5.575  68.992  1.00  0.00    -0.271 C  
HETATM    5  O   UNL     1      -8.805   4.880  67.500  1.00  0.00    -0.104 OA 
HETATM    6  C   UNL     1     -10.447   6.840  69.831  1.00  0.00    -0.242 C  
HETATM    7  C   UNL     1     -10.764   8.097  69.003  1.00  0.00    -0.099 C  
HETATM    8  C   UNL     1     -10.698   9.427  69.798  1.00  0.00    -0.234 C  
HETATM    9  C   UNL     1      -9.286   9.863  70.231  1.00  0.00    -0.142 C  
HETATM   10  C   UNL     1     -11.570   9.363  71.065  1.00  0.00    -0.400 C  
HETATM   11  O   UNL     1     -11.276  10.477  68.995  1.00  0.00    -0.234 OA 
HETATM   12  C   UNL     1     -10.949  10.503  67.664  1.00  0.00    -0.314 A  
HETATM   13  C   UNL     1     -11.385  11.656  66.993  1.00  0.00    -0.373 A  
HETATM   14  C   UNL     1     -11.116  11.863  65.634  1.00  0.00    -0.362 A  
HETATM   15  H   UNL     1      -8.866   8.051  65.420  1.00  0.00     0.000 HD 
HETATM   16  C   UNL     1     -10.360  10.877  64.983  1.00  0.00    -0.356 A  
HETATM   17  C   UNL     1      -9.931   9.725  65.652  1.00  0.00    -0.282 A  
HETATM   18  O   UNL     1      -9.158   8.833  64.965  1.00  0.00    -0.130 OA 
HETATM   19  C   UNL     1     -10.254   9.485  66.992  1.00  0.00    -0.321 A  
ENDROOT
BRANCH  14  20
HETATM   20  C   UNL     1     -11.604  13.102  64.861  1.00  0.00    -0.356 C  
HETATM   21  C   UNL     1     -12.151  12.776  63.451  1.00  0.00    -0.619 C  
HETATM   22  C   UNL     1     -12.776  13.744  65.645  1.00  0.00    -0.523 C  
BRANCH  20  23
HETATM   23  C   UNL     1     -10.466  14.165  64.733  1.00  0.00    -0.432 C  
BRANCH  23  24
HETATM   24  C   UNL     1     -10.888  15.603  65.056  1.00  0.00    -0.468 C  
BRANCH  24  25
HETATM   25  C   UNL     1      -9.958  16.255  66.082  1.00  0.00    -0.355 C  
BRANCH  25  26
HETATM   26  C   UNL     1     -10.020  15.503  67.414  1.00  0.00    -0.234 C  
BRANCH  26  27
HETATM   27  C   UNL     1     -11.244  15.896  68.235  1.00  0.00    -0.354 C  
HETATM   28  C   UNL     1     -11.745  14.722  69.063  1.00  0.00    -0.343 C  
ENDBRANCH  26  27
ENDBRANCH  25  26
ENDBRANCH  24  25
ENDBRANCH  23  24
ENDBRANCH  20  23
ENDBRANCH  14  20
TORSDOF 6
ENDMDL
MODEL       16
REMARK 921   NORMALIZED FREE ENERGY PREDICTED BY IDOCK:   -5.50 KCAL/MOL
REMARK 922        TOTAL FREE ENERGY PREDICTED BY IDOCK:   -9.45 KCAL/MOL
REMARK 923 INTER-LIGAND FREE ENERGY PREDICTED BY IDOCK:   -7.81 KCAL/MOL
REMARK 924 INTRA-LIGAND FREE ENERGY PREDICTED BY IDOCK:   -1.64 KCAL/MOL
REMARK 927      BINDING AFFINITY PREDICTED BY RF-SCORE:    0.00 PKD
ROOT
HETATM    1  C   UNL     1     -11.018  12.152  66.204  1.00  0.00    -0.335 C  
HETATM    2  C   UNL     1     -12.241  13.021  65.863  1.00  0.00    -0.493 C  
HETATM    3  C   UNL     1     -12.069  13.669  64.512  1.00  0.00    -0.419 C  
HETATM    4  C   UNL     1     -11.802  12.734  63.368  1.00  0.00    -0.591 C  
HETATM    5  O   UNL     1     -12.206  14.879  64.341  1.00  0.00    -0.481 OA 
HETATM    6  C   UNL     1     -10.570  11.901  63.685  1.00  0.00    -0.500 C  
HETATM    7  C   UNL     1     -10.705  11.175  65.035  1.00  0.00    -0.301 C  
HETATM    8  C   UNL     1      -9.485  10.299  65.421  1.00  0.00    -0.232 C  
HETATM    9  C   UNL     1      -8.205  11.077  65.776  1.00  0.00    -0.064 C  
HETATM   10  C   UNL     1      -9.129   9.313  64.294  1.00  0.00    -0.076 C  
HETATM   11  O   UNL     1      -9.846   9.471  66.546  1.00  0.00    -0.203 OA 
HETATM   12  C   UNL     1     -10.564  10.060  67.554  1.00  0.00    -0.280 A  
HETATM   13  C   UNL     1     -10.707   9.255  68.695  1.00  0.00    -0.180 A  
HETATM   14  C   UNL     1     -11.389   9.706  69.833  1.00  0.00    -0.200 A  
HETATM   15  H   UNL     1     -12.135  13.635  67.924  1.00  0.00     0.000 HD 
HETATM   16  C   UNL     1     -11.894  11.014  69.789  1.00  0.00    -0.421 A  
HETATM   17  C   UNL     1     -11.756  11.813  68.649  1.00  0.00    -0.330 A  
HETATM   18  O   UNL     1     -12.230  13.092  68.698  1.00  0.00    -0.252 OA 
HETATM   19  C   UNL     1     -11.132  11.342  67.488  1.00  0.00    -0.339 A  
ENDROOT
BRANCH  14  20
HETATM   20  C   UNL     1     -11.590   8.840  71.090  1.00  0.00    -0.344 C  
HETATM   21  C   UNL     1     -12.877   9.179  71.877  1.00  0.00    -0.466 C  
HETATM   22  C   UNL     1     -11.722   7.359  70.654  1.00  0.00    -0.270 C  
BRANCH  20  23
HETATM   23  C   UNL     1     -10.361   8.954  72.049  1.00  0.00    -0.378 C  
BRANCH  23  24
HETATM   24  C   UNL     1      -9.410   7.751  72.025  1.00  0.00    -0.199 C  
BRANCH  24  25
HETATM   25  C   UNL     1      -8.003   8.144  71.570  1.00  0.00    -0.135 C  
BRANCH  25  26
HETATM   26  C   UNL     1      -7.792   7.769  70.101  1.00  0.00    -0.095 C  
BRANCH  26  27
HETATM   27  C   UNL     1      -7.158   8.907  69.307  1.00  0.00    -0.058 C  
HETATM   28  C   UNL     1      -7.511  10.257  69.913  1.00  0.00    -0.165 C  
ENDBRANCH  26  27
ENDBRANCH  25  26
ENDBRANCH  24  25
ENDBRANCH  23  24
ENDBRANCH  20  23
ENDBRANCH  14  20
TORSDOF 6
ENDMDL
MODEL       17
REMARK 921   NORMALIZED FREE ENERGY PREDICTED BY IDOCK:   -5.50 KCAL/MOL
REMARK 922        TOTAL FREE ENERGY PREDICTED BY IDOCK:   -9.44 KCAL/MOL
REMARK 923 INTER-LIGAND FREE ENERGY PREDICTED BY IDOCK:   -7.40 KCAL/MOL
REMARK 924 INTRA-LIGAND FREE ENERGY PREDICTED BY IDOCK:   -2.05 KCAL/MOL
REMARK 927      BINDING AFFINITY PREDICTED BY RF-SCORE:    0.00 PKD
ROOT
HETATM    1  C   UNL     1      -9.359  17.194  68.133  1.00  0.00    -0.264 C  
HETATM    2  C   UNL     1     -10.476  18.025  67.479  1.00  0.00    -0.408 C  
HETATM    3  C   UNL     1     -10.012  19.438  67.237  1.00  0.00    -0.366 C  
HETATM    4  C   UNL     1      -8.758  19.584  66.423  1.00  0.00    -0.389 C  
HETATM    5  O   UNL     1     -10.652  20.416  67.619  1.00  0.00    -0.177 OA 
HETATM    6  C   UNL     1      -7.641  18.796  67.089  1.00  0.00    -0.239 C  
HETATM    7  C   UNL     1      -8.039  17.329  67.321  1.00  0.00    -0.210 C  
HETATM    8  C   UNL     1      -6.943  16.461  67.992  1.00  0.00    -0.140 C  
HETATM    9  C   UNL     1      -6.655  16.793  69.468  1.00  0.00    -0.207 C  
HETATM   10  C   UNL     1      -5.609  16.559  67.229  1.00  0.00    -0.172 C  
HETATM   11  O   UNL     1      -7.327  15.074  67.900  1.00  0.00    -0.116 OA 
HETATM   12  C   UNL     1      -8.640  14.768  68.154  1.00  0.00    -0.159 A  
HETATM   13  C   UNL     1      -8.896  13.391  68.240  1.00  0.00    -0.172 A  
HETATM   14  C   UNL     1     -10.176  12.896  68.520  1.00  0.00    -0.210 A  
HETATM   15  H   UNL     1     -11.773  17.015  68.870  1.00  0.00     0.000 HD 
HETATM   16  C   UNL     1     -11.184  13.846  68.744  1.00  0.00    -0.302 A  
HETATM   17  C   UNL     1     -10.929  15.219  68.653  1.00  0.00    -0.257 A  
HETATM   18  O   UNL     1     -11.948  16.083  68.932  1.00  0.00    -0.348 OA 
HETATM   19  C   UNL     1      -9.665  15.714  68.309  1.00  0.00    -0.201 A  
ENDROOT
BRANCH  14  20
HETATM   20  C   UNL     1     -10.498  11.392  68.593  1.00  0.00    -0.224 C  
HETATM   21  C   UNL     1      -9.258  10.506  68.854  1.00  0.00    -0.188 C  
HETATM   22  C   UNL     1     -11.465  11.150  69.779  1.00  0.00    -0.388 C  
BRANCH  20  23
HETATM   23  C   UNL     1     -11.205  10.908  67.285  1.00  0.00    -0.307 C  
BRANCH  23  24
HETATM   24  C   UNL     1     -10.294  10.815  66.056  1.00  0.00    -0.300 C  
BRANCH  24  25
HETATM   25  C   UNL     1     -10.713  11.796  64.958  1.00  0.00    -0.344 C  
BRANCH  25  26
HETATM   26  C   UNL     1     -11.980  12.549  65.369  1.00  0.00    -0.492 C  
BRANCH  26  27
HETATM   27  C   UNL     1     -11.868  14.046  65.099  1.00  0.00    -0.370 C  
HETATM   28  C   UNL     1     -10.417  14.456  64.897  1.00  0.00    -0.448 C  
ENDBRANCH  26  27
ENDBRANCH  25  26
ENDBRANCH  24  25
ENDBRANCH  23  24
ENDBRANCH  20  23
ENDBRANCH  14  20
TORSDOF 6
ENDMDL
MODEL       18
REMARK 921   NORMALIZED FREE ENERGY PREDICTED BY IDOCK:   -5.50 KCAL/MOL
REMARK 922        TOTAL FREE ENERGY PREDICTED BY IDOCK:   -9.44 KCAL/MOL
REMARK 923 INTER-LIGAND FREE ENERGY PREDICTED BY IDOCK:   -8.42 KCAL/MOL
REMARK 924 INTRA-LIGAND FREE ENERGY PREDICTED BY IDOCK:   -1.02 KCAL/MOL
REMARK 927      BINDING AFFINITY PREDICTED BY RF-SCORE:    0.00 PKD
ROOT
HETATM    1  C   UNL     1     -11.046  12.137  66.064  1.00  0.00    -0.354 C  
HETATM    2  C   UNL     1     -12.330  12.925  65.754  1.00  0.00    -0.437 C  
HETATM    3  C   UNL     1     -12.251  13.547  64.383  1.00  0.00    -0.390 C  
HETATM    4  C   UNL     1     -11.977  12.600  63.250  1.00  0.00    -0.526 C  
HETATM    5  O   UNL     1     -12.465  14.743  64.189  1.00  0.00    -0.758 OA 
HETATM    6  C   UNL     1     -10.686  11.848  63.535  1.00  0.00    -0.504 C  
HETATM    7  C   UNL     1     -10.725  11.150  64.906  1.00  0.00    -0.318 C  
HETATM    8  C   UNL     1      -9.441  10.356  65.261  1.00  0.00    -0.237 C  
HETATM    9  C   UNL     1      -8.194  11.214  65.544  1.00  0.00     0.102 C  
HETATM   10  C   UNL     1      -9.073   9.363  64.144  1.00  0.00    -0.132 C  
HETATM   11  O   UNL     1      -9.707   9.537  66.419  1.00  0.00    -0.194 OA 
HETATM   12  C   UNL     1     -10.417  10.110  67.443  1.00  0.00    -0.256 A  
HETATM   13  C   UNL     1     -10.467   9.328  68.607  1.00  0.00    -0.236 A  
HETATM   14  C   UNL     1     -11.128   9.768  69.762  1.00  0.00    -0.272 A  
HETATM   15  H   UNL     1     -12.178  13.597  67.794  1.00  0.00     0.000 HD 
HETATM   16  C   UNL     1     -11.709  11.043  69.708  1.00  0.00    -0.410 A  
HETATM   17  C   UNL     1     -11.664  11.820  68.545  1.00  0.00    -0.330 A  
HETATM   18  O   UNL     1     -12.209  13.070  68.584  1.00  0.00    -0.223 OA 
HETATM   19  C   UNL     1     -11.061  11.356  67.370  1.00  0.00    -0.349 A  
ENDROOT
BRANCH  14  20
HETATM   20  C   UNL     1     -11.226   8.924  71.045  1.00  0.00    -0.342 C  
HETATM   21  C   UNL     1      -9.909   8.873  71.855  1.00  0.00    -0.364 C  
HETATM   22  C   UNL     1     -12.286   9.563  71.977  1.00  0.00    -0.404 C  
BRANCH  20  23
HETATM   23  C   UNL     1     -11.683   7.465  70.722  1.00  0.00    -0.305 C  
BRANCH  23  24
HETATM   24  C   UNL     1     -12.507   6.787  71.823  1.00  0.00    -0.394 C  
BRANCH  24  25
HETATM   25  C   UNL     1     -11.735   5.650  72.496  1.00  0.00    -0.255 C  
BRANCH  25  26
HETATM   26  C   UNL     1     -10.546   5.226  71.632  1.00  0.00    -0.261 C  
BRANCH  26  27
HETATM   27  C   UNL     1      -9.231   5.280  72.404  1.00  0.00    -0.154 C  
HETATM   28  C   UNL     1      -8.048   5.404  71.456  1.00  0.00    -0.117 C  
ENDBRANCH  26  27
ENDBRANCH  25  26
ENDBRANCH  24  25
ENDBRANCH  23  24
ENDBRANCH  20  23
ENDBRANCH  14  20
TORSDOF 6
ENDMDL
MODEL       19
REMARK 921   NORMALIZED FREE ENERGY PREDICTED BY IDOCK:   -5.46 KCAL/MOL
REMARK 922        TOTAL FREE ENERGY PREDICTED BY IDOCK:   -9.39 KCAL/MOL
REMARK 923 INTER-LIGAND FREE ENERGY PREDICTED BY IDOCK:   -8.37 KCAL/MOL
REMARK 924 INTRA-LIGAND FREE ENERGY PREDICTED BY IDOCK:   -1.02 KCAL/MOL
REMARK 927      BINDING AFFINITY PREDICTED BY RF-SCORE:    0.00 PKD
ROOT
HETATM    1  C   UNL     1     -11.676  12.813  70.623  1.00  0.00     0.190 C  
HETATM    2  C   UNL     1     -11.717  11.336  70.194  1.00  0.00    -0.429 C  
HETATM    3  C   UNL     1     -12.274  10.479  71.301  1.00  0.00    -0.368 C  
HETATM    4  C   UNL     1     -13.629  10.873  71.816  1.00  0.00    -0.119 C  
HETATM    5  O   UNL     1     -11.692   9.478  71.715  1.00  0.00    -0.383 OA 
HETATM    6  C   UNL     1     -13.581  12.321  72.278  1.00  0.00    -0.299 C  
HETATM    7  C   UNL     1     -13.063  13.255  71.171  1.00  0.00    -0.224 C  
HETATM    8  C   UNL     1     -12.994  14.753  71.571  1.00  0.00    -0.336 C  
HETATM    9  C   UNL     1     -11.913  15.106  72.609  1.00  0.00    -0.486 C  
HETATM   10  C   UNL     1     -14.344  15.244  72.124  1.00  0.00    -0.651 C  
HETATM   11  O   UNL     1     -12.765  15.540  70.384  1.00  0.00    -0.425 OA 
HETATM   12  C   UNL     1     -11.844  15.067  69.485  1.00  0.00    -0.330 A  
HETATM   13  C   UNL     1     -11.531  15.975  68.461  1.00  0.00    -0.357 A  
HETATM   14  C   UNL     1     -10.590  15.671  67.469  1.00  0.00    -0.297 A  
HETATM   15  H   UNL     1      -9.782  11.734  69.338  1.00  0.00     0.000 HD 
HETATM   16  C   UNL     1      -9.949  14.426  67.568  1.00  0.00    -0.224 A  
HETATM   17  C   UNL     1     -10.266  13.520  68.586  1.00  0.00    -0.189 A  
HETATM   18  O   UNL     1      -9.566  12.350  68.646  1.00  0.00    -0.147 OA 
HETATM   19  C   UNL     1     -11.253  13.795  69.540  1.00  0.00    -0.221 A  
ENDROOT
BRANCH  14  20
HETATM   20  C   UNL     1     -10.244  16.631  66.317  1.00  0.00    -0.344 C  
HETATM   21  C   UNL     1     -10.420  18.124  66.681  1.00  0.00    -0.354 C  
HETATM   22  C   UNL     1      -8.751  16.444  65.948  1.00  0.00    -0.134 C  
BRANCH  20  23
HETATM   23  C   UNL     1     -11.099  16.311  65.048  1.00  0.00    -0.262 C  
BRANCH  23  24
HETATM   24  C   UNL     1     -10.933  14.889  64.500  1.00  0.00    -0.216 C  
BRANCH  24  25
HETATM   25  C   UNL     1     -12.277  14.171  64.358  1.00  0.00    -0.466 C  
BRANCH  25  26
HETATM   26  C   UNL     1     -12.170  12.731  64.864  1.00  0.00    -0.519 C  
BRANCH  26  27
HETATM   27  C   UNL     1     -10.755  12.179  64.720  1.00  0.00    -0.342 C  
HETATM   28  C   UNL     1     -10.649  11.265  63.508  1.00  0.00    -0.436 C  
ENDBRANCH  26  27
ENDBRANCH  25  26
ENDBRANCH  24  25
ENDBRANCH  23  24
ENDBRANCH  20  23
ENDBRANCH  14  20
TORSDOF 6
ENDMDL
MODEL       20
REMARK 921   NORMALIZED FREE ENERGY PREDICTED BY IDOCK:   -5.45 KCAL/MOL
REMARK 922        TOTAL FREE ENERGY PREDICTED BY IDOCK:   -9.37 KCAL/MOL
REMARK 923 INTER-LIGAND FREE ENERGY PREDICTED BY IDOCK:   -7.64 KCAL/MOL
REMARK 924 INTRA-LIGAND FREE ENERGY PREDICTED BY IDOCK:   -1.73 KCAL/MOL
REMARK 927      BINDING AFFINITY PREDICTED BY RF-SCORE:    0.00 PKD
ROOT
HETATM    1  C   UNL     1     -10.096  10.145  70.454  1.00  0.00    -0.052 C  
HETATM    2  C   UNL     1      -8.855   9.242  70.555  1.00  0.00    -0.285 C  
HETATM    3  C   UNL     1      -8.802   8.565  71.902  1.00  0.00    -0.216 C  
HETATM    4  C   UNL     1     -10.016   7.767  72.280  1.00  0.00    -0.259 C  
HETATM    5  O   UNL     1      -7.804   8.604  72.619  1.00  0.00    -0.346 OA 
HETATM    6  C   UNL     1     -11.240   8.668  72.219  1.00  0.00    -0.399 C  
HETATM    7  C   UNL     1     -11.375   9.353  70.848  1.00  0.00    -0.386 C  
HETATM    8  C   UNL     1     -12.608  10.283  70.711  1.00  0.00    -0.352 C  
HETATM    9  C   UNL     1     -12.549  11.578  71.541  1.00  0.00    -0.363 C  
HETATM   10  C   UNL     1     -13.906   9.549  71.093  1.00  0.00    -0.087 C  
HETATM   11  O   UNL     1     -12.771  10.636  69.321  1.00  0.00    -0.202 OA 
HETATM   12  C   UNL     1     -11.638  10.955  68.618  1.00  0.00    -0.303 A  
HETATM   13  C   UNL     1     -11.891  11.475  67.339  1.00  0.00    -0.108 A  
HETATM   14  C   UNL     1     -10.853  11.880  66.490  1.00  0.00    -0.317 A  
HETATM   15  H   UNL     1      -7.835  10.864  69.572  1.00  0.00     0.000 HD 
HETATM   16  C   UNL     1      -9.548  11.772  66.994  1.00  0.00    -0.196 A  
HETATM   17  C   UNL     1      -9.297  11.248  68.267  1.00  0.00    -0.180 A  
HETATM   18  O   UNL     1      -8.005  11.220  68.708  1.00  0.00    -0.141 OA 
HETATM   19  C   UNL     1     -10.328  10.783  69.091  1.00  0.00    -0.238 A  
ENDROOT
BRANCH  14  20
HETATM   20  C   UNL     1     -11.093  12.427  65.071  1.00  0.00    -0.344 C  
HETATM   21  C   UNL     1     -10.804  11.398  63.954  1.00  0.00    -0.463 C  
HETATM   22  C   UNL     1     -12.588  12.811  64.936  1.00  0.00    -0.541 C  
BRANCH  20  23
HETATM   23  C   UNL     1     -10.239  13.711  64.815  1.00  0.00    -0.363 C  
BRANCH  23  24
HETATM   24  C   UNL     1     -11.045  15.009  64.692  1.00  0.00    -0.335 C  
BRANCH  24  25
HETATM   25  C   UNL     1     -10.668  16.022  65.774  1.00  0.00    -0.310 C  
BRANCH  25  26
HETATM   26  C   UNL     1      -9.535  15.476  66.646  1.00  0.00    -0.281 C  
BRANCH  26  27
HETATM   27  C   UNL     1      -9.957  15.326  68.104  1.00  0.00    -0.221 C  
HETATM   28  C   UNL     1     -11.464  15.154  68.220  1.00  0.00    -0.350 C  
ENDBRANCH  26  27
ENDBRANCH  25  26
ENDBRANCH  24  25
ENDBRANCH  23  24
ENDBRANCH  20  23
ENDBRANCH  14  20
TORSDOF 6
ENDMDL
MODEL       21
REMARK 921   NORMALIZED FREE ENERGY PREDICTED BY IDOCK:   -5.44 KCAL/MOL
REMARK 922        TOTAL FREE ENERGY PREDICTED BY IDOCK:   -9.36 KCAL/MOL
REMARK 923 INTER-LIGAND FREE ENERGY PREDICTED BY IDOCK:   -8.29 KCAL/MOL
REMARK 924 INTRA-LIGAND FREE ENERGY PREDICTED BY IDOCK:   -1.07 KCAL/MOL
REMARK 927      BINDING AFFINITY PREDICTED BY RF-SCORE:    0.00 PKD
ROOT
HETATM    1  C   UNL     1     -10.816   8.546  70.206  1.00  0.00    -0.249 C  
HETATM    2  C   UNL     1     -10.609   8.898  71.689  1.00  0.00    -0.422 C  
HETATM    3  C   UNL     1     -10.279   7.660  72.485  1.00  0.00    -0.243 C  
HETATM    4  C   UNL     1      -9.097   6.869  72.003  1.00  0.00    -0.141 C  
HETATM    5  O   UNL     1     -10.893   7.350  73.504  1.00  0.00    -0.379 OA 
HETATM    6  C   UNL     1      -9.317   6.487  70.548  1.00  0.00    -0.167 C  
HETATM    7  C   UNL     1      -9.612   7.718  69.674  1.00  0.00    -0.163 C  
HETATM    8  C   UNL     1      -9.840   7.402  68.172  1.00  0.00    -0.156 C  
HETATM    9  C   UNL     1     -11.144   6.650  67.850  1.00  0.00    -0.310 C  
HETATM   10  C   UNL     1      -8.676   6.578  67.593  1.00  0.00    -0.114 C  
HETATM   11  O   UNL     1      -9.829   8.640  67.431  1.00  0.00    -0.167 OA 
HETATM   12  C   UNL     1     -10.499   9.705  67.978  1.00  0.00    -0.229 A  
HETATM   13  C   UNL     1     -10.613  10.807  67.117  1.00  0.00    -0.306 A  
HETATM   14  C   UNL     1     -11.289  11.973  67.499  1.00  0.00    -0.387 A  
HETATM   15  H   UNL     1     -12.316  10.183  71.421  1.00  0.00     0.000 HD 
HETATM   16  C   UNL     1     -11.876  11.973  68.773  1.00  0.00    -0.358 A  
HETATM   17  C   UNL     1     -11.757  10.875  69.633  1.00  0.00    -0.331 A  
HETATM   18  O   UNL     1     -12.396  10.929  70.837  1.00  0.00    -0.337 OA 
HETATM   19  C   UNL     1     -11.027   9.735  69.278  1.00  0.00    -0.222 A  
ENDROOT
BRANCH  14  20
HETATM   20  C   UNL     1     -11.407  13.211  66.591  1.00  0.00    -0.361 C  
HETATM   21  C   UNL     1     -10.063  13.651  65.966  1.00  0.00    -0.320 C  
HETATM   22  C   UNL     1     -12.347  12.868  65.408  1.00  0.00    -0.538 C  
BRANCH  20  23
HETATM   23  C   UNL     1     -12.028  14.417  67.368  1.00  0.00    -0.407 C  
BRANCH  23  24
HETATM   24  C   UNL     1     -11.035  15.525  67.739  1.00  0.00    -0.317 C  
BRANCH  24  25
HETATM   25  C   UNL     1     -10.940  15.724  69.253  1.00  0.00    -0.281 C  
BRANCH  25  26
HETATM   26  C   UNL     1     -12.272  15.380  69.923  1.00  0.00    -0.363 C  
BRANCH  26  27
HETATM   27  C   UNL     1     -12.077  14.832  71.333  1.00  0.00    -0.401 C  
HETATM   28  C   UNL     1     -11.952  15.962  72.344  1.00  0.00    -0.620 C  
ENDBRANCH  26  27
ENDBRANCH  25  26
ENDBRANCH  24  25
ENDBRANCH  23  24
ENDBRANCH  20  23
ENDBRANCH  14  20
TORSDOF 6
ENDMDL
MODEL       22
REMARK 921   NORMALIZED FREE ENERGY PREDICTED BY IDOCK:   -5.40 KCAL/MOL
REMARK 922        TOTAL FREE ENERGY PREDICTED BY IDOCK:   -9.31 KCAL/MOL
REMARK 923 INTER-LIGAND FREE ENERGY PREDICTED BY IDOCK:   -7.44 KCAL/MOL
REMARK 924 INTRA-LIGAND FREE ENERGY PREDICTED BY IDOCK:   -1.88 KCAL/MOL
REMARK 927      BINDING AFFINITY PREDICTED BY RF-SCORE:    0.00 PKD
ROOT
HETATM    1  C   UNL     1     -11.656  13.989  69.974  1.00  0.00    -0.302 C  
HETATM    2  C   UNL     1     -12.869  13.454  70.756  1.00  0.00    -0.221 C  
HETATM    3  C   UNL     1     -13.019  14.189  72.064  1.00  0.00    -0.360 C  
HETATM    4  C   UNL     1     -13.124  15.684  71.966  1.00  0.00    -0.541 C  
HETATM    5  O   UNL     1     -13.120  13.603  73.140  1.00  0.00    -0.439 OA 
HETATM    6  C   UNL     1     -11.907  16.218  71.228  1.00  0.00    -0.349 C  
HETATM    7  C   UNL     1     -11.726  15.538  69.860  1.00  0.00    -0.368 C  
HETATM    8  C   UNL     1     -10.504  16.040  69.046  1.00  0.00    -0.246 C  
HETATM    9  C   UNL     1      -9.129  15.644  69.615  1.00  0.00    -0.165 C  
HETATM   10  C   UNL     1     -10.521  17.573  68.905  1.00  0.00    -0.286 C  
HETATM   11  O   UNL     1     -10.606  15.537  67.698  1.00  0.00    -0.276 OA 
HETATM   12  C   UNL     1     -10.994  14.231  67.543  1.00  0.00    -0.289 A  
HETATM   13  C   UNL     1     -10.881  13.757  66.227  1.00  0.00    -0.283 A  
HETATM   14  C   UNL     1     -11.208  12.437  65.889  1.00  0.00    -0.373 A  
HETATM   15  H   UNL     1     -12.183  11.517  70.113  1.00  0.00     0.000 HD 
HETATM   16  C   UNL     1     -11.623  11.602  66.937  1.00  0.00    -0.246 A  
HETATM   17  C   UNL     1     -11.741  12.078  68.248  1.00  0.00    -0.334 A  
HETATM   18  O   UNL     1     -12.103  11.194  69.223  1.00  0.00    -0.338 OA 
HETATM   19  C   UNL     1     -11.477  13.412  68.576  1.00  0.00    -0.345 A  
ENDROOT
BRANCH  14  20
HETATM   20  C   UNL     1     -11.123  11.893  64.452  1.00  0.00    -0.395 C  
HETATM   21  C   UNL     1     -12.499  11.754  63.760  1.00  0.00    -0.436 C  
HETATM   22  C   UNL     1     -10.301  12.887  63.594  1.00  0.00     0.002 C  
BRANCH  20  23
HETATM   23  C   UNL     1     -10.394  10.510  64.420  1.00  0.00    -0.244 C  
BRANCH  23  24
HETATM   24  C   UNL     1      -8.869  10.581  64.550  1.00  0.00    -0.214 C  
BRANCH  24  25
HETATM   25  C   UNL     1      -8.343   9.638  65.634  1.00  0.00    -0.133 C  
BRANCH  25  26
HETATM   26  C   UNL     1      -8.053  10.411  66.922  1.00  0.00    -0.118 C  
BRANCH  26  27
HETATM   27  C   UNL     1      -7.757  11.883  66.650  1.00  0.00     0.018 C  
HETATM   28  C   UNL     1      -7.843  12.701  67.930  1.00  0.00    -0.154 C  
ENDBRANCH  26  27
ENDBRANCH  25  26
ENDBRANCH  24  25
ENDBRANCH  23  24
ENDBRANCH  20  23
ENDBRANCH  14  20
TORSDOF 6
ENDMDL
MODEL       23
REMARK 921   NORMALIZED FREE ENERGY PREDICTED BY IDOCK:   -5.39 KCAL/MOL
REMARK 922        TOTAL FREE ENERGY PREDICTED BY IDOCK:   -9.30 KCAL/MOL
REMARK 923 INTER-LIGAND FREE ENERGY PREDICTED BY IDOCK:   -8.00 KCAL/MOL
REMARK 924 INTRA-LIGAND FREE ENERGY PREDICTED BY IDOCK:   -1.30 KCAL/MOL
REMARK 927      BINDING AFFINITY PREDICTED BY RF-SCORE:    0.00 PKD
ROOT
HETATM    1  C   UNL     1     -11.827  13.736  69.899  1.00  0.00    -0.394 C  
HETATM    2  C   UNL     1     -12.218  14.098  71.342  1.00  0.00    -0.383 C  
HETATM    3  C   UNL     1     -13.301  13.177  71.843  1.00  0.00    -0.455 C  
HETATM    4  C   UNL     1     -12.994  11.708  71.777  1.00  0.00    -0.483 C  
HETATM    5  O   UNL     1     -14.345  13.597  72.340  1.00  0.00    -0.661 OA 
HETATM    6  C   UNL     1     -12.645  11.340  70.343  1.00  0.00    -0.292 C  
HETATM    7  C   UNL     1     -11.509  12.218  69.790  1.00  0.00    -0.237 C  
HETATM    8  C   UNL     1     -11.095  11.892  68.331  1.00  0.00    -0.244 C  
HETATM    9  C   UNL     1     -12.133  12.263  67.256  1.00  0.00    -0.017 C  
HETATM   10  C   UNL     1     -10.771  10.397  68.164  1.00  0.00    -0.277 C  
HETATM   11  O   UNL     1      -9.862  12.580  68.034  1.00  0.00    -0.201 OA 
HETATM   12  C   UNL     1      -9.746  13.876  68.466  1.00  0.00    -0.202 A  
HETATM   13  C   UNL     1      -8.611  14.539  67.974  1.00  0.00    -0.162 A  
HETATM   14  C   UNL     1      -8.346  15.878  68.291  1.00  0.00    -0.165 A  
HETATM   15  H   UNL     1     -12.080  16.136  70.662  1.00  0.00     0.000 HD 
HETATM   16  C   UNL     1      -9.288  16.534  69.096  1.00  0.00    -0.207 A  
HETATM   17  C   UNL     1     -10.417  15.870  69.590  1.00  0.00    -0.295 A  
HETATM   18  O   UNL     1     -11.314  16.588  70.327  1.00  0.00    -0.281 OA 
HETATM   19  C   UNL     1     -10.650  14.515  69.329  1.00  0.00    -0.224 A  
ENDROOT
BRANCH  14  20
HETATM   20  C   UNL     1      -7.096  16.627  67.793  1.00  0.00    -0.152 C  
HETATM   21  C   UNL     1      -6.557  17.670  68.800  1.00  0.00    -0.218 C  
HETATM   22  C   UNL     1      -5.957  15.600  67.577  1.00  0.00    -0.123 C  
BRANCH  20  23
HETATM   23  C   UNL     1      -7.375  17.334  66.427  1.00  0.00    -0.336 C  
BRANCH  23  24
HETATM   24  C   UNL     1      -6.955  18.807  66.365  1.00  0.00    -0.249 C  
BRANCH  24  25
HETATM   25  C   UNL     1      -8.151  19.733  66.129  1.00  0.00    -0.357 C  
BRANCH  25  26
HETATM   26  C   UNL     1      -8.944  19.923  67.424  1.00  0.00    -0.422 C  
BRANCH  26  27
HETATM   27  C   UNL     1     -10.433  19.659  67.226  1.00  0.00    -0.596 C  
HETATM   28  C   UNL     1     -10.681  18.865  65.952  1.00  0.00    -0.366 C  
ENDBRANCH  26  27
ENDBRANCH  25  26
ENDBRANCH  24  25
ENDBRANCH  23  24
ENDBRANCH  20  23
ENDBRANCH  14  20
TORSDOF 6
ENDMDL
MODEL       24
REMARK 921   NORMALIZED FREE ENERGY PREDICTED BY IDOCK:   -5.35 KCAL/MOL
REMARK 922        TOTAL FREE ENERGY PREDICTED BY IDOCK:   -9.24 KCAL/MOL
REMARK 923 INTER-LIGAND FREE ENERGY PREDICTED BY IDOCK:   -8.22 KCAL/MOL
REMARK 924 INTRA-LIGAND FREE ENERGY PREDICTED BY IDOCK:   -1.02 KCAL/MOL
REMARK 927      BINDING AFFINITY PREDICTED BY RF-SCORE:    0.00 PKD
ROOT
HETATM    1  C   UNL     1     -11.022  14.098  66.259  1.00  0.00    -0.303 C  
HETATM    2  C   UNL     1     -10.747  14.629  64.841  1.00  0.00    -0.447 C  
HETATM    3  C   UNL     1     -11.042  16.105  64.762  1.00  0.00    -0.333 C  
HETATM    4  C   UNL     1     -10.319  16.970  65.754  1.00  0.00    -0.275 C  
HETATM    5  O   UNL     1     -11.775  16.585  63.899  1.00  0.00    -1.148 OA 
HETATM    6  C   UNL     1     -10.621  16.472  67.158  1.00  0.00    -0.270 C  
HETATM    7  C   UNL     1     -10.295  14.977  67.315  1.00  0.00    -0.249 C  
HETATM    8  C   UNL     1     -10.572  14.401  68.729  1.00  0.00    -0.254 C  
HETATM    9  C   UNL     1     -12.058  14.291  69.112  1.00  0.00    -0.337 C  
HETATM   10  C   UNL     1      -9.875  15.238  69.817  1.00  0.00    -0.188 C  
HETATM   11  O   UNL     1      -9.975  13.091  68.821  1.00  0.00    -0.144 OA 
HETATM   12  C   UNL     1     -10.121  12.257  67.743  1.00  0.00    -0.201 A  
HETATM   13  C   UNL     1      -9.690  10.942  67.979  1.00  0.00    -0.176 A  
HETATM   14  C   UNL     1      -9.789   9.948  66.997  1.00  0.00    -0.241 A  
HETATM   15  H   UNL     1     -11.684  12.803  64.187  1.00  0.00     0.000 HD 
HETATM   16  C   UNL     1     -10.371  10.322  65.776  1.00  0.00    -0.236 A  
HETATM   17  C   UNL     1     -10.795  11.635  65.541  1.00  0.00    -0.279 A  
HETATM   18  O   UNL     1     -11.396  11.912  64.347  1.00  0.00    -0.326 OA 
HETATM   19  C   UNL     1     -10.637  12.645  66.496  1.00  0.00    -0.272 A  
ENDROOT
BRANCH  14  20
HETATM   20  C   UNL     1      -9.301   8.504  67.212  1.00  0.00    -0.184 C  
HETATM   21  C   UNL     1      -8.698   7.858  65.942  1.00  0.00    -0.180 C  
HETATM   22  C   UNL     1      -8.171   8.517  68.272  1.00  0.00    -0.123 C  
BRANCH  20  23
HETATM   23  C   UNL     1     -10.456   7.597  67.747  1.00  0.00    -0.282 C  
BRANCH  23  24
HETATM   24  C   UNL     1     -10.156   6.885  69.071  1.00  0.00    -0.175 C  
BRANCH  24  25
HETATM   25  C   UNL     1     -11.411   6.250  69.675  1.00  0.00    -0.492 C  
BRANCH  25  26
HETATM   26  C   UNL     1     -11.791   6.954  70.979  1.00  0.00    -0.411 C  
BRANCH  26  27
HETATM   27  C   UNL     1     -10.811   8.067  71.334  1.00  0.00    -0.271 C  
HETATM   28  C   UNL     1     -11.438   9.436  71.115  1.00  0.00    -0.422 C  
ENDBRANCH  26  27
ENDBRANCH  25  26
ENDBRANCH  24  25
ENDBRANCH  23  24
ENDBRANCH  20  23
ENDBRANCH  14  20
TORSDOF 6
ENDMDL
MODEL       25
REMARK 921   NORMALIZED FREE ENERGY PREDICTED BY IDOCK:   -5.33 KCAL/MOL
REMARK 922        TOTAL FREE ENERGY PREDICTED BY IDOCK:   -9.21 KCAL/MOL
REMARK 923 INTER-LIGAND FREE ENERGY PREDICTED BY IDOCK:   -8.28 KCAL/MOL
REMARK 924 INTRA-LIGAND FREE ENERGY PREDICTED BY IDOCK:   -0.93 KCAL/MOL
REMARK 927      BINDING AFFINITY PREDICTED BY RF-SCORE:    0.00 PKD
ROOT
HETATM    1  C   UNL     1     -11.714  11.516  69.748  1.00  0.00    -0.426 C  
HETATM    2  C   UNL     1     -12.299  11.597  71.169  1.00  0.00    -0.351 C  
HETATM    3  C   UNL     1     -12.651  10.221  71.675  1.00  0.00    -0.432 C  
HETATM    4  C   UNL     1     -11.536   9.216  71.665  1.00  0.00    -0.451 C  
HETATM    5  O   UNL     1     -13.761   9.952  72.133  1.00  0.00    -0.359 OA 
HETATM    6  C   UNL     1     -10.982   9.105  70.253  1.00  0.00    -0.279 C  
HETATM    7  C   UNL     1     -10.560  10.476  69.698  1.00  0.00    -0.281 C  
HETATM    8  C   UNL     1      -9.977  10.437  68.261  1.00  0.00    -0.151 C  
HETATM    9  C   UNL     1     -10.991  10.110  67.149  1.00  0.00    -0.204 C  
HETATM   10  C   UNL     1      -8.829   9.418  68.152  1.00  0.00    -0.124 C  
HETATM   11  O   UNL     1      -9.374  11.715  67.970  1.00  0.00    -0.165 OA 
HETATM   12  C   UNL     1     -10.060  12.836  68.360  1.00  0.00    -0.226 A  
HETATM   13  C   UNL     1      -9.515  14.035  67.873  1.00  0.00    -0.210 A  
HETATM   14  C   UNL     1     -10.101  15.276  68.151  1.00  0.00    -0.229 A  
HETATM   15  H   UNL     1     -13.361  13.315  70.423  1.00  0.00     0.000 HD 
HETATM   16  C   UNL     1     -11.280  15.262  68.911  1.00  0.00    -0.291 A  
HETATM   17  C   UNL     1     -11.820  14.067  69.400  1.00  0.00    -0.333 A  
HETATM   18  O   UNL     1     -12.995  14.127  70.091  1.00  0.00    -0.184 OA 
HETATM   19  C   UNL     1     -11.200  12.831  69.180  1.00  0.00    -0.294 A  
ENDROOT
BRANCH  14  20
HETATM   20  C   UNL     1      -9.514  16.611  67.657  1.00  0.00    -0.226 C  
HETATM   21  C   UNL     1      -8.466  17.219  68.619  1.00  0.00    -0.260 C  
HETATM   22  C   UNL     1      -8.782  16.363  66.315  1.00  0.00    -0.369 C  
BRANCH  20  23
HETATM   23  C   UNL     1     -10.645  17.660  67.405  1.00  0.00    -0.320 C  
BRANCH  23  24
HETATM   24  C   UNL     1     -10.256  19.112  67.705  1.00  0.00    -0.492 C  
BRANCH  24  25
HETATM   25  C   UNL     1     -10.073  19.932  66.425  1.00  0.00    -0.615 C  
BRANCH  25  26
HETATM   26  C   UNL     1      -8.587  20.179  66.157  1.00  0.00    -0.236 C  
BRANCH  26  27
HETATM   27  C   UNL     1      -7.805  20.413  67.445  1.00  0.00    -0.360 C  
HETATM   28  C   UNL     1      -6.480  21.104  67.160  1.00  0.00    -0.417 C  
ENDBRANCH  26  27
ENDBRANCH  25  26
ENDBRANCH  24  25
ENDBRANCH  23  24
ENDBRANCH  20  23
ENDBRANCH  14  20
TORSDOF 6
ENDMDL
MODEL       26
REMARK 921   NORMALIZED FREE ENERGY PREDICTED BY IDOCK:   -5.24 KCAL/MOL
REMARK 922        TOTAL FREE ENERGY PREDICTED BY IDOCK:   -9.09 KCAL/MOL
REMARK 923 INTER-LIGAND FREE ENERGY PREDICTED BY IDOCK:   -8.08 KCAL/MOL
REMARK 924 INTRA-LIGAND FREE ENERGY PREDICTED BY IDOCK:   -1.01 KCAL/MOL
REMARK 927      BINDING AFFINITY PREDICTED BY RF-SCORE:    0.00 PKD
ROOT
HETATM    1  C   UNL     1      -9.805  17.088  66.928  1.00  0.00    -0.273 C  
HETATM    2  C   UNL     1      -9.499  18.266  65.986  1.00  0.00    -0.038 C  
HETATM    3  C   UNL     1      -9.053  19.471  66.774  1.00  0.00    -0.339 C  
HETATM    4  C   UNL     1      -7.877  19.259  67.684  1.00  0.00    -0.295 C  
HETATM    5  O   UNL     1      -9.570  20.578  66.633  1.00  0.00    -0.355 OA 
HETATM    6  C   UNL     1      -8.192  18.121  68.642  1.00  0.00    -0.295 C  
HETATM    7  C   UNL     1      -8.610  16.844  67.893  1.00  0.00    -0.208 C  
HETATM    8  C   UNL     1      -8.941  15.638  68.810  1.00  0.00    -0.205 C  
HETATM    9  C   UNL     1     -10.230  15.777  69.639  1.00  0.00    -0.289 C  
HETATM   10  C   UNL     1      -7.790  15.353  69.792  1.00  0.00    -0.059 C  
HETATM   11  O   UNL     1      -9.044  14.451  67.997  1.00  0.00    -0.176 OA 
HETATM   12  C   UNL     1      -9.716  14.562  66.806  1.00  0.00    -0.260 A  
HETATM   13  C   UNL     1      -9.946  13.334  66.167  1.00  0.00    -0.295 A  
HETATM   14  C   UNL     1     -10.641  13.255  64.953  1.00  0.00    -0.381 A  
HETATM   15  H   UNL     1     -11.277  17.641  64.945  1.00  0.00     0.000 HD 
HETATM   16  C   UNL     1     -11.127  14.460  64.425  1.00  0.00    -0.203 A  
HETATM   17  C   UNL     1     -10.892  15.685  65.061  1.00  0.00    -0.450 A  
HETATM   18  O   UNL     1     -11.437  16.809  64.512  1.00  0.00    -0.866 OA 
HETATM   19  C   UNL     1     -10.141  15.773  66.239  1.00  0.00    -0.320 A  
ENDROOT
BRANCH  14  20
HETATM   20  C   UNL     1     -10.886  11.929  64.211  1.00  0.00    -0.396 C  
HETATM   21  C   UNL     1     -12.258  11.862  63.500  1.00  0.00    -0.591 C  
HETATM   22  C   UNL     1      -9.813  11.776  63.104  1.00  0.00    -0.363 C  
BRANCH  20  23
HETATM   23  C   UNL     1     -10.755  10.712  65.183  1.00  0.00    -0.088 C  
BRANCH  23  24
HETATM   24  C   UNL     1      -9.519   9.834  64.955  1.00  0.00    -0.331 C  
BRANCH  24  25
HETATM   25  C   UNL     1      -9.043   9.170  66.249  1.00  0.00    -0.222 C  
BRANCH  25  26
HETATM   26  C   UNL     1      -9.836   9.700  67.445  1.00  0.00    -0.218 C  
BRANCH  26  27
HETATM   27  C   UNL     1     -10.532   8.579  68.211  1.00  0.00    -0.222 C  
HETATM   28  C   UNL     1     -10.707   7.348  67.335  1.00  0.00    -0.348 C  
ENDBRANCH  26  27
ENDBRANCH  25  26
ENDBRANCH  24  25
ENDBRANCH  23  24
ENDBRANCH  20  23
ENDBRANCH  14  20
TORSDOF 6
ENDMDL
MODEL       27
REMARK 921   NORMALIZED FREE ENERGY PREDICTED BY IDOCK:   -5.24 KCAL/MOL
REMARK 922        TOTAL FREE ENERGY PREDICTED BY IDOCK:   -9.09 KCAL/MOL
REMARK 923 INTER-LIGAND FREE ENERGY PREDICTED BY IDOCK:   -7.38 KCAL/MOL
REMARK 924 INTRA-LIGAND FREE ENERGY PREDICTED BY IDOCK:   -1.71 KCAL/MOL
REMARK 927      BINDING AFFINITY PREDICTED BY RF-SCORE:    0.00 PKD
ROOT
HETATM    1  C   UNL     1     -10.677  14.388  65.565  1.00  0.00    -0.344 C  
HETATM    2  C   UNL     1     -12.002  14.345  64.785  1.00  0.00    -0.455 C  
HETATM    3  C   UNL     1     -12.328  12.931  64.375  1.00  0.00    -0.398 C  
HETATM    4  C   UNL     1     -12.385  11.924  65.487  1.00  0.00     0.524 C  
HETATM    5  O   UNL     1     -12.599  12.629  63.214  1.00  0.00    -0.669 OA 
HETATM    6  C   UNL     1     -11.061  11.936  66.234  1.00  0.00    -0.364 C  
HETATM    7  C   UNL     1     -10.696  13.349  66.722  1.00  0.00    -0.277 C  
HETATM    8  C   UNL     1      -9.358  13.436  67.501  1.00  0.00    -0.218 C  
HETATM    9  C   UNL     1      -8.090  13.216  66.656  1.00  0.00     0.366 C  
HETATM   10  C   UNL     1      -9.321  12.424  68.660  1.00  0.00    -0.004 C  
HETATM   11  O   UNL     1      -9.271  14.731  68.131  1.00  0.00    -0.185 OA 
HETATM   12  C   UNL     1      -9.659  15.817  67.389  1.00  0.00    -0.217 A  
HETATM   13  C   UNL     1      -9.364  17.051  67.989  1.00  0.00    -0.245 A  
HETATM   14  C   UNL     1      -9.666  18.267  67.362  1.00  0.00    -0.300 A  
HETATM   15  H   UNL     1     -11.272  16.129  63.827  1.00  0.00     0.000 HD 
HETATM   16  C   UNL     1     -10.248  18.191  66.088  1.00  0.00    -0.372 A  
HETATM   17  C   UNL     1     -10.548  16.960  65.492  1.00  0.00    -0.202 A  
HETATM   18  O   UNL     1     -11.069  16.965  64.231  1.00  0.00    -1.135 OA 
HETATM   19  C   UNL     1     -10.307  15.746  66.145  1.00  0.00    -0.333 A  
ENDROOT
BRANCH  14  20
HETATM   20  C   UNL     1      -9.382  19.637  68.004  1.00  0.00    -0.425 C  
HETATM   21  C   UNL     1      -9.547  20.824  67.027  1.00  0.00    -0.411 C  
HETATM   22  C   UNL     1     -10.401  19.868  69.148  1.00  0.00    -0.174 C  
BRANCH  20  23
HETATM   23  C   UNL     1      -7.946  19.678  68.620  1.00  0.00    -0.335 C  
BRANCH  23  24
HETATM   24  C   UNL     1      -7.005  20.714  67.993  1.00  0.00    -0.276 C  
BRANCH  24  25
HETATM   25  C   UNL     1      -5.817  20.055  67.289  1.00  0.00    -0.188 C  
BRANCH  25  26
HETATM   26  C   UNL     1      -6.074  19.955  65.784  1.00  0.00    -0.208 C  
BRANCH  26  27
HETATM   27  C   UNL     1      -6.518  18.555  65.371  1.00  0.00    -0.282 C  
HETATM   28  C   UNL     1      -5.954  17.505  66.316  1.00  0.00    -0.249 C  
ENDBRANCH  26  27
ENDBRANCH  25  26
ENDBRANCH  24  25
ENDBRANCH  23  24
ENDBRANCH  20  23
ENDBRANCH  14  20
TORSDOF 6
ENDMDL
MODEL       28
REMARK 921   NORMALIZED FREE ENERGY PREDICTED BY IDOCK:   -5.23 KCAL/MOL
REMARK 922        TOTAL FREE ENERGY PREDICTED BY IDOCK:   -9.09 KCAL/MOL
REMARK 923 INTER-LIGAND FREE ENERGY PREDICTED BY IDOCK:   -8.01 KCAL/MOL
REMARK 924 INTRA-LIGAND FREE ENERGY PREDICTED BY IDOCK:   -1.08 KCAL/MOL
REMARK 927      BINDING AFFINITY PREDICTED BY RF-SCORE:    0.00 PKD
ROOT
HETATM    1  C   UNL     1      -9.757   7.991  69.842  1.00  0.00    -0.180 C  
HETATM    2  C   UNL     1      -8.960   7.241  68.761  1.00  0.00    -0.129 C  
HETATM    3  C   UNL     1      -8.810   5.786  69.128  1.00  0.00    -0.112 C  
HETATM    4  C   UNL     1     -10.088   5.043  69.394  1.00  0.00    -0.288 C  
HETATM    5  O   UNL     1      -7.718   5.221  69.143  1.00  0.00    -0.079 OA 
HETATM    6  C   UNL     1     -10.858   5.761  70.491  1.00  0.00    -0.348 C  
HETATM    7  C   UNL     1     -11.085   7.244  70.151  1.00  0.00    -0.281 C  
HETATM    8  C   UNL     1     -11.874   8.039  71.225  1.00  0.00    -0.294 C  
HETATM    9  C   UNL     1     -11.121   8.282  72.545  1.00  0.00    -0.439 C  
HETATM   10  C   UNL     1     -13.201   7.341  71.572  1.00  0.00    -0.434 C  
HETATM   11  O   UNL     1     -12.254   9.316  70.671  1.00  0.00    -0.193 OA 
HETATM   12  C   UNL     1     -11.312   9.985  69.933  1.00  0.00    -0.250 A  
HETATM   13  C   UNL     1     -11.681  11.297  69.596  1.00  0.00    -0.420 A  
HETATM   14  C   UNL     1     -10.830  12.137  68.866  1.00  0.00    -0.241 A  
HETATM   15  H   UNL     1      -7.709   8.993  68.743  1.00  0.00     0.000 HD 
HETATM   16  C   UNL     1      -9.576  11.614  68.516  1.00  0.00    -0.181 A  
HETATM   17  C   UNL     1      -9.211  10.304  68.848  1.00  0.00    -0.175 A  
HETATM   18  O   UNL     1      -7.956   9.883  68.517  1.00  0.00    -0.084 OA 
HETATM   19  C   UNL     1     -10.085   9.442  69.520  1.00  0.00    -0.214 A  
ENDROOT
BRANCH  14  20
HETATM   20  C   UNL     1     -11.214  13.570  68.455  1.00  0.00    -0.309 C  
HETATM   21  C   UNL     1     -12.153  14.272  69.464  1.00  0.00    -0.376 C  
HETATM   22  C   UNL     1      -9.926  14.427  68.386  1.00  0.00    -0.241 C  
BRANCH  20  23
HETATM   23  C   UNL     1     -11.882  13.586  67.041  1.00  0.00    -0.447 C  
BRANCH  23  24
HETATM   24  C   UNL     1     -11.408  14.713  66.117  1.00  0.00    -0.350 C  
BRANCH  24  25
HETATM   25  C   UNL     1     -10.731  14.172  64.856  1.00  0.00    -0.444 C  
BRANCH  25  26
HETATM   26  C   UNL     1     -10.526  12.660  64.966  1.00  0.00    -0.331 C  
BRANCH  26  27
HETATM   27  C   UNL     1     -10.953  11.931  63.695  1.00  0.00    -0.511 C  
HETATM   28  C   UNL     1     -12.450  12.069  63.465  1.00  0.00    -0.654 C  
ENDBRANCH  26  27
ENDBRANCH  25  26
ENDBRANCH  24  25
ENDBRANCH  23  24
ENDBRANCH  20  23
ENDBRANCH  14  20
TORSDOF 6
ENDMDL
MODEL       29
REMARK 921   NORMALIZED FREE ENERGY PREDICTED BY IDOCK:   -5.20 KCAL/MOL
REMARK 922        TOTAL FREE ENERGY PREDICTED BY IDOCK:   -9.03 KCAL/MOL
REMARK 923 INTER-LIGAND FREE ENERGY PREDICTED BY IDOCK:   -8.32 KCAL/MOL
REMARK 924 INTRA-LIGAND FREE ENERGY PREDICTED BY IDOCK:   -0.72 KCAL/MOL
REMARK 927      BINDING AFFINITY PREDICTED BY RF-SCORE:    0.00 PKD
ROOT
HETATM    1  C   UNL     1      -9.739   8.256  67.541  1.00  0.00    -0.212 C  
HETATM    2  C   UNL     1      -9.816   6.990  66.670  1.00  0.00    -0.223 C  
HETATM    3  C   UNL     1      -9.485   5.766  67.487  1.00  0.00    -0.112 C  
HETATM    4  C   UNL     1     -10.315   5.559  68.721  1.00  0.00    -0.271 C  
HETATM    5  O   UNL     1      -8.637   4.949  67.133  1.00  0.00    -0.106 OA 
HETATM    6  C   UNL     1     -10.209   6.794  69.602  1.00  0.00    -0.207 C  
HETATM    7  C   UNL     1     -10.581   8.075  68.835  1.00  0.00    -0.160 C  
HETATM    8  C   UNL     1     -10.503   9.376  69.676  1.00  0.00    -0.223 C  
HETATM    9  C   UNL     1      -9.081   9.820  70.065  1.00  0.00    -0.258 C  
HETATM   10  C   UNL     1     -11.319   9.251  70.975  1.00  0.00    -0.390 C  
HETATM   11  O   UNL     1     -11.131  10.444  68.938  1.00  0.00    -0.227 OA 
HETATM   12  C   UNL     1     -10.861  10.524  67.596  1.00  0.00    -0.300 A  
HETATM   13  C   UNL     1     -11.345  11.693  66.987  1.00  0.00    -0.373 A  
HETATM   14  C   UNL     1     -11.137  11.954  65.626  1.00  0.00    -0.362 A  
HETATM   15  H   UNL     1      -8.837   8.193  65.177  1.00  0.00     0.000 HD 
HETATM   16  C   UNL     1     -10.394  11.006  64.908  1.00  0.00    -0.378 A  
HETATM   17  C   UNL     1      -9.918   9.838  65.515  1.00  0.00    -0.259 A  
HETATM   18  O   UNL     1      -9.161   8.986  64.764  1.00  0.00    -0.165 OA 
HETATM   19  C   UNL     1     -10.179   9.543  66.858  1.00  0.00    -0.317 A  
ENDROOT
BRANCH  14  20
HETATM   20  C   UNL     1     -11.677  13.211  64.921  1.00  0.00    -0.377 C  
HETATM   21  C   UNL     1     -12.274  12.928  63.522  1.00  0.00    -0.595 C  
HETATM   22  C   UNL     1     -12.828  13.802  65.775  1.00  0.00    -0.430 C  
BRANCH  20  23
HETATM   23  C   UNL     1     -10.564  14.300  64.789  1.00  0.00    -0.434 C  
BRANCH  23  24
HETATM   24  C   UNL     1     -10.106  14.918  66.115  1.00  0.00    -0.316 C  
BRANCH  24  25
HETATM   25  C   UNL     1     -10.183  16.446  66.091  1.00  0.00    -0.363 C  
BRANCH  25  26
HETATM   26  C   UNL     1     -10.754  16.975  67.408  1.00  0.00    -0.240 C  
BRANCH  26  27
HETATM   27  C   UNL     1     -10.625  18.491  67.520  1.00  0.00    -0.461 C  
HETATM   28  C   UNL     1     -10.309  19.111  66.167  1.00  0.00    -0.561 C  
ENDBRANCH  26  27
ENDBRANCH  25  26
ENDBRANCH  24  25
ENDBRANCH  23  24
ENDBRANCH  20  23
ENDBRANCH  14  20
TORSDOF 6
ENDMDL
MODEL       30
REMARK 921   NORMALIZED FREE ENERGY PREDICTED BY IDOCK:   -5.20 KCAL/MOL
REMARK 922        TOTAL FREE ENERGY PREDICTED BY IDOCK:   -9.03 KCAL/MOL
REMARK 923 INTER-LIGAND FREE ENERGY PREDICTED BY IDOCK:   -7.90 KCAL/MOL
REMARK 924 INTRA-LIGAND FREE ENERGY PREDICTED BY IDOCK:   -1.13 KCAL/MOL
REMARK 927      BINDING AFFINITY PREDICTED BY RF-SCORE:    0.00 PKD
ROOT
HETATM    1  C   UNL     1     -11.068   7.375  70.532  1.00  0.00    -0.280 C  
HETATM    2  C   UNL     1     -11.081   7.231  72.064  1.00  0.00    -0.277 C  
HETATM    3  C   UNL     1     -10.846   5.795  72.462  1.00  0.00    -0.250 C  
HETATM    4  C   UNL     1      -9.594   5.164  71.925  1.00  0.00    -0.193 C  
HETATM    5  O   UNL     1     -11.593   5.196  73.233  1.00  0.00    -0.297 OA 
HETATM    6  C   UNL     1      -9.598   5.270  70.408  1.00  0.00    -0.241 C  
HETATM    7  C   UNL     1      -9.787   6.723  69.939  1.00  0.00    -0.174 C  
HETATM    8  C   UNL     1      -9.794   6.907  68.399  1.00  0.00    -0.143 C  
HETATM    9  C   UNL     1     -11.025   6.334  67.674  1.00  0.00    -0.438 C  
HETATM   10  C   UNL     1      -8.545   6.276  67.757  1.00  0.00    -0.115 C  
HETATM   11  O   UNL     1      -9.699   8.316  68.100  1.00  0.00    -0.151 OA 
HETATM   12  C   UNL     1     -10.458   9.170  68.857  1.00  0.00    -0.218 A  
HETATM   13  C   UNL     1     -10.467  10.492  68.385  1.00  0.00    -0.212 A  
HETATM   14  C   UNL     1     -11.210  11.496  69.020  1.00  0.00    -0.324 A  
HETATM   15  H   UNL     1     -12.754   8.584  71.982  1.00  0.00     0.000 HD 
HETATM   16  C   UNL     1     -11.973  11.108  70.132  1.00  0.00    -0.449 A  
HETATM   17  C   UNL     1     -11.958   9.791  70.605  1.00  0.00    -0.259 A  
HETATM   18  O   UNL     1     -12.763   9.479  71.662  1.00  0.00    -0.335 OA 
HETATM   19  C   UNL     1     -11.166   8.802  70.012  1.00  0.00    -0.113 A  
ENDROOT
BRANCH  14  20
HETATM   20  C   UNL     1     -11.220  12.961  68.546  1.00  0.00    -0.310 C  
HETATM   21  C   UNL     1     -11.694  13.958  69.629  1.00  0.00    -0.370 C  
HETATM   22  C   UNL     1      -9.772  13.371  68.178  1.00  0.00    -0.226 C  
BRANCH  20  23
HETATM   23  C   UNL     1     -12.109  13.130  67.272  1.00  0.00    -0.329 C  
BRANCH  23  24
HETATM   24  C   UNL     1     -11.811  14.382  66.439  1.00  0.00    -0.402 C  
BRANCH  24  25
HETATM   25  C   UNL     1     -11.583  14.047  64.964  1.00  0.00    -0.351 C  
BRANCH  25  26
HETATM   26  C   UNL     1     -12.198  12.688  64.623  1.00  0.00    -0.519 C  
BRANCH  26  27
HETATM   27  C   UNL     1     -11.259  11.831  63.779  1.00  0.00    -0.518 C  
HETATM   28  C   UNL     1     -10.411  10.925  64.657  1.00  0.00    -0.407 C  
ENDBRANCH  26  27
ENDBRANCH  25  26
ENDBRANCH  24  25
ENDBRANCH  23  24
ENDBRANCH  20  23
ENDBRANCH  14  20
TORSDOF 6
ENDMDL
MODEL       31
REMARK 921   NORMALIZED FREE ENERGY PREDICTED BY IDOCK:   -5.13 KCAL/MOL
REMARK 922        TOTAL FREE ENERGY PREDICTED BY IDOCK:   -8.95 KCAL/MOL
REMARK 923 INTER-LIGAND FREE ENERGY PREDICTED BY IDOCK:   -8.15 KCAL/MOL
REMARK 924 INTRA-LIGAND FREE ENERGY PREDICTED BY IDOCK:   -0.80 KCAL/MOL
REMARK 927      BINDING AFFINITY PREDICTED BY RF-SCORE:    0.00 PKD
ROOT
HETATM    1  C   UNL     1      -9.717   7.933  69.720  1.00  0.00    -0.176 C  
HETATM    2  C   UNL     1      -8.977   7.118  68.644  1.00  0.00    -0.131 C  
HETATM    3  C   UNL     1      -8.851   5.676  69.068  1.00  0.00    -0.106 C  
HETATM    4  C   UNL     1     -10.137   4.979  69.408  1.00  0.00    -0.288 C  
HETATM    5  O   UNL     1      -7.774   5.083  69.071  1.00  0.00    -0.078 OA 
HETATM    6  C   UNL     1     -10.851   5.762  70.499  1.00  0.00    -0.348 C  
HETATM    7  C   UNL     1     -11.052   7.236  70.104  1.00  0.00    -0.281 C  
HETATM    8  C   UNL     1     -11.783   8.095  71.169  1.00  0.00    -0.283 C  
HETATM    9  C   UNL     1     -10.978   8.372  72.452  1.00  0.00    -0.425 C  
HETATM   10  C   UNL     1     -13.114   7.447  71.590  1.00  0.00    -0.412 C  
HETATM   11  O   UNL     1     -12.149   9.357  70.575  1.00  0.00    -0.187 OA 
HETATM   12  C   UNL     1     -11.217   9.970  69.777  1.00  0.00    -0.258 A  
HETATM   13  C   UNL     1     -11.565  11.276  69.398  1.00  0.00    -0.390 A  
HETATM   14  C   UNL     1     -10.719  12.062  68.604  1.00  0.00    -0.266 A  
HETATM   15  H   UNL     1      -7.684   8.834  68.510  1.00  0.00     0.000 HD 
HETATM   16  C   UNL     1      -9.491  11.492  68.236  1.00  0.00    -0.189 A  
HETATM   17  C   UNL     1      -9.148  10.188  68.610  1.00  0.00    -0.143 A  
HETATM   18  O   UNL     1      -7.916   9.720  68.255  1.00  0.00    -0.095 OA 
HETATM   19  C   UNL     1     -10.019   9.378  69.347  1.00  0.00    -0.189 A  
ENDROOT
BRANCH  14  20
HETATM   20  C   UNL     1     -11.081  13.486  68.146  1.00  0.00    -0.283 C  
HETATM   21  C   UNL     1      -9.877  14.457  68.132  1.00  0.00    -0.223 C  
HETATM   22  C   UNL     1     -11.604  13.419  66.690  1.00  0.00    -0.399 C  
BRANCH  20  23
HETATM   23  C   UNL     1     -12.213  14.090  69.039  1.00  0.00    -0.280 C  
BRANCH  23  24
HETATM   24  C   UNL     1     -11.727  14.763  70.328  1.00  0.00    -0.351 C  
BRANCH  24  25
HETATM   25  C   UNL     1     -12.460  14.231  71.562  1.00  0.00    -0.435 C  
BRANCH  25  26
HETATM   26  C   UNL     1     -13.648  15.130  71.907  1.00  0.00    -0.545 C  
BRANCH  26  27
HETATM   27  C   UNL     1     -13.377  15.987  73.140  1.00  0.00    -0.624 C  
HETATM   28  C   UNL     1     -12.400  15.296  74.079  1.00  0.00    -0.767 C  
ENDBRANCH  26  27
ENDBRANCH  25  26
ENDBRANCH  24  25
ENDBRANCH  23  24
ENDBRANCH  20  23
ENDBRANCH  14  20
TORSDOF 6
ENDMDL
MODEL       32
REMARK 921   NORMALIZED FREE ENERGY PREDICTED BY IDOCK:   -5.09 KCAL/MOL
REMARK 922        TOTAL FREE ENERGY PREDICTED BY IDOCK:   -8.89 KCAL/MOL
REMARK 923 INTER-LIGAND FREE ENERGY PREDICTED BY IDOCK:   -7.71 KCAL/MOL
REMARK 924 INTRA-LIGAND FREE ENERGY PREDICTED BY IDOCK:   -1.18 KCAL/MOL
REMARK 927      BINDING AFFINITY PREDICTED BY RF-SCORE:    0.00 PKD
ROOT
HETATM    1  C   UNL     1      -9.587  13.835  66.253  1.00  0.00    -0.265 C  
HETATM    2  C   UNL     1      -9.123  15.114  66.970  1.00  0.00    -0.249 C  
HETATM    3  C   UNL     1      -9.323  16.318  66.085  1.00  0.00    -0.339 C  
HETATM    4  C   UNL     1     -10.718  16.528  65.571  1.00  0.00    -0.267 C  
HETATM    5  O   UNL     1      -8.420  17.120  65.852  1.00  0.00    -0.529 OA 
HETATM    6  C   UNL     1     -11.164  15.279  64.827  1.00  0.00    -0.405 C  
HETATM    7  C   UNL     1     -11.028  14.018  65.698  1.00  0.00    -0.300 C  
HETATM    8  C   UNL     1     -11.473  12.704  65.004  1.00  0.00    -0.329 C  
HETATM    9  C   UNL     1     -10.558  12.221  63.864  1.00  0.00    -0.462 C  
HETATM   10  C   UNL     1     -12.897  12.831  64.431  1.00  0.00    -0.288 C  
HETATM   11  O   UNL     1     -11.559  11.661  65.997  1.00  0.00    -0.362 OA 
HETATM   12  C   UNL     1     -10.552  11.594  66.926  1.00  0.00    -0.241 A  
HETATM   13  C   UNL     1     -10.598  10.445  67.731  1.00  0.00    -0.294 A  
HETATM   14  C   UNL     1      -9.632  10.198  68.716  1.00  0.00    -0.170 A  
HETATM   15  H   UNL     1      -7.466  13.909  67.632  1.00  0.00     0.000 HD 
HETATM   16  C   UNL     1      -8.598  11.138  68.835  1.00  0.00    -0.092 A  
HETATM   17  C   UNL     1      -8.557  12.286  68.036  1.00  0.00    -0.176 A  
HETATM   18  O   UNL     1      -7.494  13.130  68.176  1.00  0.00    -0.106 OA 
HETATM   19  C   UNL     1      -9.556  12.568  67.096  1.00  0.00    -0.208 A  
ENDROOT
BRANCH  14  20
HETATM   20  C   UNL     1      -9.668   8.963  69.635  1.00  0.00    -0.175 C  
HETATM   21  C   UNL     1     -10.373   7.741  69.002  1.00  0.00    -0.219 C  
HETATM   22  C   UNL     1      -8.212   8.524  69.929  1.00  0.00    -0.121 C  
BRANCH  20  23
HETATM   23  C   UNL     1     -10.357   9.301  70.997  1.00  0.00    -0.388 C  
BRANCH  23  24
HETATM   24  C   UNL     1     -11.815   8.843  71.113  1.00  0.00    -0.353 C  
BRANCH  24  25
HETATM   25  C   UNL     1     -12.090   8.145  72.447  1.00  0.00    -0.406 C  
BRANCH  25  26
HETATM   26  C   UNL     1     -10.815   7.487  72.980  1.00  0.00    -0.445 C  
BRANCH  26  27
HETATM   27  C   UNL     1     -10.900   5.964  72.944  1.00  0.00    -0.293 C  
HETATM   28  C   UNL     1      -9.996   5.395  71.861  1.00  0.00    -0.233 C  
ENDBRANCH  26  27
ENDBRANCH  25  26
ENDBRANCH  24  25
ENDBRANCH  23  24
ENDBRANCH  20  23
ENDBRANCH  14  20
TORSDOF 6
ENDMDL
MODEL       33
REMARK 921   NORMALIZED FREE ENERGY PREDICTED BY IDOCK:   -5.08 KCAL/MOL
REMARK 922        TOTAL FREE ENERGY PREDICTED BY IDOCK:   -8.88 KCAL/MOL
REMARK 923 INTER-LIGAND FREE ENERGY PREDICTED BY IDOCK:   -7.31 KCAL/MOL
REMARK 924 INTRA-LIGAND FREE ENERGY PREDICTED BY IDOCK:   -1.57 KCAL/MOL
REMARK 927      BINDING AFFINITY PREDICTED BY RF-SCORE:    0.00 PKD
ROOT
HETATM    1  C   UNL     1     -10.793  12.683  68.539  1.00  0.00    -0.279 C  
HETATM    2  C   UNL     1     -11.945  13.693  68.400  1.00  0.00    -0.391 C  
HETATM    3  C   UNL     1     -11.544  14.831  67.496  1.00  0.00    -0.361 C  
HETATM    4  C   UNL     1     -11.070  14.442  66.125  1.00  0.00    -0.330 C  
HETATM    5  O   UNL     1     -11.660  16.009  67.830  1.00  0.00    -0.218 OA 
HETATM    6  C   UNL     1      -9.906  13.474  66.260  1.00  0.00    -0.306 C  
HETATM    7  C   UNL     1     -10.270  12.263  67.136  1.00  0.00    -0.224 C  
HETATM    8  C   UNL     1      -9.129  11.227  67.312  1.00  0.00    -0.156 C  
HETATM    9  C   UNL     1      -7.938  11.701  68.166  1.00  0.00    -0.141 C  
HETATM   10  C   UNL     1      -8.570  10.777  65.950  1.00  0.00    -0.182 C  
HETATM   11  O   UNL     1      -9.674  10.032  67.908  1.00  0.00    -0.144 OA 
HETATM   12  C   UNL     1     -10.565  10.194  68.938  1.00  0.00    -0.215 A  
HETATM   13  C   UNL     1     -10.899   8.999  69.593  1.00  0.00    -0.196 A  
HETATM   14  C   UNL     1     -11.775   8.979  70.687  1.00  0.00    -0.237 A  
HETATM   15  H   UNL     1     -12.210  13.386  70.515  1.00  0.00     0.000 HD 
HETATM   16  C   UNL     1     -12.277  10.217  71.115  1.00  0.00    -0.500 A  
HETATM   17  C   UNL     1     -11.947  11.407  70.457  1.00  0.00    -0.356 A  
HETATM   18  O   UNL     1     -12.435  12.578  70.962  1.00  0.00    -0.369 OA 
HETATM   19  C   UNL     1     -11.124  11.422  69.325  1.00  0.00    -0.313 A  
ENDROOT
BRANCH  14  20
HETATM   20  C   UNL     1     -12.186   7.684  71.410  1.00  0.00    -0.351 C  
HETATM   21  C   UNL     1     -13.711   7.424  71.397  1.00  0.00    -0.419 C  
HETATM   22  C   UNL     1     -11.532   6.483  70.683  1.00  0.00    -0.433 C  
BRANCH  20  23
HETATM   23  C   UNL     1     -11.682   7.687  72.890  1.00  0.00    -0.204 C  
BRANCH  23  24
HETATM   24  C   UNL     1     -10.334   6.992  73.113  1.00  0.00    -0.314 C  
BRANCH  24  25
HETATM   25  C   UNL     1      -9.251   7.976  73.560  1.00  0.00    -0.312 C  
BRANCH  25  26
HETATM   26  C   UNL     1      -7.903   7.607  72.937  1.00  0.00    -0.135 C  
BRANCH  26  27
HETATM   27  C   UNL     1      -7.933   7.697  71.415  1.00  0.00    -0.094 C  
HETATM   28  C   UNL     1      -7.487   9.073  70.941  1.00  0.00    -0.128 C  
ENDBRANCH  26  27
ENDBRANCH  25  26
ENDBRANCH  24  25
ENDBRANCH  23  24
ENDBRANCH  20  23
ENDBRANCH  14  20
TORSDOF 6
ENDMDL
MODEL       34
REMARK 921   NORMALIZED FREE ENERGY PREDICTED BY IDOCK:   -5.05 KCAL/MOL
REMARK 922        TOTAL FREE ENERGY PREDICTED BY IDOCK:   -8.84 KCAL/MOL
REMARK 923 INTER-LIGAND FREE ENERGY PREDICTED BY IDOCK:   -8.34 KCAL/MOL
REMARK 924 INTRA-LIGAND FREE ENERGY PREDICTED BY IDOCK:   -0.50 KCAL/MOL
REMARK 927      BINDING AFFINITY PREDICTED BY RF-SCORE:    0.00 PKD
ROOT
HETATM    1  C   UNL     1     -10.596   9.045  69.218  1.00  0.00    -0.226 C  
HETATM    2  C   UNL     1     -10.382   9.592  70.640  1.00  0.00    -0.369 C  
HETATM    3  C   UNL     1      -9.996   8.479  71.581  1.00  0.00    -0.259 C  
HETATM    4  C   UNL     1      -8.793   7.673  71.184  1.00  0.00    -0.140 C  
HETATM    5  O   UNL     1     -10.584   8.282  72.644  1.00  0.00    -0.332 OA 
HETATM    6  C   UNL     1      -9.019   7.099  69.794  1.00  0.00    -0.142 C  
HETATM    7  C   UNL     1      -9.371   8.196  68.775  1.00  0.00    -0.143 C  
HETATM    8  C   UNL     1      -9.608   7.683  67.330  1.00  0.00    -0.147 C  
HETATM    9  C   UNL     1     -10.889   6.851  67.132  1.00  0.00    -0.447 C  
HETATM   10  C   UNL     1      -8.424   6.831  66.840  1.00  0.00    -0.115 C  
HETATM   11  O   UNL     1      -9.653   8.814  66.437  1.00  0.00    -0.208 OA 
HETATM   12  C   UNL     1     -10.353   9.917  66.855  1.00  0.00    -0.235 A  
HETATM   13  C   UNL     1     -10.519  10.895  65.861  1.00  0.00    -0.285 A  
HETATM   14  C   UNL     1     -11.231  12.077  66.103  1.00  0.00    -0.394 A  
HETATM   15  H   UNL     1     -12.137  10.773  70.241  1.00  0.00     0.000 HD 
HETATM   16  C   UNL     1     -11.800  12.220  67.378  1.00  0.00    -0.327 A  
HETATM   17  C   UNL     1     -11.629  11.247  68.369  1.00  0.00    -0.308 A  
HETATM   18  O   UNL     1     -12.253  11.434  69.568  1.00  0.00    -0.296 OA 
HETATM   19  C   UNL     1     -10.863  10.096  68.150  1.00  0.00    -0.310 A  
ENDROOT
BRANCH  14  20
HETATM   20  C   UNL     1     -11.407  13.182  65.047  1.00  0.00    -0.325 C  
HETATM   21  C   UNL     1     -11.547  12.642  63.604  1.00  0.00    -0.575 C  
HETATM   22  C   UNL     1     -12.714  13.955  65.352  1.00  0.00    -0.525 C  
BRANCH  20  23
HETATM   23  C   UNL     1     -10.221  14.199  65.098  1.00  0.00    -0.411 C  
BRANCH  23  24
HETATM   24  C   UNL     1     -10.232  15.143  66.305  1.00  0.00    -0.300 C  
BRANCH  24  25
HETATM   25  C   UNL     1     -10.357  16.609  65.883  1.00  0.00    -0.355 C  
BRANCH  25  26
HETATM   26  C   UNL     1      -9.876  17.531  67.005  1.00  0.00    -0.295 C  
BRANCH  26  27
HETATM   27  C   UNL     1      -9.005  18.667  66.478  1.00  0.00    -0.308 C  
HETATM   28  C   UNL     1      -9.773  19.981  66.463  1.00  0.00    -0.564 C  
ENDBRANCH  26  27
ENDBRANCH  25  26
ENDBRANCH  24  25
ENDBRANCH  23  24
ENDBRANCH  20  23
ENDBRANCH  14  20
TORSDOF 6
ENDMDL
MODEL       35
REMARK 921   NORMALIZED FREE ENERGY PREDICTED BY IDOCK:   -5.02 KCAL/MOL
REMARK 922        TOTAL FREE ENERGY PREDICTED BY IDOCK:   -8.80 KCAL/MOL
REMARK 923 INTER-LIGAND FREE ENERGY PREDICTED BY IDOCK:   -7.96 KCAL/MOL
REMARK 924 INTRA-LIGAND FREE ENERGY PREDICTED BY IDOCK:   -0.84 KCAL/MOL
REMARK 927      BINDING AFFINITY PREDICTED BY RF-SCORE:    0.00 PKD
ROOT
HETATM    1  C   UNL     1      -9.301  17.261  68.103  1.00  0.00    -0.274 C  
HETATM    2  C   UNL     1     -10.414  18.262  67.747  1.00  0.00    -0.430 C  
HETATM    3  C   UNL     1      -9.961  19.674  68.017  1.00  0.00    -0.427 C  
HETATM    4  C   UNL     1      -8.691  20.096  67.335  1.00  0.00    -0.425 C  
HETATM    5  O   UNL     1     -10.621  20.458  68.697  1.00  0.00    -0.181 OA 
HETATM    6  C   UNL     1      -7.580  19.130  67.718  1.00  0.00    -0.282 C  
HETATM    7  C   UNL     1      -7.966  17.671  67.420  1.00  0.00    -0.217 C  
HETATM    8  C   UNL     1      -6.874  16.629  67.779  1.00  0.00    -0.141 C  
HETATM    9  C   UNL     1      -6.624  16.434  69.286  1.00  0.00    -0.206 C  
HETATM   10  C   UNL     1      -5.526  16.989  67.130  1.00  0.00    -0.189 C  
HETATM   11  O   UNL     1      -7.240  15.357  67.206  1.00  0.00    -0.199 OA 
HETATM   12  C   UNL     1      -8.554  14.978  67.306  1.00  0.00    -0.206 A  
HETATM   13  C   UNL     1      -8.796  13.654  66.906  1.00  0.00    -0.201 A  
HETATM   14  C   UNL     1     -10.076  13.089  66.966  1.00  0.00    -0.243 A  
HETATM   15  H   UNL     1     -11.730  16.830  68.672  1.00  0.00     0.000 HD 
HETATM   16  C   UNL     1     -11.100  13.900  67.478  1.00  0.00    -0.302 A  
HETATM   17  C   UNL     1     -10.859  15.222  67.871  1.00  0.00    -0.288 A  
HETATM   18  O   UNL     1     -11.894  15.933  68.405  1.00  0.00    -0.322 OA 
HETATM   19  C   UNL     1      -9.594  15.809  67.751  1.00  0.00    -0.214 A  
ENDROOT
BRANCH  14  20
HETATM   20  C   UNL     1     -10.382  11.651  66.509  1.00  0.00    -0.259 C  
HETATM   21  C   UNL     1     -11.149  11.578  65.168  1.00  0.00    -0.260 C  
HETATM   22  C   UNL     1      -9.041  10.908  66.286  1.00  0.00    -0.192 C  
BRANCH  20  23
HETATM   23  C   UNL     1     -11.189  10.877  67.601  1.00  0.00    -0.379 C  
BRANCH  23  24
HETATM   24  C   UNL     1     -10.491  10.765  68.961  1.00  0.00    -0.239 C  
BRANCH  24  25
HETATM   25  C   UNL     1     -11.481  10.463  70.089  1.00  0.00    -0.396 C  
BRANCH  25  26
HETATM   26  C   UNL     1     -12.221  11.736  70.505  1.00  0.00    -0.438 C  
BRANCH  26  27
HETATM   27  C   UNL     1     -13.108  11.507  71.725  1.00  0.00    -0.503 C  
HETATM   28  C   UNL     1     -13.211  10.026  72.054  1.00  0.00    -0.545 C  
ENDBRANCH  26  27
ENDBRANCH  25  26
ENDBRANCH  24  25
ENDBRANCH  23  24
ENDBRANCH  20  23
ENDBRANCH  14  20
TORSDOF 6
ENDMDL
MODEL       36
REMARK 921   NORMALIZED FREE ENERGY PREDICTED BY IDOCK:   -4.96 KCAL/MOL
REMARK 922        TOTAL FREE ENERGY PREDICTED BY IDOCK:   -8.71 KCAL/MOL
REMARK 923 INTER-LIGAND FREE ENERGY PREDICTED BY IDOCK:   -7.98 KCAL/MOL
REMARK 924 INTRA-LIGAND FREE ENERGY PREDICTED BY IDOCK:   -0.74 KCAL/MOL
REMARK 927      BINDING AFFINITY PREDICTED BY RF-SCORE:    0.00 PKD
ROOT
HETATM    1  C   UNL     1     -11.483  13.002  70.442  1.00  0.00     0.246 C  
HETATM    2  C   UNL     1     -11.432  11.533  69.989  1.00  0.00    -0.304 C  
HETATM    3  C   UNL     1     -11.949  10.626  71.077  1.00  0.00    -0.339 C  
HETATM    4  C   UNL     1     -13.330  10.931  71.582  1.00  0.00    -0.364 C  
HETATM    5  O   UNL     1     -11.313   9.654  71.481  1.00  0.00    -0.381 OA 
HETATM    6  C   UNL     1     -13.372  12.372  72.067  1.00  0.00    -0.511 C  
HETATM    7  C   UNL     1     -12.899  13.353  70.981  1.00  0.00    -0.329 C  
HETATM    8  C   UNL     1     -12.923  14.845  71.405  1.00  0.00    -0.354 C  
HETATM    9  C   UNL     1     -11.875  15.244  72.460  1.00  0.00    -0.532 C  
HETATM   10  C   UNL     1     -14.304  15.247  71.951  1.00  0.00    -0.691 C  
HETATM   11  O   UNL     1     -12.729  15.664  70.233  1.00  0.00    -0.385 OA 
HETATM   12  C   UNL     1     -11.772  15.261  69.337  1.00  0.00    -0.341 A  
HETATM   13  C   UNL     1     -11.503  16.202  68.331  1.00  0.00    -0.298 A  
HETATM   14  C   UNL     1     -10.535  15.969  67.345  1.00  0.00    -0.308 A  
HETATM   15  H   UNL     1      -9.515  12.058  69.160  1.00  0.00     0.000 HD 
HETATM   16  C   UNL     1      -9.823  14.764  67.431  1.00  0.00    -0.222 A  
HETATM   17  C   UNL     1     -10.096  13.824  68.432  1.00  0.00    -0.241 A  
HETATM   18  O   UNL     1      -9.330  12.696  68.481  1.00  0.00    -0.178 OA 
HETATM   19  C   UNL     1     -11.107  14.025  69.378  1.00  0.00    -0.246 A  
ENDROOT
BRANCH  14  20
HETATM   20  C   UNL     1     -10.235  16.967  66.211  1.00  0.00    -0.337 C  
HETATM   21  C   UNL     1     -11.053  16.705  64.924  1.00  0.00    -0.137 C  
HETATM   22  C   UNL     1     -10.619  18.389  66.690  1.00  0.00    -0.359 C  
BRANCH  20  23
HETATM   23  C   UNL     1      -8.713  16.969  65.857  1.00  0.00    -0.033 C  
BRANCH  23  24
HETATM   24  C   UNL     1      -7.887  18.048  66.566  1.00  0.00    -0.292 C  
BRANCH  24  25
HETATM   25  C   UNL     1      -6.396  17.934  66.240  1.00  0.00    -0.267 C  
BRANCH  25  26
HETATM   26  C   UNL     1      -5.585  18.904  67.101  1.00  0.00    -0.146 C  
BRANCH  26  27
HETATM   27  C   UNL     1      -6.208  19.103  68.480  1.00  0.00    -0.258 C  
HETATM   28  C   UNL     1      -6.059  20.544  68.942  1.00  0.00    -0.369 C  
ENDBRANCH  26  27
ENDBRANCH  25  26
ENDBRANCH  24  25
ENDBRANCH  23  24
ENDBRANCH  20  23
ENDBRANCH  14  20
TORSDOF 6
ENDMDL
MODEL       37
REMARK 921   NORMALIZED FREE ENERGY PREDICTED BY IDOCK:   -4.95 KCAL/MOL
REMARK 922        TOTAL FREE ENERGY PREDICTED BY IDOCK:   -8.70 KCAL/MOL
REMARK 923 INTER-LIGAND FREE ENERGY PREDICTED BY IDOCK:   -7.08 KCAL/MOL
REMARK 924 INTRA-LIGAND FREE ENERGY PREDICTED BY IDOCK:   -1.63 KCAL/MOL
REMARK 927      BINDING AFFINITY PREDICTED BY RF-SCORE:    0.00 PKD
ROOT
HETATM    1  C   UNL     1     -11.195  12.071  66.226  1.00  0.00    -0.394 C  
HETATM    2  C   UNL     1     -11.216  11.624  64.754  1.00  0.00    -0.300 C  
HETATM    3  C   UNL     1     -12.158  12.487  63.953  1.00  0.00    -0.498 C  
HETATM    4  C   UNL     1     -11.899  13.965  64.009  1.00  0.00    -0.372 C  
HETATM    5  O   UNL     1     -13.042  12.011  63.243  1.00  0.00    -0.701 OA 
HETATM    6  C   UNL     1     -11.917  14.416  65.462  1.00  0.00    -0.358 C  
HETATM    7  C   UNL     1     -10.937  13.601  66.323  1.00  0.00    -0.300 C  
HETATM    8  C   UNL     1     -10.897  14.013  67.818  1.00  0.00    -0.247 C  
HETATM    9  C   UNL     1     -12.160  13.668  68.628  1.00  0.00    -0.325 C  
HETATM   10  C   UNL     1     -10.647  15.524  67.973  1.00  0.00    -0.270 C  
HETATM   11  O   UNL     1      -9.763  13.378  68.444  1.00  0.00    -0.221 OA 
HETATM   12  C   UNL     1      -9.525  12.065  68.128  1.00  0.00    -0.200 A  
HETATM   13  C   UNL     1      -8.534  11.461  68.917  1.00  0.00    -0.028 A  
HETATM   14  C   UNL     1      -8.179  10.115  68.751  1.00  0.00    -0.113 A  
HETATM   15  H   UNL     1     -11.217   9.628  65.562  1.00  0.00     0.000 HD 
HETATM   16  C   UNL     1      -8.886   9.392  67.780  1.00  0.00    -0.124 A  
HETATM   17  C   UNL     1      -9.870   9.997  66.989  1.00  0.00    -0.189 A  
HETATM   18  O   UNL     1     -10.549   9.217  66.099  1.00  0.00    -0.028 OA 
HETATM   19  C   UNL     1     -10.180  11.356  67.108  1.00  0.00    -0.234 A  
ENDROOT
BRANCH  14  20
HETATM   20  C   UNL     1      -7.077   9.429  69.580  1.00  0.00    -0.062 C  
HETATM   21  C   UNL     1      -6.567   8.109  68.957  1.00  0.00    -0.048 C  
HETATM   22  C   UNL     1      -5.854  10.377  69.657  1.00  0.00    -0.045 C  
BRANCH  20  23
HETATM   23  C   UNL     1      -7.566   9.151  71.038  1.00  0.00    -0.124 C  
BRANCH  23  24
HETATM   24  C   UNL     1      -8.737   8.168  71.148  1.00  0.00    -0.161 C  
BRANCH  24  25
HETATM   25  C   UNL     1      -9.967   8.814  71.790  1.00  0.00    -0.396 C  
BRANCH  25  26
HETATM   26  C   UNL     1     -11.080   8.991  70.755  1.00  0.00    -0.328 C  
BRANCH  26  27
HETATM   27  C   UNL     1     -11.648  10.408  70.763  1.00  0.00    -0.450 C  
HETATM   28  C   UNL     1     -12.975  10.458  71.504  1.00  0.00    -0.562 C  
ENDBRANCH  26  27
ENDBRANCH  25  26
ENDBRANCH  24  25
ENDBRANCH  23  24
ENDBRANCH  20  23
ENDBRANCH  14  20
TORSDOF 6
ENDMDL
MODEL       38
REMARK 921   NORMALIZED FREE ENERGY PREDICTED BY IDOCK:   -4.95 KCAL/MOL
REMARK 922        TOTAL FREE ENERGY PREDICTED BY IDOCK:   -8.70 KCAL/MOL
REMARK 923 INTER-LIGAND FREE ENERGY PREDICTED BY IDOCK:   -6.99 KCAL/MOL
REMARK 924 INTRA-LIGAND FREE ENERGY PREDICTED BY IDOCK:   -1.70 KCAL/MOL
REMARK 927      BINDING AFFINITY PREDICTED BY RF-SCORE:    0.00 PKD
ROOT
HETATM    1  C   UNL     1      -9.489  13.490  66.763  1.00  0.00    -0.272 C  
HETATM    2  C   UNL     1      -8.679  14.618  67.424  1.00  0.00    -0.209 C  
HETATM    3  C   UNL     1      -8.575  15.806  66.501  1.00  0.00    -0.308 C  
HETATM    4  C   UNL     1      -9.879  16.368  66.009  1.00  0.00    -0.362 C  
HETATM    5  O   UNL     1      -7.498  16.329  66.220  1.00  0.00    -0.136 OA 
HETATM    6  C   UNL     1     -10.665  15.264  65.320  1.00  0.00    -0.433 C  
HETATM    7  C   UNL     1     -10.845  14.038  66.232  1.00  0.00    -0.291 C  
HETATM    8  C   UNL     1     -11.646  12.872  65.596  1.00  0.00    -0.361 C  
HETATM    9  C   UNL     1     -10.928  12.129  64.454  1.00  0.00    -0.375 C  
HETATM   10  C   UNL     1     -13.000  13.360  65.049  1.00  0.00    -0.220 C  
HETATM   11  O   UNL     1     -11.978  11.919  66.627  1.00  0.00    -0.601 OA 
HETATM   12  C   UNL     1     -10.998  11.611  67.535  1.00  0.00    -0.259 A  
HETATM   13  C   UNL     1     -11.324  10.540  68.382  1.00  0.00    -0.328 A  
HETATM   14  C   UNL     1     -10.431  10.071  69.353  1.00  0.00    -0.252 A  
HETATM   15  H   UNL     1      -7.385  13.032  68.093  1.00  0.00     0.000 HD 
HETATM   16  C   UNL     1      -9.180  10.702  69.417  1.00  0.00    -0.073 A  
HETATM   17  C   UNL     1      -8.857  11.773  68.577  1.00  0.00    -0.122 A  
HETATM   18  O   UNL     1      -7.604  12.305  68.664  1.00  0.00    -0.117 OA 
HETATM   19  C   UNL     1      -9.772  12.286  67.650  1.00  0.00    -0.194 A  
ENDROOT
BRANCH  14  20
HETATM   20  C   UNL     1     -10.767   8.918  70.317  1.00  0.00    -0.248 C  
HETATM   21  C   UNL     1      -9.576   8.484  71.203  1.00  0.00    -0.248 C  
HETATM   22  C   UNL     1     -11.881   9.391  71.284  1.00  0.00    -0.435 C  
BRANCH  20  23
HETATM   23  C   UNL     1     -11.302   7.674  69.535  1.00  0.00     0.173 C  
BRANCH  23  24
HETATM   24  C   UNL     1     -10.307   6.514  69.411  1.00  0.00    -0.241 C  
BRANCH  24  25
HETATM   25  C   UNL     1     -10.217   5.990  67.976  1.00  0.00    -0.218 C  
BRANCH  25  26
HETATM   26  C   UNL     1     -10.417   7.130  66.976  1.00  0.00    -0.392 C  
BRANCH  26  27
HETATM   27  C   UNL     1      -9.118   7.506  66.270  1.00  0.00    -0.198 C  
HETATM   28  C   UNL     1      -9.140   8.961  65.826  1.00  0.00    -0.276 C  
ENDBRANCH  26  27
ENDBRANCH  25  26
ENDBRANCH  24  25
ENDBRANCH  23  24
ENDBRANCH  20  23
ENDBRANCH  14  20
TORSDOF 6
ENDMDL
MODEL       39
REMARK 921   NORMALIZED FREE ENERGY PREDICTED BY IDOCK:   -4.95 KCAL/MOL
REMARK 922        TOTAL FREE ENERGY PREDICTED BY IDOCK:   -8.70 KCAL/MOL
REMARK 923 INTER-LIGAND FREE ENERGY PREDICTED BY IDOCK:   -6.97 KCAL/MOL
REMARK 924 INTRA-LIGAND FREE ENERGY PREDICTED BY IDOCK:   -1.72 KCAL/MOL
REMARK 927      BINDING AFFINITY PREDICTED BY RF-SCORE:    0.00 PKD
ROOT
HETATM    1  C   UNL     1      -9.289  13.493  66.715  1.00  0.00    -0.262 C  
HETATM    2  C   UNL     1     -10.817  13.585  66.562  1.00  0.00    -0.283 C  
HETATM    3  C   UNL     1     -11.446  12.222  66.710  1.00  0.00    -0.361 C  
HETATM    4  C   UNL     1     -11.128  11.489  67.981  1.00  0.00    -0.313 C  
HETATM    5  O   UNL     1     -12.226  11.764  65.877  1.00  0.00    -0.308 OA 
HETATM    6  C   UNL     1      -9.618  11.362  68.115  1.00  0.00    -0.190 C  
HETATM    7  C   UNL     1      -8.921  12.730  68.019  1.00  0.00    -0.196 C  
HETATM    8  C   UNL     1      -7.376  12.678  68.155  1.00  0.00    -0.112 C  
HETATM    9  C   UNL     1      -6.635  12.028  66.972  1.00  0.00    -0.108 C  
HETATM   10  C   UNL     1      -6.954  11.929  69.432  1.00  0.00    -0.001 C  
HETATM   11  O   UNL     1      -6.879  14.021  68.325  1.00  0.00    -0.086 OA 
HETATM   12  C   UNL     1      -7.426  14.998  67.534  1.00  0.00    -0.201 A  
HETATM   13  C   UNL     1      -6.762  16.232  67.613  1.00  0.00    -0.169 A  
HETATM   14  C   UNL     1      -7.168  17.337  66.853  1.00  0.00    -0.235 A  
HETATM   15  H   UNL     1     -10.378  14.946  64.952  1.00  0.00     0.000 HD 
HETATM   16  C   UNL     1      -8.250  17.140  65.982  1.00  0.00    -0.183 A  
HETATM   17  C   UNL     1      -8.915  15.911  65.908  1.00  0.00    -0.216 A  
HETATM   18  O   UNL     1      -9.927  15.781  65.002  1.00  0.00    -0.386 OA 
HETATM   19  C   UNL     1      -8.553  14.825  66.714  1.00  0.00    -0.226 A  
ENDROOT
BRANCH  14  20
HETATM   20  C   UNL     1      -6.481  18.712  66.937  1.00  0.00    -0.203 C  
HETATM   21  C   UNL     1      -6.100  19.126  68.378  1.00  0.00    -0.239 C  
HETATM   22  C   UNL     1      -5.156  18.652  66.136  1.00  0.00    -0.168 C  
BRANCH  20  23
HETATM   23  C   UNL     1      -7.378  19.825  66.306  1.00  0.00    -0.293 C  
BRANCH  23  24
HETATM   24  C   UNL     1      -8.419  20.429  67.255  1.00  0.00    -0.405 C  
BRANCH  24  25
HETATM   25  C   UNL     1      -9.833  20.357  66.674  1.00  0.00    -0.496 C  
BRANCH  25  26
HETATM   26  C   UNL     1     -10.749  19.548  67.595  1.00  0.00    -0.527 C  
BRANCH  26  27
HETATM   27  C   UNL     1      -9.978  18.901  68.742  1.00  0.00    -0.466 C  
HETATM   28  C   UNL     1     -10.356  17.435  68.894  1.00  0.00    -0.340 C  
ENDBRANCH  26  27
ENDBRANCH  25  26
ENDBRANCH  24  25
ENDBRANCH  23  24
ENDBRANCH  20  23
ENDBRANCH  14  20
TORSDOF 6
ENDMDL
MODEL       40
REMARK 921   NORMALIZED FREE ENERGY PREDICTED BY IDOCK:   -4.94 KCAL/MOL
REMARK 922        TOTAL FREE ENERGY PREDICTED BY IDOCK:   -8.68 KCAL/MOL
REMARK 923 INTER-LIGAND FREE ENERGY PREDICTED BY IDOCK:   -7.59 KCAL/MOL
REMARK 924 INTRA-LIGAND FREE ENERGY PREDICTED BY IDOCK:   -1.09 KCAL/MOL
REMARK 927      BINDING AFFINITY PREDICTED BY RF-SCORE:    0.00 PKD
ROOT
HETATM    1  C   UNL     1     -11.639  13.310  70.382  1.00  0.00    -0.018 C  
HETATM    2  C   UNL     1     -12.875  12.880  71.192  1.00  0.00    -0.326 C  
HETATM    3  C   UNL     1     -13.429  14.047  71.969  1.00  0.00    -0.439 C  
HETATM    4  C   UNL     1     -13.775  15.265  71.163  1.00  0.00    -0.519 C  
HETATM    5  O   UNL     1     -13.649  13.987  73.178  1.00  0.00    -0.551 OA 
HETATM    6  C   UNL     1     -12.544  15.715  70.392  1.00  0.00    -0.376 C  
HETATM    7  C   UNL     1     -11.958  14.577  69.539  1.00  0.00    -0.363 C  
HETATM    8  C   UNL     1     -10.702  14.967  68.717  1.00  0.00    -0.252 C  
HETATM    9  C   UNL     1      -9.431  15.227  69.546  1.00  0.00    -0.204 C  
HETATM   10  C   UNL     1     -10.962  16.221  67.864  1.00  0.00    -0.310 C  
HETATM   11  O   UNL     1     -10.424  13.917  67.768  1.00  0.00    -0.238 OA 
HETATM   12  C   UNL     1     -10.530  12.624  68.212  1.00  0.00    -0.239 A  
HETATM   13  C   UNL     1     -10.057  11.668  67.300  1.00  0.00    -0.221 A  
HETATM   14  C   UNL     1     -10.065  10.299  67.597  1.00  0.00    -0.229 A  
HETATM   15  H   UNL     1     -11.734  11.105  71.622  1.00  0.00     0.000 HD 
HETATM   16  C   UNL     1     -10.537   9.932  68.866  1.00  0.00    -0.239 A  
HETATM   17  C   UNL     1     -11.013  10.885  69.773  1.00  0.00    -0.226 A  
HETATM   18  O   UNL     1     -11.411  10.458  71.006  1.00  0.00    -0.306 OA 
HETATM   19  C   UNL     1     -11.068  12.247  69.453  1.00  0.00    -0.166 A  
ENDROOT
BRANCH  14  20
HETATM   20  C   UNL     1      -9.580   9.223  66.609  1.00  0.00    -0.263 C  
HETATM   21  C   UNL     1      -9.589   9.689  65.134  1.00  0.00    -0.324 C  
HETATM   22  C   UNL     1      -8.111   8.867  66.946  1.00  0.00    -0.109 C  
BRANCH  20  23
HETATM   23  C   UNL     1     -10.435   7.921  66.738  1.00  0.00    -0.317 C  
BRANCH  23  24
HETATM   24  C   UNL     1      -9.627   6.638  66.961  1.00  0.00    -0.183 C  
BRANCH  24  25
HETATM   25  C   UNL     1      -9.996   5.951  68.278  1.00  0.00    -0.177 C  
BRANCH  25  26
HETATM   26  C   UNL     1     -11.367   6.426  68.763  1.00  0.00    -0.252 C  
BRANCH  26  27
HETATM   27  C   UNL     1     -11.475   6.400  70.284  1.00  0.00    -0.468 C  
HETATM   28  C   UNL     1     -10.259   5.731  70.905  1.00  0.00    -0.275 C  
ENDBRANCH  26  27
ENDBRANCH  25  26
ENDBRANCH  24  25
ENDBRANCH  23  24
ENDBRANCH  20  23
ENDBRANCH  14  20
TORSDOF 6
ENDMDL
MODEL       41
REMARK 921   NORMALIZED FREE ENERGY PREDICTED BY IDOCK:   -4.93 KCAL/MOL
REMARK 922        TOTAL FREE ENERGY PREDICTED BY IDOCK:   -8.67 KCAL/MOL
REMARK 923 INTER-LIGAND FREE ENERGY PREDICTED BY IDOCK:   -6.87 KCAL/MOL
REMARK 924 INTRA-LIGAND FREE ENERGY PREDICTED BY IDOCK:   -1.80 KCAL/MOL
REMARK 927      BINDING AFFINITY PREDICTED BY RF-SCORE:    0.00 PKD
ROOT
HETATM    1  C   UNL     1     -11.073  14.108  66.215  1.00  0.00    -0.318 C  
HETATM    2  C   UNL     1     -10.779  14.645  64.803  1.00  0.00    -0.399 C  
HETATM    3  C   UNL     1     -11.054  16.126  64.734  1.00  0.00    -0.333 C  
HETATM    4  C   UNL     1     -10.329  16.974  65.738  1.00  0.00    -0.275 C  
HETATM    5  O   UNL     1     -11.773  16.621  63.867  1.00  0.00    -1.153 OA 
HETATM    6  C   UNL     1     -10.650  16.469  67.136  1.00  0.00    -0.270 C  
HETATM    7  C   UNL     1     -10.344  14.969  67.284  1.00  0.00    -0.249 C  
HETATM    8  C   UNL     1     -10.641  14.386  68.691  1.00  0.00    -0.252 C  
HETATM    9  C   UNL     1     -12.132  14.291  69.060  1.00  0.00    -0.320 C  
HETATM   10  C   UNL     1      -9.944  15.205  69.792  1.00  0.00    -0.149 C  
HETATM   11  O   UNL     1     -10.062  13.067  68.778  1.00  0.00    -0.175 OA 
HETATM   12  C   UNL     1     -10.209  12.244  67.692  1.00  0.00    -0.203 A  
HETATM   13  C   UNL     1      -9.797  10.922  67.922  1.00  0.00    -0.189 A  
HETATM   14  C   UNL     1      -9.900   9.936  66.931  1.00  0.00    -0.252 A  
HETATM   15  H   UNL     1     -11.733  12.837  64.127  1.00  0.00     0.000 HD 
HETATM   16  C   UNL     1     -10.466  10.327  65.709  1.00  0.00    -0.159 A  
HETATM   17  C   UNL     1     -10.871  11.647  65.479  1.00  0.00    -0.279 A  
HETATM   18  O   UNL     1     -11.458  11.941  64.283  1.00  0.00    -0.350 OA 
HETATM   19  C   UNL     1     -10.709  12.648  66.444  1.00  0.00    -0.278 A  
ENDROOT
BRANCH  14  20
HETATM   20  C   UNL     1      -9.431   8.484  67.140  1.00  0.00    -0.208 C  
HETATM   21  C   UNL     1      -8.874   8.211  68.556  1.00  0.00    -0.134 C  
HETATM   22  C   UNL     1     -10.648   7.542  66.960  1.00  0.00    -0.409 C  
BRANCH  20  23
HETATM   23  C   UNL     1      -8.352   8.088  66.081  1.00  0.00    -0.125 C  
BRANCH  23  24
HETATM   24  C   UNL     1      -6.922   8.519  66.426  1.00  0.00    -0.078 C  
BRANCH  24  25
HETATM   25  C   UNL     1      -6.434   9.655  65.524  1.00  0.00    -0.078 C  
BRANCH  25  26
HETATM   26  C   UNL     1      -6.339  10.962  66.314  1.00  0.00    -0.132 C  
BRANCH  26  27
HETATM   27  C   UNL     1      -6.155  10.714  67.808  1.00  0.00    -0.047 C  
HETATM   28  C   UNL     1      -6.341  11.999  68.601  1.00  0.00    -0.059 C  
ENDBRANCH  26  27
ENDBRANCH  25  26
ENDBRANCH  24  25
ENDBRANCH  23  24
ENDBRANCH  20  23
ENDBRANCH  14  20
TORSDOF 6
ENDMDL
MODEL       42
REMARK 921   NORMALIZED FREE ENERGY PREDICTED BY IDOCK:   -4.84 KCAL/MOL
REMARK 922        TOTAL FREE ENERGY PREDICTED BY IDOCK:   -8.55 KCAL/MOL
REMARK 923 INTER-LIGAND FREE ENERGY PREDICTED BY IDOCK:   -7.62 KCAL/MOL
REMARK 924 INTRA-LIGAND FREE ENERGY PREDICTED BY IDOCK:   -0.93 KCAL/MOL
REMARK 927      BINDING AFFINITY PREDICTED BY RF-SCORE:    0.00 PKD
ROOT
HETATM    1  C   UNL     1      -9.646  13.618  66.333  1.00  0.00    -0.280 C  
HETATM    2  C   UNL     1      -9.159  14.890  67.050  1.00  0.00    -0.255 C  
HETATM    3  C   UNL     1      -9.261  16.084  66.135  1.00  0.00    -0.352 C  
HETATM    4  C   UNL     1     -10.619  16.345  65.550  1.00  0.00    -0.346 C  
HETATM    5  O   UNL     1      -8.313  16.840  65.932  1.00  0.00    -0.463 OA 
HETATM    6  C   UNL     1     -11.085  15.103  64.807  1.00  0.00    -0.395 C  
HETATM    7  C   UNL     1     -11.049  13.855  65.705  1.00  0.00    -0.294 C  
HETATM    8  C   UNL     1     -11.519  12.548  65.014  1.00  0.00    -0.326 C  
HETATM    9  C   UNL     1     -10.574  12.003  63.928  1.00  0.00    -0.447 C  
HETATM   10  C   UNL     1     -12.906  12.727  64.370  1.00  0.00    -0.288 C  
HETATM   11  O   UNL     1     -11.700  11.530  66.020  1.00  0.00    -0.312 OA 
HETATM   12  C   UNL     1     -10.742  11.436  66.997  1.00  0.00    -0.261 A  
HETATM   13  C   UNL     1     -10.878  10.306  67.819  1.00  0.00    -0.346 A  
HETATM   14  C   UNL     1      -9.973  10.036  68.853  1.00  0.00    -0.198 A  
HETATM   15  H   UNL     1      -7.592  13.625  67.812  1.00  0.00     0.000 HD 
HETATM   16  C   UNL     1      -8.904  10.931  69.007  1.00  0.00    -0.105 A  
HETATM   17  C   UNL     1      -8.773  12.060  68.190  1.00  0.00    -0.177 A  
HETATM   18  O   UNL     1      -7.681  12.859  68.367  1.00  0.00    -0.126 OA 
HETATM   19  C   UNL     1      -9.712  12.368  67.199  1.00  0.00    -0.207 A  
ENDROOT
BRANCH  14  20
HETATM   20  C   UNL     1     -10.109   8.822  69.791  1.00  0.00    -0.198 C  
HETATM   21  C   UNL     1      -9.076   8.812  70.943  1.00  0.00    -0.256 C  
HETATM   22  C   UNL     1     -11.506   8.866  70.458  1.00  0.00    -0.231 C  
BRANCH  20  23
HETATM   23  C   UNL     1      -9.996   7.483  68.993  1.00  0.00    -0.175 C  
BRANCH  23  24
HETATM   24  C   UNL     1     -10.788   6.311  69.584  1.00  0.00    -0.403 C  
BRANCH  24  25
HETATM   25  C   UNL     1      -9.943   5.038  69.674  1.00  0.00    -0.311 C  
BRANCH  25  26
HETATM   26  C   UNL     1     -10.024   4.441  71.080  1.00  0.00    -0.243 C  
BRANCH  26  27
HETATM   27  C   UNL     1     -10.148   5.520  72.153  1.00  0.00    -0.231 C  
HETATM   28  C   UNL     1     -11.151   5.113  73.221  1.00  0.00    -0.392 C  
ENDBRANCH  26  27
ENDBRANCH  25  26
ENDBRANCH  24  25
ENDBRANCH  23  24
ENDBRANCH  20  23
ENDBRANCH  14  20
TORSDOF 6
ENDMDL
MODEL       43
REMARK 921   NORMALIZED FREE ENERGY PREDICTED BY IDOCK:   -4.80 KCAL/MOL
REMARK 922        TOTAL FREE ENERGY PREDICTED BY IDOCK:   -8.50 KCAL/MOL
REMARK 923 INTER-LIGAND FREE ENERGY PREDICTED BY IDOCK:   -7.61 KCAL/MOL
REMARK 924 INTRA-LIGAND FREE ENERGY PREDICTED BY IDOCK:   -0.89 KCAL/MOL
REMARK 927      BINDING AFFINITY PREDICTED BY RF-SCORE:    0.00 PKD
ROOT
HETATM    1  C   UNL     1      -9.357  16.957  68.198  1.00  0.00    -0.240 C  
HETATM    2  C   UNL     1     -10.440  17.859  67.582  1.00  0.00    -0.406 C  
HETATM    3  C   UNL     1      -9.910  19.254  67.371  1.00  0.00    -0.336 C  
HETATM    4  C   UNL     1      -8.661  19.361  66.544  1.00  0.00    -0.363 C  
HETATM    5  O   UNL     1     -10.497  20.251  67.789  1.00  0.00    -0.308 OA 
HETATM    6  C   UNL     1      -7.576  18.502  67.174  1.00  0.00    -0.230 C  
HETATM    7  C   UNL     1      -8.043  17.049  67.372  1.00  0.00    -0.193 C  
HETATM    8  C   UNL     1      -6.981  16.111  68.004  1.00  0.00    -0.128 C  
HETATM    9  C   UNL     1      -6.660  16.388  69.484  1.00  0.00    -0.210 C  
HETATM   10  C   UNL     1      -5.655  16.166  67.225  1.00  0.00    -0.087 C  
HETATM   11  O   UNL     1      -7.435  14.747  67.880  1.00  0.00    -0.116 OA 
HETATM   12  C   UNL     1      -8.757  14.499  68.144  1.00  0.00    -0.171 A  
HETATM   13  C   UNL     1      -9.080  13.134  68.196  1.00  0.00    -0.200 A  
HETATM   14  C   UNL     1     -10.380  12.695  68.480  1.00  0.00    -0.232 A  
HETATM   15  H   UNL     1     -11.768  16.875  68.962  1.00  0.00     0.000 HD 
HETATM   16  C   UNL     1     -11.337  13.686  68.743  1.00  0.00    -0.326 A  
HETATM   17  C   UNL     1     -11.015  15.047  68.685  1.00  0.00    -0.257 A  
HETATM   18  O   UNL     1     -11.987  15.951  69.001  1.00  0.00    -0.378 OA 
HETATM   19  C   UNL     1      -9.734  15.489  68.338  1.00  0.00    -0.203 A  
ENDROOT
BRANCH  14  20
HETATM   20  C   UNL     1     -10.774  11.207  68.516  1.00  0.00    -0.235 C  
HETATM   21  C   UNL     1     -10.908  10.568  67.114  1.00  0.00    -0.319 C  
HETATM   22  C   UNL     1      -9.661  10.418  69.251  1.00  0.00    -0.226 C  
BRANCH  20  23
HETATM   23  C   UNL     1     -12.110  11.002  69.301  1.00  0.00    -0.363 C  
BRANCH  23  24
HETATM   24  C   UNL     1     -11.945  10.764  70.806  1.00  0.00    -0.464 C  
BRANCH  24  25
HETATM   25  C   UNL     1     -13.030   9.839  71.361  1.00  0.00    -0.490 C  
BRANCH  25  26
HETATM   26  C   UNL     1     -12.420   8.813  72.318  1.00  0.00    -0.455 C  
BRANCH  26  27
HETATM   27  C   UNL     1     -11.278   8.036  71.671  1.00  0.00    -0.301 C  
HETATM   28  C   UNL     1     -10.011   8.133  72.506  1.00  0.00    -0.372 C  
ENDBRANCH  26  27
ENDBRANCH  25  26
ENDBRANCH  24  25
ENDBRANCH  23  24
ENDBRANCH  20  23
ENDBRANCH  14  20
TORSDOF 6
ENDMDL
MODEL       44
REMARK 921   NORMALIZED FREE ENERGY PREDICTED BY IDOCK:   -4.80 KCAL/MOL
REMARK 922        TOTAL FREE ENERGY PREDICTED BY IDOCK:   -8.50 KCAL/MOL
REMARK 923 INTER-LIGAND FREE ENERGY PREDICTED BY IDOCK:   -7.28 KCAL/MOL
REMARK 924 INTRA-LIGAND FREE ENERGY PREDICTED BY IDOCK:   -1.22 KCAL/MOL
REMARK 927      BINDING AFFINITY PREDICTED BY RF-SCORE:    0.00 PKD
ROOT
HETATM    1  C   UNL     1      -9.835  17.044  66.908  1.00  0.00    -0.273 C  
HETATM    2  C   UNL     1      -9.537  18.220  65.961  1.00  0.00    -0.068 C  
HETATM    3  C   UNL     1      -9.148  19.446  66.748  1.00  0.00    -0.334 C  
HETATM    4  C   UNL     1      -7.994  19.278  67.693  1.00  0.00    -0.311 C  
HETATM    5  O   UNL     1      -9.694  20.536  66.580  1.00  0.00    -0.354 OA 
HETATM    6  C   UNL     1      -8.303  18.142  68.655  1.00  0.00    -0.289 C  
HETATM    7  C   UNL     1      -8.662  16.845  67.909  1.00  0.00    -0.213 C  
HETATM    8  C   UNL     1      -8.983  15.639  68.830  1.00  0.00    -0.221 C  
HETATM    9  C   UNL     1     -10.300  15.749  69.621  1.00  0.00    -0.290 C  
HETATM   10  C   UNL     1      -7.853  15.399  69.847  1.00  0.00     0.072 C  
HETATM   11  O   UNL     1      -9.028  14.441  68.027  1.00  0.00    -0.170 OA 
HETATM   12  C   UNL     1      -9.669  14.520  66.818  1.00  0.00    -0.260 A  
HETATM   13  C   UNL     1      -9.845  13.279  66.186  1.00  0.00    -0.286 A  
HETATM   14  C   UNL     1     -10.503  13.167  64.954  1.00  0.00    -0.369 A  
HETATM   15  H   UNL     1     -11.266  17.532  64.877  1.00  0.00     0.000 HD 
HETATM   16  C   UNL     1     -11.008  14.352  64.398  1.00  0.00    -0.169 A  
HETATM   17  C   UNL     1     -10.827  15.589  65.027  1.00  0.00    -0.450 A  
HETATM   18  O   UNL     1     -11.389  16.692  64.450  1.00  0.00    -1.023 OA 
HETATM   19  C   UNL     1     -10.113  15.713  66.224  1.00  0.00    -0.316 A  
ENDROOT
BRANCH  14  20
HETATM   20  C   UNL     1     -10.688  11.827  64.220  1.00  0.00    -0.395 C  
HETATM   21  C   UNL     1     -10.757  10.606  65.168  1.00  0.00    -0.088 C  
HETATM   22  C   UNL     1     -12.035  11.863  63.456  1.00  0.00    -0.567 C  
BRANCH  20  23
HETATM   23  C   UNL     1      -9.546  11.598  63.177  1.00  0.00    -0.348 C  
BRANCH  23  24
HETATM   24  C   UNL     1      -9.495  10.189  62.575  1.00  0.00    -0.269 C  
BRANCH  24  25
HETATM   25  C   UNL     1      -8.127   9.532  62.772  1.00  0.00    -0.137 C  
BRANCH  25  26
HETATM   26  C   UNL     1      -7.226  10.421  63.633  1.00  0.00    -0.002 C  
BRANCH  26  27
HETATM   27  C   UNL     1      -7.158   9.936  65.078  1.00  0.00    -0.131 C  
HETATM   28  C   UNL     1      -6.871  11.091  66.026  1.00  0.00    -0.017 C  
ENDBRANCH  26  27
ENDBRANCH  25  26
ENDBRANCH  24  25
ENDBRANCH  23  24
ENDBRANCH  20  23
ENDBRANCH  14  20
TORSDOF 6
ENDMDL
MODEL       45
REMARK 921   NORMALIZED FREE ENERGY PREDICTED BY IDOCK:   -4.80 KCAL/MOL
REMARK 922        TOTAL FREE ENERGY PREDICTED BY IDOCK:   -8.50 KCAL/MOL
REMARK 923 INTER-LIGAND FREE ENERGY PREDICTED BY IDOCK:   -7.16 KCAL/MOL
REMARK 924 INTRA-LIGAND FREE ENERGY PREDICTED BY IDOCK:   -1.34 KCAL/MOL
REMARK 927      BINDING AFFINITY PREDICTED BY RF-SCORE:    0.00 PKD
ROOT
HETATM    1  C   UNL     1     -11.786  13.064  70.336  1.00  0.00    -0.245 C  
HETATM    2  C   UNL     1     -13.022  12.743  71.195  1.00  0.00    -0.244 C  
HETATM    3  C   UNL     1     -13.563  13.998  71.832  1.00  0.00    -0.435 C  
HETATM    4  C   UNL     1     -13.904  15.116  70.889  1.00  0.00    -0.312 C  
HETATM    5  O   UNL     1     -13.780  14.082  73.040  1.00  0.00    -0.612 OA 
HETATM    6  C   UNL     1     -12.673  15.462  70.066  1.00  0.00    -0.189 C  
HETATM    7  C   UNL     1     -12.100  14.226  69.351  1.00  0.00    -0.361 C  
HETATM    8  C   UNL     1     -10.844  14.507  68.485  1.00  0.00    -0.249 C  
HETATM    9  C   UNL     1      -9.567  14.853  69.273  1.00  0.00    -0.131 C  
HETATM   10  C   UNL     1     -11.097  15.654  67.491  1.00  0.00    -0.289 C  
HETATM   11  O   UNL     1     -10.577  13.350  67.665  1.00  0.00    -0.239 OA 
HETATM   12  C   UNL     1     -10.692  12.120  68.259  1.00  0.00    -0.223 A  
HETATM   13  C   UNL     1     -10.230  11.060  67.463  1.00  0.00    -0.219 A  
HETATM   14  C   UNL     1     -10.246   9.735  67.920  1.00  0.00    -0.237 A  
HETATM   15  H   UNL     1     -11.893  11.022  71.827  1.00  0.00     0.000 HD 
HETATM   16  C   UNL     1     -10.716   9.524  69.225  1.00  0.00    -0.240 A  
HETATM   17  C   UNL     1     -11.181  10.581  70.015  1.00  0.00    -0.315 A  
HETATM   18  O   UNL     1     -11.577  10.304  71.291  1.00  0.00    -0.344 OA 
HETATM   19  C   UNL     1     -11.227  11.896  69.537  1.00  0.00    -0.237 A  
ENDROOT
BRANCH  14  20
HETATM   20  C   UNL     1      -9.774   8.546  67.063  1.00  0.00    -0.266 C  
HETATM   21  C   UNL     1     -10.785   7.376  67.019  1.00  0.00    -0.389 C  
HETATM   22  C   UNL     1      -9.600   9.028  65.601  1.00  0.00    -0.237 C  
BRANCH  20  23
HETATM   23  C   UNL     1      -8.394   8.010  67.563  1.00  0.00    -0.123 C  
BRANCH  23  24
HETATM   24  C   UNL     1      -8.330   6.493  67.775  1.00  0.00    -0.119 C  
BRANCH  24  25
HETATM   25  C   UNL     1      -7.757   6.131  69.147  1.00  0.00    -0.100 C  
BRANCH  25  26
HETATM   26  C   UNL     1      -8.738   6.517  70.255  1.00  0.00    -0.151 C  
BRANCH  26  27
HETATM   27  C   UNL     1      -9.956   5.599  70.286  1.00  0.00    -0.269 C  
HETATM   28  C   UNL     1     -11.182   6.338  70.803  1.00  0.00    -0.387 C  
ENDBRANCH  26  27
ENDBRANCH  25  26
ENDBRANCH  24  25
ENDBRANCH  23  24
ENDBRANCH  20  23
ENDBRANCH  14  20
TORSDOF 6
ENDMDL
MODEL       46
REMARK 921   NORMALIZED FREE ENERGY PREDICTED BY IDOCK:   -4.78 KCAL/MOL
REMARK 922        TOTAL FREE ENERGY PREDICTED BY IDOCK:   -8.47 KCAL/MOL
REMARK 923 INTER-LIGAND FREE ENERGY PREDICTED BY IDOCK:   -7.12 KCAL/MOL
REMARK 924 INTRA-LIGAND FREE ENERGY PREDICTED BY IDOCK:   -1.35 KCAL/MOL
REMARK 927      BINDING AFFINITY PREDICTED BY RF-SCORE:    0.00 PKD
ROOT
HETATM    1  C   UNL     1      -7.975  17.819  66.979  1.00  0.00    -0.238 C  
HETATM    2  C   UNL     1      -7.903  19.099  66.129  1.00  0.00    -0.298 C  
HETATM    3  C   UNL     1      -6.910  20.069  66.718  1.00  0.00    -0.216 C  
HETATM    4  C   UNL     1      -5.519  19.539  66.918  1.00  0.00    -0.163 C  
HETATM    5  O   UNL     1      -7.196  21.241  66.957  1.00  0.00    -0.423 OA 
HETATM    6  C   UNL     1      -5.584  18.296  67.791  1.00  0.00    -0.155 C  
HETATM    7  C   UNL     1      -6.549  17.246  67.215  1.00  0.00    -0.188 C  
HETATM    8  C   UNL     1      -6.660  15.944  68.052  1.00  0.00    -0.131 C  
HETATM    9  C   UNL     1      -7.367  16.096  69.411  1.00  0.00    -0.196 C  
HETATM   10  C   UNL     1      -5.272  15.333  68.319  1.00  0.00    -0.111 C  
HETATM   11  O   UNL     1      -7.365  14.952  67.276  1.00  0.00    -0.199 OA 
HETATM   12  C   UNL     1      -8.469  15.369  66.579  1.00  0.00    -0.213 A  
HETATM   13  C   UNL     1      -9.212  14.322  66.012  1.00  0.00    -0.039 A  
HETATM   14  C   UNL     1     -10.387  14.561  65.287  1.00  0.00    -0.435 A  
HETATM   15  H   UNL     1     -10.046  18.917  66.024  1.00  0.00     0.000 HD 
HETATM   16  C   UNL     1     -10.803  15.896  65.183  1.00  0.00    -0.438 A  
HETATM   17  C   UNL     1     -10.058  16.940  65.743  1.00  0.00    -0.229 A  
HETATM   18  O   UNL     1     -10.552  18.208  65.643  1.00  0.00    -0.611 OA 
HETATM   19  C   UNL     1      -8.851  16.710  66.412  1.00  0.00    -0.337 A  
ENDROOT
BRANCH  14  20
HETATM   20  C   UNL     1     -11.209  13.439  64.628  1.00  0.00    -0.377 C  
HETATM   21  C   UNL     1     -11.967  12.549  65.642  1.00  0.00    -0.492 C  
HETATM   22  C   UNL     1     -12.288  14.083  63.722  1.00  0.00    -0.195 C  
BRANCH  20  23
HETATM   23  C   UNL     1     -10.303  12.533  63.732  1.00  0.00    -0.418 C  
BRANCH  23  24
HETATM   24  C   UNL     1     -10.679  11.047  63.730  1.00  0.00    -0.294 C  
BRANCH  24  25
HETATM   25  C   UNL     1      -9.498  10.157  64.124  1.00  0.00    -0.353 C  
BRANCH  25  26
HETATM   26  C   UNL     1      -8.610  10.869  65.147  1.00  0.00    -0.081 C  
BRANCH  26  27
HETATM   27  C   UNL     1      -8.966  10.483  66.579  1.00  0.00    -0.171 C  
HETATM   28  C   UNL     1      -8.041  11.167  67.574  1.00  0.00    -0.119 C  
ENDBRANCH  26  27
ENDBRANCH  25  26
ENDBRANCH  24  25
ENDBRANCH  23  24
ENDBRANCH  20  23
ENDBRANCH  14  20
TORSDOF 6
ENDMDL
MODEL       47
REMARK 921   NORMALIZED FREE ENERGY PREDICTED BY IDOCK:   -4.76 KCAL/MOL
REMARK 922        TOTAL FREE ENERGY PREDICTED BY IDOCK:   -8.45 KCAL/MOL
REMARK 923 INTER-LIGAND FREE ENERGY PREDICTED BY IDOCK:   -6.95 KCAL/MOL
REMARK 924 INTRA-LIGAND FREE ENERGY PREDICTED BY IDOCK:   -1.50 KCAL/MOL
REMARK 927      BINDING AFFINITY PREDICTED BY RF-SCORE:    0.00 PKD
ROOT
HETATM    1  C   UNL     1     -10.253   9.962  70.708  1.00  0.00    -0.130 C  
HETATM    2  C   UNL     1      -8.975   9.105  70.707  1.00  0.00    -0.296 C  
HETATM    3  C   UNL     1      -8.881   8.294  71.975  1.00  0.00    -0.193 C  
HETATM    4  C   UNL     1     -10.058   7.411  72.274  1.00  0.00    -0.234 C  
HETATM    5  O   UNL     1      -7.878   8.299  72.686  1.00  0.00    -0.136 OA 
HETATM    6  C   UNL     1     -11.317   8.262  72.315  1.00  0.00    -0.446 C  
HETATM    7  C   UNL     1     -11.494   9.080  71.025  1.00  0.00    -0.358 C  
HETATM    8  C   UNL     1     -12.766   9.968  70.993  1.00  0.00    -0.362 C  
HETATM    9  C   UNL     1     -12.751  11.171  71.954  1.00  0.00    -0.293 C  
HETATM   10  C   UNL     1     -14.028   9.144  71.304  1.00  0.00    -0.165 C  
HETATM   11  O   UNL     1     -12.957  10.457  69.649  1.00  0.00    -0.029 OA 
HETATM   12  C   UNL     1     -11.845  10.895  68.976  1.00  0.00    -0.299 A  
HETATM   13  C   UNL     1     -12.132  11.535  67.760  1.00  0.00     0.113 A  
HETATM   14  C   UNL     1     -11.120  12.069  66.953  1.00  0.00    -0.352 A  
HETATM   15  H   UNL     1      -8.032  10.862  69.893  1.00  0.00     0.000 HD 
HETATM   16  C   UNL     1      -9.806  11.963  67.435  1.00  0.00    -0.192 A  
HETATM   17  C   UNL     1      -9.521  11.320  68.644  1.00  0.00    -0.175 A  
HETATM   18  O   UNL     1      -8.225  11.299  69.072  1.00  0.00    -0.118 OA 
HETATM   19  C   UNL     1     -10.524  10.728  69.421  1.00  0.00    -0.229 A  
ENDROOT
BRANCH  14  20
HETATM   20  C   UNL     1     -11.396  12.751  65.601  1.00  0.00    -0.354 C  
HETATM   21  C   UNL     1     -12.673  13.625  65.598  1.00  0.00    -0.505 C  
HETATM   22  C   UNL     1     -10.217  13.701  65.275  1.00  0.00    -0.341 C  
BRANCH  20  23
HETATM   23  C   UNL     1     -11.499  11.695  64.452  1.00  0.00    -0.302 C  
BRANCH  23  24
HETATM   24  C   UNL     1     -10.449  11.842  63.345  1.00  0.00    -0.487 C  
BRANCH  24  25
HETATM   25  C   UNL     1      -9.645  10.556  63.145  1.00  0.00    -0.375 C  
BRANCH  25  26
HETATM   26  C   UNL     1      -8.731  10.304  64.347  1.00  0.00    -0.209 C  
BRANCH  26  27
HETATM   27  C   UNL     1      -8.840   8.870  64.857  1.00  0.00    -0.161 C  
HETATM   28  C   UNL     1      -9.688   8.804  66.118  1.00  0.00    -0.320 C  
ENDBRANCH  26  27
ENDBRANCH  25  26
ENDBRANCH  24  25
ENDBRANCH  23  24
ENDBRANCH  20  23
ENDBRANCH  14  20
TORSDOF 6
ENDMDL
MODEL       48
REMARK 921   NORMALIZED FREE ENERGY PREDICTED BY IDOCK:   -4.75 KCAL/MOL
REMARK 922        TOTAL FREE ENERGY PREDICTED BY IDOCK:   -8.43 KCAL/MOL
REMARK 923 INTER-LIGAND FREE ENERGY PREDICTED BY IDOCK:   -7.67 KCAL/MOL
REMARK 924 INTRA-LIGAND FREE ENERGY PREDICTED BY IDOCK:   -0.75 KCAL/MOL
REMARK 927      BINDING AFFINITY PREDICTED BY RF-SCORE:    0.00 PKD
ROOT
HETATM    1  C   UNL     1     -11.042   8.363  70.242  1.00  0.00    -0.216 C  
HETATM    2  C   UNL     1     -11.304   8.045  71.725  1.00  0.00    -0.318 C  
HETATM    3  C   UNL     1     -11.071   6.581  72.001  1.00  0.00    -0.258 C  
HETATM    4  C   UNL     1      -9.719   6.051  71.621  1.00  0.00    -0.180 C  
HETATM    5  O   UNL     1     -11.908   5.877  72.564  1.00  0.00    -0.295 OA 
HETATM    6  C   UNL     1      -9.475   6.328  70.146  1.00  0.00    -0.172 C  
HETATM    7  C   UNL     1      -9.651   7.819  69.810  1.00  0.00    -0.167 C  
HETATM    8  C   UNL     1      -9.410   8.178  68.320  1.00  0.00    -0.134 C  
HETATM    9  C   UNL     1     -10.475   7.656  67.338  1.00  0.00    -0.367 C  
HETATM   10  C   UNL     1      -8.043   7.659  67.837  1.00  0.00    -0.123 C  
HETATM   11  O   UNL     1      -9.333   9.613  68.194  1.00  0.00    -0.133 OA 
HETATM   12  C   UNL     1     -10.247  10.354  68.898  1.00  0.00    -0.205 A  
HETATM   13  C   UNL     1     -10.239  11.720  68.576  1.00  0.00    -0.215 A  
HETATM   14  C   UNL     1     -11.124  12.624  69.179  1.00  0.00    -0.252 A  
HETATM   15  H   UNL     1     -13.001   9.351  71.504  1.00  0.00     0.000 HD 
HETATM   16  C   UNL     1     -12.043  12.091  70.096  1.00  0.00    -0.377 A  
HETATM   17  C   UNL     1     -12.045  10.729  70.420  1.00  0.00    -0.354 A  
HETATM   18  O   UNL     1     -13.000  10.276  71.284  1.00  0.00    -0.364 OA 
HETATM   19  C   UNL     1     -11.119   9.836  69.869  1.00  0.00    -0.293 A  
ENDROOT
BRANCH  14  20
HETATM   20  C   UNL     1     -11.124  14.132  68.870  1.00  0.00    -0.288 C  
HETATM   21  C   UNL     1     -11.899  14.501  67.584  1.00  0.00    -0.395 C  
HETATM   22  C   UNL     1     -11.829  14.875  70.033  1.00  0.00    -0.353 C  
BRANCH  20  23
HETATM   23  C   UNL     1      -9.664  14.680  68.760  1.00  0.00    -0.217 C  
BRANCH  23  24
HETATM   24  C   UNL     1      -9.452  16.074  69.359  1.00  0.00    -0.226 C  
BRANCH  24  25
HETATM   25  C   UNL     1      -9.218  17.132  68.278  1.00  0.00    -0.262 C  
BRANCH  25  26
HETATM   26  C   UNL     1     -10.169  18.315  68.473  1.00  0.00    -0.402 C  
BRANCH  26  27
HETATM   27  C   UNL     1     -10.695  18.850  67.144  1.00  0.00    -0.506 C  
HETATM   28  C   UNL     1     -10.004  20.152  66.769  1.00  0.00    -0.604 C  
ENDBRANCH  26  27
ENDBRANCH  25  26
ENDBRANCH  24  25
ENDBRANCH  23  24
ENDBRANCH  20  23
ENDBRANCH  14  20
TORSDOF 6
ENDMDL
MODEL       49
REMARK 921   NORMALIZED FREE ENERGY PREDICTED BY IDOCK:   -4.71 KCAL/MOL
REMARK 922        TOTAL FREE ENERGY PREDICTED BY IDOCK:   -8.38 KCAL/MOL
REMARK 923 INTER-LIGAND FREE ENERGY PREDICTED BY IDOCK:   -7.54 KCAL/MOL
REMARK 924 INTRA-LIGAND FREE ENERGY PREDICTED BY IDOCK:   -0.84 KCAL/MOL
REMARK 927      BINDING AFFINITY PREDICTED BY RF-SCORE:    0.00 PKD
ROOT
HETATM    1  C   UNL     1     -10.541   8.974  69.305  1.00  0.00    -0.226 C  
HETATM    2  C   UNL     1     -10.368   8.757  67.791  1.00  0.00    -0.297 C  
HETATM    3  C   UNL     1     -10.022   7.319  67.500  1.00  0.00    -0.169 C  
HETATM    4  C   UNL     1     -10.983   6.295  68.031  1.00  0.00    -0.418 C  
HETATM    5  O   UNL     1      -9.053   7.002  66.812  1.00  0.00    -0.131 OA 
HETATM    6  C   UNL     1     -11.125   6.482  69.534  1.00  0.00    -0.425 C  
HETATM    7  C   UNL     1     -11.524   7.924  69.893  1.00  0.00     0.132 C  
HETATM    8  C   UNL     1     -11.695   8.186  71.412  1.00  0.00    -0.285 C  
HETATM    9  C   UNL     1     -10.393   8.163  72.233  1.00  0.00    -0.361 C  
HETATM   10  C   UNL     1     -12.660   7.169  72.048  1.00  0.00    -0.253 C  
HETATM   11  O   UNL     1     -12.329   9.470  71.593  1.00  0.00    -0.348 OA 
HETATM   12  C   UNL     1     -11.892  10.502  70.803  1.00  0.00    -0.365 A  
HETATM   13  C   UNL     1     -12.410  11.755  71.168  1.00  0.00    -0.329 A  
HETATM   14  C   UNL     1     -12.052  12.926  70.487  1.00  0.00    -0.364 A  
HETATM   15  H   UNL     1      -9.331  10.644  67.837  1.00  0.00     0.000 HD 
HETATM   16  C   UNL     1     -11.124  12.790  69.444  1.00  0.00    -0.129 A  
HETATM   17  C   UNL     1     -10.613  11.540  69.077  1.00  0.00    -0.173 A  
HETATM   18  O   UNL     1      -9.677  11.493  68.085  1.00  0.00    -0.179 OA 
HETATM   19  C   UNL     1     -11.019  10.361  69.713  1.00  0.00    -0.345 A  
ENDROOT
BRANCH  14  20
HETATM   20  C   UNL     1     -12.622  14.311  70.842  1.00  0.00    -0.426 C  
HETATM   21  C   UNL     1     -14.031  14.255  71.478  1.00  0.00    -0.415 C  
HETATM   22  C   UNL     1     -11.695  14.973  71.892  1.00  0.00    -0.454 C  
BRANCH  20  23
HETATM   23  C   UNL     1     -12.667  15.236  69.583  1.00  0.00     0.023 C  
BRANCH  23  24
HETATM   24  C   UNL     1     -11.392  16.050  69.336  1.00  0.00    -0.355 C  
BRANCH  24  25
HETATM   25  C   UNL     1     -10.877  15.886  67.904  1.00  0.00    -0.327 C  
BRANCH  25  26
HETATM   26  C   UNL     1     -11.848  15.037  67.081  1.00  0.00    -0.141 C  
BRANCH  26  27
HETATM   27  C   UNL     1     -11.126  14.200  66.030  1.00  0.00    -0.314 C  
HETATM   28  C   UNL     1     -11.880  12.908  65.749  1.00  0.00    -0.469 C  
ENDBRANCH  26  27
ENDBRANCH  25  26
ENDBRANCH  24  25
ENDBRANCH  23  24
ENDBRANCH  20  23
ENDBRANCH  14  20
TORSDOF 6
ENDMDL
MODEL       50
REMARK 921   NORMALIZED FREE ENERGY PREDICTED BY IDOCK:   -4.71 KCAL/MOL
REMARK 922        TOTAL FREE ENERGY PREDICTED BY IDOCK:   -8.38 KCAL/MOL
REMARK 923 INTER-LIGAND FREE ENERGY PREDICTED BY IDOCK:   -6.83 KCAL/MOL
REMARK 924 INTRA-LIGAND FREE ENERGY PREDICTED BY IDOCK:   -1.55 KCAL/MOL
REMARK 927      BINDING AFFINITY PREDICTED BY RF-SCORE:    0.00 PKD
ROOT
HETATM    1  C   UNL     1     -10.260  11.535  68.639  1.00  0.00    -0.217 C  
HETATM    2  C   UNL     1     -11.691  11.883  68.194  1.00  0.00    -0.388 C  
HETATM    3  C   UNL     1     -11.670  12.966  67.145  1.00  0.00    -0.377 C  
HETATM    4  C   UNL     1     -10.838  12.682  65.928  1.00  0.00    -0.300 C  
HETATM    5  O   UNL     1     -12.344  13.990  67.244  1.00  0.00    -0.351 OA 
HETATM    6  C   UNL     1      -9.413  12.377  66.363  1.00  0.00    -0.240 C  
HETATM    7  C   UNL     1      -9.365  11.243  67.402  1.00  0.00    -0.168 C  
HETATM    8  C   UNL     1      -7.938  10.872  67.886  1.00  0.00    -0.111 C  
HETATM    9  C   UNL     1      -7.247  11.933  68.762  1.00  0.00    -0.112 C  
HETATM   10  C   UNL     1      -7.006  10.576  66.698  1.00  0.00    -0.113 C  
HETATM   11  O   UNL     1      -8.007   9.637  68.629  1.00  0.00    -0.087 OA 
HETATM   12  C   UNL     1      -9.048   9.491  69.509  1.00  0.00    -0.185 A  
HETATM   13  C   UNL     1      -8.941   8.359  70.333  1.00  0.00    -0.152 A  
HETATM   14  C   UNL     1      -9.901   8.066  71.310  1.00  0.00    -0.200 A  
HETATM   15  H   UNL     1     -12.170  11.733  70.288  1.00  0.00     0.000 HD 
HETATM   16  C   UNL     1     -10.959   8.977  71.448  1.00  0.00    -0.394 A  
HETATM   17  C   UNL     1     -11.067  10.102  70.622  1.00  0.00    -0.322 A  
HETATM   18  O   UNL     1     -12.097  10.969  70.848  1.00  0.00    -0.342 OA 
HETATM   19  C   UNL     1     -10.145  10.362  69.602  1.00  0.00    -0.226 A  
ENDROOT
BRANCH  14  20
HETATM   20  C   UNL     1      -9.830   6.819  72.210  1.00  0.00    -0.166 C  
HETATM   21  C   UNL     1      -8.387   6.322  72.465  1.00  0.00    -0.113 C  
HETATM   22  C   UNL     1     -10.420   7.176  73.597  1.00  0.00    -0.412 C  
BRANCH  20  23
HETATM   23  C   UNL     1     -10.674   5.648  71.611  1.00  0.00    -0.313 C  
BRANCH  23  24
HETATM   24  C   UNL     1     -11.014   5.793  70.123  1.00  0.00    -0.368 C  
BRANCH  24  25
HETATM   25  C   UNL     1     -10.102   4.936  69.242  1.00  0.00    -0.248 C  
BRANCH  25  26
HETATM   26  C   UNL     1     -10.000   5.533  67.837  1.00  0.00    -0.185 C  
BRANCH  26  27
HETATM   27  C   UNL     1     -11.004   6.662  67.622  1.00  0.00    -0.392 C  
HETATM   28  C   UNL     1     -10.398   7.777  66.783  1.00  0.00    -0.348 C  
ENDBRANCH  26  27
ENDBRANCH  25  26
ENDBRANCH  24  25
ENDBRANCH  23  24
ENDBRANCH  20  23
ENDBRANCH  14  20
TORSDOF 6
ENDMDL
MODEL       51
REMARK 921   NORMALIZED FREE ENERGY PREDICTED BY IDOCK:   -4.69 KCAL/MOL
REMARK 922        TOTAL FREE ENERGY PREDICTED BY IDOCK:   -8.35 KCAL/MOL
REMARK 923 INTER-LIGAND FREE ENERGY PREDICTED BY IDOCK:   -7.65 KCAL/MOL
REMARK 924 INTRA-LIGAND FREE ENERGY PREDICTED BY IDOCK:   -0.70 KCAL/MOL
REMARK 927      BINDING AFFINITY PREDICTED BY RF-SCORE:    0.00 PKD
ROOT
HETATM    1  C   UNL     1      -9.823   8.264  69.514  1.00  0.00    -0.181 C  
HETATM    2  C   UNL     1      -9.173   7.584  68.296  1.00  0.00    -0.138 C  
HETATM    3  C   UNL     1      -8.994   6.109  68.549  1.00  0.00    -0.115 C  
HETATM    4  C   UNL     1     -10.237   5.353  68.921  1.00  0.00    -0.266 C  
HETATM    5  O   UNL     1      -7.914   5.541  68.393  1.00  0.00    -0.094 OA 
HETATM    6  C   UNL     1     -10.860   6.000  70.148  1.00  0.00    -0.409 C  
HETATM    7  C   UNL     1     -11.112   7.502  69.934  1.00  0.00    -0.185 C  
HETATM    8  C   UNL     1     -11.755   8.227  71.146  1.00  0.00    -0.280 C  
HETATM    9  C   UNL     1     -10.843   8.382  72.377  1.00  0.00    -0.416 C  
HETATM   10  C   UNL     1     -13.037   7.511  71.607  1.00  0.00    -0.401 C  
HETATM   11  O   UNL     1     -12.186   9.538  70.726  1.00  0.00    -0.273 OA 
HETATM   12  C   UNL     1     -11.335  10.252  69.922  1.00  0.00    -0.290 A  
HETATM   13  C   UNL     1     -11.729  11.584  69.718  1.00  0.00    -0.426 A  
HETATM   14  C   UNL     1     -10.965  12.467  68.945  1.00  0.00    -0.272 A  
HETATM   15  H   UNL     1      -7.915   9.331  68.238  1.00  0.00     0.000 HD 
HETATM   16  C   UNL     1      -9.769  11.966  68.411  1.00  0.00    -0.201 A  
HETATM   17  C   UNL     1      -9.380  10.636  68.611  1.00  0.00    -0.177 A  
HETATM   18  O   UNL     1      -8.179  10.234  68.102  1.00  0.00    -0.111 OA 
HETATM   19  C   UNL     1     -10.174   9.734  69.328  1.00  0.00    -0.216 A  
ENDROOT
BRANCH  14  20
HETATM   20  C   UNL     1     -11.382  13.925  68.677  1.00  0.00    -0.310 C  
HETATM   21  C   UNL     1     -12.240  14.099  67.401  1.00  0.00    -0.278 C  
HETATM   22  C   UNL     1     -12.256  14.415  69.859  1.00  0.00    -0.394 C  
BRANCH  20  23
HETATM   23  C   UNL     1     -10.131  14.856  68.581  1.00  0.00    -0.237 C  
BRANCH  23  24
HETATM   24  C   UNL     1     -10.042  15.687  67.296  1.00  0.00    -0.255 C  
BRANCH  24  25
HETATM   25  C   UNL     1     -10.556  17.114  67.501  1.00  0.00    -0.323 C  
BRANCH  25  26
HETATM   26  C   UNL     1     -10.040  17.684  68.824  1.00  0.00    -0.377 C  
BRANCH  26  27
HETATM   27  C   UNL     1      -9.539  19.117  68.672  1.00  0.00    -0.471 C  
HETATM   28  C   UNL     1     -10.317  19.854  67.592  1.00  0.00    -0.557 C  
ENDBRANCH  26  27
ENDBRANCH  25  26
ENDBRANCH  24  25
ENDBRANCH  23  24
ENDBRANCH  20  23
ENDBRANCH  14  20
TORSDOF 6
ENDMDL
MODEL       52
REMARK 921   NORMALIZED FREE ENERGY PREDICTED BY IDOCK:   -4.64 KCAL/MOL
REMARK 922        TOTAL FREE ENERGY PREDICTED BY IDOCK:   -8.28 KCAL/MOL
REMARK 923 INTER-LIGAND FREE ENERGY PREDICTED BY IDOCK:   -6.57 KCAL/MOL
REMARK 924 INTRA-LIGAND FREE ENERGY PREDICTED BY IDOCK:   -1.71 KCAL/MOL
REMARK 927      BINDING AFFINITY PREDICTED BY RF-SCORE:    0.00 PKD
ROOT
HETATM    1  C   UNL     1     -11.744  12.942  70.320  1.00  0.00    -0.187 C  
HETATM    2  C   UNL     1     -12.950  12.628  71.223  1.00  0.00    -0.306 C  
HETATM    3  C   UNL     1     -13.477  13.889  71.859  1.00  0.00    -0.427 C  
HETATM    4  C   UNL     1     -13.853  14.992  70.912  1.00  0.00    -0.269 C  
HETATM    5  O   UNL     1     -13.655  13.988  73.072  1.00  0.00    -0.644 OA 
HETATM    6  C   UNL     1     -12.650  15.332  70.046  1.00  0.00    -0.277 C  
HETATM    7  C   UNL     1     -12.094  14.089  69.330  1.00  0.00    -0.386 C  
HETATM    8  C   UNL     1     -10.867  14.363  68.421  1.00  0.00    -0.248 C  
HETATM    9  C   UNL     1      -9.568  14.725  69.163  1.00  0.00    -0.133 C  
HETATM   10  C   UNL     1     -11.158  15.496  67.420  1.00  0.00    -0.285 C  
HETATM   11  O   UNL     1     -10.622  13.197  67.608  1.00  0.00    -0.224 OA 
HETATM   12  C   UNL     1     -10.712  11.974  68.222  1.00  0.00    -0.224 A  
HETATM   13  C   UNL     1     -10.270  10.905  67.427  1.00  0.00    -0.236 A  
HETATM   14  C   UNL     1     -10.266   9.587  67.902  1.00  0.00    -0.251 A  
HETATM   15  H   UNL     1     -11.793  10.920  71.842  1.00  0.00     0.000 HD 
HETATM   16  C   UNL     1     -10.693   9.391  69.224  1.00  0.00    -0.228 A  
HETATM   17  C   UNL     1     -11.138  10.457  70.014  1.00  0.00    -0.314 A  
HETATM   18  O   UNL     1     -11.491  10.196  71.306  1.00  0.00    -0.353 OA 
HETATM   19  C   UNL     1     -11.205  11.765  69.520  1.00  0.00    -0.265 A  
ENDROOT
BRANCH  14  20
HETATM   20  C   UNL     1      -9.816   8.388  67.047  1.00  0.00    -0.296 C  
HETATM   21  C   UNL     1     -10.868   7.256  66.966  1.00  0.00    -0.350 C  
HETATM   22  C   UNL     1      -9.586   8.875  65.594  1.00  0.00    -0.175 C  
BRANCH  20  23
HETATM   23  C   UNL     1      -8.470   7.797  67.578  1.00  0.00    -0.120 C  
BRANCH  23  24
HETATM   24  C   UNL     1      -7.239   8.135  66.730  1.00  0.00    -0.082 C  
BRANCH  24  25
HETATM   25  C   UNL     1      -6.184   8.899  67.533  1.00  0.00    -0.052 C  
BRANCH  25  26
HETATM   26  C   UNL     1      -6.383  10.408  67.379  1.00  0.00    -0.058 C  
BRANCH  26  27
HETATM   27  C   UNL     1      -6.198  11.147  68.701  1.00  0.00    -0.043 C  
HETATM   28  C   UNL     1      -7.229  10.697  69.725  1.00  0.00    -0.135 C  
ENDBRANCH  26  27
ENDBRANCH  25  26
ENDBRANCH  24  25
ENDBRANCH  23  24
ENDBRANCH  20  23
ENDBRANCH  14  20
TORSDOF 6
ENDMDL
MODEL       53
REMARK 921   NORMALIZED FREE ENERGY PREDICTED BY IDOCK:   -4.62 KCAL/MOL
REMARK 922        TOTAL FREE ENERGY PREDICTED BY IDOCK:   -8.26 KCAL/MOL
REMARK 923 INTER-LIGAND FREE ENERGY PREDICTED BY IDOCK:   -7.04 KCAL/MOL
REMARK 924 INTRA-LIGAND FREE ENERGY PREDICTED BY IDOCK:   -1.22 KCAL/MOL
REMARK 927      BINDING AFFINITY PREDICTED BY RF-SCORE:    0.00 PKD
ROOT
HETATM    1  C   UNL     1      -9.338   8.375  66.207  1.00  0.00    -0.283 C  
HETATM    2  C   UNL     1      -8.577   7.220  65.534  1.00  0.00    -0.090 C  
HETATM    3  C   UNL     1      -7.897   7.697  64.275  1.00  0.00    -0.135 C  
HETATM    4  C   UNL     1      -6.967   8.864  64.437  1.00  0.00    -0.088 C  
HETATM    5  O   UNL     1      -8.040   7.128  63.195  1.00  0.00    -0.103 OA 
HETATM    6  C   UNL     1      -7.727  10.021  65.066  1.00  0.00    -0.138 C  
HETATM    7  C   UNL     1      -8.406   9.607  66.383  1.00  0.00    -0.120 C  
HETATM    8  C   UNL     1      -9.196  10.742  67.086  1.00  0.00    -0.147 C  
HETATM    9  C   UNL     1     -10.482  11.189  66.367  1.00  0.00    -0.311 C  
HETATM   10  C   UNL     1      -8.319  11.992  67.283  1.00  0.00    -0.176 C  
HETATM   11  O   UNL     1      -9.541  10.311  68.418  1.00  0.00    -0.143 OA 
HETATM   12  C   UNL     1      -9.990   9.023  68.565  1.00  0.00    -0.176 A  
HETATM   13  C   UNL     1     -10.490   8.739  69.845  1.00  0.00    -0.227 A  
HETATM   14  C   UNL     1     -11.015   7.480  70.167  1.00  0.00    -0.267 A  
HETATM   15  H   UNL     1     -10.310   6.044  66.034  1.00  0.00     0.000 HD 
HETATM   16  C   UNL     1     -11.047   6.528  69.138  1.00  0.00    -0.387 A  
HETATM   17  C   UNL     1     -10.542   6.811  67.863  1.00  0.00    -0.242 A  
HETATM   18  O   UNL     1     -10.652   5.851  66.900  1.00  0.00    -0.254 OA 
HETATM   19  C   UNL     1      -9.958   8.046  67.558  1.00  0.00    -0.253 A  
ENDROOT
BRANCH  14  20
HETATM   20  C   UNL     1     -11.545   7.125  71.568  1.00  0.00    -0.310 C  
HETATM   21  C   UNL     1     -11.312   5.647  71.962  1.00  0.00    -0.241 C  
HETATM   22  C   UNL     1     -10.787   7.979  72.615  1.00  0.00    -0.436 C  
BRANCH  20  23
HETATM   23  C   UNL     1     -13.068   7.451  71.689  1.00  0.00    -0.412 C  
BRANCH  23  24
HETATM   24  C   UNL     1     -13.390   8.801  72.340  1.00  0.00    -0.442 C  
BRANCH  24  25
HETATM   25  C   UNL     1     -13.648   9.891  71.297  1.00  0.00    -0.265 C  
BRANCH  25  26
HETATM   26  C   UNL     1     -12.935  11.187  71.690  1.00  0.00    -0.548 C  
BRANCH  26  27
HETATM   27  C   UNL     1     -12.110  11.756  70.540  1.00  0.00    -0.439 C  
HETATM   28  C   UNL     1     -12.278  13.265  70.443  1.00  0.00    -0.404 C  
ENDBRANCH  26  27
ENDBRANCH  25  26
ENDBRANCH  24  25
ENDBRANCH  23  24
ENDBRANCH  20  23
ENDBRANCH  14  20
TORSDOF 6
ENDMDL
MODEL       54
REMARK 921   NORMALIZED FREE ENERGY PREDICTED BY IDOCK:   -4.60 KCAL/MOL
REMARK 922        TOTAL FREE ENERGY PREDICTED BY IDOCK:   -8.23 KCAL/MOL
REMARK 923 INTER-LIGAND FREE ENERGY PREDICTED BY IDOCK:   -6.98 KCAL/MOL
REMARK 924 INTRA-LIGAND FREE ENERGY PREDICTED BY IDOCK:   -1.25 KCAL/MOL
REMARK 927      BINDING AFFINITY PREDICTED BY RF-SCORE:    0.00 PKD
ROOT
HETATM    1  C   UNL     1      -8.784  13.236  67.414  1.00  0.00    -0.206 C  
HETATM    2  C   UNL     1      -7.323  13.663  67.637  1.00  0.00    -0.185 C  
HETATM    3  C   UNL     1      -7.215  15.166  67.695  1.00  0.00    -0.185 C  
HETATM    4  C   UNL     1      -8.081  15.845  68.717  1.00  0.00    -0.190 C  
HETATM    5  O   UNL     1      -6.419  15.796  67.001  1.00  0.00    -0.299 OA 
HETATM    6  C   UNL     1      -9.531  15.455  68.473  1.00  0.00    -0.202 C  
HETATM    7  C   UNL     1      -9.714  13.928  68.450  1.00  0.00    -0.226 C  
HETATM    8  C   UNL     1     -11.173  13.457  68.213  1.00  0.00    -0.279 C  
HETATM    9  C   UNL     1     -11.724  13.714  66.799  1.00  0.00    -0.426 C  
HETATM   10  C   UNL     1     -12.140  14.116  69.213  1.00  0.00    -0.364 C  
HETATM   11  O   UNL     1     -11.254  12.043  68.487  1.00  0.00    -0.216 OA 
HETATM   12  C   UNL     1     -10.235  11.253  68.020  1.00  0.00    -0.183 A  
HETATM   13  C   UNL     1     -10.478   9.877  68.149  1.00  0.00    -0.256 A  
HETATM   14  C   UNL     1      -9.556   8.921  67.700  1.00  0.00    -0.181 A  
HETATM   15  H   UNL     1      -6.856  12.109  66.222  1.00  0.00     0.000 HD 
HETATM   16  C   UNL     1      -8.394   9.407  67.084  1.00  0.00    -0.124 A  
HETATM   17  C   UNL     1      -8.151  10.780  66.960  1.00  0.00    -0.124 A  
HETATM   18  O   UNL     1      -7.021  11.177  66.305  1.00  0.00    -0.123 OA 
HETATM   19  C   UNL     1      -9.039  11.736  67.466  1.00  0.00    -0.175 A  
ENDROOT
BRANCH  14  20
HETATM   20  C   UNL     1      -9.777   7.406  67.853  1.00  0.00    -0.166 C  
HETATM   21  C   UNL     1     -11.015   6.880  67.088  1.00  0.00    -0.427 C  
HETATM   22  C   UNL     1      -8.552   6.665  67.261  1.00  0.00    -0.119 C  
BRANCH  20  23
HETATM   23  C   UNL     1      -9.902   7.007  69.359  1.00  0.00    -0.160 C  
BRANCH  23  24
HETATM   24  C   UNL     1     -11.119   6.139  69.698  1.00  0.00    -0.489 C  
BRANCH  24  25
HETATM   25  C   UNL     1     -11.954   6.743  70.830  1.00  0.00    -0.433 C  
BRANCH  25  26
HETATM   26  C   UNL     1     -11.392   8.105  71.241  1.00  0.00    -0.300 C  
BRANCH  26  27
HETATM   27  C   UNL     1     -12.438   8.967  71.942  1.00  0.00    -0.445 C  
HETATM   28  C   UNL     1     -12.375  10.406  71.452  1.00  0.00    -0.500 C  
ENDBRANCH  26  27
ENDBRANCH  25  26
ENDBRANCH  24  25
ENDBRANCH  23  24
ENDBRANCH  20  23
ENDBRANCH  14  20
TORSDOF 6
ENDMDL
MODEL       55
REMARK 921   NORMALIZED FREE ENERGY PREDICTED BY IDOCK:   -4.59 KCAL/MOL
REMARK 922        TOTAL FREE ENERGY PREDICTED BY IDOCK:   -8.21 KCAL/MOL
REMARK 923 INTER-LIGAND FREE ENERGY PREDICTED BY IDOCK:   -7.08 KCAL/MOL
REMARK 924 INTRA-LIGAND FREE ENERGY PREDICTED BY IDOCK:   -1.13 KCAL/MOL
REMARK 927      BINDING AFFINITY PREDICTED BY RF-SCORE:    0.00 PKD
ROOT
HETATM    1  C   UNL     1     -12.404  12.778  69.976  1.00  0.00    -0.182 C  
HETATM    2  C   UNL     1     -12.348  14.289  70.259  1.00  0.00    -0.418 C  
HETATM    3  C   UNL     1     -13.428  14.685  71.234  1.00  0.00    -0.386 C  
HETATM    4  C   UNL     1     -13.434  13.945  72.540  1.00  0.00    -0.676 C  
HETATM    5  O   UNL     1     -14.215  15.602  71.007  1.00  0.00    -0.465 OA 
HETATM    6  C   UNL     1     -13.530  12.453  72.263  1.00  0.00    -0.428 C  
HETATM    7  C   UNL     1     -12.421  11.978  71.309  1.00  0.00    -0.303 C  
HETATM    8  C   UNL     1     -12.452  10.461  70.987  1.00  0.00    -0.388 C  
HETATM    9  C   UNL     1     -13.634   9.999  70.115  1.00  0.00     0.804 C  
HETATM   10  C   UNL     1     -12.473   9.618  72.275  1.00  0.00    -0.249 C  
HETATM   11  O   UNL     1     -11.224  10.101  70.322  1.00  0.00    -0.272 OA 
HETATM   12  C   UNL     1     -10.758  10.958  69.358  1.00  0.00    -0.225 A  
HETATM   13  C   UNL     1      -9.676  10.451  68.622  1.00  0.00    -0.178 A  
HETATM   14  C   UNL     1      -9.089  11.179  67.579  1.00  0.00    -0.146 A  
HETATM   15  H   UNL     1     -11.996  14.476  68.143  1.00  0.00     0.000 HD 
HETATM   16  C   UNL     1      -9.658  12.427  67.282  1.00  0.00    -0.199 A  
HETATM   17  C   UNL     1     -10.734  12.933  68.020  1.00  0.00    -0.228 A  
HETATM   18  O   UNL     1     -11.266  14.132  67.642  1.00  0.00    -0.276 OA 
HETATM   19  C   UNL     1     -11.279  12.237  69.105  1.00  0.00    -0.300 A  
ENDROOT
BRANCH  14  20
HETATM   20  C   UNL     1      -7.883  10.666  66.771  1.00  0.00    -0.126 C  
HETATM   21  C   UNL     1      -6.587  11.475  67.013  1.00  0.00    -0.138 C  
HETATM   22  C   UNL     1      -7.577   9.212  67.209  1.00  0.00    -0.088 C  
BRANCH  20  23
HETATM   23  C   UNL     1      -8.199  10.654  65.240  1.00  0.00    -0.105 C  
BRANCH  23  24
HETATM   24  C   UNL     1      -9.535  10.004  64.863  1.00  0.00    -0.355 C  
BRANCH  24  25
HETATM   25  C   UNL     1     -10.096  10.568  63.555  1.00  0.00    -0.186 C  
BRANCH  25  26
HETATM   26  C   UNL     1     -10.500  12.033  63.734  1.00  0.00    -0.469 C  
BRANCH  26  27
HETATM   27  C   UNL     1     -12.007  12.231  63.597  1.00  0.00    -0.633 C  
HETATM   28  C   UNL     1     -12.640  12.542  64.945  1.00  0.00    -0.469 C  
ENDBRANCH  26  27
ENDBRANCH  25  26
ENDBRANCH  24  25
ENDBRANCH  23  24
ENDBRANCH  20  23
ENDBRANCH  14  20
TORSDOF 6
ENDMDL
MODEL       56
REMARK 921   NORMALIZED FREE ENERGY PREDICTED BY IDOCK:   -4.56 KCAL/MOL
REMARK 922        TOTAL FREE ENERGY PREDICTED BY IDOCK:   -8.18 KCAL/MOL
REMARK 923 INTER-LIGAND FREE ENERGY PREDICTED BY IDOCK:   -7.10 KCAL/MOL
REMARK 924 INTRA-LIGAND FREE ENERGY PREDICTED BY IDOCK:   -1.08 KCAL/MOL
REMARK 927      BINDING AFFINITY PREDICTED BY RF-SCORE:    0.00 PKD
ROOT
HETATM    1  C   UNL     1      -9.411   6.882  69.362  1.00  0.00    -0.146 C  
HETATM    2  C   UNL     1     -10.204   5.717  68.744  1.00  0.00    -0.255 C  
HETATM    3  C   UNL     1      -9.841   4.416  69.414  1.00  0.00    -0.168 C  
HETATM    4  C   UNL     1     -10.008   4.380  70.906  1.00  0.00    -0.242 C  
HETATM    5  O   UNL     1      -9.496   3.422  68.778  1.00  0.00    -0.166 OA 
HETATM    6  C   UNL     1      -9.194   5.507  71.523  1.00  0.00    -0.164 C  
HETATM    7  C   UNL     1      -9.554   6.871  70.910  1.00  0.00    -0.166 C  
HETATM    8  C   UNL     1      -8.765   8.070  71.499  1.00  0.00    -0.136 C  
HETATM    9  C   UNL     1      -7.269   8.113  71.137  1.00  0.00    -0.060 C  
HETATM   10  C   UNL     1      -8.870   8.107  73.034  1.00  0.00    -0.316 C  
HETATM   11  O   UNL     1      -9.380   9.296  71.051  1.00  0.00    -0.259 OA 
HETATM   12  C   UNL     1      -9.769   9.359  69.737  1.00  0.00    -0.199 A  
HETATM   13  C   UNL     1     -10.175  10.638  69.326  1.00  0.00    -0.235 A  
HETATM   14  C   UNL     1     -10.581  10.894  68.009  1.00  0.00    -0.239 A  
HETATM   15  H   UNL     1      -9.786   6.687  66.867  1.00  0.00     0.000 HD 
HETATM   16  C   UNL     1     -10.529   9.816  67.113  1.00  0.00    -0.316 A  
HETATM   17  C   UNL     1     -10.129   8.540  67.526  1.00  0.00    -0.221 A  
HETATM   18  O   UNL     1     -10.058   7.553  66.586  1.00  0.00    -0.235 OA 
HETATM   19  C   UNL     1      -9.787   8.267  68.855  1.00  0.00    -0.183 A  
ENDROOT
BRANCH  14  20
HETATM   20  C   UNL     1     -11.059  12.277  67.532  1.00  0.00    -0.326 C  
HETATM   21  C   UNL     1     -11.879  13.049  68.593  1.00  0.00    -0.353 C  
HETATM   22  C   UNL     1      -9.817  13.150  67.221  1.00  0.00    -0.232 C  
BRANCH  20  23
HETATM   23  C   UNL     1     -11.904  12.155  66.223  1.00  0.00    -0.320 C  
BRANCH  23  24
HETATM   24  C   UNL     1     -12.063  13.460  65.434  1.00  0.00    -0.457 C  
BRANCH  24  25
HETATM   25  C   UNL     1     -11.835  13.252  63.934  1.00  0.00    -0.522 C  
BRANCH  25  26
HETATM   26  C   UNL     1     -11.439  11.802  63.649  1.00  0.00    -0.524 C  
BRANCH  26  27
HETATM   27  C   UNL     1     -10.034  11.698  63.063  1.00  0.00    -0.321 C  
HETATM   28  C   UNL     1      -9.496  10.280  63.187  1.00  0.00    -0.337 C  
ENDBRANCH  26  27
ENDBRANCH  25  26
ENDBRANCH  24  25
ENDBRANCH  23  24
ENDBRANCH  20  23
ENDBRANCH  14  20
TORSDOF 6
ENDMDL
MODEL       57
REMARK 921   NORMALIZED FREE ENERGY PREDICTED BY IDOCK:   -4.54 KCAL/MOL
REMARK 922        TOTAL FREE ENERGY PREDICTED BY IDOCK:   -8.15 KCAL/MOL
REMARK 923 INTER-LIGAND FREE ENERGY PREDICTED BY IDOCK:   -7.42 KCAL/MOL
REMARK 924 INTRA-LIGAND FREE ENERGY PREDICTED BY IDOCK:   -0.73 KCAL/MOL
REMARK 927      BINDING AFFINITY PREDICTED BY RF-SCORE:    0.00 PKD
ROOT
HETATM    1  C   UNL     1     -11.039  14.063  66.291  1.00  0.00    -0.307 C  
HETATM    2  C   UNL     1     -10.714  14.582  64.880  1.00  0.00    -0.448 C  
HETATM    3  C   UNL     1     -11.038  16.051  64.769  1.00  0.00    -0.365 C  
HETATM    4  C   UNL     1     -10.377  16.944  65.780  1.00  0.00    -0.298 C  
HETATM    5  O   UNL     1     -11.742  16.504  63.869  1.00  0.00    -1.148 OA 
HETATM    6  C   UNL     1     -10.729  16.456  67.177  1.00  0.00    -0.233 C  
HETATM    7  C   UNL     1     -10.378  14.970  67.367  1.00  0.00    -0.238 C  
HETATM    8  C   UNL     1     -10.704  14.405  68.774  1.00  0.00    -0.252 C  
HETATM    9  C   UNL     1     -12.203  14.265  69.094  1.00  0.00    -0.272 C  
HETATM   10  C   UNL     1     -10.074  15.269  69.881  1.00  0.00    -0.204 C  
HETATM   11  O   UNL     1     -10.083  13.110  68.909  1.00  0.00    -0.114 OA 
HETATM   12  C   UNL     1     -10.164  12.260  67.836  1.00  0.00    -0.200 A  
HETATM   13  C   UNL     1      -9.715  10.958  68.107  1.00  0.00    -0.174 A  
HETATM   14  C   UNL     1      -9.749   9.950  67.135  1.00  0.00    -0.224 A  
HETATM   15  H   UNL     1     -11.581  12.729  64.209  1.00  0.00     0.000 HD 
HETATM   16  C   UNL     1     -10.286  10.296  65.886  1.00  0.00    -0.293 A  
HETATM   17  C   UNL     1     -10.727  11.596  65.615  1.00  0.00    -0.278 A  
HETATM   18  O   UNL     1     -11.281  11.846  64.393  1.00  0.00    -0.317 OA 
HETATM   19  C   UNL     1     -10.633  12.621  66.563  1.00  0.00    -0.272 A  
ENDROOT
BRANCH  14  20
HETATM   20  C   UNL     1      -9.239   8.520  67.390  1.00  0.00    -0.163 C  
HETATM   21  C   UNL     1      -7.715   8.359  67.177  1.00  0.00    -0.097 C  
HETATM   22  C   UNL     1      -9.514   8.153  68.869  1.00  0.00    -0.151 C  
BRANCH  20  23
HETATM   23  C   UNL     1      -9.992   7.489  66.488  1.00  0.00    -0.209 C  
BRANCH  23  24
HETATM   24  C   UNL     1     -11.016   6.616  67.222  1.00  0.00    -0.456 C  
BRANCH  24  25
HETATM   25  C   UNL     1     -10.657   5.130  67.151  1.00  0.00    -0.169 C  
BRANCH  25  26
HETATM   26  C   UNL     1     -10.651   4.651  65.698  1.00  0.00    -0.241 C  
BRANCH  26  27
HETATM   27  C   UNL     1      -9.276   4.147  65.269  1.00  0.00    -0.152 C  
HETATM   28  C   UNL     1      -9.110   4.236  63.759  1.00  0.00    -0.142 C  
ENDBRANCH  26  27
ENDBRANCH  25  26
ENDBRANCH  24  25
ENDBRANCH  23  24
ENDBRANCH  20  23
ENDBRANCH  14  20
TORSDOF 6
ENDMDL
MODEL       58
REMARK 921   NORMALIZED FREE ENERGY PREDICTED BY IDOCK:   -4.54 KCAL/MOL
REMARK 922        TOTAL FREE ENERGY PREDICTED BY IDOCK:   -8.15 KCAL/MOL
REMARK 923 INTER-LIGAND FREE ENERGY PREDICTED BY IDOCK:   -6.97 KCAL/MOL
REMARK 924 INTRA-LIGAND FREE ENERGY PREDICTED BY IDOCK:   -1.17 KCAL/MOL
REMARK 927      BINDING AFFINITY PREDICTED BY RF-SCORE:    0.00 PKD
ROOT
HETATM    1  C   UNL     1      -9.607  13.664  66.259  1.00  0.00    -0.254 C  
HETATM    2  C   UNL     1      -9.147  14.958  66.952  1.00  0.00    -0.271 C  
HETATM    3  C   UNL     1      -9.265  16.131  66.012  1.00  0.00    -0.328 C  
HETATM    4  C   UNL     1     -10.624  16.356  65.414  1.00  0.00    -0.338 C  
HETATM    5  O   UNL     1      -8.329  16.900  65.798  1.00  0.00    -0.472 OA 
HETATM    6  C   UNL     1     -11.064  15.090  64.695  1.00  0.00    -0.335 C  
HETATM    7  C   UNL     1     -11.010  13.862  65.619  1.00  0.00    -0.290 C  
HETATM    8  C   UNL     1     -11.453  12.533  64.953  1.00  0.00    -0.325 C  
HETATM    9  C   UNL     1     -10.492  11.982  63.884  1.00  0.00    -0.440 C  
HETATM   10  C   UNL     1     -12.840  12.674  64.299  1.00  0.00    -0.306 C  
HETATM   11  O   UNL     1     -11.622  11.533  65.979  1.00  0.00    -0.311 OA 
HETATM   12  C   UNL     1     -10.668  11.477  66.963  1.00  0.00    -0.259 A  
HETATM   13  C   UNL     1     -10.789  10.362  67.808  1.00  0.00    -0.351 A  
HETATM   14  C   UNL     1      -9.885  10.129  68.853  1.00  0.00    -0.194 A  
HETATM   15  H   UNL     1      -7.562  13.738  67.749  1.00  0.00     0.000 HD 
HETATM   16  C   UNL     1      -8.833  11.047  68.993  1.00  0.00    -0.068 A  
HETATM   17  C   UNL     1      -8.717  12.161  68.154  1.00  0.00    -0.185 A  
HETATM   18  O   UNL     1      -7.640  12.982  68.320  1.00  0.00    -0.117 OA 
HETATM   19  C   UNL     1      -9.656  12.431  67.151  1.00  0.00    -0.206 A  
ENDROOT
BRANCH  14  20
HETATM   20  C   UNL     1     -10.004   8.934  69.815  1.00  0.00    -0.196 C  
HETATM   21  C   UNL     1      -9.167   9.093  71.106  1.00  0.00    -0.301 C  
HETATM   22  C   UNL     1     -11.481   8.806  70.265  1.00  0.00    -0.102 C  
BRANCH  20  23
HETATM   23  C   UNL     1      -9.598   7.602  69.105  1.00  0.00    -0.155 C  
BRANCH  23  24
HETATM   24  C   UNL     1     -10.760   6.646  68.814  1.00  0.00    -0.302 C  
BRANCH  24  25
HETATM   25  C   UNL     1     -10.973   6.446  67.311  1.00  0.00    -0.474 C  
BRANCH  25  26
HETATM   26  C   UNL     1      -9.837   7.096  66.519  1.00  0.00    -0.189 C  
BRANCH  26  27
HETATM   27  C   UNL     1      -9.117   6.091  65.624  1.00  0.00    -0.033 C  
HETATM   28  C   UNL     1      -9.461   4.664  66.022  1.00  0.00    -0.171 C  
ENDBRANCH  26  27
ENDBRANCH  25  26
ENDBRANCH  24  25
ENDBRANCH  23  24
ENDBRANCH  20  23
ENDBRANCH  14  20
TORSDOF 6
ENDMDL
MODEL       59
REMARK 921   NORMALIZED FREE ENERGY PREDICTED BY IDOCK:   -4.47 KCAL/MOL
REMARK 922        TOTAL FREE ENERGY PREDICTED BY IDOCK:   -8.05 KCAL/MOL
REMARK 923 INTER-LIGAND FREE ENERGY PREDICTED BY IDOCK:   -7.49 KCAL/MOL
REMARK 924 INTRA-LIGAND FREE ENERGY PREDICTED BY IDOCK:   -0.55 KCAL/MOL
REMARK 927      BINDING AFFINITY PREDICTED BY RF-SCORE:    0.00 PKD
ROOT
HETATM    1  C   UNL     1      -9.386  17.556  68.105  1.00  0.00    -0.276 C  
HETATM    2  C   UNL     1     -10.571  18.536  68.054  1.00  0.00    -0.347 C  
HETATM    3  C   UNL     1     -10.090  19.955  68.227  1.00  0.00    -0.447 C  
HETATM    4  C   UNL     1      -9.038  20.412  67.257  1.00  0.00    -0.500 C  
HETATM    5  O   UNL     1     -10.574  20.716  69.063  1.00  0.00     0.070 OA 
HETATM    6  C   UNL     1      -7.850  19.466  67.334  1.00  0.00    -0.286 C  
HETATM    7  C   UNL     1      -8.271  18.003  67.118  1.00  0.00    -0.231 C  
HETATM    8  C   UNL     1      -7.106  16.981  67.176  1.00  0.00    -0.176 C  
HETATM    9  C   UNL     1      -6.484  16.773  68.569  1.00  0.00    -0.155 C  
HETATM   10  C   UNL     1      -5.968  17.377  66.217  1.00  0.00    -0.231 C  
HETATM   11  O   UNL     1      -7.580  15.708  66.691  1.00  0.00    -0.161 OA 
HETATM   12  C   UNL     1      -8.820  15.299  67.109  1.00  0.00    -0.212 A  
HETATM   13  C   UNL     1      -9.130  13.975  66.760  1.00  0.00    -0.250 A  
HETATM   14  C   UNL     1     -10.344  13.382  67.128  1.00  0.00    -0.246 A  
HETATM   15  H   UNL     1     -11.588  17.066  69.254  1.00  0.00     0.000 HD 
HETATM   16  C   UNL     1     -11.223  14.164  67.893  1.00  0.00    -0.299 A  
HETATM   17  C   UNL     1     -10.915  15.486  68.235  1.00  0.00    -0.305 A  
HETATM   18  O   UNL     1     -11.797  16.168  69.022  1.00  0.00    -0.327 OA 
HETATM   19  C   UNL     1      -9.732  16.102  67.813  1.00  0.00    -0.229 A  
ENDROOT
BRANCH  14  20
HETATM   20  C   UNL     1     -10.728  11.943  66.738  1.00  0.00    -0.282 C  
HETATM   21  C   UNL     1     -11.529  11.197  67.831  1.00  0.00    -0.359 C  
HETATM   22  C   UNL     1     -11.642  11.997  65.488  1.00  0.00    -0.352 C  
BRANCH  20  23
HETATM   23  C   UNL     1      -9.460  11.105  66.374  1.00  0.00    -0.216 C  
BRANCH  23  24
HETATM   24  C   UNL     1      -9.694   9.995  65.344  1.00  0.00    -0.368 C  
BRANCH  24  25
HETATM   25  C   UNL     1      -9.389   8.609  65.917  1.00  0.00    -0.262 C  
BRANCH  25  26
HETATM   26  C   UNL     1     -10.456   8.205  66.936  1.00  0.00    -0.379 C  
BRANCH  26  27
HETATM   27  C   UNL     1     -10.345   6.735  67.327  1.00  0.00    -0.311 C  
HETATM   28  C   UNL     1     -10.901   6.499  68.723  1.00  0.00    -0.357 C  
ENDBRANCH  26  27
ENDBRANCH  25  26
ENDBRANCH  24  25
ENDBRANCH  23  24
ENDBRANCH  20  23
ENDBRANCH  14  20
TORSDOF 6
ENDMDL
MODEL       60
REMARK 921   NORMALIZED FREE ENERGY PREDICTED BY IDOCK:   -4.45 KCAL/MOL
REMARK 922        TOTAL FREE ENERGY PREDICTED BY IDOCK:   -8.03 KCAL/MOL
REMARK 923 INTER-LIGAND FREE ENERGY PREDICTED BY IDOCK:   -6.89 KCAL/MOL
REMARK 924 INTRA-LIGAND FREE ENERGY PREDICTED BY IDOCK:   -1.14 KCAL/MOL
REMARK 927      BINDING AFFINITY PREDICTED BY RF-SCORE:    0.00 PKD
ROOT
HETATM    1  C   UNL     1     -11.723  13.453  70.195  1.00  0.00    -0.266 C  
HETATM    2  C   UNL     1     -12.991  12.890  70.860  1.00  0.00    -0.101 C  
HETATM    3  C   UNL     1     -13.582  13.900  71.812  1.00  0.00    -0.385 C  
HETATM    4  C   UNL     1     -13.898  15.245  71.224  1.00  0.00    -0.562 C  
HETATM    5  O   UNL     1     -13.854  13.623  72.979  1.00  0.00    -0.512 OA 
HETATM    6  C   UNL     1     -12.636  15.821  70.601  1.00  0.00    -0.371 C  
HETATM    7  C   UNL     1     -12.010  14.853  69.582  1.00  0.00    -0.360 C  
HETATM    8  C   UNL     1     -10.721  15.380  68.900  1.00  0.00    -0.244 C  
HETATM    9  C   UNL     1      -9.488  15.480  69.816  1.00  0.00    -0.178 C  
HETATM   10  C   UNL     1     -10.948  16.769  68.277  1.00  0.00    -0.327 C  
HETATM   11  O   UNL     1     -10.399  14.517  67.789  1.00  0.00    -0.235 OA 
HETATM   12  C   UNL     1     -10.520  13.166  67.988  1.00  0.00    -0.239 A  
HETATM   13  C   UNL     1     -10.005  12.389  66.938  1.00  0.00    -0.223 A  
HETATM   14  C   UNL     1     -10.020  10.989  66.983  1.00  0.00    -0.223 A  
HETATM   15  H   UNL     1     -11.864  11.061  71.012  1.00  0.00     0.000 HD 
HETATM   16  C   UNL     1     -10.545  10.400  68.143  1.00  0.00    -0.246 A  
HETATM   17  C   UNL     1     -11.064  11.176  69.186  1.00  0.00    -0.248 A  
HETATM   18  O   UNL     1     -11.513  10.534  70.303  1.00  0.00    -0.287 OA 
HETATM   19  C   UNL     1     -11.109  12.573  69.115  1.00  0.00    -0.254 A  
ENDROOT
BRANCH  14  20
HETATM   20  C   UNL     1      -9.490  10.106  65.838  1.00  0.00    -0.249 C  
HETATM   21  C   UNL     1     -10.072  10.475  64.453  1.00  0.00    -0.395 C  
HETATM   22  C   UNL     1      -7.957  10.301  65.733  1.00  0.00    -0.144 C  
BRANCH  20  23
HETATM   23  C   UNL     1      -9.768   8.595  66.122  1.00  0.00    -0.292 C  
BRANCH  23  24
HETATM   24  C   UNL     1      -8.622   7.647  65.752  1.00  0.00    -0.156 C  
BRANCH  24  25
HETATM   25  C   UNL     1      -8.325   6.644  66.869  1.00  0.00    -0.114 C  
BRANCH  25  26
HETATM   26  C   UNL     1      -8.871   7.154  68.204  1.00  0.00    -0.126 C  
BRANCH  26  27
HETATM   27  C   UNL     1      -7.769   7.721  69.093  1.00  0.00    -0.101 C  
HETATM   28  C   UNL     1      -6.558   6.801  69.114  1.00  0.00    -0.048 C  
ENDBRANCH  26  27
ENDBRANCH  25  26
ENDBRANCH  24  25
ENDBRANCH  23  24
ENDBRANCH  20  23
ENDBRANCH  14  20
TORSDOF 6
ENDMDL
MODEL       61
REMARK 921   NORMALIZED FREE ENERGY PREDICTED BY IDOCK:   -4.43 KCAL/MOL
REMARK 922        TOTAL FREE ENERGY PREDICTED BY IDOCK:   -8.00 KCAL/MOL
REMARK 923 INTER-LIGAND FREE ENERGY PREDICTED BY IDOCK:   -6.03 KCAL/MOL
REMARK 924 INTRA-LIGAND FREE ENERGY PREDICTED BY IDOCK:   -1.97 KCAL/MOL
REMARK 927      BINDING AFFINITY PREDICTED BY RF-SCORE:    0.00 PKD
ROOT
HETATM    1  C   UNL     1      -8.546  10.316  69.851  1.00  0.00     0.004 C  
HETATM    2  C   UNL     1      -7.009  10.389  69.857  1.00  0.00    -0.149 C  
HETATM    3  C   UNL     1      -6.451   9.662  71.054  1.00  0.00    -0.050 C  
HETATM    4  C   UNL     1      -6.870   8.227  71.201  1.00  0.00    -0.052 C  
HETATM    5  O   UNL     1      -5.648  10.184  71.825  1.00  0.00    -0.255 OA 
HETATM    6  C   UNL     1      -8.389   8.157  71.235  1.00  0.00    -0.140 C  
HETATM    7  C   UNL     1      -9.018   8.843  70.011  1.00  0.00    -0.172 C  
HETATM    8  C   UNL     1     -10.569   8.803  69.976  1.00  0.00    -0.223 C  
HETATM    9  C   UNL     1     -11.272   9.670  71.036  1.00  0.00    -0.445 C  
HETATM   10  C   UNL     1     -11.092   7.364  70.134  1.00  0.00    -0.265 C  
HETATM   11  O   UNL     1     -11.014   9.224  68.669  1.00  0.00    -0.128 OA 
HETATM   12  C   UNL     1     -10.382  10.303  68.108  1.00  0.00    -0.177 A  
HETATM   13  C   UNL     1     -10.994  10.774  66.936  1.00  0.00    -0.255 A  
HETATM   14  C   UNL     1     -10.498  11.887  66.243  1.00  0.00    -0.274 A  
HETATM   15  H   UNL     1      -7.299  12.437  69.259  1.00  0.00     0.000 HD 
HETATM   16  C   UNL     1      -9.380  12.528  66.796  1.00  0.00    -0.230 A  
HETATM   17  C   UNL     1      -8.768  12.054  67.962  1.00  0.00    -0.175 A  
HETATM   18  O   UNL     1      -7.714  12.759  68.467  1.00  0.00    -0.132 OA 
HETATM   19  C   UNL     1      -9.221  10.905  68.620  1.00  0.00    -0.187 A  
ENDROOT
BRANCH  14  20
HETATM   20  C   UNL     1     -11.127  12.412  64.940  1.00  0.00    -0.344 C  
HETATM   21  C   UNL     1     -12.626  12.770  65.076  1.00  0.00    -0.538 C  
HETATM   22  C   UNL     1     -10.402  13.718  64.532  1.00  0.00    -0.311 C  
BRANCH  20  23
HETATM   23  C   UNL     1     -10.953  11.379  63.779  1.00  0.00    -0.448 C  
BRANCH  23  24
HETATM   24  C   UNL     1      -9.583  11.406  63.093  1.00  0.00    -0.398 C  
BRANCH  24  25
HETATM   25  C   UNL     1      -8.956  10.012  63.013  1.00  0.00    -0.272 C  
BRANCH  25  26
HETATM   26  C   UNL     1      -8.950   9.349  64.392  1.00  0.00    -0.215 C  
BRANCH  26  27
HETATM   27  C   UNL     1      -7.677   9.663  65.172  1.00  0.00    -0.117 C  
HETATM   28  C   UNL     1      -7.511   8.713  66.348  1.00  0.00    -0.087 C  
ENDBRANCH  26  27
ENDBRANCH  25  26
ENDBRANCH  24  25
ENDBRANCH  23  24
ENDBRANCH  20  23
ENDBRANCH  14  20
TORSDOF 6
ENDMDL
MODEL       62
REMARK 921   NORMALIZED FREE ENERGY PREDICTED BY IDOCK:   -4.43 KCAL/MOL
REMARK 922        TOTAL FREE ENERGY PREDICTED BY IDOCK:   -7.99 KCAL/MOL
REMARK 923 INTER-LIGAND FREE ENERGY PREDICTED BY IDOCK:   -7.03 KCAL/MOL
REMARK 924 INTRA-LIGAND FREE ENERGY PREDICTED BY IDOCK:   -0.96 KCAL/MOL
REMARK 927      BINDING AFFINITY PREDICTED BY RF-SCORE:    0.00 PKD
ROOT
HETATM    1  C   UNL     1      -9.477  12.770  66.208  1.00  0.00    -0.198 C  
HETATM    2  C   UNL     1      -9.416  13.883  67.269  1.00  0.00    -0.239 C  
HETATM    3  C   UNL     1      -9.577  15.236  66.625  1.00  0.00    -0.257 C  
HETATM    4  C   UNL     1     -10.814  15.423  65.794  1.00  0.00    -0.349 C  
HETATM    5  O   UNL     1      -8.783  16.156  66.819  1.00  0.00    -0.195 OA 
HETATM    6  C   UNL     1     -10.855  14.347  64.719  1.00  0.00    -0.415 C  
HETATM    7  C   UNL     1     -10.743  12.936  65.321  1.00  0.00    -0.318 C  
HETATM    8  C   UNL     1     -10.786  11.786  64.281  1.00  0.00    -0.342 C  
HETATM    9  C   UNL     1      -9.550  11.679  63.370  1.00  0.00    -0.308 C  
HETATM   10  C   UNL     1     -12.022  11.904  63.371  1.00  0.00    -0.528 C  
HETATM   11  O   UNL     1     -10.951  10.534  64.980  1.00  0.00     0.079 OA 
HETATM   12  C   UNL     1     -10.210  10.349  66.119  1.00  0.00    -0.223 A  
HETATM   13  C   UNL     1     -10.273   9.044  66.631  1.00  0.00    -0.333 A  
HETATM   14  C   UNL     1      -9.558   8.667  67.776  1.00  0.00    -0.178 A  
HETATM   15  H   UNL     1      -7.808  12.725  68.111  1.00  0.00     0.000 HD 
HETATM   16  C   UNL     1      -8.749   9.650  68.366  1.00  0.00    -0.120 A  
HETATM   17  C   UNL     1      -8.693  10.952  67.858  1.00  0.00    -0.131 A  
HETATM   18  O   UNL     1      -7.846  11.840  68.457  1.00  0.00    -0.137 OA 
HETATM   19  C   UNL     1      -9.456  11.349  66.754  1.00  0.00    -0.197 A  
ENDROOT
BRANCH  14  20
HETATM   20  C   UNL     1      -9.626   7.253  68.380  1.00  0.00    -0.139 C  
HETATM   21  C   UNL     1      -9.307   6.130  67.365  1.00  0.00    -0.115 C  
HETATM   22  C   UNL     1      -8.562   7.143  69.501  1.00  0.00    -0.134 C  
BRANCH  20  23
HETATM   23  C   UNL     1     -11.028   6.983  69.016  1.00  0.00    -0.169 C  
BRANCH  23  24
HETATM   24  C   UNL     1     -11.034   5.954  70.151  1.00  0.00    -0.412 C  
BRANCH  24  25
HETATM   25  C   UNL     1     -11.639   6.523  71.436  1.00  0.00    -0.371 C  
BRANCH  25  26
HETATM   26  C   UNL     1     -11.764   8.045  71.340  1.00  0.00    -0.320 C  
BRANCH  26  27
HETATM   27  C   UNL     1     -13.088   8.547  71.907  1.00  0.00    -0.391 C  
HETATM   28  C   UNL     1     -14.211   7.560  71.624  1.00  0.00    -0.592 C  
ENDBRANCH  26  27
ENDBRANCH  25  26
ENDBRANCH  24  25
ENDBRANCH  23  24
ENDBRANCH  20  23
ENDBRANCH  14  20
TORSDOF 6
ENDMDL
MODEL       63
REMARK 921   NORMALIZED FREE ENERGY PREDICTED BY IDOCK:   -4.41 KCAL/MOL
REMARK 922        TOTAL FREE ENERGY PREDICTED BY IDOCK:   -7.98 KCAL/MOL
REMARK 923 INTER-LIGAND FREE ENERGY PREDICTED BY IDOCK:   -5.99 KCAL/MOL
REMARK 924 INTRA-LIGAND FREE ENERGY PREDICTED BY IDOCK:   -1.99 KCAL/MOL
REMARK 927      BINDING AFFINITY PREDICTED BY RF-SCORE:    0.00 PKD
ROOT
HETATM    1  C   UNL     1      -9.461   8.707  66.429  1.00  0.00    -0.295 C  
HETATM    2  C   UNL     1      -8.551   7.667  65.751  1.00  0.00    -0.156 C  
HETATM    3  C   UNL     1      -7.845   8.276  64.566  1.00  0.00    -0.130 C  
HETATM    4  C   UNL     1      -7.043   9.514  64.847  1.00  0.00    -0.107 C  
HETATM    5  O   UNL     1      -7.864   7.758  63.451  1.00  0.00    -0.129 OA 
HETATM    6  C   UNL     1      -7.950  10.558  65.481  1.00  0.00    -0.145 C  
HETATM    7  C   UNL     1      -8.665  10.009  66.728  1.00  0.00    -0.137 C  
HETATM    8  C   UNL     1      -9.603  11.023  67.432  1.00  0.00    -0.164 C  
HETATM    9  C   UNL     1     -10.880  11.388  66.652  1.00  0.00    -0.339 C  
HETATM   10  C   UNL     1      -8.866  12.337  67.750  1.00  0.00    -0.174 C  
HETATM   11  O   UNL     1      -9.987  10.488  68.716  1.00  0.00    -0.175 OA 
HETATM   12  C   UNL     1     -10.317   9.158  68.767  1.00  0.00    -0.214 A  
HETATM   13  C   UNL     1     -10.865   8.756  69.995  1.00  0.00    -0.231 A  
HETATM   14  C   UNL     1     -11.285   7.437  70.218  1.00  0.00    -0.268 A  
HETATM   15  H   UNL     1     -10.190   6.309  66.075  1.00  0.00     0.000 HD 
HETATM   16  C   UNL     1     -11.160   6.546  69.142  1.00  0.00    -0.387 A  
HETATM   17  C   UNL     1     -10.608   6.947  67.920  1.00  0.00    -0.231 A  
HETATM   18  O   UNL     1     -10.565   6.036  66.904  1.00  0.00    -0.251 OA 
HETATM   19  C   UNL     1     -10.129   8.246  67.717  1.00  0.00    -0.262 A  
ENDROOT
BRANCH  14  20
HETATM   20  C   UNL     1     -11.863   6.956  71.561  1.00  0.00    -0.366 C  
HETATM   21  C   UNL     1     -13.409   6.924  71.592  1.00  0.00    -0.296 C  
HETATM   22  C   UNL     1     -11.392   5.501  71.809  1.00  0.00    -0.104 C  
BRANCH  20  23
HETATM   23  C   UNL     1     -11.347   7.840  72.741  1.00  0.00    -0.446 C  
BRANCH  23  24
HETATM   24  C   UNL     1     -10.181   7.240  73.535  1.00  0.00    -0.404 C  
BRANCH  24  25
HETATM   25  C   UNL     1      -8.862   7.960  73.247  1.00  0.00    -0.311 C  
BRANCH  25  26
HETATM   26  C   UNL     1      -7.988   7.123  72.312  1.00  0.00    -0.101 C  
BRANCH  26  27
HETATM   27  C   UNL     1      -7.474   7.938  71.128  1.00  0.00    -0.078 C  
HETATM   28  C   UNL     1      -7.381   7.080  69.876  1.00  0.00    -0.085 C  
ENDBRANCH  26  27
ENDBRANCH  25  26
ENDBRANCH  24  25
ENDBRANCH  23  24
ENDBRANCH  20  23
ENDBRANCH  14  20
TORSDOF 6
ENDMDL
MODEL       64
REMARK 921   NORMALIZED FREE ENERGY PREDICTED BY IDOCK:   -4.36 KCAL/MOL
REMARK 922        TOTAL FREE ENERGY PREDICTED BY IDOCK:   -7.90 KCAL/MOL
REMARK 923 INTER-LIGAND FREE ENERGY PREDICTED BY IDOCK:   -7.40 KCAL/MOL
REMARK 924 INTRA-LIGAND FREE ENERGY PREDICTED BY IDOCK:   -0.50 KCAL/MOL
REMARK 927      BINDING AFFINITY PREDICTED BY RF-SCORE:    0.00 PKD
ROOT
HETATM    1  C   UNL     1      -9.157   5.068  67.209  1.00  0.00    -0.117 C  
HETATM    2  C   UNL     1      -9.572   5.454  65.778  1.00  0.00    -0.072 C  
HETATM    3  C   UNL     1      -8.978   4.494  64.779  1.00  0.00    -0.152 C  
HETATM    4  C   UNL     1      -9.289   3.042  65.000  1.00  0.00    -0.142 C  
HETATM    5  O   UNL     1      -8.335   4.877  63.802  1.00  0.00    -0.116 OA 
HETATM    6  C   UNL     1      -8.843   2.649  66.400  1.00  0.00    -0.136 C  
HETATM    7  C   UNL     1      -9.457   3.565  67.472  1.00  0.00    -0.233 C  
HETATM    8  C   UNL     1      -9.050   3.217  68.928  1.00  0.00    -0.148 C  
HETATM    9  C   UNL     1      -7.579   3.501  69.285  1.00  0.00    -0.052 C  
HETATM   10  C   UNL     1      -9.323   1.735  69.243  1.00  0.00    -0.173 C  
HETATM   11  O   UNL     1      -9.894   3.956  69.835  1.00  0.00    -0.199 OA 
HETATM   12  C   UNL     1     -10.144   5.269  69.530  1.00  0.00    -0.252 A  
HETATM   13  C   UNL     1     -10.803   5.973  70.550  1.00  0.00    -0.382 A  
HETATM   14  C   UNL     1     -11.116   7.333  70.422  1.00  0.00    -0.291 A  
HETATM   15  H   UNL     1      -9.206   7.474  66.426  1.00  0.00     0.000 HD 
HETATM   16  C   UNL     1     -10.709   7.965  69.238  1.00  0.00    -0.145 A  
HETATM   17  C   UNL     1     -10.057   7.260  68.219  1.00  0.00    -0.170 A  
HETATM   18  O   UNL     1      -9.649   7.953  67.117  1.00  0.00    -0.150 OA 
HETATM   19  C   UNL     1      -9.802   5.888  68.317  1.00  0.00    -0.162 A  
ENDROOT
BRANCH  14  20
HETATM   20  C   UNL     1     -11.863   8.129  71.508  1.00  0.00    -0.332 C  
HETATM   21  C   UNL     1     -13.355   7.743  71.642  1.00  0.00    -0.386 C  
HETATM   22  C   UNL     1     -11.209   7.826  72.880  1.00  0.00    -0.434 C  
BRANCH  20  23
HETATM   23  C   UNL     1     -11.754   9.666  71.249  1.00  0.00    -0.458 C  
BRANCH  23  24
HETATM   24  C   UNL     1     -13.002  10.473  71.624  1.00  0.00    -0.581 C  
BRANCH  24  25
HETATM   25  C   UNL     1     -12.826  11.966  71.335  1.00  0.00    -0.411 C  
BRANCH  25  26
HETATM   26  C   UNL     1     -13.670  12.800  72.300  1.00  0.00    -0.495 C  
BRANCH  26  27
HETATM   27  C   UNL     1     -13.194  14.248  72.371  1.00  0.00    -0.549 C  
HETATM   28  C   UNL     1     -14.164  15.176  71.656  1.00  0.00    -0.664 C  
ENDBRANCH  26  27
ENDBRANCH  25  26
ENDBRANCH  24  25
ENDBRANCH  23  24
ENDBRANCH  20  23
ENDBRANCH  14  20
TORSDOF 6
ENDMDL
MODEL       65
REMARK 921   NORMALIZED FREE ENERGY PREDICTED BY IDOCK:   -4.34 KCAL/MOL
REMARK 922        TOTAL FREE ENERGY PREDICTED BY IDOCK:   -7.88 KCAL/MOL
REMARK 923 INTER-LIGAND FREE ENERGY PREDICTED BY IDOCK:   -6.76 KCAL/MOL
REMARK 924 INTRA-LIGAND FREE ENERGY PREDICTED BY IDOCK:   -1.11 KCAL/MOL
REMARK 927      BINDING AFFINITY PREDICTED BY RF-SCORE:    0.00 PKD
ROOT
HETATM    1  C   UNL     1      -9.968   9.438  66.631  1.00  0.00    -0.326 C  
HETATM    2  C   UNL     1      -9.198   8.619  65.581  1.00  0.00    -0.204 C  
HETATM    3  C   UNL     1      -8.860   9.475  64.387  1.00  0.00    -0.216 C  
HETATM    4  C   UNL     1      -8.094  10.733  64.680  1.00  0.00     0.114 C  
HETATM    5  O   UNL     1      -9.132   9.137  63.236  1.00  0.00    -0.086 OA 
HETATM    6  C   UNL     1      -8.873  11.563  65.688  1.00  0.00    -0.016 C  
HETATM    7  C   UNL     1      -9.207  10.755  66.954  1.00  0.00    -0.172 C  
HETATM    8  C   UNL     1      -9.996  11.543  68.033  1.00  0.00    -0.189 C  
HETATM    9  C   UNL     1     -11.451  11.886  67.662  1.00  0.00    -0.387 C  
HETATM   10  C   UNL     1      -9.287  12.862  68.389  1.00  0.00    -0.147 C  
HETATM   11  O   UNL     1     -10.002  10.777  69.255  1.00  0.00    -0.214 OA 
HETATM   12  C   UNL     1     -10.222   9.427  69.149  1.00  0.00    -0.202 A  
HETATM   13  C   UNL     1     -10.410   8.784  70.383  1.00  0.00    -0.230 A  
HETATM   14  C   UNL     1     -10.672   7.410  70.464  1.00  0.00    -0.247 A  
HETATM   15  H   UNL     1     -10.608   7.060  66.047  1.00  0.00     0.000 HD 
HETATM   16  C   UNL     1     -10.772   6.714  69.250  1.00  0.00    -0.307 A  
HETATM   17  C   UNL     1     -10.579   7.356  68.021  1.00  0.00    -0.175 A  
HETATM   18  O   UNL     1     -10.739   6.624  66.881  1.00  0.00    -0.306 OA 
HETATM   19  C   UNL     1     -10.252   8.714  67.940  1.00  0.00    -0.273 A  
ENDROOT
BRANCH  14  20
HETATM   20  C   UNL     1     -10.854   6.668  71.800  1.00  0.00    -0.265 C  
HETATM   21  C   UNL     1     -10.598   5.145  71.702  1.00  0.00    -0.226 C  
HETATM   22  C   UNL     1      -9.824   7.219  72.817  1.00  0.00    -0.219 C  
BRANCH  20  23
HETATM   23  C   UNL     1     -12.285   6.908  72.382  1.00  0.00    -0.067 C  
BRANCH  23  24
HETATM   24  C   UNL     1     -13.399   7.010  71.334  1.00  0.00    -0.335 C  
BRANCH  24  25
HETATM   25  C   UNL     1     -14.341   8.183  71.614  1.00  0.00    -0.570 C  
BRANCH  25  26
HETATM   26  C   UNL     1     -13.599   9.302  72.346  1.00  0.00    -0.527 C  
BRANCH  26  27
HETATM   27  C   UNL     1     -13.119  10.390  71.389  1.00  0.00    -0.512 C  
HETATM   28  C   UNL     1     -13.214  11.764  72.035  1.00  0.00    -0.460 C  
ENDBRANCH  26  27
ENDBRANCH  25  26
ENDBRANCH  24  25
ENDBRANCH  23  24
ENDBRANCH  20  23
ENDBRANCH  14  20
TORSDOF 6
ENDMDL
MODEL       66
REMARK 921   NORMALIZED FREE ENERGY PREDICTED BY IDOCK:   -4.29 KCAL/MOL
REMARK 922        TOTAL FREE ENERGY PREDICTED BY IDOCK:   -7.81 KCAL/MOL
REMARK 923 INTER-LIGAND FREE ENERGY PREDICTED BY IDOCK:   -6.69 KCAL/MOL
REMARK 924 INTRA-LIGAND FREE ENERGY PREDICTED BY IDOCK:   -1.12 KCAL/MOL
REMARK 927      BINDING AFFINITY PREDICTED BY RF-SCORE:    0.00 PKD
ROOT
HETATM    1  C   UNL     1      -8.535  10.159  69.817  1.00  0.00    -0.147 C  
HETATM    2  C   UNL     1      -6.998  10.223  69.839  1.00  0.00    -0.142 C  
HETATM    3  C   UNL     1      -6.454   9.458  71.018  1.00  0.00    -0.086 C  
HETATM    4  C   UNL     1      -6.882   8.022  71.119  1.00  0.00    -0.046 C  
HETATM    5  O   UNL     1      -5.655   9.952  71.811  1.00  0.00    -0.190 OA 
HETATM    6  C   UNL     1      -8.401   7.959  71.138  1.00  0.00    -0.116 C  
HETATM    7  C   UNL     1      -9.016   8.685  69.929  1.00  0.00    -0.149 C  
HETATM    8  C   UNL     1     -10.566   8.654  69.879  1.00  0.00    -0.224 C  
HETATM    9  C   UNL     1     -11.275   9.493  70.958  1.00  0.00    -0.432 C  
HETATM   10  C   UNL     1     -11.099   7.214  69.990  1.00  0.00    -0.288 C  
HETATM   11  O   UNL     1     -10.998   9.116  68.582  1.00  0.00    -0.099 OA 
HETATM   12  C   UNL     1     -10.355  10.208  68.059  1.00  0.00    -0.190 A  
HETATM   13  C   UNL     1     -10.954  10.717  66.896  1.00  0.00    -0.228 A  
HETATM   14  C   UNL     1     -10.447  11.846  66.240  1.00  0.00    -0.274 A  
HETATM   15  H   UNL     1      -7.271  12.290  69.298  1.00  0.00     0.000 HD 
HETATM   16  C   UNL     1      -9.330  12.465  66.822  1.00  0.00    -0.220 A  
HETATM   17  C   UNL     1      -8.730  11.954  67.978  1.00  0.00    -0.173 A  
HETATM   18  O   UNL     1      -7.677  12.637  68.513  1.00  0.00    -0.132 OA 
HETATM   19  C   UNL     1      -9.195  10.788  68.598  1.00  0.00    -0.184 A  
ENDROOT
BRANCH  14  20
HETATM   20  C   UNL     1     -11.061  12.413  64.947  1.00  0.00    -0.344 C  
HETATM   21  C   UNL     1     -10.900  11.480  63.724  1.00  0.00    -0.486 C  
HETATM   22  C   UNL     1     -12.585  12.593  65.161  1.00  0.00    -0.459 C  
BRANCH  20  23
HETATM   23  C   UNL     1     -10.452  13.812  64.605  1.00  0.00    -0.433 C  
BRANCH  23  24
HETATM   24  C   UNL     1     -11.457  14.969  64.603  1.00  0.00    -0.382 C  
BRANCH  24  25
HETATM   25  C   UNL     1     -10.794  16.302  64.960  1.00  0.00    -0.337 C  
BRANCH  25  26
HETATM   26  C   UNL     1     -10.132  16.219  66.337  1.00  0.00    -0.318 C  
BRANCH  26  27
HETATM   27  C   UNL     1      -8.724  16.805  66.329  1.00  0.00    -0.342 C  
HETATM   28  C   UNL     1      -7.733  15.849  66.977  1.00  0.00    -0.268 C  
ENDBRANCH  26  27
ENDBRANCH  25  26
ENDBRANCH  24  25
ENDBRANCH  23  24
ENDBRANCH  20  23
ENDBRANCH  14  20
TORSDOF 6
ENDMDL
MODEL       67
REMARK 921   NORMALIZED FREE ENERGY PREDICTED BY IDOCK:   -4.26 KCAL/MOL
REMARK 922        TOTAL FREE ENERGY PREDICTED BY IDOCK:   -7.77 KCAL/MOL
REMARK 923 INTER-LIGAND FREE ENERGY PREDICTED BY IDOCK:   -6.42 KCAL/MOL
REMARK 924 INTRA-LIGAND FREE ENERGY PREDICTED BY IDOCK:   -1.35 KCAL/MOL
REMARK 927      BINDING AFFINITY PREDICTED BY RF-SCORE:    0.00 PKD
ROOT
HETATM    1  C   UNL     1      -8.799  15.166  66.465  1.00  0.00    -0.312 C  
HETATM    2  C   UNL     1      -8.161  16.459  67.000  1.00  0.00    -0.235 C  
HETATM    3  C   UNL     1      -8.744  17.664  66.305  1.00  0.00    -0.179 C  
HETATM    4  C   UNL     1     -10.239  17.796  66.370  1.00  0.00    -0.365 C  
HETATM    5  O   UNL     1      -8.041  18.523  65.777  1.00  0.00    -0.490 OA 
HETATM    6  C   UNL     1     -10.872  16.534  65.805  1.00  0.00    -0.137 C  
HETATM    7  C   UNL     1     -10.350  15.270  66.509  1.00  0.00    -0.289 C  
HETATM    8  C   UNL     1     -10.960  13.943  65.987  1.00  0.00    -0.285 C  
HETATM    9  C   UNL     1     -10.528  13.536  64.566  1.00  0.00    -0.426 C  
HETATM   10  C   UNL     1     -12.499  13.992  66.005  1.00  0.00    -0.489 C  
HETATM   11  O   UNL     1     -10.607  12.880  66.896  1.00  0.00    -0.250 OA 
HETATM   12  C   UNL     1      -9.319  12.859  67.367  1.00  0.00    -0.194 A  
HETATM   13  C   UNL     1      -8.995  11.697  68.084  1.00  0.00    -0.182 A  
HETATM   14  C   UNL     1      -7.715  11.493  68.616  1.00  0.00    -0.139 A  
HETATM   15  H   UNL     1      -6.318  15.347  66.934  1.00  0.00     0.000 HD 
HETATM   16  C   UNL     1      -6.762  12.492  68.369  1.00  0.00    -0.081 A  
HETATM   17  C   UNL     1      -7.088  13.654  67.659  1.00  0.00    -0.170 A  
HETATM   18  O   UNL     1      -6.096  14.559  67.416  1.00  0.00    -0.340 OA 
HETATM   19  C   UNL     1      -8.383  13.890  67.183  1.00  0.00    -0.171 A  
ENDROOT
BRANCH  14  20
HETATM   20  C   UNL     1      -7.334  10.243  69.431  1.00  0.00    -0.115 C  
HETATM   21  C   UNL     1      -6.577   9.175  68.608  1.00  0.00    -0.054 C  
HETATM   22  C   UNL     1      -6.379  10.671  70.574  1.00  0.00    -0.076 C  
BRANCH  20  23
HETATM   23  C   UNL     1      -8.599   9.590  70.076  1.00  0.00    -0.234 C  
BRANCH  23  24
HETATM   24  C   UNL     1      -9.042   8.271  69.432  1.00  0.00    -0.154 C  
BRANCH  24  25
HETATM   25  C   UNL     1     -10.439   8.378  68.815  1.00  0.00    -0.202 C  
BRANCH  25  26
HETATM   26  C   UNL     1     -10.431   7.851  67.379  1.00  0.00    -0.360 C  
BRANCH  26  27
HETATM   27  C   UNL     1      -9.111   8.143  66.671  1.00  0.00    -0.202 C  
HETATM   28  C   UNL     1      -9.306   9.155  65.552  1.00  0.00    -0.287 C  
ENDBRANCH  26  27
ENDBRANCH  25  26
ENDBRANCH  24  25
ENDBRANCH  23  24
ENDBRANCH  20  23
ENDBRANCH  14  20
TORSDOF 6
ENDMDL
MODEL       68
REMARK 921   NORMALIZED FREE ENERGY PREDICTED BY IDOCK:   -4.26 KCAL/MOL
REMARK 922        TOTAL FREE ENERGY PREDICTED BY IDOCK:   -7.77 KCAL/MOL
REMARK 923 INTER-LIGAND FREE ENERGY PREDICTED BY IDOCK:   -7.25 KCAL/MOL
REMARK 924 INTRA-LIGAND FREE ENERGY PREDICTED BY IDOCK:   -0.51 KCAL/MOL
REMARK 927      BINDING AFFINITY PREDICTED BY RF-SCORE:    0.00 PKD
ROOT
HETATM    1  C   UNL     1      -8.902  12.098  67.882  1.00  0.00    -0.177 C  
HETATM    2  C   UNL     1      -7.618  12.740  68.437  1.00  0.00    -0.133 C  
HETATM    3  C   UNL     1      -7.125  13.822  67.509  1.00  0.00    -0.157 C  
HETATM    4  C   UNL     1      -8.112  14.908  67.188  1.00  0.00    -0.239 C  
HETATM    5  O   UNL     1      -5.968  13.856  67.094  1.00  0.00    -0.216 OA 
HETATM    6  C   UNL     1      -9.367  14.279  66.603  1.00  0.00    -0.302 C  
HETATM    7  C   UNL     1      -9.946  13.195  67.529  1.00  0.00    -0.223 C  
HETATM    8  C   UNL     1     -11.235  12.515  66.998  1.00  0.00    -0.302 C  
HETATM    9  C   UNL     1     -11.038  11.602  65.774  1.00  0.00    -0.313 C  
HETATM   10  C   UNL     1     -12.304  13.558  66.629  1.00  0.00    -0.351 C  
HETATM   11  O   UNL     1     -11.820  11.736  68.062  1.00  0.00    -0.484 OA 
HETATM   12  C   UNL     1     -10.968  10.992  68.838  1.00  0.00    -0.227 A  
HETATM   13  C   UNL     1     -11.621  10.114  69.717  1.00  0.00    -0.245 A  
HETATM   14  C   UNL     1     -10.908   9.259  70.567  1.00  0.00    -0.318 A  
HETATM   15  H   UNL     1      -7.057  10.721  68.933  1.00  0.00     0.000 HD 
HETATM   16  C   UNL     1      -9.509   9.298  70.472  1.00  0.00    -0.317 A  
HETATM   17  C   UNL     1      -8.859  10.177  69.599  1.00  0.00    -0.164 A  
HETATM   18  O   UNL     1      -7.497  10.124  69.527  1.00  0.00    -0.101 OA 
HETATM   19  C   UNL     1      -9.568  11.079  68.796  1.00  0.00    -0.194 A  
ENDROOT
BRANCH  14  20
HETATM   20  C   UNL     1     -11.591   8.305  71.564  1.00  0.00    -0.326 C  
HETATM   21  C   UNL     1     -10.683   7.892  72.746  1.00  0.00    -0.435 C  
HETATM   22  C   UNL     1     -12.812   9.028  72.183  1.00  0.00    -0.478 C  
BRANCH  20  23
HETATM   23  C   UNL     1     -12.106   7.017  70.842  1.00  0.00    -0.403 C  
BRANCH  23  24
HETATM   24  C   UNL     1     -11.225   6.530  69.685  1.00  0.00    -0.446 C  
BRANCH  24  25
HETATM   25  C   UNL     1      -9.978   5.798  70.185  1.00  0.00    -0.258 C  
BRANCH  25  26
HETATM   26  C   UNL     1      -9.888   4.405  69.558  1.00  0.00    -0.258 C  
BRANCH  26  27
HETATM   27  C   UNL     1      -8.534   4.161  68.899  1.00  0.00    -0.099 C  
HETATM   28  C   UNL     1      -7.867   5.476  68.522  1.00  0.00    -0.088 C  
ENDBRANCH  26  27
ENDBRANCH  25  26
ENDBRANCH  24  25
ENDBRANCH  23  24
ENDBRANCH  20  23
ENDBRANCH  14  20
TORSDOF 6
ENDMDL
MODEL       69
REMARK 921   NORMALIZED FREE ENERGY PREDICTED BY IDOCK:   -4.24 KCAL/MOL
REMARK 922        TOTAL FREE ENERGY PREDICTED BY IDOCK:   -7.74 KCAL/MOL
REMARK 923 INTER-LIGAND FREE ENERGY PREDICTED BY IDOCK:   -6.57 KCAL/MOL
REMARK 924 INTRA-LIGAND FREE ENERGY PREDICTED BY IDOCK:   -1.17 KCAL/MOL
REMARK 927      BINDING AFFINITY PREDICTED BY RF-SCORE:    0.00 PKD
ROOT
HETATM    1  C   UNL     1      -9.424  17.441  68.070  1.00  0.00    -0.281 C  
HETATM    2  C   UNL     1     -10.534  18.504  67.991  1.00  0.00    -0.395 C  
HETATM    3  C   UNL     1      -9.976  19.873  68.286  1.00  0.00    -0.432 C  
HETATM    4  C   UNL     1      -8.823  20.309  67.427  1.00  0.00    -0.442 C  
HETATM    5  O   UNL     1     -10.473  20.619  69.128  1.00  0.00     0.056 OA 
HETATM    6  C   UNL     1      -7.709  19.279  67.535  1.00  0.00    -0.278 C  
HETATM    7  C   UNL     1      -8.208  17.863  67.198  1.00  0.00    -0.228 C  
HETATM    8  C   UNL     1      -7.120  16.760  67.280  1.00  0.00    -0.173 C  
HETATM    9  C   UNL     1      -6.625  16.431  68.700  1.00  0.00    -0.142 C  
HETATM   10  C   UNL     1      -5.888  17.129  66.435  1.00  0.00    -0.166 C  
HETATM   11  O   UNL     1      -7.638  15.553  66.683  1.00  0.00    -0.120 OA 
HETATM   12  C   UNL     1      -8.932  15.210  66.982  1.00  0.00    -0.234 A  
HETATM   13  C   UNL     1      -9.299  13.933  66.530  1.00  0.00    -0.264 A  
HETATM   14  C   UNL     1     -10.576  13.406  66.769  1.00  0.00    -0.277 A  
HETATM   15  H   UNL     1     -11.737  17.044  69.018  1.00  0.00     0.000 HD 
HETATM   16  C   UNL     1     -11.458  14.205  67.512  1.00  0.00    -0.365 A  
HETATM   17  C   UNL     1     -11.092  15.480  67.957  1.00  0.00    -0.322 A  
HETATM   18  O   UNL     1     -11.986  16.178  68.716  1.00  0.00    -0.286 OA 
HETATM   19  C   UNL     1      -9.841  16.034  67.664  1.00  0.00    -0.235 A  
ENDROOT
BRANCH  14  20
HETATM   20  C   UNL     1     -11.021  12.022  66.263  1.00  0.00    -0.340 C  
HETATM   21  C   UNL     1     -11.636  11.129  67.366  1.00  0.00    -0.157 C  
HETATM   22  C   UNL     1     -12.126  12.219  65.195  1.00  0.00    -0.379 C  
BRANCH  20  23
HETATM   23  C   UNL     1      -9.831  11.261  65.595  1.00  0.00    -0.277 C  
BRANCH  23  24
HETATM   24  C   UNL     1      -9.918   9.733  65.672  1.00  0.00    -0.352 C  
BRANCH  24  25
HETATM   25  C   UNL     1      -8.694   9.125  66.362  1.00  0.00    -0.147 C  
BRANCH  25  26
HETATM   26  C   UNL     1      -8.218  10.029  67.501  1.00  0.00    -0.114 C  
BRANCH  26  27
HETATM   27  C   UNL     1      -6.709  10.251  67.462  1.00  0.00    -0.071 C  
HETATM   28  C   UNL     1      -6.377  11.647  66.958  1.00  0.00    -0.149 C  
ENDBRANCH  26  27
ENDBRANCH  25  26
ENDBRANCH  24  25
ENDBRANCH  23  24
ENDBRANCH  20  23
ENDBRANCH  14  20
TORSDOF 6
ENDMDL
MODEL       70
REMARK 921   NORMALIZED FREE ENERGY PREDICTED BY IDOCK:   -4.23 KCAL/MOL
REMARK 922        TOTAL FREE ENERGY PREDICTED BY IDOCK:   -7.73 KCAL/MOL
REMARK 923 INTER-LIGAND FREE ENERGY PREDICTED BY IDOCK:   -7.56 KCAL/MOL
REMARK 924 INTRA-LIGAND FREE ENERGY PREDICTED BY IDOCK:   -0.17 KCAL/MOL
REMARK 927      BINDING AFFINITY PREDICTED BY RF-SCORE:    0.00 PKD
ROOT
HETATM    1  C   UNL     1     -10.684  14.426  65.541  1.00  0.00    -0.344 C  
HETATM    2  C   UNL     1     -12.016  14.413  64.770  1.00  0.00    -0.455 C  
HETATM    3  C   UNL     1     -12.367  13.009  64.346  1.00  0.00    -0.376 C  
HETATM    4  C   UNL     1     -12.431  11.989  65.447  1.00  0.00     0.420 C  
HETATM    5  O   UNL     1     -12.651  12.725  63.184  1.00  0.00    -0.624 OA 
HETATM    6  C   UNL     1     -11.102  11.973  66.184  1.00  0.00    -0.367 C  
HETATM    7  C   UNL     1     -10.710  13.374  66.685  1.00  0.00    -0.282 C  
HETATM    8  C   UNL     1      -9.365  13.431  67.455  1.00  0.00    -0.218 C  
HETATM    9  C   UNL     1      -8.107  13.201  66.597  1.00  0.00     0.366 C  
HETATM   10  C   UNL     1      -9.335  12.404  68.602  1.00  0.00    -0.004 C  
HETATM   11  O   UNL     1      -9.253  14.717  68.099  1.00  0.00    -0.181 OA 
HETATM   12  C   UNL     1      -9.630  15.817  67.373  1.00  0.00    -0.217 A  
HETATM   13  C   UNL     1      -9.311  17.039  67.986  1.00  0.00    -0.245 A  
HETATM   14  C   UNL     1      -9.598  18.267  67.375  1.00  0.00    -0.284 A  
HETATM   15  H   UNL     1     -11.264  16.197  63.828  1.00  0.00     0.000 HD 
HETATM   16  C   UNL     1     -10.191  18.215  66.104  1.00  0.00    -0.372 A  
HETATM   17  C   UNL     1     -10.515  16.996  65.497  1.00  0.00    -0.166 A  
HETATM   18  O   UNL     1     -11.045  17.025  64.240  1.00  0.00    -1.092 OA 
HETATM   19  C   UNL     1     -10.288  15.771  66.134  1.00  0.00    -0.333 A  
ENDROOT
BRANCH  14  20
HETATM   20  C   UNL     1      -9.288  19.624  68.031  1.00  0.00    -0.425 C  
HETATM   21  C   UNL     1      -9.897  20.830  67.276  1.00  0.00    -0.433 C  
HETATM   22  C   UNL     1      -9.907  19.640  69.451  1.00  0.00    -0.235 C  
BRANCH  20  23
HETATM   23  C   UNL     1      -7.746  19.837  68.173  1.00  0.00    -0.336 C  
BRANCH  23  24
HETATM   24  C   UNL     1      -6.960  18.593  68.602  1.00  0.00    -0.297 C  
BRANCH  24  25
HETATM   25  C   UNL     1      -5.591  18.954  69.183  1.00  0.00    -0.215 C  
BRANCH  25  26
HETATM   26  C   UNL     1      -5.313  18.136  70.446  1.00  0.00    -0.255 C  
BRANCH  26  27
HETATM   27  C   UNL     1      -5.293  19.008  71.698  1.00  0.00    -0.309 C  
HETATM   28  C   UNL     1      -5.227  20.483  71.334  1.00  0.00    -0.279 C  
ENDBRANCH  26  27
ENDBRANCH  25  26
ENDBRANCH  24  25
ENDBRANCH  23  24
ENDBRANCH  20  23
ENDBRANCH  14  20
TORSDOF 6
ENDMDL
MODEL       71
REMARK 921   NORMALIZED FREE ENERGY PREDICTED BY IDOCK:   -4.20 KCAL/MOL
REMARK 922        TOTAL FREE ENERGY PREDICTED BY IDOCK:   -7.69 KCAL/MOL
REMARK 923 INTER-LIGAND FREE ENERGY PREDICTED BY IDOCK:   -6.13 KCAL/MOL
REMARK 924 INTRA-LIGAND FREE ENERGY PREDICTED BY IDOCK:   -1.56 KCAL/MOL
REMARK 927      BINDING AFFINITY PREDICTED BY RF-SCORE:    0.00 PKD
ROOT
HETATM    1  C   UNL     1     -10.664  12.651  65.888  1.00  0.00    -0.293 C  
HETATM    2  C   UNL     1     -10.806  12.916  64.379  1.00  0.00    -0.404 C  
HETATM    3  C   UNL     1     -11.819  14.005  64.127  1.00  0.00    -0.365 C  
HETATM    4  C   UNL     1     -11.566  15.308  64.828  1.00  0.00    -0.322 C  
HETATM    5  O   UNL     1     -12.756  13.863  63.343  1.00  0.00    -0.806 OA 
HETATM    6  C   UNL     1     -11.464  15.054  66.323  1.00  0.00    -0.214 C  
HETATM    7  C   UNL     1     -10.410  13.983  66.649  1.00  0.00    -0.278 C  
HETATM    8  C   UNL     1     -10.246  13.677  68.161  1.00  0.00    -0.247 C  
HETATM    9  C   UNL     1     -11.434  12.949  68.815  1.00  0.00    -0.345 C  
HETATM   10  C   UNL     1      -9.995  14.965  68.966  1.00  0.00    -0.235 C  
HETATM   11  O   UNL     1      -9.059  12.879  68.347  1.00  0.00    -0.190 OA 
HETATM   12  C   UNL     1      -8.840  11.862  67.454  1.00  0.00    -0.171 A  
HETATM   13  C   UNL     1      -7.782  11.011  67.810  1.00  0.00    -0.108 A  
HETATM   14  C   UNL     1      -7.433   9.902  67.028  1.00  0.00    -0.091 A  
HETATM   15  H   UNL     1     -10.726  10.773  64.193  1.00  0.00     0.000 HD 
HETATM   16  C   UNL     1      -8.215   9.664  65.887  1.00  0.00    -0.119 A  
HETATM   17  C   UNL     1      -9.266  10.517  65.530  1.00  0.00    -0.188 A  
HETATM   18  O   UNL     1     -10.012  10.194  64.434  1.00  0.00    -0.314 OA 
HETATM   19  C   UNL     1      -9.574  11.661  66.275  1.00  0.00    -0.241 A  
ENDROOT
BRANCH  14  20
HETATM   20  C   UNL     1      -6.261   8.966  67.373  1.00  0.00    -0.055 C  
HETATM   21  C   UNL     1      -5.631   8.281  66.138  1.00  0.00    -0.035 C  
HETATM   22  C   UNL     1      -5.135   9.804  68.029  1.00  0.00    -0.032 C  
BRANCH  20  23
HETATM   23  C   UNL     1      -6.705   7.869  68.394  1.00  0.00    -0.066 C  
BRANCH  23  24
HETATM   24  C   UNL     1      -7.306   6.607  67.764  1.00  0.00    -0.096 C  
BRANCH  24  25
HETATM   25  C   UNL     1      -8.679   6.274  68.351  1.00  0.00    -0.116 C  
BRANCH  25  26
HETATM   26  C   UNL     1      -9.341   7.534  68.911  1.00  0.00    -0.142 C  
BRANCH  26  27
HETATM   27  C   UNL     1     -10.439   8.060  67.991  1.00  0.00    -0.243 C  
HETATM   28  C   UNL     1     -10.840   7.010  66.966  1.00  0.00    -0.413 C  
ENDBRANCH  26  27
ENDBRANCH  25  26
ENDBRANCH  24  25
ENDBRANCH  23  24
ENDBRANCH  20  23
ENDBRANCH  14  20
TORSDOF 6
ENDMDL
MODEL       72
REMARK 921   NORMALIZED FREE ENERGY PREDICTED BY IDOCK:   -4.18 KCAL/MOL
REMARK 922        TOTAL FREE ENERGY PREDICTED BY IDOCK:   -7.67 KCAL/MOL
REMARK 923 INTER-LIGAND FREE ENERGY PREDICTED BY IDOCK:   -6.39 KCAL/MOL
REMARK 924 INTRA-LIGAND FREE ENERGY PREDICTED BY IDOCK:   -1.28 KCAL/MOL
REMARK 927      BINDING AFFINITY PREDICTED BY RF-SCORE:    0.00 PKD
ROOT
HETATM    1  C   UNL     1     -11.726  12.307  70.349  1.00  0.00    -0.127 C  
HETATM    2  C   UNL     1     -12.866  12.313  71.382  1.00  0.00    -0.373 C  
HETATM    3  C   UNL     1     -13.256  13.727  71.730  1.00  0.00    -0.386 C  
HETATM    4  C   UNL     1     -13.645  14.602  70.573  1.00  0.00     0.175 C  
HETATM    5  O   UNL     1     -13.321  14.125  72.892  1.00  0.00    -0.573 OA 
HETATM    6  C   UNL     1     -12.503  14.629  69.568  1.00  0.00    -0.151 C  
HETATM    7  C   UNL     1     -12.090  13.211  69.138  1.00  0.00    -0.261 C  
HETATM    8  C   UNL     1     -10.933  13.162  68.105  1.00  0.00    -0.251 C  
HETATM    9  C   UNL     1      -9.554  13.583  68.645  1.00  0.00    -0.077 C  
HETATM   10  C   UNL     1     -11.239  14.046  66.883  1.00  0.00    -0.323 C  
HETATM   11  O   UNL     1     -10.832  11.821  67.585  1.00  0.00    -0.199 OA 
HETATM   12  C   UNL     1     -10.943  10.789  68.481  1.00  0.00    -0.243 A  
HETATM   13  C   UNL     1     -10.640   9.530  67.939  1.00  0.00    -0.299 A  
HETATM   14  C   UNL     1     -10.676   8.366  68.718  1.00  0.00    -0.086 A  
HETATM   15  H   UNL     1     -11.768  10.713  72.315  1.00  0.00     0.000 HD 
HETATM   16  C   UNL     1     -10.997   8.524  70.074  1.00  0.00    -0.197 A  
HETATM   17  C   UNL     1     -11.304   9.779  70.612  1.00  0.00    -0.330 A  
HETATM   18  O   UNL     1     -11.559   9.860  71.950  1.00  0.00    -0.200 OA 
HETATM   19  C   UNL     1     -11.333  10.934  69.822  1.00  0.00    -0.374 A  
ENDROOT
BRANCH  14  20
HETATM   20  C   UNL     1     -10.377   6.967  68.150  1.00  0.00    -0.223 C  
HETATM   21  C   UNL     1     -10.915   6.754  66.715  1.00  0.00    -0.248 C  
HETATM   22  C   UNL     1      -8.841   6.782  68.072  1.00  0.00    -0.119 C  
BRANCH  20  23
HETATM   23  C   UNL     1     -10.953   5.851  69.081  1.00  0.00    -0.382 C  
BRANCH  23  24
HETATM   24  C   UNL     1      -9.928   4.812  69.552  1.00  0.00    -0.287 C  
BRANCH  24  25
HETATM   25  C   UNL     1      -9.940   4.647  71.073  1.00  0.00    -0.270 C  
BRANCH  25  26
HETATM   26  C   UNL     1      -8.948   5.613  71.723  1.00  0.00    -0.142 C  
BRANCH  26  27
HETATM   27  C   UNL     1      -9.651   6.669  72.572  1.00  0.00    -0.162 C  
HETATM   28  C   UNL     1     -11.052   6.216  72.953  1.00  0.00    -0.281 C  
ENDBRANCH  26  27
ENDBRANCH  25  26
ENDBRANCH  24  25
ENDBRANCH  23  24
ENDBRANCH  20  23
ENDBRANCH  14  20
TORSDOF 6
ENDMDL
MODEL       73
REMARK 921   NORMALIZED FREE ENERGY PREDICTED BY IDOCK:   -4.18 KCAL/MOL
REMARK 922        TOTAL FREE ENERGY PREDICTED BY IDOCK:   -7.66 KCAL/MOL
REMARK 923 INTER-LIGAND FREE ENERGY PREDICTED BY IDOCK:   -5.89 KCAL/MOL
REMARK 924 INTRA-LIGAND FREE ENERGY PREDICTED BY IDOCK:   -1.77 KCAL/MOL
REMARK 927      BINDING AFFINITY PREDICTED BY RF-SCORE:    0.00 PKD
ROOT
HETATM    1  C   UNL     1      -9.481   4.383  66.735  1.00  0.00    -0.194 C  
HETATM    2  C   UNL     1     -10.466   4.408  65.553  1.00  0.00    -0.228 C  
HETATM    3  C   UNL     1      -9.888   3.678  64.368  1.00  0.00    -0.185 C  
HETATM    4  C   UNL     1      -9.464   2.259  64.617  1.00  0.00    -0.102 C  
HETATM    5  O   UNL     1      -9.829   4.184  63.248  1.00  0.00    -0.148 OA 
HETATM    6  C   UNL     1      -8.460   2.236  65.758  1.00  0.00    -0.100 C  
HETATM    7  C   UNL     1      -9.012   2.927  67.017  1.00  0.00    -0.177 C  
HETATM    8  C   UNL     1      -8.042   2.935  68.227  1.00  0.00    -0.061 C  
HETATM    9  C   UNL     1      -6.803   3.835  68.069  1.00  0.00    -0.047 C  
HETATM   10  C   UNL     1      -7.542   1.514  68.549  1.00  0.00    -0.046 C  
HETATM   11  O   UNL     1      -8.767   3.353  69.401  1.00  0.00    -0.066 OA 
HETATM   12  C   UNL     1      -9.635   4.406  69.261  1.00  0.00    -0.191 A  
HETATM   13  C   UNL     1     -10.152   4.882  70.476  1.00  0.00    -0.312 A  
HETATM   14  C   UNL     1     -11.033   5.970  70.525  1.00  0.00    -0.388 A  
HETATM   15  H   UNL     1     -10.798   6.457  66.127  1.00  0.00     0.000 HD 
HETATM   16  C   UNL     1     -11.347   6.583  69.303  1.00  0.00    -0.359 A  
HETATM   17  C   UNL     1     -10.835   6.105  68.092  1.00  0.00    -0.306 A  
HETATM   18  O   UNL     1     -11.146   6.783  66.949  1.00  0.00    -0.397 OA 
HETATM   19  C   UNL     1     -10.007   4.978  68.034  1.00  0.00    -0.189 A  
ENDROOT
BRANCH  14  20
HETATM   20  C   UNL     1     -11.642   6.499  71.837  1.00  0.00    -0.357 C  
HETATM   21  C   UNL     1     -13.065   7.082  71.668  1.00  0.00    -0.384 C  
HETATM   22  C   UNL     1     -11.769   5.320  72.834  1.00  0.00    -0.228 C  
BRANCH  20  23
HETATM   23  C   UNL     1     -10.720   7.583  72.484  1.00  0.00    -0.335 C  
BRANCH  23  24
HETATM   24  C   UNL     1     -10.894   8.997  71.919  1.00  0.00    -0.413 C  
BRANCH  24  25
HETATM   25  C   UNL     1      -9.657   9.460  71.146  1.00  0.00    -0.220 C  
BRANCH  25  26
HETATM   26  C   UNL     1      -8.445   8.600  71.511  1.00  0.00    -0.238 C  
BRANCH  26  27
HETATM   27  C   UNL     1      -7.926   7.808  70.314  1.00  0.00    -0.100 C  
HETATM   28  C   UNL     1      -8.131   8.580  69.020  1.00  0.00    -0.115 C  
ENDBRANCH  26  27
ENDBRANCH  25  26
ENDBRANCH  24  25
ENDBRANCH  23  24
ENDBRANCH  20  23
ENDBRANCH  14  20
TORSDOF 6
ENDMDL
MODEL       74
REMARK 921   NORMALIZED FREE ENERGY PREDICTED BY IDOCK:   -4.18 KCAL/MOL
REMARK 922        TOTAL FREE ENERGY PREDICTED BY IDOCK:   -7.66 KCAL/MOL
REMARK 923 INTER-LIGAND FREE ENERGY PREDICTED BY IDOCK:   -6.44 KCAL/MOL
REMARK 924 INTRA-LIGAND FREE ENERGY PREDICTED BY IDOCK:   -1.21 KCAL/MOL
REMARK 927      BINDING AFFINITY PREDICTED BY RF-SCORE:    0.00 PKD
ROOT
HETATM    1  C   UNL     1     -11.914  13.269  69.844  1.00  0.00    -0.400 C  
HETATM    2  C   UNL     1     -12.317  13.285  71.329  1.00  0.00    -0.254 C  
HETATM    3  C   UNL     1     -12.989  11.989  71.708  1.00  0.00    -0.340 C  
HETATM    4  C   UNL     1     -12.203  10.740  71.431  1.00  0.00    -0.374 C  
HETATM    5  O   UNL     1     -14.081  11.955  72.272  1.00  0.00     0.150 OA 
HETATM    6  C   UNL     1     -11.838  10.702  69.955  1.00  0.00    -0.392 C  
HETATM    7  C   UNL     1     -11.105  11.982  69.517  1.00  0.00    -0.140 C  
HETATM    8  C   UNL     1     -10.694  12.010  68.021  1.00  0.00    -0.212 C  
HETATM    9  C   UNL     1     -11.859  12.132  67.023  1.00  0.00    -0.288 C  
HETATM   10  C   UNL     1      -9.891  10.753  67.641  1.00  0.00    -0.193 C  
HETATM   11  O   UNL     1      -9.789  13.113  67.809  1.00  0.00    -0.216 OA 
HETATM   12  C   UNL     1     -10.096  14.302  68.418  1.00  0.00    -0.243 A  
HETATM   13  C   UNL     1      -9.287  15.375  68.011  1.00  0.00    -0.196 A  
HETATM   14  C   UNL     1      -9.476  16.670  68.510  1.00  0.00    -0.239 A  
HETATM   15  H   UNL     1     -12.924  15.314  70.941  1.00  0.00     0.000 HD 
HETATM   16  C   UNL     1     -10.535  16.851  69.412  1.00  0.00    -0.283 A  
HETATM   17  C   UNL     1     -11.337  15.780  69.821  1.00  0.00    -0.339 A  
HETATM   18  O   UNL     1     -12.379  16.041  70.663  1.00  0.00    -0.341 OA 
HETATM   19  C   UNL     1     -11.110  14.473  69.375  1.00  0.00    -0.297 A  
ENDROOT
BRANCH  14  20
HETATM   20  C   UNL     1      -8.589  17.863  68.107  1.00  0.00    -0.265 C  
HETATM   21  C   UNL     1      -8.845  19.136  68.947  1.00  0.00    -0.319 C  
HETATM   22  C   UNL     1      -7.107  17.477  68.340  1.00  0.00    -0.222 C  
BRANCH  20  23
HETATM   23  C   UNL     1      -8.768  18.206  66.593  1.00  0.00    -0.279 C  
BRANCH  23  24
HETATM   24  C   UNL     1     -10.081  18.915  66.243  1.00  0.00    -0.460 C  
BRANCH  24  25
HETATM   25  C   UNL     1     -11.034  18.003  65.466  1.00  0.00     0.309 C  
BRANCH  25  26
HETATM   26  C   UNL     1     -10.375  16.649  65.194  1.00  0.00    -0.000 C  
BRANCH  26  27
HETATM   27  C   UNL     1     -11.349  15.656  64.566  1.00  0.00    -0.327 C  
HETATM   28  C   UNL     1     -10.739  14.263  64.500  1.00  0.00    -0.280 C  
ENDBRANCH  26  27
ENDBRANCH  25  26
ENDBRANCH  24  25
ENDBRANCH  23  24
ENDBRANCH  20  23
ENDBRANCH  14  20
TORSDOF 6
ENDMDL
MODEL       75
REMARK 921   NORMALIZED FREE ENERGY PREDICTED BY IDOCK:   -4.15 KCAL/MOL
REMARK 922        TOTAL FREE ENERGY PREDICTED BY IDOCK:   -7.62 KCAL/MOL
REMARK 923 INTER-LIGAND FREE ENERGY PREDICTED BY IDOCK:   -7.03 KCAL/MOL
REMARK 924 INTRA-LIGAND FREE ENERGY PREDICTED BY IDOCK:   -0.60 KCAL/MOL
REMARK 927      BINDING AFFINITY PREDICTED BY RF-SCORE:    0.00 PKD
ROOT
HETATM    1  C   UNL     1      -9.821  12.698  66.431  1.00  0.00    -0.263 C  
HETATM    2  C   UNL     1      -8.856  11.514  66.241  1.00  0.00    -0.186 C  
HETATM    3  C   UNL     1      -9.568  10.349  65.601  1.00  0.00    -0.226 C  
HETATM    4  C   UNL     1     -10.248  10.637  64.293  1.00  0.00    -0.391 C  
HETATM    5  O   UNL     1      -9.540   9.217  66.080  1.00  0.00    -0.224 OA 
HETATM    6  C   UNL     1     -11.231  11.781  64.487  1.00  0.00    -0.368 C  
HETATM    7  C   UNL     1     -10.551  13.019  65.096  1.00  0.00    -0.327 C  
HETATM    8  C   UNL     1     -11.495  14.231  65.315  1.00  0.00    -0.344 C  
HETATM    9  C   UNL     1     -12.545  14.052  66.427  1.00  0.00    -0.287 C  
HETATM   10  C   UNL     1     -12.248  14.591  64.022  1.00  0.00    -0.262 C  
HETATM   11  O   UNL     1     -10.696  15.392  65.621  1.00  0.00    -0.330 OA 
HETATM   12  C   UNL     1      -9.648  15.222  66.490  1.00  0.00    -0.271 A  
HETATM   13  C   UNL     1      -9.043  16.423  66.892  1.00  0.00    -0.238 A  
HETATM   14  C   UNL     1      -7.974  16.441  67.797  1.00  0.00    -0.160 A  
HETATM   15  H   UNL     1      -8.145  12.032  68.206  1.00  0.00     0.000 HD 
HETATM   16  C   UNL     1      -7.559  15.203  68.310  1.00  0.00    -0.109 A  
HETATM   17  C   UNL     1      -8.160  14.006  67.904  1.00  0.00    -0.156 A  
HETATM   18  O   UNL     1      -7.736  12.845  68.482  1.00  0.00    -0.129 OA 
HETATM   19  C   UNL     1      -9.184  13.979  66.950  1.00  0.00    -0.271 A  
ENDROOT
BRANCH  14  20
HETATM   20  C   UNL     1      -7.268  17.737  68.237  1.00  0.00    -0.237 C  
HETATM   21  C   UNL     1      -8.244  18.885  68.587  1.00  0.00    -0.380 C  
HETATM   22  C   UNL     1      -6.457  17.446  69.524  1.00  0.00    -0.208 C  
BRANCH  20  23
HETATM   23  C   UNL     1      -6.272  18.232  67.139  1.00  0.00    -0.184 C  
BRANCH  23  24
HETATM   24  C   UNL     1      -6.386  19.719  66.787  1.00  0.00    -0.192 C  
BRANCH  24  25
HETATM   25  C   UNL     1      -7.134  19.940  65.470  1.00  0.00    -0.327 C  
BRANCH  25  26
HETATM   26  C   UNL     1      -6.153  20.302  64.353  1.00  0.00    -0.329 C  
BRANCH  26  27
HETATM   27  C   UNL     1      -5.351  19.093  63.882  1.00  0.00    -0.313 C  
HETATM   28  C   UNL     1      -5.197  19.097  62.368  1.00  0.00    -0.316 C  
ENDBRANCH  26  27
ENDBRANCH  25  26
ENDBRANCH  24  25
ENDBRANCH  23  24
ENDBRANCH  20  23
ENDBRANCH  14  20
TORSDOF 6
ENDMDL
MODEL       76
REMARK 921   NORMALIZED FREE ENERGY PREDICTED BY IDOCK:   -4.11 KCAL/MOL
REMARK 922        TOTAL FREE ENERGY PREDICTED BY IDOCK:   -7.57 KCAL/MOL
REMARK 923 INTER-LIGAND FREE ENERGY PREDICTED BY IDOCK:   -6.36 KCAL/MOL
REMARK 924 INTRA-LIGAND FREE ENERGY PREDICTED BY IDOCK:   -1.21 KCAL/MOL
REMARK 927      BINDING AFFINITY PREDICTED BY RF-SCORE:    0.00 PKD
ROOT
HETATM    1  C   UNL     1     -10.792  13.612  69.145  1.00  0.00    -0.189 C  
HETATM    2  C   UNL     1     -12.226  13.792  69.674  1.00  0.00    -0.359 C  
HETATM    3  C   UNL     1     -12.490  15.240  70.000  1.00  0.00    -0.293 C  
HETATM    4  C   UNL     1     -12.258  16.216  68.882  1.00  0.00     0.327 C  
HETATM    5  O   UNL     1     -12.934  15.599  71.090  1.00  0.00    -0.480 OA 
HETATM    6  C   UNL     1     -10.829  16.067  68.384  1.00  0.00    -0.310 C  
HETATM    7  C   UNL     1     -10.512  14.614  67.989  1.00  0.00    -0.236 C  
HETATM    8  C   UNL     1      -9.071  14.388  67.463  1.00  0.00    -0.195 C  
HETATM    9  C   UNL     1      -7.958  14.522  68.519  1.00  0.00    -0.142 C  
HETATM   10  C   UNL     1      -8.738  15.359  66.316  1.00  0.00    -0.240 C  
HETATM   11  O   UNL     1      -8.991  13.072  66.877  1.00  0.00    -0.220 OA 
HETATM   12  C   UNL     1      -9.602  12.047  67.552  1.00  0.00    -0.177 A  
HETATM   13  C   UNL     1      -9.317  10.775  67.031  1.00  0.00    -0.174 A  
HETATM   14  C   UNL     1      -9.834   9.609  67.611  1.00  0.00    -0.202 A  
HETATM   15  H   UNL     1     -11.840  11.980  70.771  1.00  0.00     0.000 HD 
HETATM   16  C   UNL     1     -10.623   9.772  68.759  1.00  0.00    -0.244 A  
HETATM   17  C   UNL     1     -10.911  11.041  69.274  1.00  0.00    -0.252 A  
HETATM   18  O   UNL     1     -11.645  11.118  70.422  1.00  0.00    -0.310 OA 
HETATM   19  C   UNL     1     -10.450  12.211  68.658  1.00  0.00    -0.237 A  
ENDROOT
BRANCH  14  20
HETATM   20  C   UNL     1      -9.566   8.201  67.048  1.00  0.00    -0.253 C  
HETATM   21  C   UNL     1      -9.056   8.205  65.588  1.00  0.00    -0.092 C  
HETATM   22  C   UNL     1      -8.455   7.533  67.897  1.00  0.00    -0.122 C  
BRANCH  20  23
HETATM   23  C   UNL     1     -10.846   7.309  67.139  1.00  0.00    -0.378 C  
BRANCH  23  24
HETATM   24  C   UNL     1     -10.686   6.034  67.975  1.00  0.00    -0.359 C  
BRANCH  24  25
HETATM   25  C   UNL     1     -11.401   6.141  69.324  1.00  0.00    -0.361 C  
BRANCH  25  26
HETATM   26  C   UNL     1     -10.470   5.707  70.458  1.00  0.00    -0.347 C  
BRANCH  26  27
HETATM   27  C   UNL     1     -10.210   6.839  71.447  1.00  0.00    -0.216 C  
HETATM   28  C   UNL     1     -11.485   7.618  71.732  1.00  0.00    -0.302 C  
ENDBRANCH  26  27
ENDBRANCH  25  26
ENDBRANCH  24  25
ENDBRANCH  23  24
ENDBRANCH  20  23
ENDBRANCH  14  20
TORSDOF 6
ENDMDL
MODEL       77
REMARK 921   NORMALIZED FREE ENERGY PREDICTED BY IDOCK:   -4.10 KCAL/MOL
REMARK 922        TOTAL FREE ENERGY PREDICTED BY IDOCK:   -7.56 KCAL/MOL
REMARK 923 INTER-LIGAND FREE ENERGY PREDICTED BY IDOCK:   -6.51 KCAL/MOL
REMARK 924 INTRA-LIGAND FREE ENERGY PREDICTED BY IDOCK:   -1.05 KCAL/MOL
REMARK 927      BINDING AFFINITY PREDICTED BY RF-SCORE:    0.00 PKD
ROOT
HETATM    1  C   UNL     1      -9.816   9.216  71.424  1.00  0.00    -0.354 C  
HETATM    2  C   UNL     1      -8.770   8.281  72.054  1.00  0.00    -0.243 C  
HETATM    3  C   UNL     1      -9.188   7.882  73.447  1.00  0.00    -0.286 C  
HETATM    4  C   UNL     1     -10.544   7.246  73.566  1.00  0.00    -0.408 C  
HETATM    5  O   UNL     1      -8.443   8.003  74.418  1.00  0.00    -0.240 OA 
HETATM    6  C   UNL     1     -11.585   8.186  72.979  1.00  0.00    -0.035 C  
HETATM    7  C   UNL     1     -11.236   8.593  71.537  1.00  0.00    -0.360 C  
HETATM    8  C   UNL     1     -12.261   9.549  70.871  1.00  0.00    -0.254 C  
HETATM    9  C   UNL     1     -12.297  10.977  71.446  1.00  0.00    -0.368 C  
HETATM   10  C   UNL     1     -13.690   8.981  70.957  1.00  0.00    -0.030 C  
HETATM   11  O   UNL     1     -11.973   9.629  69.460  1.00  0.00     0.216 OA 
HETATM   12  C   UNL     1     -10.656   9.736  69.094  1.00  0.00    -0.218 A  
HETATM   13  C   UNL     1     -10.465  10.006  67.730  1.00  0.00    -0.282 A  
HETATM   14  C   UNL     1      -9.186  10.174  67.184  1.00  0.00    -0.157 A  
HETATM   15  H   UNL     1      -7.330   9.614  71.169  1.00  0.00     0.000 HD 
HETATM   16  C   UNL     1      -8.105  10.092  68.074  1.00  0.00    -0.112 A  
HETATM   17  C   UNL     1      -8.296   9.817  69.433  1.00  0.00    -0.152 A  
HETATM   18  O   UNL     1      -7.200   9.801  70.246  1.00  0.00    -0.119 OA 
HETATM   19  C   UNL     1      -9.568   9.584  69.968  1.00  0.00    -0.272 A  
ENDROOT
BRANCH  14  20
HETATM   20  C   UNL     1      -8.940  10.443  65.688  1.00  0.00    -0.198 C  
HETATM   21  C   UNL     1      -7.444  10.419  65.293  1.00  0.00    -0.113 C  
HETATM   22  C   UNL     1      -9.627   9.324  64.865  1.00  0.00     0.069 C  
BRANCH  20  23
HETATM   23  C   UNL     1      -9.560  11.811  65.257  1.00  0.00    -0.189 C  
BRANCH  23  24
HETATM   24  C   UNL     1     -10.204  11.817  63.866  1.00  0.00    -0.411 C  
BRANCH  24  25
HETATM   25  C   UNL     1     -11.620  12.399  63.895  1.00  0.00    -0.518 C  
BRANCH  25  26
HETATM   26  C   UNL     1     -12.080  12.616  65.338  1.00  0.00    -0.516 C  
BRANCH  26  27
HETATM   27  C   UNL     1     -12.552  14.046  65.578  1.00  0.00    -0.543 C  
HETATM   28  C   UNL     1     -12.113  14.962  64.445  1.00  0.00    -0.417 C  
ENDBRANCH  26  27
ENDBRANCH  25  26
ENDBRANCH  24  25
ENDBRANCH  23  24
ENDBRANCH  20  23
ENDBRANCH  14  20
TORSDOF 6
ENDMDL
MODEL       78
REMARK 921   NORMALIZED FREE ENERGY PREDICTED BY IDOCK:   -4.10 KCAL/MOL
REMARK 922        TOTAL FREE ENERGY PREDICTED BY IDOCK:   -7.55 KCAL/MOL
REMARK 923 INTER-LIGAND FREE ENERGY PREDICTED BY IDOCK:   -6.84 KCAL/MOL
REMARK 924 INTRA-LIGAND FREE ENERGY PREDICTED BY IDOCK:   -0.71 KCAL/MOL
REMARK 927      BINDING AFFINITY PREDICTED BY RF-SCORE:    0.00 PKD
ROOT
HETATM    1  C   UNL     1     -10.469   9.344  70.479  1.00  0.00    -0.335 C  
HETATM    2  C   UNL     1     -11.501   9.261  71.618  1.00  0.00    -0.468 C  
HETATM    3  C   UNL     1     -11.236   8.056  72.485  1.00  0.00    -0.388 C  
HETATM    4  C   UNL     1      -9.857   7.963  73.071  1.00  0.00    -0.355 C  
HETATM    5  O   UNL     1     -12.111   7.234  72.754  1.00  0.00    -0.039 OA 
HETATM    6  C   UNL     1      -8.837   8.005  71.945  1.00  0.00    -0.191 C  
HETATM    7  C   UNL     1      -9.026   9.241  71.049  1.00  0.00    -0.225 C  
HETATM    8  C   UNL     1      -8.013   9.353  69.881  1.00  0.00    -0.130 C  
HETATM    9  C   UNL     1      -8.182   8.308  68.763  1.00  0.00    -0.117 C  
HETATM   10  C   UNL     1      -6.563   9.255  70.389  1.00  0.00    -0.068 C  
HETATM   11  O   UNL     1      -8.118  10.669  69.299  1.00  0.00    -0.153 OA 
HETATM   12  C   UNL     1      -9.380  11.173  69.112  1.00  0.00     0.039 A  
HETATM   13  C   UNL     1      -9.412  12.362  68.366  1.00  0.00    -0.169 A  
HETATM   14  C   UNL     1     -10.618  13.004  68.055  1.00  0.00    -0.246 A  
HETATM   15  H   UNL     1     -12.926   9.824  70.104  1.00  0.00     0.000 HD 
HETATM   16  C   UNL     1     -11.796  12.382  68.497  1.00  0.00    -0.352 A  
HETATM   17  C   UNL     1     -11.762  11.199  69.244  1.00  0.00    -0.331 A  
HETATM   18  O   UNL     1     -12.950  10.627  69.597  1.00  0.00    -0.120 OA 
HETATM   19  C   UNL     1     -10.556  10.592  69.612  1.00  0.00    -0.281 A  
ENDROOT
BRANCH  14  20
HETATM   20  C   UNL     1     -10.688  14.323  67.266  1.00  0.00    -0.277 C  
HETATM   21  C   UNL     1     -11.632  14.263  66.042  1.00  0.00    -0.362 C  
HETATM   22  C   UNL     1     -11.249  15.428  68.196  1.00  0.00    -0.326 C  
BRANCH  20  23
HETATM   23  C   UNL     1      -9.266  14.766  66.791  1.00  0.00    -0.282 C  
BRANCH  23  24
HETATM   24  C   UNL     1      -9.238  16.041  65.940  1.00  0.00    -0.321 C  
BRANCH  24  25
HETATM   25  C   UNL     1      -8.033  16.924  66.271  1.00  0.00    -0.350 C  
BRANCH  25  26
HETATM   26  C   UNL     1      -8.486  18.351  66.585  1.00  0.00    -0.283 C  
BRANCH  26  27
HETATM   27  C   UNL     1      -8.675  18.575  68.082  1.00  0.00    -0.330 C  
HETATM   28  C   UNL     1      -7.482  19.308  68.678  1.00  0.00    -0.380 C  
ENDBRANCH  26  27
ENDBRANCH  25  26
ENDBRANCH  24  25
ENDBRANCH  23  24
ENDBRANCH  20  23
ENDBRANCH  14  20
TORSDOF 6
ENDMDL
MODEL       79
REMARK 921   NORMALIZED FREE ENERGY PREDICTED BY IDOCK:   -4.07 KCAL/MOL
REMARK 922        TOTAL FREE ENERGY PREDICTED BY IDOCK:   -7.52 KCAL/MOL
REMARK 923 INTER-LIGAND FREE ENERGY PREDICTED BY IDOCK:   -6.89 KCAL/MOL
REMARK 924 INTRA-LIGAND FREE ENERGY PREDICTED BY IDOCK:   -0.63 KCAL/MOL
REMARK 927      BINDING AFFINITY PREDICTED BY RF-SCORE:    0.00 PKD
ROOT
HETATM    1  C   UNL     1     -11.489  13.601  69.482  1.00  0.00    -0.324 C  
HETATM    2  C   UNL     1     -11.890  13.893  70.938  1.00  0.00    -0.204 C  
HETATM    3  C   UNL     1     -12.989  12.960  71.381  1.00  0.00    -0.270 C  
HETATM    4  C   UNL     1     -12.697  11.493  71.242  1.00  0.00    -0.469 C  
HETATM    5  O   UNL     1     -14.032  13.367  71.889  1.00  0.00    -0.354 OA 
HETATM    6  C   UNL     1     -12.339  11.195  69.795  1.00  0.00    -0.315 C  
HETATM    7  C   UNL     1     -11.187  12.086  69.298  1.00  0.00    -0.291 C  
HETATM    8  C   UNL     1     -10.762  11.831  67.828  1.00  0.00    -0.205 C  
HETATM    9  C   UNL     1     -11.786  12.268  66.764  1.00  0.00    -0.411 C  
HETATM   10  C   UNL     1     -10.454  10.342  67.587  1.00  0.00    -0.277 C  
HETATM   11  O   UNL     1      -9.519  12.518  67.578  1.00  0.00    -0.177 OA 
HETATM   12  C   UNL     1      -9.392  13.789  68.077  1.00  0.00    -0.199 A  
HETATM   13  C   UNL     1      -8.245  14.463  67.630  1.00  0.00    -0.185 A  
HETATM   14  C   UNL     1      -7.968  15.781  68.017  1.00  0.00    -0.141 A  
HETATM   15  H   UNL     1     -11.723  15.961  70.364  1.00  0.00     0.000 HD 
HETATM   16  C   UNL     1      -8.911  16.406  68.846  1.00  0.00    -0.256 A  
HETATM   17  C   UNL     1     -10.052  15.731  69.295  1.00  0.00    -0.255 A  
HETATM   18  O   UNL     1     -10.948  16.420  70.060  1.00  0.00    -0.354 OA 
HETATM   19  C   UNL     1     -10.297  14.394  68.963  1.00  0.00    -0.204 A  
ENDROOT
BRANCH  14  20
HETATM   20  C   UNL     1      -6.705  16.540  67.570  1.00  0.00    -0.175 C  
HETATM   21  C   UNL     1      -6.288  17.671  68.538  1.00  0.00    -0.185 C  
HETATM   22  C   UNL     1      -5.520  15.544  67.526  1.00  0.00    -0.012 C  
BRANCH  20  23
HETATM   23  C   UNL     1      -6.890  17.136  66.137  1.00  0.00    -0.158 C  
BRANCH  23  24
HETATM   24  C   UNL     1      -6.995  18.665  66.084  1.00  0.00    -0.289 C  
BRANCH  24  25
HETATM   25  C   UNL     1      -5.831  19.291  65.312  1.00  0.00    -0.242 C  
BRANCH  25  26
HETATM   26  C   UNL     1      -6.304  20.522  64.537  1.00  0.00    -0.341 C  
BRANCH  26  27
HETATM   27  C   UNL     1      -5.482  20.752  63.272  1.00  0.00    -0.265 C  
HETATM   28  C   UNL     1      -5.535  19.535  62.360  1.00  0.00    -0.332 C  
ENDBRANCH  26  27
ENDBRANCH  25  26
ENDBRANCH  24  25
ENDBRANCH  23  24
ENDBRANCH  20  23
ENDBRANCH  14  20
TORSDOF 6
ENDMDL
MODEL       80
REMARK 921   NORMALIZED FREE ENERGY PREDICTED BY IDOCK:   -4.05 KCAL/MOL
REMARK 922        TOTAL FREE ENERGY PREDICTED BY IDOCK:   -7.49 KCAL/MOL
REMARK 923 INTER-LIGAND FREE ENERGY PREDICTED BY IDOCK:   -6.20 KCAL/MOL
REMARK 924 INTRA-LIGAND FREE ENERGY PREDICTED BY IDOCK:   -1.29 KCAL/MOL
REMARK 927      BINDING AFFINITY PREDICTED BY RF-SCORE:    0.00 PKD
ROOT
HETATM    1  C   UNL     1     -12.348  12.372  70.149  1.00  0.00    -0.209 C  
HETATM    2  C   UNL     1     -12.146  13.887  70.321  1.00  0.00    -0.423 C  
HETATM    3  C   UNL     1     -13.241  14.473  71.176  1.00  0.00    -0.361 C  
HETATM    4  C   UNL     1     -13.417  13.849  72.531  1.00  0.00    -0.676 C  
HETATM    5  O   UNL     1     -13.905  15.444  70.820  1.00  0.00    -0.386 OA 
HETATM    6  C   UNL     1     -13.657  12.357  72.361  1.00  0.00    -0.262 C  
HETATM    7  C   UNL     1     -12.544  11.692  71.534  1.00  0.00    -0.341 C  
HETATM    8  C   UNL     1     -12.719  10.164  71.326  1.00  0.00    -0.407 C  
HETATM    9  C   UNL     1     -13.882   9.757  70.403  1.00  0.00     0.723 C  
HETATM   10  C   UNL     1     -12.920   9.439  72.669  1.00  0.00    -0.215 C  
HETATM   11  O   UNL     1     -11.494   9.625  70.787  1.00  0.00    -0.279 OA 
HETATM   12  C   UNL     1     -10.873  10.345  69.800  1.00  0.00    -0.292 A  
HETATM   13  C   UNL     1      -9.804   9.669  69.190  1.00  0.00    -0.189 A  
HETATM   14  C   UNL     1      -9.071  10.243  68.143  1.00  0.00    -0.136 A  
HETATM   15  H   UNL     1     -11.632  13.859  68.230  1.00  0.00     0.000 HD 
HETATM   16  C   UNL     1      -9.479  11.514  67.710  1.00  0.00    -0.168 A  
HETATM   17  C   UNL     1     -10.540  12.189  68.322  1.00  0.00    -0.217 A  
HETATM   18  O   UNL     1     -10.910  13.401  67.815  1.00  0.00    -0.245 OA 
HETATM   19  C   UNL     1     -11.232  11.646  69.411  1.00  0.00    -0.311 A  
ENDROOT
BRANCH  14  20
HETATM   20  C   UNL     1      -7.876   9.542  67.472  1.00  0.00    -0.102 C  
HETATM   21  C   UNL     1      -7.454  10.186  66.130  1.00  0.00    -0.115 C  
HETATM   22  C   UNL     1      -6.649   9.648  68.412  1.00  0.00    -0.053 C  
BRANCH  20  23
HETATM   23  C   UNL     1      -8.176   8.026  67.239  1.00  0.00    -0.122 C  
BRANCH  23  24
HETATM   24  C   UNL     1      -9.282   7.738  66.217  1.00  0.00    -0.217 C  
BRANCH  24  25
HETATM   25  C   UNL     1     -10.264   6.677  66.722  1.00  0.00    -0.263 C  
BRANCH  25  26
HETATM   26  C   UNL     1      -9.888   6.229  68.135  1.00  0.00    -0.133 C  
BRANCH  26  27
HETATM   27  C   UNL     1     -11.100   6.177  69.060  1.00  0.00    -0.437 C  
HETATM   28  C   UNL     1     -10.687   5.817  70.479  1.00  0.00    -0.361 C  
ENDBRANCH  26  27
ENDBRANCH  25  26
ENDBRANCH  24  25
ENDBRANCH  23  24
ENDBRANCH  20  23
ENDBRANCH  14  20
TORSDOF 6
ENDMDL
MODEL       81
REMARK 921   NORMALIZED FREE ENERGY PREDICTED BY IDOCK:   -4.05 KCAL/MOL
REMARK 922        TOTAL FREE ENERGY PREDICTED BY IDOCK:   -7.48 KCAL/MOL
REMARK 923 INTER-LIGAND FREE ENERGY PREDICTED BY IDOCK:   -6.67 KCAL/MOL
REMARK 924 INTRA-LIGAND FREE ENERGY PREDICTED BY IDOCK:   -0.81 KCAL/MOL
REMARK 927      BINDING AFFINITY PREDICTED BY RF-SCORE:    0.00 PKD
ROOT
HETATM    1  C   UNL     1      -9.522  13.634  67.459  1.00  0.00    -0.222 C  
HETATM    2  C   UNL     1      -8.954  14.435  68.644  1.00  0.00    -0.172 C  
HETATM    3  C   UNL     1      -9.010  15.914  68.358  1.00  0.00    -0.189 C  
HETATM    4  C   UNL     1     -10.364  16.461  68.005  1.00  0.00    -0.288 C  
HETATM    5  O   UNL     1      -8.027  16.644  68.472  1.00  0.00    -0.201 OA 
HETATM    6  C   UNL     1     -10.910  15.698  66.809  1.00  0.00    -0.277 C  
HETATM    7  C   UNL     1     -10.922  14.180  67.059  1.00  0.00    -0.303 C  
HETATM    8  C   UNL     1     -11.475  13.336  65.880  1.00  0.00    -0.332 C  
HETATM    9  C   UNL     1     -10.581  13.294  64.627  1.00  0.00    -0.421 C  
HETATM   10  C   UNL     1     -12.862  13.837  65.440  1.00  0.00    -0.455 C  
HETATM   11  O   UNL     1     -11.690  11.985  66.337  1.00  0.00    -0.518 OA 
HETATM   12  C   UNL     1     -10.720  11.429  67.131  1.00  0.00    -0.249 A  
HETATM   13  C   UNL     1     -10.900  10.058  67.373  1.00  0.00    -0.313 A  
HETATM   14  C   UNL     1      -9.990   9.321  68.142  1.00  0.00    -0.206 A  
HETATM   15  H   UNL     1      -7.442  12.903  68.702  1.00  0.00     0.000 HD 
HETATM   16  C   UNL     1      -8.872  10.012  68.632  1.00  0.00    -0.132 A  
HETATM   17  C   UNL     1      -8.697  11.380  68.396  1.00  0.00    -0.157 A  
HETATM   18  O   UNL     1      -7.561  11.974  68.863  1.00  0.00    -0.099 OA 
HETATM   19  C   UNL     1      -9.638  12.133  67.683  1.00  0.00    -0.190 A  
ENDROOT
BRANCH  14  20
HETATM   20  C   UNL     1     -10.172   7.823  68.450  1.00  0.00    -0.230 C  
HETATM   21  C   UNL     1     -10.843   7.033  67.302  1.00  0.00    -0.403 C  
HETATM   22  C   UNL     1      -8.774   7.188  68.658  1.00  0.00    -0.127 C  
BRANCH  20  23
HETATM   23  C   UNL     1     -10.997   7.618  69.762  1.00  0.00    -0.178 C  
BRANCH  23  24
HETATM   24  C   UNL     1     -10.227   6.960  70.912  1.00  0.00    -0.214 C  
BRANCH  24  25
HETATM   25  C   UNL     1     -11.057   5.882  71.612  1.00  0.00    -0.319 C  
BRANCH  25  26
HETATM   26  C   UNL     1     -10.223   4.615  71.818  1.00  0.00    -0.242 C  
BRANCH  26  27
HETATM   27  C   UNL     1      -8.726   4.901  71.761  1.00  0.00    -0.137 C  
HETATM   28  C   UNL     1      -8.112   4.873  73.153  1.00  0.00    -0.101 C  
ENDBRANCH  26  27
ENDBRANCH  25  26
ENDBRANCH  24  25
ENDBRANCH  23  24
ENDBRANCH  20  23
ENDBRANCH  14  20
TORSDOF 6
ENDMDL
MODEL       82
REMARK 921   NORMALIZED FREE ENERGY PREDICTED BY IDOCK:   -4.05 KCAL/MOL
REMARK 922        TOTAL FREE ENERGY PREDICTED BY IDOCK:   -7.48 KCAL/MOL
REMARK 923 INTER-LIGAND FREE ENERGY PREDICTED BY IDOCK:   -6.16 KCAL/MOL
REMARK 924 INTRA-LIGAND FREE ENERGY PREDICTED BY IDOCK:   -1.32 KCAL/MOL
REMARK 927      BINDING AFFINITY PREDICTED BY RF-SCORE:    0.00 PKD
ROOT
HETATM    1  C   UNL     1     -10.735   9.400  70.762  1.00  0.00    -0.373 C  
HETATM    2  C   UNL     1     -12.182   9.671  71.208  1.00  0.00    -0.452 C  
HETATM    3  C   UNL     1     -12.568  11.098  70.911  1.00  0.00    -0.386 C  
HETATM    4  C   UNL     1     -12.409  11.536  69.483  1.00  0.00    -0.190 C  
HETATM    5  O   UNL     1     -13.049  11.841  71.766  1.00  0.00    -0.463 OA 
HETATM    6  C   UNL     1     -10.968  11.306  69.053  1.00  0.00    -0.288 C  
HETATM    7  C   UNL     1     -10.529   9.850  69.288  1.00  0.00    -0.240 C  
HETATM    8  C   UNL     1      -9.070   9.540  68.864  1.00  0.00    -0.141 C  
HETATM    9  C   UNL     1      -7.981  10.188  69.739  1.00  0.00    -0.172 C  
HETATM   10  C   UNL     1      -8.809   9.969  67.409  1.00  0.00    -0.132 C  
HETATM   11  O   UNL     1      -8.877   8.110  68.875  1.00  0.00    -0.140 OA 
HETATM   12  C   UNL     1      -9.406   7.414  69.931  1.00  0.00    -0.154 A  
HETATM   13  C   UNL     1      -9.013   6.067  69.977  1.00  0.00    -0.149 A  
HETATM   14  C   UNL     1      -9.436   5.211  71.002  1.00  0.00    -0.214 A  
HETATM   15  H   UNL     1     -11.657   8.515  72.947  1.00  0.00     0.000 HD 
HETATM   16  C   UNL     1     -10.246   5.774  71.999  1.00  0.00    -0.245 A  
HETATM   17  C   UNL     1     -10.642   7.115  71.949  1.00  0.00    -0.213 A  
HETATM   18  O   UNL     1     -11.389   7.604  72.981  1.00  0.00    -0.372 OA 
HETATM   19  C   UNL     1     -10.274   7.955  70.892  1.00  0.00    -0.213 A  
ENDROOT
BRANCH  14  20
HETATM   20  C   UNL     1      -9.048   3.723  71.067  1.00  0.00    -0.180 C  
HETATM   21  C   UNL     1      -7.531   3.486  71.252  1.00  0.00    -0.043 C  
HETATM   22  C   UNL     1      -9.742   3.084  72.296  1.00  0.00    -0.225 C  
BRANCH  20  23
HETATM   23  C   UNL     1      -9.531   2.962  69.789  1.00  0.00    -0.167 C  
BRANCH  23  24
HETATM   24  C   UNL     1      -8.418   2.582  68.806  1.00  0.00    -0.096 C  
BRANCH  24  25
HETATM   25  C   UNL     1      -8.872   2.714  67.350  1.00  0.00    -0.163 C  
BRANCH  25  26
HETATM   26  C   UNL     1      -8.935   4.187  66.941  1.00  0.00    -0.134 C  
BRANCH  26  27
HETATM   27  C   UNL     1     -10.257   4.536  66.264  1.00  0.00    -0.270 C  
HETATM   28  C   UNL     1     -10.788   5.872  66.761  1.00  0.00    -0.347 C  
ENDBRANCH  26  27
ENDBRANCH  25  26
ENDBRANCH  24  25
ENDBRANCH  23  24
ENDBRANCH  20  23
ENDBRANCH  14  20
TORSDOF 6
ENDMDL
MODEL       83
REMARK 921   NORMALIZED FREE ENERGY PREDICTED BY IDOCK:   -4.04 KCAL/MOL
REMARK 922        TOTAL FREE ENERGY PREDICTED BY IDOCK:   -7.48 KCAL/MOL
REMARK 923 INTER-LIGAND FREE ENERGY PREDICTED BY IDOCK:   -6.25 KCAL/MOL
REMARK 924 INTRA-LIGAND FREE ENERGY PREDICTED BY IDOCK:   -1.22 KCAL/MOL
REMARK 927      BINDING AFFINITY PREDICTED BY RF-SCORE:    0.00 PKD
ROOT
HETATM    1  C   UNL     1      -8.334   7.307  67.083  1.00  0.00    -0.118 C  
HETATM    2  C   UNL     1      -8.009   8.710  66.541  1.00  0.00    -0.099 C  
HETATM    3  C   UNL     1      -7.181   8.611  65.285  1.00  0.00    -0.083 C  
HETATM    4  C   UNL     1      -7.768   7.786  64.177  1.00  0.00    -0.125 C  
HETATM    5  O   UNL     1      -6.122   9.222  65.145  1.00  0.00    -0.062 OA 
HETATM    6  C   UNL     1      -8.054   6.387  64.700  1.00  0.00    -0.100 C  
HETATM    7  C   UNL     1      -8.938   6.419  65.959  1.00  0.00    -0.143 C  
HETATM    8  C   UNL     1      -9.277   5.023  66.545  1.00  0.00    -0.135 C  
HETATM    9  C   UNL     1      -8.094   4.277  67.188  1.00  0.00    -0.100 C  
HETATM   10  C   UNL     1      -9.877   4.099  65.470  1.00  0.00    -0.210 C  
HETATM   11  O   UNL     1     -10.317   5.175  67.533  1.00  0.00    -0.180 OA 
HETATM   12  C   UNL     1     -10.209   6.232  68.400  1.00  0.00    -0.172 A  
HETATM   13  C   UNL     1     -11.140   6.203  69.450  1.00  0.00    -0.479 A  
HETATM   14  C   UNL     1     -11.159   7.190  70.445  1.00  0.00    -0.309 A  
HETATM   15  H   UNL     1      -7.675   9.218  68.606  1.00  0.00     0.000 HD 
HETATM   16  C   UNL     1     -10.180   8.191  70.359  1.00  0.00    -0.203 A  
HETATM   17  C   UNL     1      -9.256   8.221  69.309  1.00  0.00    -0.151 A  
HETATM   18  O   UNL     1      -8.303   9.198  69.320  1.00  0.00    -0.116 OA 
HETATM   19  C   UNL     1      -9.276   7.274  68.279  1.00  0.00    -0.133 A  
ENDROOT
BRANCH  14  20
HETATM   20  C   UNL     1     -12.184   7.204  71.593  1.00  0.00    -0.385 C  
HETATM   21  C   UNL     1     -13.646   7.026  71.120  1.00  0.00    -0.149 C  
HETATM   22  C   UNL     1     -11.884   6.015  72.540  1.00  0.00    -0.236 C  
BRANCH  20  23
HETATM   23  C   UNL     1     -12.075   8.524  72.424  1.00  0.00    -0.436 C  
BRANCH  23  24
HETATM   24  C   UNL     1     -13.288   9.455  72.318  1.00  0.00    -0.539 C  
BRANCH  24  25
HETATM   25  C   UNL     1     -12.924  10.797  71.678  1.00  0.00    -0.581 C  
BRANCH  25  26
HETATM   26  C   UNL     1     -12.684  10.625  70.177  1.00  0.00    -0.224 C  
BRANCH  26  27
HETATM   27  C   UNL     1     -11.830  11.751  69.602  1.00  0.00    -0.407 C  
HETATM   28  C   UNL     1     -11.608  11.559  68.109  1.00  0.00    -0.378 C  
ENDBRANCH  26  27
ENDBRANCH  25  26
ENDBRANCH  24  25
ENDBRANCH  23  24
ENDBRANCH  20  23
ENDBRANCH  14  20
TORSDOF 6
ENDMDL
MODEL       84
REMARK 921   NORMALIZED FREE ENERGY PREDICTED BY IDOCK:   -4.04 KCAL/MOL
REMARK 922        TOTAL FREE ENERGY PREDICTED BY IDOCK:   -7.47 KCAL/MOL
REMARK 923 INTER-LIGAND FREE ENERGY PREDICTED BY IDOCK:   -5.97 KCAL/MOL
REMARK 924 INTRA-LIGAND FREE ENERGY PREDICTED BY IDOCK:   -1.50 KCAL/MOL
REMARK 927      BINDING AFFINITY PREDICTED BY RF-SCORE:    0.00 PKD
ROOT
HETATM    1  C   UNL     1      -9.854  11.263  65.789  1.00  0.00    -0.273 C  
HETATM    2  C   UNL     1     -11.261  11.883  65.840  1.00  0.00    -0.373 C  
HETATM    3  C   UNL     1     -11.620  12.488  64.507  1.00  0.00    -0.348 C  
HETATM    4  C   UNL     1     -11.539  11.563  63.326  1.00  0.00    -0.142 C  
HETATM    5  O   UNL     1     -12.022  13.645  64.395  1.00  0.00    -0.400 OA 
HETATM    6  C   UNL     1     -10.137  10.979  63.251  1.00  0.00    -0.400 C  
HETATM    7  C   UNL     1      -9.729  10.304  64.572  1.00  0.00    -0.395 C  
HETATM    8  C   UNL     1      -8.310   9.678  64.565  1.00  0.00    -0.169 C  
HETATM    9  C   UNL     1      -7.148  10.687  64.525  1.00  0.00     0.208 C  
HETATM   10  C   UNL     1      -8.130   8.719  63.374  1.00  0.00    -0.170 C  
HETATM   11  O   UNL     1      -8.161   8.852  65.738  1.00  0.00    -0.106 OA 
HETATM   12  C   UNL     1      -8.643   9.351  66.922  1.00  0.00    -0.127 A  
HETATM   13  C   UNL     1      -8.290   8.587  68.045  1.00  0.00    -0.127 A  
HETATM   14  C   UNL     1      -8.673   8.962  69.340  1.00  0.00    -0.142 A  
HETATM   15  H   UNL     1     -10.662  12.602  67.780  1.00  0.00     0.000 HD 
HETATM   16  C   UNL     1      -9.399  10.156  69.462  1.00  0.00    -0.230 A  
HETATM   17  C   UNL     1      -9.756  10.913  68.340  1.00  0.00    -0.176 A  
HETATM   18  O   UNL     1     -10.420  12.088  68.542  1.00  0.00    -0.218 OA 
HETATM   19  C   UNL     1      -9.430  10.507  67.041  1.00  0.00    -0.188 A  
ENDROOT
BRANCH  14  20
HETATM   20  C   UNL     1      -8.328   8.134  70.591  1.00  0.00    -0.123 C  
HETATM   21  C   UNL     1      -6.898   8.385  71.124  1.00  0.00    -0.058 C  
HETATM   22  C   UNL     1      -9.296   8.534  71.732  1.00  0.00    -0.323 C  
BRANCH  20  23
HETATM   23  C   UNL     1      -8.508   6.605  70.316  1.00  0.00    -0.135 C  
BRANCH  23  24
HETATM   24  C   UNL     1      -9.932   6.076  70.525  1.00  0.00    -0.233 C  
BRANCH  24  25
HETATM   25  C   UNL     1     -10.466   5.366  69.279  1.00  0.00    -0.309 C  
BRANCH  25  26
HETATM   26  C   UNL     1     -11.278   6.335  68.418  1.00  0.00    -0.272 C  
BRANCH  26  27
HETATM   27  C   UNL     1     -10.795   6.357  66.971  1.00  0.00    -0.464 C  
HETATM   28  C   UNL     1     -10.570   4.945  66.451  1.00  0.00    -0.276 C  
ENDBRANCH  26  27
ENDBRANCH  25  26
ENDBRANCH  24  25
ENDBRANCH  23  24
ENDBRANCH  20  23
ENDBRANCH  14  20
TORSDOF 6
ENDMDL
MODEL       85
REMARK 921   NORMALIZED FREE ENERGY PREDICTED BY IDOCK:   -4.02 KCAL/MOL
REMARK 922        TOTAL FREE ENERGY PREDICTED BY IDOCK:   -7.44 KCAL/MOL
REMARK 923 INTER-LIGAND FREE ENERGY PREDICTED BY IDOCK:   -5.73 KCAL/MOL
REMARK 924 INTRA-LIGAND FREE ENERGY PREDICTED BY IDOCK:   -1.71 KCAL/MOL
REMARK 927      BINDING AFFINITY PREDICTED BY RF-SCORE:    0.00 PKD
ROOT
HETATM    1  C   UNL     1     -10.648   9.423  70.846  1.00  0.00    -0.390 C  
HETATM    2  C   UNL     1     -12.111   9.833  71.084  1.00  0.00    -0.460 C  
HETATM    3  C   UNL     1     -12.352  11.240  70.597  1.00  0.00    -0.383 C  
HETATM    4  C   UNL     1     -12.000  11.504  69.161  1.00  0.00    -0.386 C  
HETATM    5  O   UNL     1     -12.868  12.102  71.306  1.00  0.00    -0.358 OA 
HETATM    6  C   UNL     1     -10.543  11.137  68.933  1.00  0.00    -0.239 C  
HETATM    7  C   UNL     1     -10.244   9.691  69.368  1.00  0.00    -0.220 C  
HETATM    8  C   UNL     1      -8.774   9.244  69.156  1.00  0.00    -0.139 C  
HETATM    9  C   UNL     1      -7.744   9.916  70.083  1.00  0.00    -0.188 C  
HETATM   10  C   UNL     1      -8.320   9.491  67.706  1.00  0.00    -0.118 C  
HETATM   11  O   UNL     1      -8.693   7.815  69.338  1.00  0.00    -0.134 OA 
HETATM   12  C   UNL     1      -9.388   7.276  70.390  1.00  0.00    -0.158 A  
HETATM   13  C   UNL     1      -9.106   5.921  70.621  1.00  0.00    -0.159 A  
HETATM   14  C   UNL     1      -9.706   5.213  71.672  1.00  0.00    -0.217 A  
HETATM   15  H   UNL     1     -11.874   8.848  72.984  1.00  0.00     0.000 HD 
HETATM   16  C   UNL     1     -10.578   5.934  72.501  1.00  0.00    -0.256 A  
HETATM   17  C   UNL     1     -10.862   7.284  72.266  1.00  0.00    -0.238 A  
HETATM   18  O   UNL     1     -11.681   7.932  73.144  1.00  0.00    -0.264 OA 
HETATM   19  C   UNL     1     -10.315   7.976  71.179  1.00  0.00    -0.229 A  
ENDROOT
BRANCH  14  20
HETATM   20  C   UNL     1      -9.442   3.720  71.937  1.00  0.00    -0.207 C  
HETATM   21  C   UNL     1     -10.418   3.090  72.958  1.00  0.00    -0.251 C  
HETATM   22  C   UNL     1      -9.634   2.941  70.611  1.00  0.00    -0.184 C  
BRANCH  20  23
HETATM   23  C   UNL     1      -7.975   3.490  72.425  1.00  0.00    -0.068 C  
BRANCH  23  24
HETATM   24  C   UNL     1      -7.666   4.041  73.822  1.00  0.00    -0.080 C  
BRANCH  24  25
HETATM   25  C   UNL     1      -6.226   4.549  73.931  1.00  0.00    -0.045 C  
BRANCH  25  26
HETATM   26  C   UNL     1      -6.204   5.981  74.467  1.00  0.00    -0.069 C  
BRANCH  26  27
HETATM   27  C   UNL     1      -7.557   6.669  74.317  1.00  0.00    -0.100 C  
HETATM   28  C   UNL     1      -7.420   7.980  73.558  1.00  0.00    -0.191 C  
ENDBRANCH  26  27
ENDBRANCH  25  26
ENDBRANCH  24  25
ENDBRANCH  23  24
ENDBRANCH  20  23
ENDBRANCH  14  20
TORSDOF 6
ENDMDL
MODEL       86
REMARK 921   NORMALIZED FREE ENERGY PREDICTED BY IDOCK:   -3.99 KCAL/MOL
REMARK 922        TOTAL FREE ENERGY PREDICTED BY IDOCK:   -7.40 KCAL/MOL
REMARK 923 INTER-LIGAND FREE ENERGY PREDICTED BY IDOCK:   -6.59 KCAL/MOL
REMARK 924 INTRA-LIGAND FREE ENERGY PREDICTED BY IDOCK:   -0.81 KCAL/MOL
REMARK 927      BINDING AFFINITY PREDICTED BY RF-SCORE:    0.00 PKD
ROOT
HETATM    1  C   UNL     1      -7.884  11.175  66.876  1.00  0.00    -0.152 C  
HETATM    2  C   UNL     1      -6.370  10.935  67.004  1.00  0.00    -0.080 C  
HETATM    3  C   UNL     1      -6.004   9.571  66.476  1.00  0.00    -0.059 C  
HETATM    4  C   UNL     1      -6.425   9.283  65.063  1.00  0.00    -0.070 C  
HETATM    5  O   UNL     1      -5.344   8.767  67.131  1.00  0.00    -0.036 OA 
HETATM    6  C   UNL     1      -7.927   9.481  64.944  1.00  0.00    -0.121 C  
HETATM    7  C   UNL     1      -8.358  10.878  65.425  1.00  0.00    -0.051 C  
HETATM    8  C   UNL     1      -9.881  11.154  65.325  1.00  0.00    -0.249 C  
HETATM    9  C   UNL     1     -10.758  10.358  66.308  1.00  0.00    -0.107 C  
HETATM   10  C   UNL     1     -10.406  10.871  63.905  1.00  0.00    -0.397 C  
HETATM   11  O   UNL     1     -10.112  12.562  65.538  1.00  0.00    -0.267 OA 
HETATM   12  C   UNL     1      -9.410  13.167  66.549  1.00  0.00    -0.216 A  
HETATM   13  C   UNL     1      -9.829  14.478  66.825  1.00  0.00    -0.271 A  
HETATM   14  C   UNL     1      -9.241  15.239  67.843  1.00  0.00    -0.184 A  
HETATM   15  H   UNL     1      -6.582  11.866  68.934  1.00  0.00     0.000 HD 
HETATM   16  C   UNL     1      -8.236  14.615  68.597  1.00  0.00    -0.159 A  
HETATM   17  C   UNL     1      -7.816  13.310  68.317  1.00  0.00    -0.143 A  
HETATM   18  O   UNL     1      -6.867  12.753  69.125  1.00  0.00    -0.102 OA 
HETATM   19  C   UNL     1      -8.356  12.571  67.258  1.00  0.00    -0.185 A  
ENDROOT
BRANCH  14  20
HETATM   20  C   UNL     1      -9.656  16.689  68.154  1.00  0.00    -0.228 C  
HETATM   21  C   UNL     1      -8.459  17.629  68.429  1.00  0.00    -0.287 C  
HETATM   22  C   UNL     1     -10.391  17.269  66.919  1.00  0.00    -0.310 C  
BRANCH  20  23
HETATM   23  C   UNL     1     -10.636  16.742  69.370  1.00  0.00    -0.318 C  
BRANCH  23  24
HETATM   24  C   UNL     1     -11.845  15.804  69.265  1.00  0.00    -0.358 C  
BRANCH  24  25
HETATM   25  C   UNL     1     -12.429  15.469  70.640  1.00  0.00    -0.483 C  
BRANCH  25  26
HETATM   26  C   UNL     1     -11.412  15.773  71.742  1.00  0.00    -0.484 C  
BRANCH  26  27
HETATM   27  C   UNL     1     -12.090  16.125  73.063  1.00  0.00    -0.636 C  
HETATM   28  C   UNL     1     -13.581  15.827  73.007  1.00  0.00    -0.638 C  
ENDBRANCH  26  27
ENDBRANCH  25  26
ENDBRANCH  24  25
ENDBRANCH  23  24
ENDBRANCH  20  23
ENDBRANCH  14  20
TORSDOF 6
ENDMDL
MODEL       87
REMARK 921   NORMALIZED FREE ENERGY PREDICTED BY IDOCK:   -3.98 KCAL/MOL
REMARK 922        TOTAL FREE ENERGY PREDICTED BY IDOCK:   -7.39 KCAL/MOL
REMARK 923 INTER-LIGAND FREE ENERGY PREDICTED BY IDOCK:   -6.72 KCAL/MOL
REMARK 924 INTRA-LIGAND FREE ENERGY PREDICTED BY IDOCK:   -0.68 KCAL/MOL
REMARK 927      BINDING AFFINITY PREDICTED BY RF-SCORE:    0.00 PKD
ROOT
HETATM    1  C   UNL     1     -10.026  11.909  65.661  1.00  0.00    -0.269 C  
HETATM    2  C   UNL     1      -8.708  11.115  65.688  1.00  0.00    -0.126 C  
HETATM    3  C   UNL     1      -8.806   9.897  64.804  1.00  0.00    -0.202 C  
HETATM    4  C   UNL     1      -9.188  10.156  63.375  1.00  0.00    -0.324 C  
HETATM    5  O   UNL     1      -8.524   8.769  65.205  1.00  0.00    -0.157 OA 
HETATM    6  C   UNL     1     -10.510  10.906  63.344  1.00  0.00    -0.220 C  
HETATM    7  C   UNL     1     -10.459  12.187  64.193  1.00  0.00    -0.395 C  
HETATM    8  C   UNL     1     -11.774  13.009  64.202  1.00  0.00    -0.412 C  
HETATM    9  C   UNL     1     -12.950  12.357  64.952  1.00  0.00     0.111 C  
HETATM   10  C   UNL     1     -12.252  13.312  62.770  1.00  0.00     0.790 C  
HETATM   11  O   UNL     1     -11.512  14.299  64.792  1.00  0.00    -0.359 OA 
HETATM   12  C   UNL     1     -10.724  14.328  65.913  1.00  0.00    -0.303 A  
HETATM   13  C   UNL     1     -10.675  15.583  66.541  1.00  0.00    -0.304 A  
HETATM   14  C   UNL     1      -9.939  15.790  67.715  1.00  0.00    -0.227 A  
HETATM   15  H   UNL     1      -8.731  11.527  67.802  1.00  0.00     0.000 HD 
HETATM   16  C   UNL     1      -9.280  14.674  68.252  1.00  0.00    -0.198 A  
HETATM   17  C   UNL     1      -9.325  13.425  67.622  1.00  0.00    -0.217 A  
HETATM   18  O   UNL     1      -8.700  12.375  68.230  1.00  0.00    -0.183 OA 
HETATM   19  C   UNL     1     -10.006  13.231  66.415  1.00  0.00    -0.288 A  
ENDROOT
BRANCH  14  20
HETATM   20  C   UNL     1      -9.840  17.158  68.414  1.00  0.00    -0.296 C  
HETATM   21  C   UNL     1      -8.400  17.721  68.471  1.00  0.00    -0.298 C  
HETATM   22  C   UNL     1     -10.678  18.185  67.611  1.00  0.00    -0.364 C  
BRANCH  20  23
HETATM   23  C   UNL     1     -10.419  17.089  69.864  1.00  0.00     0.098 C  
BRANCH  23  24
HETATM   24  C   UNL     1     -11.654  16.195  70.023  1.00  0.00    -0.247 C  
BRANCH  24  25
HETATM   25  C   UNL     1     -11.519  15.241  71.212  1.00  0.00    -0.431 C  
BRANCH  25  26
HETATM   26  C   UNL     1     -12.014  15.911  72.495  1.00  0.00    -0.622 C  
BRANCH  26  27
HETATM   27  C   UNL     1     -13.221  15.190  73.088  1.00  0.00    -0.603 C  
HETATM   28  C   UNL     1     -13.413  13.827  72.440  1.00  0.00    -0.672 C  
ENDBRANCH  26  27
ENDBRANCH  25  26
ENDBRANCH  24  25
ENDBRANCH  23  24
ENDBRANCH  20  23
ENDBRANCH  14  20
TORSDOF 6
ENDMDL
MODEL       88
REMARK 921   NORMALIZED FREE ENERGY PREDICTED BY IDOCK:   -3.97 KCAL/MOL
REMARK 922        TOTAL FREE ENERGY PREDICTED BY IDOCK:   -7.37 KCAL/MOL
REMARK 923 INTER-LIGAND FREE ENERGY PREDICTED BY IDOCK:   -6.15 KCAL/MOL
REMARK 924 INTRA-LIGAND FREE ENERGY PREDICTED BY IDOCK:   -1.22 KCAL/MOL
REMARK 927      BINDING AFFINITY PREDICTED BY RF-SCORE:    0.00 PKD
ROOT
HETATM    1  C   UNL     1     -11.770  13.250  70.345  1.00  0.00    -0.161 C  
HETATM    2  C   UNL     1     -13.008  12.655  71.039  1.00  0.00    -0.156 C  
HETATM    3  C   UNL     1     -13.707  13.705  71.864  1.00  0.00    -0.410 C  
HETATM    4  C   UNL     1     -14.113  14.951  71.130  1.00  0.00    -0.377 C  
HETATM    5  O   UNL     1     -13.992  13.530  73.048  1.00  0.00    -0.427 OA 
HETATM    6  C   UNL     1     -12.884  15.562  70.476  1.00  0.00    -0.402 C  
HETATM    7  C   UNL     1     -12.151  14.549  69.580  1.00  0.00    -0.369 C  
HETATM    8  C   UNL     1     -10.889  15.107  68.873  1.00  0.00    -0.241 C  
HETATM    9  C   UNL     1      -9.696  15.407  69.800  1.00  0.00    -0.219 C  
HETATM   10  C   UNL     1     -11.209  16.400  68.100  1.00  0.00    -0.273 C  
HETATM   11  O   UNL     1     -10.463  14.164  67.868  1.00  0.00    -0.233 OA 
HETATM   12  C   UNL     1     -10.481  12.835  68.207  1.00  0.00    -0.241 A  
HETATM   13  C   UNL     1      -9.872  11.998  67.259  1.00  0.00    -0.200 A  
HETATM   14  C   UNL     1      -9.775  10.614  67.452  1.00  0.00    -0.192 A  
HETATM   15  H   UNL     1     -11.741  10.953  71.409  1.00  0.00     0.000 HD 
HETATM   16  C   UNL     1     -10.286  10.108  68.657  1.00  0.00    -0.193 A  
HETATM   17  C   UNL     1     -10.897  10.943  69.600  1.00  0.00    -0.216 A  
HETATM   18  O   UNL     1     -11.326  10.386  70.769  1.00  0.00    -0.330 OA 
HETATM   19  C   UNL     1     -11.054  12.316  69.379  1.00  0.00    -0.166 A  
ENDROOT
BRANCH  14  20
HETATM   20  C   UNL     1      -9.141   9.665  66.420  1.00  0.00    -0.191 C  
HETATM   21  C   UNL     1      -7.847   8.981  66.921  1.00  0.00    -0.101 C  
HETATM   22  C   UNL     1     -10.145   8.525  66.113  1.00  0.00    -0.053 C  
BRANCH  20  23
HETATM   23  C   UNL     1      -8.837  10.415  65.083  1.00  0.00    -0.207 C  
BRANCH  23  24
HETATM   24  C   UNL     1      -9.856  10.175  63.963  1.00  0.00    -0.176 C  
BRANCH  24  25
HETATM   25  C   UNL     1      -9.184  10.069  62.592  1.00  0.00    -0.317 C  
BRANCH  25  26
HETATM   26  C   UNL     1      -7.905   9.235  62.686  1.00  0.00    -0.122 C  
BRANCH  26  27
HETATM   27  C   UNL     1      -8.195   7.738  62.642  1.00  0.00    -0.084 C  
HETATM   28  C   UNL     1      -7.528   7.019  63.806  1.00  0.00    -0.096 C  
ENDBRANCH  26  27
ENDBRANCH  25  26
ENDBRANCH  24  25
ENDBRANCH  23  24
ENDBRANCH  20  23
ENDBRANCH  14  20
TORSDOF 6
ENDMDL
MODEL       89
REMARK 921   NORMALIZED FREE ENERGY PREDICTED BY IDOCK:   -3.93 KCAL/MOL
REMARK 922        TOTAL FREE ENERGY PREDICTED BY IDOCK:   -7.33 KCAL/MOL
REMARK 923 INTER-LIGAND FREE ENERGY PREDICTED BY IDOCK:   -6.73 KCAL/MOL
REMARK 924 INTRA-LIGAND FREE ENERGY PREDICTED BY IDOCK:   -0.59 KCAL/MOL
REMARK 927      BINDING AFFINITY PREDICTED BY RF-SCORE:    0.00 PKD
ROOT
HETATM    1  C   UNL     1     -11.027  14.060  66.315  1.00  0.00    -0.300 C  
HETATM    2  C   UNL     1     -10.712  14.545  64.889  1.00  0.00    -0.448 C  
HETATM    3  C   UNL     1     -10.989  16.021  64.759  1.00  0.00    -0.356 C  
HETATM    4  C   UNL     1     -10.281  16.908  65.742  1.00  0.00    -0.287 C  
HETATM    5  O   UNL     1     -11.695  16.482  63.864  1.00  0.00    -1.148 OA 
HETATM    6  C   UNL     1     -10.623  16.456  67.153  1.00  0.00    -0.276 C  
HETATM    7  C   UNL     1     -10.316  14.963  67.362  1.00  0.00    -0.243 C  
HETATM    8  C   UNL     1     -10.634  14.432  68.785  1.00  0.00    -0.254 C  
HETATM    9  C   UNL     1     -12.131  14.348  69.135  1.00  0.00    -0.316 C  
HETATM   10  C   UNL     1      -9.956  15.294  69.865  1.00  0.00    -0.176 C  
HETATM   11  O   UNL     1     -10.054  13.120  68.931  1.00  0.00    -0.114 OA 
HETATM   12  C   UNL     1     -10.182  12.255  67.875  1.00  0.00    -0.200 A  
HETATM   13  C   UNL     1      -9.771  10.944  68.160  1.00  0.00    -0.174 A  
HETATM   14  C   UNL     1      -9.857   9.921  67.206  1.00  0.00    -0.228 A  
HETATM   15  H   UNL     1     -11.652  12.710  64.267  1.00  0.00     0.000 HD 
HETATM   16  C   UNL     1     -10.405  10.264  65.961  1.00  0.00    -0.248 A  
HETATM   17  C   UNL     1     -10.809  11.573  65.676  1.00  0.00    -0.252 A  
HETATM   18  O   UNL     1     -11.377  11.821  64.460  1.00  0.00    -0.322 OA 
HETATM   19  C   UNL     1     -10.664  12.610  66.605  1.00  0.00    -0.275 A  
ENDROOT
BRANCH  14  20
HETATM   20  C   UNL     1      -9.389   8.480  67.476  1.00  0.00    -0.169 C  
HETATM   21  C   UNL     1     -10.517   7.428  67.347  1.00  0.00    -0.366 C  
HETATM   22  C   UNL     1      -8.318   8.102  66.423  1.00  0.00    -0.115 C  
BRANCH  20  23
HETATM   23  C   UNL     1      -8.739   8.359  68.893  1.00  0.00    -0.136 C  
BRANCH  23  24
HETATM   24  C   UNL     1      -7.699   7.241  69.032  1.00  0.00    -0.112 C  
BRANCH  24  25
HETATM   25  C   UNL     1      -7.018   7.262  70.403  1.00  0.00    -0.057 C  
BRANCH  25  26
HETATM   26  C   UNL     1      -6.796   8.702  70.868  1.00  0.00    -0.061 C  
BRANCH  26  27
HETATM   27  C   UNL     1      -5.905   9.482  69.906  1.00  0.00    -0.036 C  
HETATM   28  C   UNL     1      -5.132  10.568  70.639  1.00  0.00    -0.065 C  
ENDBRANCH  26  27
ENDBRANCH  25  26
ENDBRANCH  24  25
ENDBRANCH  23  24
ENDBRANCH  20  23
ENDBRANCH  14  20
TORSDOF 6
ENDMDL
MODEL       90
REMARK 921   NORMALIZED FREE ENERGY PREDICTED BY IDOCK:   -3.92 KCAL/MOL
REMARK 922        TOTAL FREE ENERGY PREDICTED BY IDOCK:   -7.31 KCAL/MOL
REMARK 923 INTER-LIGAND FREE ENERGY PREDICTED BY IDOCK:   -6.55 KCAL/MOL
REMARK 924 INTRA-LIGAND FREE ENERGY PREDICTED BY IDOCK:   -0.76 KCAL/MOL
REMARK 927      BINDING AFFINITY PREDICTED BY RF-SCORE:    0.00 PKD
ROOT
HETATM    1  C   UNL     1      -9.119   8.372  67.583  1.00  0.00    -0.144 C  
HETATM    2  C   UNL     1      -9.946   7.466  66.655  1.00  0.00    -0.261 C  
HETATM    3  C   UNL     1      -9.740   6.016  67.010  1.00  0.00    -0.138 C  
HETATM    4  C   UNL     1     -10.030   5.644  68.436  1.00  0.00    -0.201 C  
HETATM    5  O   UNL     1      -9.422   5.172  66.174  1.00  0.00    -0.147 OA 
HETATM    6  C   UNL     1      -9.183   6.511  69.355  1.00  0.00    -0.144 C  
HETATM    7  C   UNL     1      -9.387   8.009  69.071  1.00  0.00    -0.147 C  
HETATM    8  C   UNL     1      -8.558   8.956  69.979  1.00  0.00    -0.142 C  
HETATM    9  C   UNL     1      -7.039   8.941  69.729  1.00  0.00    -0.054 C  
HETATM   10  C   UNL     1      -8.784   8.638  71.468  1.00  0.00    -0.266 C  
HETATM   11  O   UNL     1      -9.040  10.304  69.805  1.00  0.00    -0.175 OA 
HETATM   12  C   UNL     1      -9.315  10.712  68.526  1.00  0.00    -0.170 A  
HETATM   13  C   UNL     1      -9.587  12.085  68.413  1.00  0.00    -0.190 A  
HETATM   14  C   UNL     1      -9.864  12.682  67.176  1.00  0.00    -0.212 A  
HETATM   15  H   UNL     1      -9.306   8.808  65.097  1.00  0.00     0.000 HD 
HETATM   16  C   UNL     1      -9.823  11.846  66.050  1.00  0.00    -0.258 A  
HETATM   17  C   UNL     1      -9.558  10.477  66.164  1.00  0.00    -0.190 A  
HETATM   18  O   UNL     1      -9.486   9.738  65.019  1.00  0.00    -0.252 OA 
HETATM   19  C   UNL     1      -9.345   9.867  67.406  1.00  0.00    -0.158 A  
ENDROOT
BRANCH  14  20
HETATM   20  C   UNL     1     -10.194  14.177  67.020  1.00  0.00    -0.260 C  
HETATM   21  C   UNL     1     -11.006  14.502  65.744  1.00  0.00    -0.319 C  
HETATM   22  C   UNL     1     -11.071  14.617  68.219  1.00  0.00    -0.283 C  
BRANCH  20  23
HETATM   23  C   UNL     1      -8.892  15.041  67.030  1.00  0.00    -0.257 C  
BRANCH  23  24
HETATM   24  C   UNL     1      -8.922  16.264  66.106  1.00  0.00    -0.374 C  
BRANCH  24  25
HETATM   25  C   UNL     1      -9.053  17.571  66.890  1.00  0.00    -0.265 C  
BRANCH  25  26
HETATM   26  C   UNL     1     -10.458  18.154  66.728  1.00  0.00    -0.363 C  
BRANCH  26  27
HETATM   27  C   UNL     1     -10.426  19.649  66.428  1.00  0.00    -0.618 C  
HETATM   28  C   UNL     1      -9.604  20.396  67.468  1.00  0.00    -0.560 C  
ENDBRANCH  26  27
ENDBRANCH  25  26
ENDBRANCH  24  25
ENDBRANCH  23  24
ENDBRANCH  20  23
ENDBRANCH  14  20
TORSDOF 6
ENDMDL
MODEL       91
REMARK 921   NORMALIZED FREE ENERGY PREDICTED BY IDOCK:   -3.90 KCAL/MOL
REMARK 922        TOTAL FREE ENERGY PREDICTED BY IDOCK:   -7.28 KCAL/MOL
REMARK 923 INTER-LIGAND FREE ENERGY PREDICTED BY IDOCK:   -6.12 KCAL/MOL
REMARK 924 INTRA-LIGAND FREE ENERGY PREDICTED BY IDOCK:   -1.15 KCAL/MOL
REMARK 927      BINDING AFFINITY PREDICTED BY RF-SCORE:    0.00 PKD
ROOT
HETATM    1  C   UNL     1      -9.446   6.164  71.254  1.00  0.00    -0.177 C  
HETATM    2  C   UNL     1     -10.508   5.061  71.104  1.00  0.00    -0.205 C  
HETATM    3  C   UNL     1     -10.366   4.037  72.201  1.00  0.00    -0.085 C  
HETATM    4  C   UNL     1     -10.415   4.571  73.604  1.00  0.00    -0.283 C  
HETATM    5  O   UNL     1     -10.285   2.832  71.970  1.00  0.00    -0.151 OA 
HETATM    6  C   UNL     1      -9.339   5.633  73.767  1.00  0.00    -0.137 C  
HETATM    7  C   UNL     1      -9.461   6.735  72.701  1.00  0.00    -0.152 C  
HETATM    8  C   UNL     1      -8.398   7.859  72.811  1.00  0.00    -0.151 C  
HETATM    9  C   UNL     1      -6.959   7.439  72.456  1.00  0.00    -0.068 C  
HETATM   10  C   UNL     1      -8.367   8.460  74.228  1.00  0.00    -0.079 C  
HETATM   11  O   UNL     1      -8.784   8.949  71.948  1.00  0.00    -0.343 OA 
HETATM   12  C   UNL     1      -9.257   8.626  70.702  1.00  0.00    -0.174 A  
HETATM   13  C   UNL     1      -9.425   9.732  69.854  1.00  0.00    -0.264 A  
HETATM   14  C   UNL     1      -9.875   9.587  68.535  1.00  0.00    -0.172 A  
HETATM   15  H   UNL     1     -10.056   5.183  69.002  1.00  0.00     0.000 HD 
HETATM   16  C   UNL     1     -10.119   8.278  68.093  1.00  0.00    -0.238 A  
HETATM   17  C   UNL     1      -9.957   7.177  68.941  1.00  0.00    -0.163 A  
HETATM   18  O   UNL     1     -10.166   5.931  68.426  1.00  0.00    -0.159 OA 
HETATM   19  C   UNL     1      -9.570   7.325  70.278  1.00  0.00    -0.165 A  
ENDROOT
BRANCH  14  20
HETATM   20  C   UNL     1     -10.097  10.779  67.588  1.00  0.00    -0.205 C  
HETATM   21  C   UNL     1      -8.990  11.856  67.678  1.00  0.00    -0.169 C  
HETATM   22  C   UNL     1     -10.084  10.260  66.128  1.00  0.00    -0.307 C  
BRANCH  20  23
HETATM   23  C   UNL     1     -11.484  11.451  67.850  1.00  0.00    -0.361 C  
BRANCH  23  24
HETATM   24  C   UNL     1     -11.421  12.933  68.235  1.00  0.00    -0.348 C  
BRANCH  24  25
HETATM   25  C   UNL     1     -12.277  13.802  67.311  1.00  0.00    -0.315 C  
BRANCH  25  26
HETATM   26  C   UNL     1     -12.447  13.126  65.949  1.00  0.00    -0.386 C  
BRANCH  26  27
HETATM   27  C   UNL     1     -11.955  14.010  64.807  1.00  0.00    -0.432 C  
HETATM   28  C   UNL     1     -10.439  14.130  64.825  1.00  0.00    -0.432 C  
ENDBRANCH  26  27
ENDBRANCH  25  26
ENDBRANCH  24  25
ENDBRANCH  23  24
ENDBRANCH  20  23
ENDBRANCH  14  20
TORSDOF 6
ENDMDL
MODEL       92
REMARK 921   NORMALIZED FREE ENERGY PREDICTED BY IDOCK:   -3.88 KCAL/MOL
REMARK 922        TOTAL FREE ENERGY PREDICTED BY IDOCK:   -7.26 KCAL/MOL
REMARK 923 INTER-LIGAND FREE ENERGY PREDICTED BY IDOCK:   -5.32 KCAL/MOL
REMARK 924 INTRA-LIGAND FREE ENERGY PREDICTED BY IDOCK:   -1.94 KCAL/MOL
REMARK 927      BINDING AFFINITY PREDICTED BY RF-SCORE:    0.00 PKD
ROOT
HETATM    1  C   UNL     1     -11.121   7.945  69.155  1.00  0.00     0.162 C  
HETATM    2  C   UNL     1     -10.773   8.936  68.031  1.00  0.00    -0.168 C  
HETATM    3  C   UNL     1     -11.264  10.320  68.375  1.00  0.00    -0.224 C  
HETATM    4  C   UNL     1     -10.781  10.878  69.683  1.00  0.00    -0.232 C  
HETATM    5  O   UNL     1     -11.960  10.981  67.607  1.00  0.00    -0.583 OA 
HETATM    6  C   UNL     1     -11.159   9.919  70.800  1.00  0.00    -0.417 C  
HETATM    7  C   UNL     1     -10.643   8.495  70.528  1.00  0.00    -0.238 C  
HETATM    8  C   UNL     1     -10.987   7.463  71.633  1.00  0.00    -0.225 C  
HETATM    9  C   UNL     1     -12.475   7.085  71.739  1.00  0.00    -0.393 C  
HETATM   10  C   UNL     1     -10.537   7.959  73.019  1.00  0.00    -0.406 C  
HETATM   11  O   UNL     1     -10.224   6.261  71.399  1.00  0.00    -0.196 OA 
HETATM   12  C   UNL     1     -10.133   5.818  70.104  1.00  0.00    -0.212 A  
HETATM   13  C   UNL     1      -9.549   4.548  69.978  1.00  0.00    -0.267 A  
HETATM   14  C   UNL     1      -9.400   3.926  68.731  1.00  0.00    -0.231 A  
HETATM   15  H   UNL     1     -11.366   7.344  66.708  1.00  0.00     0.000 HD 
HETATM   16  C   UNL     1      -9.894   4.621  67.617  1.00  0.00    -0.194 A  
HETATM   17  C   UNL     1     -10.472   5.890  67.744  1.00  0.00    -0.238 A  
HETATM   18  O   UNL     1     -10.974   6.483  66.622  1.00  0.00    -0.293 OA 
HETATM   19  C   UNL     1     -10.562   6.540  68.980  1.00  0.00    -0.286 A  
ENDROOT
BRANCH  14  20
HETATM   20  C   UNL     1      -8.737   2.548  68.554  1.00  0.00    -0.132 C  
HETATM   21  C   UNL     1      -9.263   1.477  69.539  1.00  0.00    -0.164 C  
HETATM   22  C   UNL     1      -9.056   2.026  67.131  1.00  0.00    -0.135 C  
BRANCH  20  23
HETATM   23  C   UNL     1      -7.184   2.652  68.695  1.00  0.00    -0.048 C  
BRANCH  23  24
HETATM   24  C   UNL     1      -6.509   3.609  67.706  1.00  0.00    -0.038 C  
BRANCH  24  25
HETATM   25  C   UNL     1      -5.445   4.475  68.384  1.00  0.00    -0.015 C  
BRANCH  25  26
HETATM   26  C   UNL     1      -6.091   5.413  69.406  1.00  0.00    -0.025 C  
BRANCH  26  27
HETATM   27  C   UNL     1      -6.764   6.608  68.739  1.00  0.00    -0.057 C  
HETATM   28  C   UNL     1      -7.143   7.664  69.767  1.00  0.00    -0.067 C  
ENDBRANCH  26  27
ENDBRANCH  25  26
ENDBRANCH  24  25
ENDBRANCH  23  24
ENDBRANCH  20  23
ENDBRANCH  14  20
TORSDOF 6
ENDMDL
MODEL       93
REMARK 921   NORMALIZED FREE ENERGY PREDICTED BY IDOCK:   -3.88 KCAL/MOL
REMARK 922        TOTAL FREE ENERGY PREDICTED BY IDOCK:   -7.26 KCAL/MOL
REMARK 923 INTER-LIGAND FREE ENERGY PREDICTED BY IDOCK:   -6.40 KCAL/MOL
REMARK 924 INTRA-LIGAND FREE ENERGY PREDICTED BY IDOCK:   -0.86 KCAL/MOL
REMARK 927      BINDING AFFINITY PREDICTED BY RF-SCORE:    0.00 PKD
ROOT
HETATM    1  C   UNL     1      -9.370  16.481  67.435  1.00  0.00    -0.223 C  
HETATM    2  C   UNL     1     -10.444  17.267  66.663  1.00  0.00    -0.257 C  
HETATM    3  C   UNL     1     -10.166  18.748  66.730  1.00  0.00    -0.393 C  
HETATM    4  C   UNL     1      -8.810  19.181  66.253  1.00  0.00    -0.308 C  
HETATM    5  O   UNL     1     -11.016  19.561  67.088  1.00  0.00    -0.492 OA 
HETATM    6  C   UNL     1      -7.746  18.434  67.042  1.00  0.00    -0.234 C  
HETATM    7  C   UNL     1      -7.949  16.910  66.972  1.00  0.00    -0.228 C  
HETATM    8  C   UNL     1      -6.893  16.082  67.750  1.00  0.00    -0.147 C  
HETATM    9  C   UNL     1      -6.972  16.193  69.283  1.00  0.00    -0.210 C  
HETATM   10  C   UNL     1      -5.463  16.470  67.332  1.00  0.00    -0.173 C  
HETATM   11  O   UNL     1      -7.029  14.694  67.382  1.00  0.00    -0.186 OA 
HETATM   12  C   UNL     1      -8.301  14.192  67.285  1.00  0.00    -0.196 A  
HETATM   13  C   UNL     1      -8.351  12.799  67.119  1.00  0.00    -0.164 A  
HETATM   14  C   UNL     1      -9.569  12.112  67.029  1.00  0.00    -0.207 A  
HETATM   15  H   UNL     1     -11.827  15.886  67.568  1.00  0.00     0.000 HD 
HETATM   16  C   UNL     1     -10.737  12.880  67.145  1.00  0.00    -0.268 A  
HETATM   17  C   UNL     1     -10.685  14.269  67.305  1.00  0.00    -0.277 A  
HETATM   18  O   UNL     1     -11.862  14.943  67.460  1.00  0.00    -0.350 OA 
HETATM   19  C   UNL     1      -9.472  14.966  67.330  1.00  0.00    -0.216 A  
ENDROOT
BRANCH  14  20
HETATM   20  C   UNL     1      -9.660  10.590  66.818  1.00  0.00    -0.205 C  
HETATM   21  C   UNL     1     -10.806   9.922  67.614  1.00  0.00    -0.318 C  
HETATM   22  C   UNL     1      -9.950  10.314  65.321  1.00  0.00    -0.387 C  
BRANCH  20  23
HETATM   23  C   UNL     1      -8.310   9.893  67.185  1.00  0.00    -0.121 C  
BRANCH  23  24
HETATM   24  C   UNL     1      -8.310   9.152  68.527  1.00  0.00    -0.123 C  
BRANCH  24  25
HETATM   25  C   UNL     1      -7.794   7.718  68.389  1.00  0.00    -0.121 C  
BRANCH  25  26
HETATM   26  C   UNL     1      -8.711   6.746  69.134  1.00  0.00    -0.131 C  
BRANCH  26  27
HETATM   27  C   UNL     1      -9.251   5.653  68.216  1.00  0.00    -0.116 C  
HETATM   28  C   UNL     1     -10.686   5.946  67.805  1.00  0.00    -0.346 C  
ENDBRANCH  26  27
ENDBRANCH  25  26
ENDBRANCH  24  25
ENDBRANCH  23  24
ENDBRANCH  20  23
ENDBRANCH  14  20
TORSDOF 6
ENDMDL
MODEL       94
REMARK 921   NORMALIZED FREE ENERGY PREDICTED BY IDOCK:   -3.88 KCAL/MOL
REMARK 922        TOTAL FREE ENERGY PREDICTED BY IDOCK:   -7.25 KCAL/MOL
REMARK 923 INTER-LIGAND FREE ENERGY PREDICTED BY IDOCK:   -6.33 KCAL/MOL
REMARK 924 INTRA-LIGAND FREE ENERGY PREDICTED BY IDOCK:   -0.92 KCAL/MOL
REMARK 927      BINDING AFFINITY PREDICTED BY RF-SCORE:    0.00 PKD
ROOT
HETATM    1  C   UNL     1     -11.819  12.485  70.379  1.00  0.00    -0.246 C  
HETATM    2  C   UNL     1     -12.828  12.286  71.524  1.00  0.00    -0.384 C  
HETATM    3  C   UNL     1     -13.292  13.618  72.056  1.00  0.00    -0.459 C  
HETATM    4  C   UNL     1     -13.884  14.557  71.044  1.00  0.00    -0.187 C  
HETATM    5  O   UNL     1     -13.255  13.898  73.254  1.00  0.00    -0.527 OA 
HETATM    6  C   UNL     1     -12.873  14.786  69.931  1.00  0.00    -0.023 C  
HETATM    7  C   UNL     1     -12.395  13.460  69.314  1.00  0.00    -0.090 C  
HETATM    8  C   UNL     1     -11.366  13.618  68.164  1.00  0.00    -0.288 C  
HETATM    9  C   UNL     1      -9.974  14.115  68.594  1.00  0.00    -0.222 C  
HETATM   10  C   UNL     1     -11.885  14.579  67.080  1.00  0.00    -0.408 C  
HETATM   11  O   UNL     1     -11.214  12.346  67.500  1.00  0.00    -0.260 OA 
HETATM   12  C   UNL     1     -11.134  11.230  68.291  1.00  0.00    -0.240 A  
HETATM   13  C   UNL     1     -10.792  10.061  67.593  1.00  0.00    -0.336 A  
HETATM   14  C   UNL     1     -10.639   8.831  68.245  1.00  0.00    -0.194 A  
HETATM   15  H   UNL     1     -11.499  10.717  72.162  1.00  0.00     0.000 HD 
HETATM   16  C   UNL     1     -10.812   8.830  69.638  1.00  0.00    -0.175 A  
HETATM   17  C   UNL     1     -11.159   9.994  70.332  1.00  0.00    -0.327 A  
HETATM   18  O   UNL     1     -11.263   9.926  71.691  1.00  0.00    -0.257 OA 
HETATM   19  C   UNL     1     -11.376  11.210  69.674  1.00  0.00    -0.366 A  
ENDROOT
BRANCH  14  20
HETATM   20  C   UNL     1     -10.292   7.526  67.507  1.00  0.00    -0.321 C  
HETATM   21  C   UNL     1     -11.534   6.716  67.066  1.00  0.00     0.261 C  
HETATM   22  C   UNL     1      -9.521   7.881  66.211  1.00  0.00    -0.220 C  
BRANCH  20  23
HETATM   23  C   UNL     1      -9.374   6.614  68.383  1.00  0.00    -0.123 C  
BRANCH  23  24
HETATM   24  C   UNL     1     -10.106   5.506  69.148  1.00  0.00    -0.286 C  
BRANCH  24  25
HETATM   25  C   UNL     1      -9.451   4.138  68.938  1.00  0.00    -0.238 C  
BRANCH  25  26
HETATM   26  C   UNL     1      -9.453   3.767  67.454  1.00  0.00    -0.239 C  
BRANCH  26  27
HETATM   27  C   UNL     1      -8.047   3.486  66.934  1.00  0.00    -0.088 C  
HETATM   28  C   UNL     1      -7.709   4.394  65.760  1.00  0.00    -0.090 C  
ENDBRANCH  26  27
ENDBRANCH  25  26
ENDBRANCH  24  25
ENDBRANCH  23  24
ENDBRANCH  20  23
ENDBRANCH  14  20
TORSDOF 6
ENDMDL
MODEL       95
REMARK 921   NORMALIZED FREE ENERGY PREDICTED BY IDOCK:   -3.86 KCAL/MOL
REMARK 922        TOTAL FREE ENERGY PREDICTED BY IDOCK:   -7.23 KCAL/MOL
REMARK 923 INTER-LIGAND FREE ENERGY PREDICTED BY IDOCK:   -6.48 KCAL/MOL
REMARK 924 INTRA-LIGAND FREE ENERGY PREDICTED BY IDOCK:   -0.75 KCAL/MOL
REMARK 927      BINDING AFFINITY PREDICTED BY RF-SCORE:    0.00 PKD
ROOT
HETATM    1  C   UNL     1      -9.964   7.540  72.127  1.00  0.00    -0.218 C  
HETATM    2  C   UNL     1      -8.738   6.647  72.383  1.00  0.00    -0.129 C  
HETATM    3  C   UNL     1      -9.051   5.607  73.430  1.00  0.00    -0.129 C  
HETATM    4  C   UNL     1     -10.240   4.734  73.149  1.00  0.00    -0.216 C  
HETATM    5  O   UNL     1      -8.341   5.436  74.420  1.00  0.00    -0.107 OA 
HETATM    6  C   UNL     1     -11.461   5.614  72.935  1.00  0.00    -0.297 C  
HETATM    7  C   UNL     1     -11.219   6.668  71.841  1.00  0.00    -0.302 C  
HETATM    8  C   UNL     1     -12.428   7.599  71.563  1.00  0.00    -0.336 C  
HETATM    9  C   UNL     1     -12.761   8.596  72.688  1.00  0.00    -0.268 C  
HETATM   10  C   UNL     1     -13.703   6.785  71.276  1.00  0.00    -0.000 C  
HETATM   11  O   UNL     1     -12.174   8.340  70.352  1.00  0.00     0.119 OA 
HETATM   12  C   UNL     1     -10.913   8.850  70.181  1.00  0.00    -0.227 A  
HETATM   13  C   UNL     1     -10.795   9.719  69.085  1.00  0.00    -0.231 A  
HETATM   14  C   UNL     1      -9.585  10.353  68.775  1.00  0.00    -0.178 A  
HETATM   15  H   UNL     1      -7.620   8.484  72.280  1.00  0.00     0.000 HD 
HETATM   16  C   UNL     1      -8.504  10.103  69.633  1.00  0.00    -0.172 A  
HETATM   17  C   UNL     1      -8.621   9.232  70.722  1.00  0.00    -0.203 A  
HETATM   18  O   UNL     1      -7.540   9.076  71.540  1.00  0.00    -0.275 OA 
HETATM   19  C   UNL     1      -9.810   8.547  70.995  1.00  0.00    -0.245 A  
ENDROOT
BRANCH  14  20
HETATM   20  C   UNL     1      -9.413  11.289  67.565  1.00  0.00    -0.177 C  
HETATM   21  C   UNL     1      -7.935  11.560  67.197  1.00  0.00    -0.160 C  
HETATM   22  C   UNL     1     -10.056  10.618  66.325  1.00  0.00    -0.291 C  
BRANCH  20  23
HETATM   23  C   UNL     1     -10.137  12.653  67.806  1.00  0.00    -0.220 C  
BRANCH  23  24
HETATM   24  C   UNL     1     -11.574  12.724  67.276  1.00  0.00    -0.420 C  
BRANCH  24  25
HETATM   25  C   UNL     1     -11.723  13.767  66.167  1.00  0.00    -0.392 C  
BRANCH  25  26
HETATM   26  C   UNL     1     -12.630  13.238  65.053  1.00  0.00    -0.483 C  
BRANCH  26  27
HETATM   27  C   UNL     1     -11.989  13.385  63.677  1.00  0.00    -0.504 C  
HETATM   28  C   UNL     1     -10.735  12.531  63.565  1.00  0.00    -0.417 C  
ENDBRANCH  26  27
ENDBRANCH  25  26
ENDBRANCH  24  25
ENDBRANCH  23  24
ENDBRANCH  20  23
ENDBRANCH  14  20
TORSDOF 6
ENDMDL
MODEL       96
REMARK 921   NORMALIZED FREE ENERGY PREDICTED BY IDOCK:   -3.80 KCAL/MOL
REMARK 922        TOTAL FREE ENERGY PREDICTED BY IDOCK:   -7.15 KCAL/MOL
REMARK 923 INTER-LIGAND FREE ENERGY PREDICTED BY IDOCK:   -5.66 KCAL/MOL
REMARK 924 INTRA-LIGAND FREE ENERGY PREDICTED BY IDOCK:   -1.49 KCAL/MOL
REMARK 927      BINDING AFFINITY PREDICTED BY RF-SCORE:    0.00 PKD
ROOT
HETATM    1  C   UNL     1      -8.540   7.293  66.534  1.00  0.00    -0.134 C  
HETATM    2  C   UNL     1      -8.632   6.003  65.700  1.00  0.00    -0.154 C  
HETATM    3  C   UNL     1      -7.789   6.118  64.455  1.00  0.00    -0.114 C  
HETATM    4  C   UNL     1      -6.341   6.453  64.675  1.00  0.00    -0.030 C  
HETATM    5  O   UNL     1      -8.236   5.884  63.334  1.00  0.00    -0.115 OA 
HETATM    6  C   UNL     1      -6.248   7.749  65.465  1.00  0.00    -0.038 C  
HETATM    7  C   UNL     1      -7.053   7.677  66.774  1.00  0.00    -0.083 C  
HETATM    8  C   UNL     1      -6.996   8.964  67.637  1.00  0.00    -0.075 C  
HETATM    9  C   UNL     1      -7.736  10.181  67.051  1.00  0.00    -0.096 C  
HETATM   10  C   UNL     1      -5.542   9.393  67.904  1.00  0.00    -0.041 C  
HETATM   11  O   UNL     1      -7.548   8.675  68.939  1.00  0.00    -0.088 OA 
HETATM   12  C   UNL     1      -8.689   7.917  68.982  1.00  0.00    -0.138 A  
HETATM   13  C   UNL     1      -9.274   7.843  70.256  1.00  0.00    -0.152 A  
HETATM   14  C   UNL     1     -10.460   7.132  70.482  1.00  0.00    -0.228 A  
HETATM   15  H   UNL     1     -10.728   6.068  66.188  1.00  0.00     0.000 HD 
HETATM   16  C   UNL     1     -11.053   6.525  69.365  1.00  0.00    -0.407 A  
HETATM   17  C   UNL     1     -10.466   6.594  68.096  1.00  0.00    -0.214 A  
HETATM   18  O   UNL     1     -11.127   6.020  67.049  1.00  0.00    -0.303 OA 
HETATM   19  C   UNL     1      -9.248   7.249  67.881  1.00  0.00    -0.131 A  
ENDROOT
BRANCH  14  20
HETATM   20  C   UNL     1     -11.112   7.006  71.870  1.00  0.00    -0.274 C  
HETATM   21  C   UNL     1     -11.380   5.544  72.298  1.00  0.00    -0.257 C  
HETATM   22  C   UNL     1     -10.146   7.599  72.926  1.00  0.00    -0.343 C  
BRANCH  20  23
HETATM   23  C   UNL     1     -12.451   7.810  71.934  1.00  0.00    -0.343 C  
BRANCH  23  24
HETATM   24  C   UNL     1     -12.298   9.290  72.304  1.00  0.00    -0.344 C  
BRANCH  24  25
HETATM   25  C   UNL     1     -13.249  10.181  71.502  1.00  0.00    -0.496 C  
BRANCH  25  26
HETATM   26  C   UNL     1     -12.466  11.258  70.749  1.00  0.00    -0.471 C  
BRANCH  26  27
HETATM   27  C   UNL     1     -11.999  10.772  69.380  1.00  0.00    -0.353 C  
HETATM   28  C   UNL     1     -10.542  11.137  69.140  1.00  0.00    -0.238 C  
ENDBRANCH  26  27
ENDBRANCH  25  26
ENDBRANCH  24  25
ENDBRANCH  23  24
ENDBRANCH  20  23
ENDBRANCH  14  20
TORSDOF 6
ENDMDL
MODEL       97
REMARK 921   NORMALIZED FREE ENERGY PREDICTED BY IDOCK:   -3.80 KCAL/MOL
REMARK 922        TOTAL FREE ENERGY PREDICTED BY IDOCK:   -7.15 KCAL/MOL
REMARK 923 INTER-LIGAND FREE ENERGY PREDICTED BY IDOCK:   -6.13 KCAL/MOL
REMARK 924 INTRA-LIGAND FREE ENERGY PREDICTED BY IDOCK:   -1.02 KCAL/MOL
REMARK 927      BINDING AFFINITY PREDICTED BY RF-SCORE:    0.00 PKD
ROOT
HETATM    1  C   UNL     1      -9.411  10.483  65.788  1.00  0.00    -0.249 C  
HETATM    2  C   UNL     1     -10.659  10.727  64.922  1.00  0.00    -0.258 C  
HETATM    3  C   UNL     1     -10.267  11.271  63.571  1.00  0.00    -0.403 C  
HETATM    4  C   UNL     1      -9.289  10.441  62.791  1.00  0.00    -0.341 C  
HETATM    5  O   UNL     1     -10.766  12.293  63.103  1.00  0.00    -0.371 OA 
HETATM    6  C   UNL     1      -8.038  10.232  63.630  1.00  0.00    -0.149 C  
HETATM    7  C   UNL     1      -8.370   9.633  65.007  1.00  0.00    -0.146 C  
HETATM    8  C   UNL     1      -7.137   9.385  65.916  1.00  0.00    -0.091 C  
HETATM    9  C   UNL     1      -6.447  10.655  66.446  1.00  0.00    -0.117 C  
HETATM   10  C   UNL     1      -6.069   8.547  65.191  1.00  0.00    -0.052 C  
HETATM   11  O   UNL     1      -7.545   8.580  67.042  1.00  0.00    -0.090 OA 
HETATM   12  C   UNL     1      -8.738   8.897  67.641  1.00  0.00    -0.124 A  
HETATM   13  C   UNL     1      -8.973   8.206  68.840  1.00  0.00    -0.141 A  
HETATM   14  C   UNL     1     -10.129   8.424  69.600  1.00  0.00    -0.199 A  
HETATM   15  H   UNL     1     -11.527  11.501  66.734  1.00  0.00     0.000 HD 
HETATM   16  C   UNL     1     -11.026   9.391  69.122  1.00  0.00    -0.114 A  
HETATM   17  C   UNL     1     -10.793  10.075  67.924  1.00  0.00    -0.271 A  
HETATM   18  O   UNL     1     -11.686  11.036  67.548  1.00  0.00    -0.565 OA 
HETATM   19  C   UNL     1      -9.671   9.812  67.129  1.00  0.00    -0.223 A  
ENDROOT
BRANCH  14  20
HETATM   20  C   UNL     1     -10.432   7.663  70.904  1.00  0.00    -0.210 C  
HETATM   21  C   UNL     1     -10.060   8.452  72.181  1.00  0.00    -0.376 C  
HETATM   22  C   UNL     1     -11.957   7.402  70.981  1.00  0.00    -0.337 C  
BRANCH  20  23
HETATM   23  C   UNL     1      -9.703   6.281  70.927  1.00  0.00    -0.197 C  
BRANCH  23  24
HETATM   24  C   UNL     1     -10.223   5.260  69.909  1.00  0.00    -0.364 C  
BRANCH  24  25
HETATM   25  C   UNL     1      -9.439   3.946  69.965  1.00  0.00    -0.263 C  
BRANCH  25  26
HETATM   26  C   UNL     1      -9.244   3.380  68.557  1.00  0.00    -0.229 C  
BRANCH  26  27
HETATM   27  C   UNL     1      -9.264   4.473  67.493  1.00  0.00    -0.156 C  
HETATM   28  C   UNL     1      -7.864   5.013  67.240  1.00  0.00    -0.096 C  
ENDBRANCH  26  27
ENDBRANCH  25  26
ENDBRANCH  24  25
ENDBRANCH  23  24
ENDBRANCH  20  23
ENDBRANCH  14  20
TORSDOF 6
ENDMDL
MODEL       98
REMARK 921   NORMALIZED FREE ENERGY PREDICTED BY IDOCK:   -3.80 KCAL/MOL
REMARK 922        TOTAL FREE ENERGY PREDICTED BY IDOCK:   -7.14 KCAL/MOL
REMARK 923 INTER-LIGAND FREE ENERGY PREDICTED BY IDOCK:   -6.32 KCAL/MOL
REMARK 924 INTRA-LIGAND FREE ENERGY PREDICTED BY IDOCK:   -0.82 KCAL/MOL
REMARK 927      BINDING AFFINITY PREDICTED BY RF-SCORE:    0.00 PKD
ROOT
HETATM    1  C   UNL     1      -9.764   6.576  71.833  1.00  0.00    -0.159 C  
HETATM    2  C   UNL     1     -11.092   5.856  72.125  1.00  0.00    -0.333 C  
HETATM    3  C   UNL     1     -10.927   4.884  73.266  1.00  0.00    -0.320 C  
HETATM    4  C   UNL     1     -10.394   5.462  74.546  1.00  0.00    -0.272 C  
HETATM    5  O   UNL     1     -11.269   3.706  73.181  1.00  0.00    -0.135 OA 
HETATM    6  C   UNL     1      -9.062   6.139  74.266  1.00  0.00    -0.148 C  
HETATM    7  C   UNL     1      -9.177   7.180  73.140  1.00  0.00    -0.179 C  
HETATM    8  C   UNL     1      -7.854   7.918  72.805  1.00  0.00    -0.118 C  
HETATM    9  C   UNL     1      -6.775   7.055  72.127  1.00  0.00    -0.057 C  
HETATM   10  C   UNL     1      -7.226   8.535  74.068  1.00  0.00    -0.127 C  
HETATM   11  O   UNL     1      -8.152   9.039  71.947  1.00  0.00    -0.359 OA 
HETATM   12  C   UNL     1      -9.051   8.831  70.933  1.00  0.00    -0.208 A  
HETATM   13  C   UNL     1      -9.142   9.899  70.026  1.00  0.00    -0.217 A  
HETATM   14  C   UNL     1      -9.991   9.849  68.913  1.00  0.00    -0.188 A  
HETATM   15  H   UNL     1     -11.280   5.747  69.983  1.00  0.00     0.000 HD 
HETATM   16  C   UNL     1     -10.722   8.666  68.729  1.00  0.00    -0.098 A  
HETATM   17  C   UNL     1     -10.635   7.605  69.637  1.00  0.00    -0.243 A  
HETATM   18  O   UNL     1     -11.340   6.467  69.367  1.00  0.00    -0.354 OA 
HETATM   19  C   UNL     1      -9.838   7.677  70.785  1.00  0.00    -0.177 A  
ENDROOT
BRANCH  14  20
HETATM   20  C   UNL     1     -10.136  11.012  67.915  1.00  0.00    -0.199 C  
HETATM   21  C   UNL     1      -9.103  10.973  66.764  1.00  0.00    -0.172 C  
HETATM   22  C   UNL     1     -11.532  10.923  67.250  1.00  0.00    -0.104 C  
BRANCH  20  23
HETATM   23  C   UNL     1     -10.034  12.391  68.645  1.00  0.00    -0.117 C  
BRANCH  23  24
HETATM   24  C   UNL     1     -11.355  13.161  68.754  1.00  0.00    -0.333 C  
BRANCH  24  25
HETATM   25  C   UNL     1     -11.181  14.493  69.488  1.00  0.00    -0.300 C  
BRANCH  25  26
HETATM   26  C   UNL     1     -11.789  14.416  70.889  1.00  0.00    -0.346 C  
BRANCH  26  27
HETATM   27  C   UNL     1     -12.597  13.138  71.092  1.00  0.00    -0.403 C  
HETATM   28  C   UNL     1     -13.620  13.310  72.204  1.00  0.00    -0.655 C  
ENDBRANCH  26  27
ENDBRANCH  25  26
ENDBRANCH  24  25
ENDBRANCH  23  24
ENDBRANCH  20  23
ENDBRANCH  14  20
TORSDOF 6
ENDMDL
MODEL       99
REMARK 921   NORMALIZED FREE ENERGY PREDICTED BY IDOCK:   -3.77 KCAL/MOL
REMARK 922        TOTAL FREE ENERGY PREDICTED BY IDOCK:   -7.10 KCAL/MOL
REMARK 923 INTER-LIGAND FREE ENERGY PREDICTED BY IDOCK:   -6.11 KCAL/MOL
REMARK 924 INTRA-LIGAND FREE ENERGY PREDICTED BY IDOCK:   -0.99 KCAL/MOL
REMARK 927      BINDING AFFINITY PREDICTED BY RF-SCORE:    0.00 PKD
ROOT
HETATM    1  C   UNL     1      -8.801  10.948  67.846  1.00  0.00    -0.134 C  
HETATM    2  C   UNL     1      -7.271  10.785  67.852  1.00  0.00    -0.087 C  
HETATM    3  C   UNL     1      -6.618  11.896  67.070  1.00  0.00    -0.128 C  
HETATM    4  C   UNL     1      -6.960  13.292  67.506  1.00  0.00    -0.152 C  
HETATM    5  O   UNL     1      -5.802  11.679  66.175  1.00  0.00    -0.174 OA 
HETATM    6  C   UNL     1      -8.469  13.468  67.462  1.00  0.00    -0.192 C  
HETATM    7  C   UNL     1      -9.193  12.387  68.284  1.00  0.00    -0.189 C  
HETATM    8  C   UNL     1     -10.739  12.510  68.291  1.00  0.00    -0.228 C  
HETATM    9  C   UNL     1     -11.429  12.192  66.951  1.00  0.00    -0.414 C  
HETATM   10  C   UNL     1     -11.185  13.921  68.716  1.00  0.00    -0.302 C  
HETATM   11  O   UNL     1     -11.271  11.627  69.301  1.00  0.00    -0.244 OA 
HETATM   12  C   UNL     1     -10.720  10.375  69.392  1.00  0.00    -0.244 A  
HETATM   13  C   UNL     1     -11.413   9.511  70.255  1.00  0.00    -0.256 A  
HETATM   14  C   UNL     1     -11.008   8.184  70.450  1.00  0.00    -0.248 A  
HETATM   15  H   UNL     1      -7.688   8.693  67.559  1.00  0.00     0.000 HD 
HETATM   16  C   UNL     1      -9.895   7.750  69.715  1.00  0.00    -0.178 A  
HETATM   17  C   UNL     1      -9.202   8.613  68.859  1.00  0.00    -0.145 A  
HETATM   18  O   UNL     1      -8.158   8.106  68.141  1.00  0.00    -0.124 OA 
HETATM   19  C   UNL     1      -9.565   9.957  68.713  1.00  0.00    -0.160 A  
ENDROOT
BRANCH  14  20
HETATM   20  C   UNL     1     -11.727   7.219  71.411  1.00  0.00    -0.317 C  
HETATM   21  C   UNL     1     -13.267   7.238  71.268  1.00  0.00    -0.352 C  
HETATM   22  C   UNL     1     -11.277   5.773  71.087  1.00  0.00    -0.211 C  
BRANCH  20  23
HETATM   23  C   UNL     1     -11.348   7.524  72.896  1.00  0.00    -0.355 C  
BRANCH  23  24
HETATM   24  C   UNL     1      -9.853   7.749  73.147  1.00  0.00    -0.361 C  
BRANCH  24  25
HETATM   25  C   UNL     1      -9.341   6.924  74.330  1.00  0.00    -0.252 C  
BRANCH  25  26
HETATM   26  C   UNL     1     -10.208   5.679  74.529  1.00  0.00    -0.288 C  
BRANCH  26  27
HETATM   27  C   UNL     1      -9.491   4.407  74.088  1.00  0.00    -0.123 C  
HETATM   28  C   UNL     1     -10.477   3.265  73.893  1.00  0.00    -0.256 C  
ENDBRANCH  26  27
ENDBRANCH  25  26
ENDBRANCH  24  25
ENDBRANCH  23  24
ENDBRANCH  20  23
ENDBRANCH  14  20
TORSDOF 6
ENDMDL
MODEL      100
REMARK 921   NORMALIZED FREE ENERGY PREDICTED BY IDOCK:   -3.75 KCAL/MOL
REMARK 922        TOTAL FREE ENERGY PREDICTED BY IDOCK:   -7.08 KCAL/MOL
REMARK 923 INTER-LIGAND FREE ENERGY PREDICTED BY IDOCK:   -6.12 KCAL/MOL
REMARK 924 INTRA-LIGAND FREE ENERGY PREDICTED BY IDOCK:   -0.97 KCAL/MOL
REMARK 927      BINDING AFFINITY PREDICTED BY RF-SCORE:    0.00 PKD
ROOT
HETATM    1  C   UNL     1     -10.035   5.190  70.195  1.00  0.00    -0.324 C  
HETATM    2  C   UNL     1     -10.217   5.110  71.721  1.00  0.00    -0.271 C  
HETATM    3  C   UNL     1      -9.985   3.702  72.208  1.00  0.00    -0.169 C  
HETATM    4  C   UNL     1      -8.661   3.094  71.844  1.00  0.00    -0.101 C  
HETATM    5  O   UNL     1     -10.795   3.109  72.918  1.00  0.00    -0.126 OA 
HETATM    6  C   UNL     1      -8.496   3.136  70.332  1.00  0.00    -0.099 C  
HETATM    7  C   UNL     1      -8.676   4.560  69.779  1.00  0.00    -0.111 C  
HETATM    8  C   UNL     1      -8.514   4.680  68.241  1.00  0.00    -0.097 C  
HETATM    9  C   UNL     1      -9.638   4.033  67.410  1.00  0.00    -0.222 C  
HETATM   10  C   UNL     1      -7.182   4.067  67.772  1.00  0.00    -0.063 C  
HETATM   11  O   UNL     1      -8.430   6.076  67.890  1.00  0.00    -0.115 OA 
HETATM   12  C   UNL     1      -9.295   6.935  68.518  1.00  0.00    -0.134 A  
HETATM   13  C   UNL     1      -9.292   8.234  67.988  1.00  0.00    -0.141 A  
HETATM   14  C   UNL     1     -10.133   9.236  68.489  1.00  0.00    -0.211 A  
HETATM   15  H   UNL     1     -11.911   6.398  71.391  1.00  0.00     0.000 HD 
HETATM   16  C   UNL     1     -11.004   8.869  69.525  1.00  0.00    -0.097 A  
HETATM   17  C   UNL     1     -11.003   7.574  70.057  1.00  0.00    -0.240 A  
HETATM   18  O   UNL     1     -11.912   7.278  71.030  1.00  0.00    -0.311 OA 
HETATM   19  C   UNL     1     -10.118   6.590  69.602  1.00  0.00    -0.209 A  
ENDROOT
BRANCH  14  20
HETATM   20  C   UNL     1     -10.134  10.679  67.950  1.00  0.00    -0.194 C  
HETATM   21  C   UNL     1      -8.851  11.470  68.297  1.00  0.00    -0.166 C  
HETATM   22  C   UNL     1     -10.211  10.629  66.404  1.00  0.00    -0.291 C  
BRANCH  20  23
HETATM   23  C   UNL     1     -11.377  11.469  68.472  1.00  0.00    -0.337 C  
BRANCH  23  24
HETATM   24  C   UNL     1     -11.109  12.938  68.818  1.00  0.00    -0.305 C  
BRANCH  24  25
HETATM   25  C   UNL     1     -12.016  13.886  68.030  1.00  0.00    -0.390 C  
BRANCH  25  26
HETATM   26  C   UNL     1     -11.516  14.032  66.592  1.00  0.00    -0.377 C  
BRANCH  26  27
HETATM   27  C   UNL     1     -12.487  13.423  65.585  1.00  0.00    -0.519 C  
HETATM   28  C   UNL     1     -11.938  13.521  64.170  1.00  0.00    -0.498 C  
ENDBRANCH  26  27
ENDBRANCH  25  26
ENDBRANCH  24  25
ENDBRANCH  23  24
ENDBRANCH  20  23
ENDBRANCH  14  20
TORSDOF 6
ENDMDL
MODEL      101
REMARK 921   NORMALIZED FREE ENERGY PREDICTED BY IDOCK:   -3.74 KCAL/MOL
REMARK 922        TOTAL FREE ENERGY PREDICTED BY IDOCK:   -7.07 KCAL/MOL
REMARK 923 INTER-LIGAND FREE ENERGY PREDICTED BY IDOCK:   -6.21 KCAL/MOL
REMARK 924 INTRA-LIGAND FREE ENERGY PREDICTED BY IDOCK:   -0.86 KCAL/MOL
REMARK 927      BINDING AFFINITY PREDICTED BY RF-SCORE:    0.00 PKD
ROOT
HETATM    1  C   UNL     1      -9.368   9.276  68.898  1.00  0.00    -0.150 C  
HETATM    2  C   UNL     1     -10.684   8.836  69.563  1.00  0.00    -0.196 C  
HETATM    3  C   UNL     1     -10.554   7.441  70.119  1.00  0.00    -0.230 C  
HETATM    4  C   UNL     1      -9.425   7.224  71.085  1.00  0.00    -0.156 C  
HETATM    5  O   UNL     1     -11.361   6.550  69.856  1.00  0.00    -0.359 OA 
HETATM    6  C   UNL     1      -8.119   7.621  70.416  1.00  0.00    -0.113 C  
HETATM    7  C   UNL     1      -8.172   9.057  69.868  1.00  0.00    -0.124 C  
HETATM    8  C   UNL     1      -6.868   9.533  69.177  1.00  0.00    -0.050 C  
HETATM    9  C   UNL     1      -6.550   8.851  67.834  1.00  0.00    -0.061 C  
HETATM   10  C   UNL     1      -5.647   9.335  70.095  1.00  0.00    -0.031 C  
HETATM   11  O   UNL     1      -6.949  10.957  68.961  1.00  0.00    -0.072 OA 
HETATM   12  C   UNL     1      -8.142  11.455  68.504  1.00  0.00    -0.149 A  
HETATM   13  C   UNL     1      -8.088  12.807  68.131  1.00  0.00    -0.158 A  
HETATM   14  C   UNL     1      -9.207  13.475  67.617  1.00  0.00    -0.214 A  
HETATM   15  H   UNL     1     -11.626   9.769  67.866  1.00  0.00     0.000 HD 
HETATM   16  C   UNL     1     -10.377  12.716  67.460  1.00  0.00    -0.220 A  
HETATM   17  C   UNL     1     -10.431  11.370  67.837  1.00  0.00    -0.184 A  
HETATM   18  O   UNL     1     -11.589  10.684  67.610  1.00  0.00    -0.492 OA 
HETATM   19  C   UNL     1      -9.334  10.718  68.412  1.00  0.00    -0.167 A  
ENDROOT
BRANCH  14  20
HETATM   20  C   UNL     1      -9.191  14.963  67.226  1.00  0.00    -0.212 C  
HETATM   21  C   UNL     1      -7.791  15.480  66.818  1.00  0.00    -0.162 C  
HETATM   22  C   UNL     1     -10.106  15.161  65.991  1.00  0.00    -0.323 C  
BRANCH  20  23
HETATM   23  C   UNL     1      -9.745  15.852  68.386  1.00  0.00    -0.214 C  
BRANCH  23  24
HETATM   24  C   UNL     1     -10.767  16.911  67.955  1.00  0.00    -0.364 C  
BRANCH  24  25
HETATM   25  C   UNL     1     -10.233  18.332  68.146  1.00  0.00    -0.406 C  
BRANCH  25  26
HETATM   26  C   UNL     1     -10.895  19.290  67.154  1.00  0.00    -0.543 C  
BRANCH  26  27
HETATM   27  C   UNL     1      -9.874  20.171  66.441  1.00  0.00    -0.560 C  
HETATM   28  C   UNL     1      -8.595  19.399  66.155  1.00  0.00    -0.297 C  
ENDBRANCH  26  27
ENDBRANCH  25  26
ENDBRANCH  24  25
ENDBRANCH  23  24
ENDBRANCH  20  23
ENDBRANCH  14  20
TORSDOF 6
ENDMDL
MODEL      102
REMARK 921   NORMALIZED FREE ENERGY PREDICTED BY IDOCK:   -3.74 KCAL/MOL
REMARK 922        TOTAL FREE ENERGY PREDICTED BY IDOCK:   -7.06 KCAL/MOL
REMARK 923 INTER-LIGAND FREE ENERGY PREDICTED BY IDOCK:   -6.02 KCAL/MOL
REMARK 924 INTRA-LIGAND FREE ENERGY PREDICTED BY IDOCK:   -1.04 KCAL/MOL
REMARK 927      BINDING AFFINITY PREDICTED BY RF-SCORE:    0.00 PKD
ROOT
HETATM    1  C   UNL     1      -9.638  11.398  65.767  1.00  0.00    -0.260 C  
HETATM    2  C   UNL     1     -10.821  12.375  65.879  1.00  0.00    -0.305 C  
HETATM    3  C   UNL     1     -10.983  13.158  64.601  1.00  0.00    -0.356 C  
HETATM    4  C   UNL     1     -11.143  12.341  63.350  1.00  0.00    -0.487 C  
HETATM    5  O   UNL     1     -11.050  14.386  64.585  1.00  0.00    -0.381 OA 
HETATM    6  C   UNL     1      -9.955  11.402  63.217  1.00  0.00    -0.431 C  
HETATM    7  C   UNL     1      -9.766  10.540  64.477  1.00  0.00    -0.375 C  
HETATM    8  C   UNL     1      -8.573   9.551  64.408  1.00  0.00    -0.195 C  
HETATM    9  C   UNL     1      -7.178  10.201  64.438  1.00  0.00    -0.115 C  
HETATM   10  C   UNL     1      -8.648   8.675  63.144  1.00  0.00    -0.035 C  
HETATM   11  O   UNL     1      -8.672   8.627  65.512  1.00  0.00    -0.172 OA 
HETATM   12  C   UNL     1      -9.014   9.144  66.735  1.00  0.00    -0.128 A  
HETATM   13  C   UNL     1      -8.899   8.228  67.792  1.00  0.00    -0.137 A  
HETATM   14  C   UNL     1      -9.182   8.591  69.115  1.00  0.00    -0.150 A  
HETATM   15  H   UNL     1     -10.073  12.748  67.864  1.00  0.00     0.000 HD 
HETATM   16  C   UNL     1      -9.554   9.925  69.337  1.00  0.00    -0.229 A  
HETATM   17  C   UNL     1      -9.673  10.836  68.282  1.00  0.00    -0.164 A  
HETATM   18  O   UNL     1      -9.992  12.129  68.581  1.00  0.00    -0.202 OA 
HETATM   19  C   UNL     1      -9.455  10.459  66.952  1.00  0.00    -0.196 A  
ENDROOT
BRANCH  14  20
HETATM   20  C   UNL     1      -9.094   7.604  70.293  1.00  0.00    -0.149 C  
HETATM   21  C   UNL     1      -7.644   7.301  70.740  1.00  0.00    -0.084 C  
HETATM   22  C   UNL     1      -9.806   8.232  71.518  1.00  0.00    -0.250 C  
BRANCH  20  23
HETATM   23  C   UNL     1      -9.814   6.260  69.952  1.00  0.00    -0.198 C  
BRANCH  23  24
HETATM   24  C   UNL     1      -9.089   4.999  70.436  1.00  0.00    -0.172 C  
BRANCH  24  25
HETATM   25  C   UNL     1      -9.985   4.127  71.319  1.00  0.00    -0.216 C  
BRANCH  25  26
HETATM   26  C   UNL     1      -9.495   4.152  72.768  1.00  0.00    -0.161 C  
BRANCH  26  27
HETATM   27  C   UNL     1     -10.239   5.188  73.606  1.00  0.00    -0.237 C  
HETATM   28  C   UNL     1     -11.595   5.509  72.996  1.00  0.00    -0.233 C  
ENDBRANCH  26  27
ENDBRANCH  25  26
ENDBRANCH  24  25
ENDBRANCH  23  24
ENDBRANCH  20  23
ENDBRANCH  14  20
TORSDOF 6
ENDMDL
MODEL      103
REMARK 921   NORMALIZED FREE ENERGY PREDICTED BY IDOCK:   -3.73 KCAL/MOL
REMARK 922        TOTAL FREE ENERGY PREDICTED BY IDOCK:   -7.05 KCAL/MOL
REMARK 923 INTER-LIGAND FREE ENERGY PREDICTED BY IDOCK:   -5.70 KCAL/MOL
REMARK 924 INTRA-LIGAND FREE ENERGY PREDICTED BY IDOCK:   -1.35 KCAL/MOL
REMARK 927      BINDING AFFINITY PREDICTED BY RF-SCORE:    0.00 PKD
ROOT
HETATM    1  C   UNL     1      -8.264  10.325  69.393  1.00  0.00    -0.171 C  
HETATM    2  C   UNL     1      -6.742  10.312  69.169  1.00  0.00    -0.058 C  
HETATM    3  C   UNL     1      -6.114   9.137  69.876  1.00  0.00    -0.038 C  
HETATM    4  C   UNL     1      -6.670   7.788  69.522  1.00  0.00    -0.043 C  
HETATM    5  O   UNL     1      -5.161   9.263  70.643  1.00  0.00    -0.023 OA 
HETATM    6  C   UNL     1      -8.168   7.786  69.781  1.00  0.00    -0.129 C  
HETATM    7  C   UNL     1      -8.874   8.938  69.045  1.00  0.00    -0.136 C  
HETATM    8  C   UNL     1     -10.410   8.995  69.257  1.00  0.00    -0.219 C  
HETATM    9  C   UNL     1     -10.862   9.396  70.673  1.00  0.00    -0.346 C  
HETATM   10  C   UNL     1     -11.067   7.642  68.929  1.00  0.00     0.179 C  
HETATM   11  O   UNL     1     -10.975   9.927  68.312  1.00  0.00    -0.240 OA 
HETATM   12  C   UNL     1     -10.305  11.107  68.118  1.00  0.00    -0.187 A  
HETATM   13  C   UNL     1     -11.011  12.040  67.342  1.00  0.00    -0.311 A  
HETATM   14  C   UNL     1     -10.490  13.311  67.064  1.00  0.00    -0.249 A  
HETATM   15  H   UNL     1      -6.874  12.439  69.472  1.00  0.00     0.000 HD 
HETATM   16  C   UNL     1      -9.242  13.618  67.627  1.00  0.00    -0.213 A  
HETATM   17  C   UNL     1      -8.537  12.685  68.395  1.00  0.00    -0.122 A  
HETATM   18  O   UNL     1      -7.352  13.073  68.950  1.00  0.00    -0.095 OA 
HETATM   19  C   UNL     1      -9.026  11.393  68.620  1.00  0.00    -0.133 A  
ENDROOT
BRANCH  14  20
HETATM   20  C   UNL     1     -11.224  14.347  66.193  1.00  0.00    -0.336 C  
HETATM   21  C   UNL     1     -11.731  15.574  66.986  1.00  0.00     0.177 C  
HETATM   22  C   UNL     1     -10.235  14.891  65.132  1.00  0.00    -0.409 C  
BRANCH  20  23
HETATM   23  C   UNL     1     -12.428  13.692  65.441  1.00  0.00    -0.537 C  
BRANCH  23  24
HETATM   24  C   UNL     1     -12.162  13.353  63.970  1.00  0.00    -0.466 C  
BRANCH  24  25
HETATM   25  C   UNL     1     -12.295  11.853  63.697  1.00  0.00    -0.591 C  
BRANCH  25  26
HETATM   26  C   UNL     1     -10.973  11.138  63.986  1.00  0.00    -0.269 C  
BRANCH  26  27
HETATM   27  C   UNL     1      -9.794  11.816  63.295  1.00  0.00    -0.402 C  
HETATM   28  C   UNL     1      -9.089  10.853  62.351  1.00  0.00    -0.336 C  
ENDBRANCH  26  27
ENDBRANCH  25  26
ENDBRANCH  24  25
ENDBRANCH  23  24
ENDBRANCH  20  23
ENDBRANCH  14  20
TORSDOF 6
ENDMDL
MODEL      104
REMARK 921   NORMALIZED FREE ENERGY PREDICTED BY IDOCK:   -3.72 KCAL/MOL
REMARK 922        TOTAL FREE ENERGY PREDICTED BY IDOCK:   -7.03 KCAL/MOL
REMARK 923 INTER-LIGAND FREE ENERGY PREDICTED BY IDOCK:   -6.20 KCAL/MOL
REMARK 924 INTRA-LIGAND FREE ENERGY PREDICTED BY IDOCK:   -0.83 KCAL/MOL
REMARK 927      BINDING AFFINITY PREDICTED BY RF-SCORE:    0.00 PKD
ROOT
HETATM    1  C   UNL     1      -8.927  11.426  66.876  1.00  0.00    -0.171 C  
HETATM    2  C   UNL     1      -7.766  10.423  66.995  1.00  0.00    -0.105 C  
HETATM    3  C   UNL     1      -8.224   9.037  66.620  1.00  0.00    -0.118 C  
HETATM    4  C   UNL     1      -8.848   8.899  65.261  1.00  0.00    -0.227 C  
HETATM    5  O   UNL     1      -8.039   8.063  67.348  1.00  0.00    -0.119 OA 
HETATM    6  C   UNL     1     -10.021   9.861  65.155  1.00  0.00    -0.278 C  
HETATM    7  C   UNL     1      -9.604  11.305  65.481  1.00  0.00    -0.259 C  
HETATM    8  C   UNL     1     -10.752  12.345  65.385  1.00  0.00    -0.282 C  
HETATM    9  C   UNL     1     -11.833  12.231  66.476  1.00  0.00    -0.378 C  
HETATM   10  C   UNL     1     -11.461  12.267  64.022  1.00  0.00    -0.483 C  
HETATM   11  O   UNL     1     -10.183  13.670  65.439  1.00  0.00    -0.310 OA 
HETATM   12  C   UNL     1      -9.187  13.889  66.355  1.00  0.00    -0.152 A  
HETATM   13  C   UNL     1      -8.822  15.238  66.487  1.00  0.00    -0.335 A  
HETATM   14  C   UNL     1      -7.839  15.649  67.396  1.00  0.00    -0.210 A  
HETATM   15  H   UNL     1      -7.293  11.484  68.808  1.00  0.00     0.000 HD 
HETATM   16  C   UNL     1      -7.259  14.651  68.193  1.00  0.00    -0.127 A  
HETATM   17  C   UNL     1      -7.619  13.306  68.057  1.00  0.00    -0.145 A  
HETATM   18  O   UNL     1      -7.048  12.398  68.900  1.00  0.00    -0.101 OA 
HETATM   19  C   UNL     1      -8.554  12.884  67.104  1.00  0.00    -0.198 A  
ENDROOT
BRANCH  14  20
HETATM   20  C   UNL     1      -7.395  17.116  67.546  1.00  0.00    -0.180 C  
HETATM   21  C   UNL     1      -5.941  17.274  68.050  1.00  0.00    -0.137 C  
HETATM   22  C   UNL     1      -7.449  17.794  66.154  1.00  0.00    -0.322 C  
BRANCH  20  23
HETATM   23  C   UNL     1      -8.355  17.896  68.501  1.00  0.00    -0.305 C  
BRANCH  23  24
HETATM   24  C   UNL     1      -9.836  17.843  68.112  1.00  0.00    -0.334 C  
BRANCH  24  25
HETATM   25  C   UNL     1     -10.704  17.278  69.239  1.00  0.00    -0.051 C  
BRANCH  25  26
HETATM   26  C   UNL     1     -10.072  16.009  69.815  1.00  0.00    -0.212 C  
BRANCH  26  27
HETATM   27  C   UNL     1     -11.081  15.174  70.599  1.00  0.00    -0.298 C  
HETATM   28  C   UNL     1     -12.495  15.409  70.090  1.00  0.00    -0.370 C  
ENDBRANCH  26  27
ENDBRANCH  25  26
ENDBRANCH  24  25
ENDBRANCH  23  24
ENDBRANCH  20  23
ENDBRANCH  14  20
TORSDOF 6
ENDMDL
MODEL      105
REMARK 921   NORMALIZED FREE ENERGY PREDICTED BY IDOCK:   -3.72 KCAL/MOL
REMARK 922        TOTAL FREE ENERGY PREDICTED BY IDOCK:   -7.03 KCAL/MOL
REMARK 923 INTER-LIGAND FREE ENERGY PREDICTED BY IDOCK:   -6.14 KCAL/MOL
REMARK 924 INTRA-LIGAND FREE ENERGY PREDICTED BY IDOCK:   -0.89 KCAL/MOL
REMARK 927      BINDING AFFINITY PREDICTED BY RF-SCORE:    0.00 PKD
ROOT
HETATM    1  C   UNL     1      -9.735   5.170  68.334  1.00  0.00    -0.200 C  
HETATM    2  C   UNL     1      -9.404   4.905  69.813  1.00  0.00    -0.200 C  
HETATM    3  C   UNL     1      -9.128   3.440  70.039  1.00  0.00    -0.129 C  
HETATM    4  C   UNL     1      -8.050   2.839  69.184  1.00  0.00    -0.069 C  
HETATM    5  O   UNL     1      -9.698   2.791  70.914  1.00  0.00    -0.150 OA 
HETATM    6  C   UNL     1      -8.395   3.064  67.721  1.00  0.00    -0.093 C  
HETATM    7  C   UNL     1      -8.643   4.552  67.416  1.00  0.00    -0.104 C  
HETATM    8  C   UNL     1      -8.993   4.858  65.937  1.00  0.00    -0.134 C  
HETATM    9  C   UNL     1     -10.374   4.358  65.472  1.00  0.00    -0.247 C  
HETATM   10  C   UNL     1      -7.943   4.264  64.981  1.00  0.00    -0.093 C  
HETATM   11  O   UNL     1      -8.927   6.284  65.729  1.00  0.00    -0.145 OA 
HETATM   12  C   UNL     1      -9.468   7.085  66.701  1.00  0.00    -0.165 A  
HETATM   13  C   UNL     1      -9.545   8.440  66.343  1.00  0.00    -0.307 A  
HETATM   14  C   UNL     1     -10.095   9.399  67.204  1.00  0.00    -0.292 A  
HETATM   15  H   UNL     1     -11.011   6.281  70.216  1.00  0.00     0.000 HD 
HETATM   16  C   UNL     1     -10.596   8.934  68.429  1.00  0.00    -0.190 A  
HETATM   17  C   UNL     1     -10.514   7.584  68.787  1.00  0.00    -0.194 A  
HETATM   18  O   UNL     1     -11.067   7.198  69.974  1.00  0.00    -0.263 OA 
HETATM   19  C   UNL     1      -9.906   6.635  67.957  1.00  0.00    -0.140 A  
ENDROOT
BRANCH  14  20
HETATM   20  C   UNL     1     -10.168  10.897  66.855  1.00  0.00    -0.272 C  
HETATM   21  C   UNL     1      -8.996  11.725  67.433  1.00  0.00    -0.173 C  
HETATM   22  C   UNL     1     -10.093  11.050  65.315  1.00  0.00    -0.332 C  
BRANCH  20  23
HETATM   23  C   UNL     1     -11.519  11.518  67.338  1.00  0.00    -0.349 C  
BRANCH  23  24
HETATM   24  C   UNL     1     -11.446  12.999  67.724  1.00  0.00    -0.359 C  
BRANCH  24  25
HETATM   25  C   UNL     1     -11.809  13.226  69.194  1.00  0.00    -0.378 C  
BRANCH  25  26
HETATM   26  C   UNL     1     -11.740  11.909  69.970  1.00  0.00    -0.366 C  
BRANCH  26  27
HETATM   27  C   UNL     1     -12.690  11.900  71.164  1.00  0.00    -0.384 C  
HETATM   28  C   UNL     1     -13.127  13.312  71.524  1.00  0.00    -0.414 C  
ENDBRANCH  26  27
ENDBRANCH  25  26
ENDBRANCH  24  25
ENDBRANCH  23  24
ENDBRANCH  20  23
ENDBRANCH  14  20
TORSDOF 6
ENDMDL
MODEL      106
REMARK 921   NORMALIZED FREE ENERGY PREDICTED BY IDOCK:   -3.70 KCAL/MOL
REMARK 922        TOTAL FREE ENERGY PREDICTED BY IDOCK:   -7.01 KCAL/MOL
REMARK 923 INTER-LIGAND FREE ENERGY PREDICTED BY IDOCK:   -5.76 KCAL/MOL
REMARK 924 INTRA-LIGAND FREE ENERGY PREDICTED BY IDOCK:   -1.26 KCAL/MOL
REMARK 927      BINDING AFFINITY PREDICTED BY RF-SCORE:    0.00 PKD
ROOT
HETATM    1  C   UNL     1      -7.982  10.366  68.130  1.00  0.00    -0.110 C  
HETATM    2  C   UNL     1      -6.450  10.333  67.992  1.00  0.00    -0.060 C  
HETATM    3  C   UNL     1      -5.987  11.361  66.992  1.00  0.00    -0.112 C  
HETATM    4  C   UNL     1      -6.421  12.774  67.257  1.00  0.00    -0.073 C  
HETATM    5  O   UNL     1      -5.243  11.078  66.054  1.00  0.00    -0.113 OA 
HETATM    6  C   UNL     1      -7.938  12.815  67.354  1.00  0.00    -0.179 C  
HETATM    7  C   UNL     1      -8.470  11.818  68.397  1.00  0.00    -0.155 C  
HETATM    8  C   UNL     1     -10.013  11.811  68.555  1.00  0.00    -0.199 C  
HETATM    9  C   UNL     1     -10.793  11.236  67.359  1.00  0.00    -0.311 C  
HETATM   10  C   UNL     1     -10.552  13.229  68.819  1.00  0.00    -0.224 C  
HETATM   11  O   UNL     1     -10.356  11.053  69.734  1.00  0.00    -0.067 OA 
HETATM   12  C   UNL     1      -9.679   9.879  69.944  1.00  0.00    -0.235 A  
HETATM   13  C   UNL     1     -10.197   9.103  70.992  1.00  0.00    -0.372 A  
HETATM   14  C   UNL     1      -9.647   7.860  71.331  1.00  0.00    -0.187 A  
HETATM   15  H   UNL     1      -6.686   8.193  68.051  1.00  0.00     0.000 HD 
HETATM   16  C   UNL     1      -8.572   7.412  70.548  1.00  0.00    -0.139 A  
HETATM   17  C   UNL     1      -8.053   8.189  69.507  1.00  0.00    -0.119 A  
HETATM   18  O   UNL     1      -7.038   7.665  68.758  1.00  0.00    -0.075 OA 
HETATM   19  C   UNL     1      -8.558   9.459  69.209  1.00  0.00    -0.143 A  
ENDROOT
BRANCH  14  20
HETATM   20  C   UNL     1     -10.172   6.998  72.493  1.00  0.00    -0.207 C  
HETATM   21  C   UNL     1     -10.010   5.477  72.257  1.00  0.00    -0.211 C  
HETATM   22  C   UNL     1      -9.355   7.332  73.766  1.00  0.00    -0.296 C  
BRANCH  20  23
HETATM   23  C   UNL     1     -11.675   7.311  72.786  1.00  0.00    -0.142 C  
BRANCH  23  24
HETATM   24  C   UNL     1     -12.675   6.579  71.884  1.00  0.00    -0.179 C  
BRANCH  24  25
HETATM   25  C   UNL     1     -13.854   7.473  71.493  1.00  0.00    -0.487 C  
BRANCH  25  26
HETATM   26  C   UNL     1     -13.723   8.848  72.150  1.00  0.00    -0.527 C  
BRANCH  26  27
HETATM   27  C   UNL     1     -13.507   9.954  71.121  1.00  0.00    -0.308 C  
HETATM   28  C   UNL     1     -13.102  11.256  71.797  1.00  0.00    -0.527 C  
ENDBRANCH  26  27
ENDBRANCH  25  26
ENDBRANCH  24  25
ENDBRANCH  23  24
ENDBRANCH  20  23
ENDBRANCH  14  20
TORSDOF 6
ENDMDL
MODEL      107
REMARK 921   NORMALIZED FREE ENERGY PREDICTED BY IDOCK:   -3.67 KCAL/MOL
REMARK 922        TOTAL FREE ENERGY PREDICTED BY IDOCK:   -6.98 KCAL/MOL
REMARK 923 INTER-LIGAND FREE ENERGY PREDICTED BY IDOCK:   -5.52 KCAL/MOL
REMARK 924 INTRA-LIGAND FREE ENERGY PREDICTED BY IDOCK:   -1.46 KCAL/MOL
REMARK 927      BINDING AFFINITY PREDICTED BY RF-SCORE:    0.00 PKD
ROOT
HETATM    1  C   UNL     1      -9.179   4.721  67.215  1.00  0.00    -0.139 C  
HETATM    2  C   UNL     1      -9.703   4.999  65.795  1.00  0.00    -0.158 C  
HETATM    3  C   UNL     1      -9.128   4.006  64.816  1.00  0.00    -0.141 C  
HETATM    4  C   UNL     1      -9.354   2.558  65.144  1.00  0.00    -0.082 C  
HETATM    5  O   UNL     1      -8.568   4.355  63.778  1.00  0.00    -0.110 OA 
HETATM    6  C   UNL     1      -8.801   2.273  66.531  1.00  0.00    -0.133 C  
HETATM    7  C   UNL     1      -9.389   3.226  67.586  1.00  0.00    -0.245 C  
HETATM    8  C   UNL     1      -8.874   2.987  69.030  1.00  0.00    -0.101 C  
HETATM    9  C   UNL     1      -7.399   3.358  69.270  1.00  0.00    -0.049 C  
HETATM   10  C   UNL     1      -9.055   1.517  69.449  1.00  0.00    -0.150 C  
HETATM   11  O   UNL     1      -9.693   3.743  69.946  1.00  0.00    -0.196 OA 
HETATM   12  C   UNL     1     -10.026   5.023  69.581  1.00  0.00    -0.241 A  
HETATM   13  C   UNL     1     -10.651   5.759  70.599  1.00  0.00    -0.346 A  
HETATM   14  C   UNL     1     -11.037   7.093  70.411  1.00  0.00    -0.309 A  
HETATM   15  H   UNL     1      -9.395   7.070  66.295  1.00  0.00     0.000 HD 
HETATM   16  C   UNL     1     -10.737   7.668  69.167  1.00  0.00    -0.153 A  
HETATM   17  C   UNL     1     -10.119   6.930  68.151  1.00  0.00    -0.166 A  
HETATM   18  O   UNL     1      -9.815   7.571  66.985  1.00  0.00    -0.179 OA 
HETATM   19  C   UNL     1      -9.792   5.579  68.313  1.00  0.00    -0.185 A  
ENDROOT
BRANCH  14  20
HETATM   20  C   UNL     1     -11.750   7.921  71.496  1.00  0.00    -0.317 C  
HETATM   21  C   UNL     1     -11.937   9.409  71.115  1.00  0.00    -0.413 C  
HETATM   22  C   UNL     1     -13.172   7.342  71.705  1.00  0.00    -0.421 C  
BRANCH  20  23
HETATM   23  C   UNL     1     -10.987   7.835  72.857  1.00  0.00    -0.467 C  
BRANCH  23  24
HETATM   24  C   UNL     1      -9.613   8.512  72.870  1.00  0.00    -0.187 C  
BRANCH  24  25
HETATM   25  C   UNL     1      -8.662   7.857  73.875  1.00  0.00    -0.332 C  
BRANCH  25  26
HETATM   26  C   UNL     1      -7.252   7.757  73.290  1.00  0.00    -0.120 C  
BRANCH  26  27
HETATM   27  C   UNL     1      -7.210   6.870  72.049  1.00  0.00    -0.082 C  
HETATM   28  C   UNL     1      -7.583   5.435  72.392  1.00  0.00    -0.097 C  
ENDBRANCH  26  27
ENDBRANCH  25  26
ENDBRANCH  24  25
ENDBRANCH  23  24
ENDBRANCH  20  23
ENDBRANCH  14  20
TORSDOF 6
ENDMDL
MODEL      108
REMARK 921   NORMALIZED FREE ENERGY PREDICTED BY IDOCK:   -3.66 KCAL/MOL
REMARK 922        TOTAL FREE ENERGY PREDICTED BY IDOCK:   -6.96 KCAL/MOL
REMARK 923 INTER-LIGAND FREE ENERGY PREDICTED BY IDOCK:   -5.95 KCAL/MOL
REMARK 924 INTRA-LIGAND FREE ENERGY PREDICTED BY IDOCK:   -1.01 KCAL/MOL
REMARK 927      BINDING AFFINITY PREDICTED BY RF-SCORE:    0.00 PKD
ROOT
HETATM    1  C   UNL     1      -9.591  10.305  65.996  1.00  0.00    -0.259 C  
HETATM    2  C   UNL     1     -10.589  11.157  65.191  1.00  0.00    -0.319 C  
HETATM    3  C   UNL     1     -10.035  11.471  63.825  1.00  0.00    -0.349 C  
HETATM    4  C   UNL     1      -9.628  10.286  62.996  1.00  0.00    -0.297 C  
HETATM    5  O   UNL     1      -9.981  12.617  63.384  1.00  0.00    -0.329 OA 
HETATM    6  C   UNL     1      -8.611   9.465  63.773  1.00  0.00    -0.224 C  
HETATM    7  C   UNL     1      -9.140   9.072  65.164  1.00  0.00    -0.203 C  
HETATM    8  C   UNL     1      -8.156   8.224  66.012  1.00  0.00    -0.110 C  
HETATM    9  C   UNL     1      -6.906   8.972  66.511  1.00  0.00    -0.079 C  
HETATM   10  C   UNL     1      -7.672   6.987  65.233  1.00  0.00    -0.114 C  
HETATM   11  O   UNL     1      -8.862   7.697  67.154  1.00  0.00    -0.122 OA 
HETATM   12  C   UNL     1      -9.716   8.545  67.810  1.00  0.00    -0.162 A  
HETATM   13  C   UNL     1     -10.214   8.030  69.017  1.00  0.00    -0.217 A  
HETATM   14  C   UNL     1     -11.079   8.770  69.833  1.00  0.00    -0.129 A  
HETATM   15  H   UNL     1     -10.886  12.210  67.046  1.00  0.00     0.000 HD 
HETATM   16  C   UNL     1     -11.398  10.066  69.401  1.00  0.00    -0.192 A  
HETATM   17  C   UNL     1     -10.906  10.577  68.195  1.00  0.00    -0.253 A  
HETATM   18  O   UNL     1     -11.221  11.864  67.865  1.00  0.00    -0.227 OA 
HETATM   19  C   UNL     1     -10.094   9.815  67.346  1.00  0.00    -0.259 A  
ENDROOT
BRANCH  14  20
HETATM   20  C   UNL     1     -11.666   8.225  71.147  1.00  0.00    -0.308 C  
HETATM   21  C   UNL     1     -12.942   8.966  71.610  1.00  0.00    -0.404 C  
HETATM   22  C   UNL     1     -12.074   6.746  70.931  1.00  0.00    -0.421 C  
BRANCH  20  23
HETATM   23  C   UNL     1     -10.605   8.271  72.295  1.00  0.00    -0.393 C  
BRANCH  23  24
HETATM   24  C   UNL     1     -10.051   6.906  72.716  1.00  0.00    -0.199 C  
BRANCH  24  25
HETATM   25  C   UNL     1      -8.670   6.638  72.113  1.00  0.00    -0.130 C  
BRANCH  25  26
HETATM   26  C   UNL     1      -8.659   5.296  71.378  1.00  0.00    -0.132 C  
BRANCH  26  27
HETATM   27  C   UNL     1      -7.722   4.290  72.039  1.00  0.00    -0.080 C  
HETATM   28  C   UNL     1      -6.456   4.971  72.538  1.00  0.00    -0.043 C  
ENDBRANCH  26  27
ENDBRANCH  25  26
ENDBRANCH  24  25
ENDBRANCH  23  24
ENDBRANCH  20  23
ENDBRANCH  14  20
TORSDOF 6
ENDMDL
MODEL      109
REMARK 921   NORMALIZED FREE ENERGY PREDICTED BY IDOCK:   -3.66 KCAL/MOL
REMARK 922        TOTAL FREE ENERGY PREDICTED BY IDOCK:   -6.95 KCAL/MOL
REMARK 923 INTER-LIGAND FREE ENERGY PREDICTED BY IDOCK:   -6.42 KCAL/MOL
REMARK 924 INTRA-LIGAND FREE ENERGY PREDICTED BY IDOCK:   -0.53 KCAL/MOL
REMARK 927      BINDING AFFINITY PREDICTED BY RF-SCORE:    0.00 PKD
ROOT
HETATM    1  C   UNL     1      -7.710  18.427  66.960  1.00  0.00    -0.234 C  
HETATM    2  C   UNL     1      -7.579  18.874  65.493  1.00  0.00     0.202 C  
HETATM    3  C   UNL     1      -6.505  19.923  65.355  1.00  0.00    -0.264 C  
HETATM    4  C   UNL     1      -5.147  19.541  65.870  1.00  0.00    -0.159 C  
HETATM    5  O   UNL     1      -6.705  20.999  64.794  1.00  0.00    -0.149 OA 
HETATM    6  C   UNL     1      -5.268  19.136  67.331  1.00  0.00    -0.160 C  
HETATM    7  C   UNL     1      -6.319  18.031  67.531  1.00  0.00    -0.181 C  
HETATM    8  C   UNL     1      -6.491  17.562  69.000  1.00  0.00    -0.227 C  
HETATM    9  C   UNL     1      -7.144  18.589  69.944  1.00  0.00     0.435 C  
HETATM   10  C   UNL     1      -5.140  17.160  69.618  1.00  0.00    -0.159 C  
HETATM   11  O   UNL     1      -7.284  16.357  69.013  1.00  0.00    -0.191 OA 
HETATM   12  C   UNL     1      -8.380  16.318  68.188  1.00  0.00    -0.172 A  
HETATM   13  C   UNL     1      -9.208  15.204  68.398  1.00  0.00    -0.189 A  
HETATM   14  C   UNL     1     -10.386  15.015  67.663  1.00  0.00    -0.243 A  
HETATM   15  H   UNL     1      -9.731  18.820  65.487  1.00  0.00     0.000 HD 
HETATM   16  C   UNL     1     -10.715  16.010  66.731  1.00  0.00    -0.259 A  
HETATM   17  C   UNL     1      -9.885  17.117  66.519  1.00  0.00    -0.296 A  
HETATM   18  O   UNL     1     -10.295  18.068  65.631  1.00  0.00    -0.611 OA 
HETATM   19  C   UNL     1      -8.675  17.275  67.205  1.00  0.00    -0.231 A  
ENDROOT
BRANCH  14  20
HETATM   20  C   UNL     1     -11.302  13.792  67.847  1.00  0.00    -0.328 C  
HETATM   21  C   UNL     1     -10.541  12.445  67.867  1.00  0.00    -0.231 C  
HETATM   22  C   UNL     1     -12.017  13.910  69.216  1.00  0.00    -0.402 C  
BRANCH  20  23
HETATM   23  C   UNL     1     -12.398  13.741  66.732  1.00  0.00    -0.365 C  
BRANCH  23  24
HETATM   24  C   UNL     1     -11.858  13.624  65.302  1.00  0.00    -0.365 C  
BRANCH  24  25
HETATM   25  C   UNL     1     -12.455  12.425  64.562  1.00  0.00    -0.519 C  
BRANCH  25  26
HETATM   26  C   UNL     1     -11.447  11.860  63.560  1.00  0.00    -0.523 C  
BRANCH  26  27
HETATM   27  C   UNL     1     -10.006  12.073  64.016  1.00  0.00    -0.317 C  
HETATM   28  C   UNL     1      -9.477  10.846  64.742  1.00  0.00    -0.279 C  
ENDBRANCH  26  27
ENDBRANCH  25  26
ENDBRANCH  24  25
ENDBRANCH  23  24
ENDBRANCH  20  23
ENDBRANCH  14  20
TORSDOF 6
ENDMDL
MODEL      110
REMARK 921   NORMALIZED FREE ENERGY PREDICTED BY IDOCK:   -3.64 KCAL/MOL
REMARK 922        TOTAL FREE ENERGY PREDICTED BY IDOCK:   -6.94 KCAL/MOL
REMARK 923 INTER-LIGAND FREE ENERGY PREDICTED BY IDOCK:   -5.79 KCAL/MOL
REMARK 924 INTRA-LIGAND FREE ENERGY PREDICTED BY IDOCK:   -1.14 KCAL/MOL
REMARK 927      BINDING AFFINITY PREDICTED BY RF-SCORE:    0.00 PKD
ROOT
HETATM    1  C   UNL     1      -9.199   4.967  66.340  1.00  0.00    -0.139 C  
HETATM    2  C   UNL     1      -9.476   4.257  67.676  1.00  0.00    -0.217 C  
HETATM    3  C   UNL     1      -9.079   2.805  67.596  1.00  0.00    -0.181 C  
HETATM    4  C   UNL     1      -7.659   2.536  67.188  1.00  0.00    -0.065 C  
HETATM    5  O   UNL     1      -9.845   1.895  67.910  1.00  0.00     0.000 OA 
HETATM    6  C   UNL     1      -7.395   3.204  65.847  1.00  0.00    -0.072 C  
HETATM    7  C   UNL     1      -7.737   4.703  65.880  1.00  0.00    -0.094 C  
HETATM    8  C   UNL     1      -7.484   5.452  64.545  1.00  0.00    -0.067 C  
HETATM    9  C   UNL     1      -8.441   5.086  63.396  1.00  0.00    -0.123 C  
HETATM   10  C   UNL     1      -6.048   5.222  64.041  1.00  0.00    -0.022 C  
HETATM   11  O   UNL     1      -7.576   6.872  64.785  1.00  0.00    -0.092 OA 
HETATM   12  C   UNL     1      -8.599   7.308  65.588  1.00  0.00    -0.109 A  
HETATM   13  C   UNL     1      -8.744   8.704  65.616  1.00  0.00    -0.214 A  
HETATM   14  C   UNL     1      -9.753   9.324  66.363  1.00  0.00    -0.325 A  
HETATM   15  H   UNL     1     -11.309   5.387  67.673  1.00  0.00     0.000 HD 
HETATM   16  C   UNL     1     -10.635   8.481  67.055  1.00  0.00    -0.305 A  
HETATM   17  C   UNL     1     -10.486   7.090  67.031  1.00  0.00    -0.316 A  
HETATM   18  O   UNL     1     -11.410   6.332  67.690  1.00  0.00    -0.246 OA 
HETATM   19  C   UNL     1      -9.438   6.470  66.339  1.00  0.00    -0.165 A  
ENDROOT
BRANCH  14  20
HETATM   20  C   UNL     1      -9.923  10.853  66.438  1.00  0.00    -0.266 C  
HETATM   21  C   UNL     1      -8.622  11.602  66.813  1.00  0.00    -0.180 C  
HETATM   22  C   UNL     1     -10.340  11.374  65.040  1.00  0.00    -0.342 C  
BRANCH  20  23
HETATM   23  C   UNL     1     -11.046  11.241  67.454  1.00  0.00    -0.358 C  
BRANCH  23  24
HETATM   24  C   UNL     1     -10.718  12.441  68.350  1.00  0.00    -0.254 C  
BRANCH  24  25
HETATM   25  C   UNL     1     -11.858  13.461  68.378  1.00  0.00    -0.401 C  
BRANCH  25  26
HETATM   26  C   UNL     1     -11.997  14.146  67.017  1.00  0.00    -0.471 C  
BRANCH  26  27
HETATM   27  C   UNL     1     -10.677  14.750  66.544  1.00  0.00    -0.319 C  
HETATM   28  C   UNL     1     -10.718  15.048  65.053  1.00  0.00    -0.448 C  
ENDBRANCH  26  27
ENDBRANCH  25  26
ENDBRANCH  24  25
ENDBRANCH  23  24
ENDBRANCH  20  23
ENDBRANCH  14  20
TORSDOF 6
ENDMDL
MODEL      111
REMARK 921   NORMALIZED FREE ENERGY PREDICTED BY IDOCK:   -3.63 KCAL/MOL
REMARK 922        TOTAL FREE ENERGY PREDICTED BY IDOCK:   -6.92 KCAL/MOL
REMARK 923 INTER-LIGAND FREE ENERGY PREDICTED BY IDOCK:   -5.56 KCAL/MOL
REMARK 924 INTRA-LIGAND FREE ENERGY PREDICTED BY IDOCK:   -1.36 KCAL/MOL
REMARK 927      BINDING AFFINITY PREDICTED BY RF-SCORE:    0.00 PKD
ROOT
HETATM    1  C   UNL     1     -10.750  10.459  67.062  1.00  0.00    -0.298 C  
HETATM    2  C   UNL     1     -10.158  10.474  65.642  1.00  0.00    -0.333 C  
HETATM    3  C   UNL     1     -10.848  11.510  64.792  1.00  0.00    -0.297 C  
HETATM    4  C   UNL     1     -10.843  12.910  65.336  1.00  0.00    -0.307 C  
HETATM    5  O   UNL     1     -11.326  11.246  63.690  1.00  0.00    -0.325 OA 
HETATM    6  C   UNL     1     -11.465  12.904  66.723  1.00  0.00    -0.391 C  
HETATM    7  C   UNL     1     -10.769  11.896  67.654  1.00  0.00    -0.253 C  
HETATM    8  C   UNL     1     -11.348  11.841  69.093  1.00  0.00    -0.279 C  
HETATM    9  C   UNL     1     -12.758  11.235  69.210  1.00  0.00     0.477 C  
HETATM   10  C   UNL     1     -11.393  13.243  69.729  1.00  0.00    -0.132 C  
HETATM   11  O   UNL     1     -10.449  11.079  69.926  1.00  0.00    -0.052 OA 
HETATM   12  C   UNL     1      -9.925   9.929  69.395  1.00  0.00    -0.212 A  
HETATM   13  C   UNL     1      -9.223   9.143  70.323  1.00  0.00    -0.249 A  
HETATM   14  C   UNL     1      -8.643   7.920  69.962  1.00  0.00    -0.135 A  
HETATM   15  H   UNL     1     -10.173   8.328  65.823  1.00  0.00     0.000 HD 
HETATM   16  C   UNL     1      -8.826   7.502  68.635  1.00  0.00    -0.127 A  
HETATM   17  C   UNL     1      -9.521   8.289  67.710  1.00  0.00    -0.149 A  
HETATM   18  O   UNL     1      -9.701   7.794  66.451  1.00  0.00    -0.206 OA 
HETATM   19  C   UNL     1     -10.046   9.541  68.051  1.00  0.00    -0.226 A  
ENDROOT
BRANCH  14  20
HETATM   20  C   UNL     1      -7.843   7.048  70.946  1.00  0.00    -0.096 C  
HETATM   21  C   UNL     1      -7.400   5.691  70.351  1.00  0.00    -0.079 C  
HETATM   22  C   UNL     1      -6.544   7.801  71.330  1.00  0.00    -0.041 C  
BRANCH  20  23
HETATM   23  C   UNL     1      -8.658   6.790  72.255  1.00  0.00    -0.121 C  
BRANCH  23  24
HETATM   24  C   UNL     1      -9.877   5.878  72.085  1.00  0.00    -0.185 C  
BRANCH  24  25
HETATM   25  C   UNL     1     -11.067   6.352  72.923  1.00  0.00    -0.259 C  
BRANCH  25  26
HETATM   26  C   UNL     1     -11.211   7.873  72.834  1.00  0.00    -0.429 C  
BRANCH  26  27
HETATM   27  C   UNL     1     -12.266   8.289  71.815  1.00  0.00    -0.367 C  
HETATM   28  C   UNL     1     -13.040   9.507  72.297  1.00  0.00    -0.492 C  
ENDBRANCH  26  27
ENDBRANCH  25  26
ENDBRANCH  24  25
ENDBRANCH  23  24
ENDBRANCH  20  23
ENDBRANCH  14  20
TORSDOF 6
ENDMDL
MODEL      112
REMARK 921   NORMALIZED FREE ENERGY PREDICTED BY IDOCK:   -3.63 KCAL/MOL
REMARK 922        TOTAL FREE ENERGY PREDICTED BY IDOCK:   -6.91 KCAL/MOL
REMARK 923 INTER-LIGAND FREE ENERGY PREDICTED BY IDOCK:   -5.48 KCAL/MOL
REMARK 924 INTRA-LIGAND FREE ENERGY PREDICTED BY IDOCK:   -1.43 KCAL/MOL
REMARK 927      BINDING AFFINITY PREDICTED BY RF-SCORE:    0.00 PKD
ROOT
HETATM    1  C   UNL     1     -12.532  12.162  69.814  1.00  0.00     0.052 C  
HETATM    2  C   UNL     1     -12.268  13.670  69.965  1.00  0.00    -0.395 C  
HETATM    3  C   UNL     1     -13.088  14.240  71.095  1.00  0.00    -0.343 C  
HETATM    4  C   UNL     1     -12.909  13.579  72.431  1.00  0.00    -0.292 C  
HETATM    5  O   UNL     1     -13.808  15.227  70.952  1.00  0.00    -0.382 OA 
HETATM    6  C   UNL     1     -13.208  12.095  72.293  1.00  0.00    -0.286 C  
HETATM    7  C   UNL     1     -12.364  11.444  71.183  1.00  0.00    -0.404 C  
HETATM    8  C   UNL     1     -12.612   9.925  70.991  1.00  0.00    -0.336 C  
HETATM    9  C   UNL     1     -13.984   9.554  70.399  1.00  0.00     0.848 C  
HETATM   10  C   UNL     1     -12.462   9.164  72.320  1.00  0.00    -0.403 C  
HETATM   11  O   UNL     1     -11.582   9.392  70.133  1.00  0.00    -0.199 OA 
HETATM   12  C   UNL     1     -11.233  10.135  69.035  1.00  0.00    -0.173 A  
HETATM   13  C   UNL     1     -10.375   9.467  68.147  1.00  0.00    -0.251 A  
HETATM   14  C   UNL     1      -9.936  10.065  66.958  1.00  0.00    -0.257 A  
HETATM   15  H   UNL     1     -12.326  13.698  67.813  1.00  0.00     0.000 HD 
HETATM   16  C   UNL     1     -10.424  11.351  66.681  1.00  0.00    -0.285 A  
HETATM   17  C   UNL     1     -11.276  12.017  67.570  1.00  0.00    -0.294 A  
HETATM   18  O   UNL     1     -11.748  13.246  67.209  1.00  0.00    -0.336 OA 
HETATM   19  C   UNL     1     -11.663  11.449  68.789  1.00  0.00    -0.404 A  
ENDROOT
BRANCH  14  20
HETATM   20  C   UNL     1      -8.973   9.373  65.977  1.00  0.00    -0.205 C  
HETATM   21  C   UNL     1      -9.099   7.832  65.968  1.00  0.00    -0.169 C  
HETATM   22  C   UNL     1      -9.307   9.847  64.540  1.00  0.00    -0.336 C  
BRANCH  20  23
HETATM   23  C   UNL     1      -7.490   9.762  66.282  1.00  0.00    -0.100 C  
BRANCH  23  24
HETATM   24  C   UNL     1      -6.990   9.356  67.673  1.00  0.00    -0.081 C  
BRANCH  24  25
HETATM   25  C   UNL     1      -6.701  10.573  68.555  1.00  0.00    -0.056 C  
BRANCH  25  26
HETATM   26  C   UNL     1      -6.627  11.843  67.705  1.00  0.00    -0.099 C  
BRANCH  26  27
HETATM   27  C   UNL     1      -7.330  13.020  68.375  1.00  0.00    -0.116 C  
HETATM   28  C   UNL     1      -7.543  14.160  67.389  1.00  0.00    -0.179 C  
ENDBRANCH  26  27
ENDBRANCH  25  26
ENDBRANCH  24  25
ENDBRANCH  23  24
ENDBRANCH  20  23
ENDBRANCH  14  20
TORSDOF 6
ENDMDL
MODEL      113
REMARK 921   NORMALIZED FREE ENERGY PREDICTED BY IDOCK:   -3.62 KCAL/MOL
REMARK 922        TOTAL FREE ENERGY PREDICTED BY IDOCK:   -6.90 KCAL/MOL
REMARK 923 INTER-LIGAND FREE ENERGY PREDICTED BY IDOCK:   -5.08 KCAL/MOL
REMARK 924 INTRA-LIGAND FREE ENERGY PREDICTED BY IDOCK:   -1.82 KCAL/MOL
REMARK 927      BINDING AFFINITY PREDICTED BY RF-SCORE:    0.00 PKD
ROOT
HETATM    1  C   UNL     1     -10.207   9.560  69.535  1.00  0.00    -0.225 C  
HETATM    2  C   UNL     1      -9.596  10.518  68.498  1.00  0.00    -0.164 C  
HETATM    3  C   UNL     1     -10.682  11.188  67.694  1.00  0.00    -0.230 C  
HETATM    4  C   UNL     1     -11.721  11.928  68.487  1.00  0.00    -0.388 C  
HETATM    5  O   UNL     1     -10.683  11.191  66.465  1.00  0.00    -0.260 OA 
HETATM    6  C   UNL     1     -12.354  10.972  69.486  1.00  0.00    -0.266 C  
HETATM    7  C   UNL     1     -11.296  10.289  70.371  1.00  0.00    -0.410 C  
HETATM    8  C   UNL     1     -11.872   9.304  71.421  1.00  0.00    -0.358 C  
HETATM    9  C   UNL     1     -12.471   8.008  70.845  1.00  0.00    -0.027 C  
HETATM   10  C   UNL     1     -12.961   9.975  72.277  1.00  0.00    -0.356 C  
HETATM   11  O   UNL     1     -10.826   8.952  72.350  1.00  0.00    -0.272 OA 
HETATM   12  C   UNL     1      -9.585   8.690  71.829  1.00  0.00    -0.290 A  
HETATM   13  C   UNL     1      -8.676   8.168  72.762  1.00  0.00    -0.281 A  
HETATM   14  C   UNL     1      -7.369   7.817  72.399  1.00  0.00    -0.094 A  
HETATM   15  H   UNL     1      -8.152   8.952  68.188  1.00  0.00     0.000 HD 
HETATM   16  C   UNL     1      -7.023   7.982  71.049  1.00  0.00    -0.049 A  
HETATM   17  C   UNL     1      -7.929   8.508  70.122  1.00  0.00    -0.105 A  
HETATM   18  O   UNL     1      -7.537   8.594  68.817  1.00  0.00    -0.092 OA 
HETATM   19  C   UNL     1      -9.213   8.921  70.495  1.00  0.00    -0.239 A  
ENDROOT
BRANCH  14  20
HETATM   20  C   UNL     1      -6.338   7.268  73.402  1.00  0.00    -0.064 C  
HETATM   21  C   UNL     1      -5.269   6.356  72.754  1.00  0.00    -0.032 C  
HETATM   22  C   UNL     1      -5.572   8.461  74.027  1.00  0.00    -0.094 C  
BRANCH  20  23
HETATM   23  C   UNL     1      -7.043   6.486  74.557  1.00  0.00    -0.092 C  
BRANCH  23  24
HETATM   24  C   UNL     1      -7.203   4.981  74.314  1.00  0.00    -0.082 C  
BRANCH  24  25
HETATM   25  C   UNL     1      -8.636   4.615  73.923  1.00  0.00    -0.103 C  
BRANCH  25  26
HETATM   26  C   UNL     1      -8.649   3.832  72.609  1.00  0.00    -0.098 C  
BRANCH  26  27
HETATM   27  C   UNL     1      -8.620   4.754  71.394  1.00  0.00    -0.125 C  
HETATM   28  C   UNL     1     -10.028   5.030  70.886  1.00  0.00    -0.286 C  
ENDBRANCH  26  27
ENDBRANCH  25  26
ENDBRANCH  24  25
ENDBRANCH  23  24
ENDBRANCH  20  23
ENDBRANCH  14  20
TORSDOF 6
ENDMDL
MODEL      114
REMARK 921   NORMALIZED FREE ENERGY PREDICTED BY IDOCK:   -3.61 KCAL/MOL
REMARK 922        TOTAL FREE ENERGY PREDICTED BY IDOCK:   -6.89 KCAL/MOL
REMARK 923 INTER-LIGAND FREE ENERGY PREDICTED BY IDOCK:   -6.05 KCAL/MOL
REMARK 924 INTRA-LIGAND FREE ENERGY PREDICTED BY IDOCK:   -0.84 KCAL/MOL
REMARK 927      BINDING AFFINITY PREDICTED BY RF-SCORE:    0.00 PKD
ROOT
HETATM    1  C   UNL     1     -10.290   8.240  71.246  1.00  0.00    -0.256 C  
HETATM    2  C   UNL     1      -9.177   7.215  70.968  1.00  0.00    -0.158 C  
HETATM    3  C   UNL     1      -9.299   6.036  71.900  1.00  0.00    -0.150 C  
HETATM    4  C   UNL     1     -10.625   5.330  71.891  1.00  0.00    -0.274 C  
HETATM    5  O   UNL     1      -8.356   5.632  72.577  1.00  0.00    -0.114 OA 
HETATM    6  C   UNL     1     -11.723   6.334  72.204  1.00  0.00    -0.368 C  
HETATM    7  C   UNL     1     -11.679   7.542  71.252  1.00  0.00    -0.312 C  
HETATM    8  C   UNL     1     -12.778   8.606  71.509  1.00  0.00    -0.316 C  
HETATM    9  C   UNL     1     -12.620   9.411  72.812  1.00  0.00     0.190 C  
HETATM   10  C   UNL     1     -14.178   7.966  71.529  1.00  0.00    -0.527 C  
HETATM   11  O   UNL     1     -12.801   9.527  70.399  1.00  0.00     0.099 OA 
HETATM   12  C   UNL     1     -11.592   9.950  69.910  1.00  0.00    -0.127 A  
HETATM   13  C   UNL     1     -11.692  10.988  68.970  1.00  0.00    -0.402 A  
HETATM   14  C   UNL     1     -10.556  11.563  68.385  1.00  0.00    -0.227 A  
HETATM   15  H   UNL     1      -7.903   8.941  70.778  1.00  0.00     0.000 HD 
HETATM   16  C   UNL     1      -9.311  11.073  68.809  1.00  0.00    -0.185 A  
HETATM   17  C   UNL     1      -9.214  10.035  69.743  1.00  0.00    -0.199 A  
HETATM   18  O   UNL     1      -7.969   9.645  70.144  1.00  0.00    -0.146 OA 
HETATM   19  C   UNL     1     -10.348   9.415  70.280  1.00  0.00    -0.293 A  
ENDROOT
BRANCH  14  20
HETATM   20  C   UNL     1     -10.630  12.681  67.330  1.00  0.00    -0.244 C  
HETATM   21  C   UNL     1     -11.231  12.221  65.981  1.00  0.00    -0.375 C  
HETATM   22  C   UNL     1     -11.558  13.802  67.861  1.00  0.00    -0.376 C  
BRANCH  20  23
HETATM   23  C   UNL     1      -9.218  13.302  67.074  1.00  0.00    -0.237 C  
BRANCH  23  24
HETATM   24  C   UNL     1      -9.178  14.835  67.078  1.00  0.00    -0.248 C  
BRANCH  24  25
HETATM   25  C   UNL     1      -9.437  15.418  65.687  1.00  0.00    -0.255 C  
BRANCH  25  26
HETATM   26  C   UNL     1     -10.518  16.499  65.754  1.00  0.00    -0.343 C  
BRANCH  26  27
HETATM   27  C   UNL     1     -11.378  16.525  64.494  1.00  0.00    -0.017 C  
HETATM   28  C   UNL     1     -11.934  15.144  64.185  1.00  0.00    -0.187 C  
ENDBRANCH  26  27
ENDBRANCH  25  26
ENDBRANCH  24  25
ENDBRANCH  23  24
ENDBRANCH  20  23
ENDBRANCH  14  20
TORSDOF 6
ENDMDL
MODEL      115
REMARK 921   NORMALIZED FREE ENERGY PREDICTED BY IDOCK:   -3.60 KCAL/MOL
REMARK 922        TOTAL FREE ENERGY PREDICTED BY IDOCK:   -6.88 KCAL/MOL
REMARK 923 INTER-LIGAND FREE ENERGY PREDICTED BY IDOCK:   -6.34 KCAL/MOL
REMARK 924 INTRA-LIGAND FREE ENERGY PREDICTED BY IDOCK:   -0.54 KCAL/MOL
REMARK 927      BINDING AFFINITY PREDICTED BY RF-SCORE:    0.00 PKD
ROOT
HETATM    1  C   UNL     1     -10.958  11.946  66.067  1.00  0.00    -0.355 C  
HETATM    2  C   UNL     1     -11.015  11.857  64.532  1.00  0.00    -0.376 C  
HETATM    3  C   UNL     1     -12.178  12.655  63.999  1.00  0.00    -0.463 C  
HETATM    4  C   UNL     1     -12.221  14.100  64.404  1.00  0.00    -0.466 C  
HETATM    5  O   UNL     1     -13.005  12.175  63.225  1.00  0.00    -0.735 OA 
HETATM    6  C   UNL     1     -12.205  14.189  65.922  1.00  0.00    -0.458 C  
HETATM    7  C   UNL     1     -11.009  13.431  66.525  1.00  0.00    -0.299 C  
HETATM    8  C   UNL     1     -10.925  13.486  68.073  1.00  0.00    -0.251 C  
HETATM    9  C   UNL     1     -12.017  12.697  68.818  1.00  0.00    -0.279 C  
HETATM   10  C   UNL     1     -10.975  14.937  68.583  1.00  0.00    -0.263 C  
HETATM   11  O   UNL     1      -9.636  12.986  68.485  1.00  0.00    -0.197 OA 
HETATM   12  C   UNL     1      -9.164  11.866  67.850  1.00  0.00    -0.187 A  
HETATM   13  C   UNL     1      -8.007  11.327  68.434  1.00  0.00    -0.140 A  
HETATM   14  C   UNL     1      -7.402  10.167  67.933  1.00  0.00    -0.087 A  
HETATM   15  H   UNL     1     -10.541   9.778  64.829  1.00  0.00     0.000 HD 
HETATM   16  C   UNL     1      -8.028   9.550  66.839  1.00  0.00    -0.109 A  
HETATM   17  C   UNL     1      -9.179  10.092  66.255  1.00  0.00    -0.162 A  
HETATM   18  O   UNL     1      -9.760   9.410  65.225  1.00  0.00    -0.263 OA 
HETATM   19  C   UNL     1      -9.748  11.286  66.712  1.00  0.00    -0.218 A  
ENDROOT
BRANCH  14  20
HETATM   20  C   UNL     1      -6.117   9.565  68.530  1.00  0.00    -0.044 C  
HETATM   21  C   UNL     1      -5.145   9.001  67.467  1.00  0.00    -0.034 C  
HETATM   22  C   UNL     1      -5.347  10.684  69.275  1.00  0.00    -0.037 C  
BRANCH  20  23
HETATM   23  C   UNL     1      -6.453   8.440  69.561  1.00  0.00    -0.040 C  
BRANCH  23  24
HETATM   24  C   UNL     1      -7.311   7.295  69.010  1.00  0.00    -0.091 C  
BRANCH  24  25
HETATM   25  C   UNL     1      -8.523   7.009  69.900  1.00  0.00    -0.140 C  
BRANCH  25  26
HETATM   26  C   UNL     1      -8.297   5.734  70.716  1.00  0.00    -0.124 C  
BRANCH  26  27
HETATM   27  C   UNL     1      -9.609   5.032  71.053  1.00  0.00    -0.232 C  
HETATM   28  C   UNL     1     -10.716   5.458  70.100  1.00  0.00    -0.295 C  
ENDBRANCH  26  27
ENDBRANCH  25  26
ENDBRANCH  24  25
ENDBRANCH  23  24
ENDBRANCH  20  23
ENDBRANCH  14  20
TORSDOF 6
ENDMDL
MODEL      116
REMARK 921   NORMALIZED FREE ENERGY PREDICTED BY IDOCK:   -3.60 KCAL/MOL
REMARK 922        TOTAL FREE ENERGY PREDICTED BY IDOCK:   -6.88 KCAL/MOL
REMARK 923 INTER-LIGAND FREE ENERGY PREDICTED BY IDOCK:   -5.32 KCAL/MOL
REMARK 924 INTRA-LIGAND FREE ENERGY PREDICTED BY IDOCK:   -1.56 KCAL/MOL
REMARK 927      BINDING AFFINITY PREDICTED BY RF-SCORE:    0.00 PKD
ROOT
HETATM    1  C   UNL     1     -10.688   8.717  69.050  1.00  0.00    -0.134 C  
HETATM    2  C   UNL     1     -10.412  10.036  68.307  1.00  0.00    -0.246 C  
HETATM    3  C   UNL     1     -11.486  11.049  68.611  1.00  0.00    -0.308 C  
HETATM    4  C   UNL     1     -11.711  11.348  70.065  1.00  0.00    -0.416 C  
HETATM    5  O   UNL     1     -12.096  11.647  67.726  1.00  0.00    -0.613 OA 
HETATM    6  C   UNL     1     -12.024  10.050  70.794  1.00  0.00    -0.426 C  
HETATM    7  C   UNL     1     -10.936   8.989  70.560  1.00  0.00    -0.295 C  
HETATM    8  C   UNL     1     -11.186   7.639  71.282  1.00  0.00    -0.254 C  
HETATM    9  C   UNL     1     -12.356   6.805  70.728  1.00  0.00    -0.289 C  
HETATM   10  C   UNL     1     -11.440   7.849  72.786  1.00  0.00    -0.428 C  
HETATM   11  O   UNL     1      -9.983   6.845  71.212  1.00  0.00    -0.180 OA 
HETATM   12  C   UNL     1      -9.313   6.825  70.016  1.00  0.00    -0.158 A  
HETATM   13  C   UNL     1      -8.273   5.884  69.963  1.00  0.00    -0.121 A  
HETATM   14  C   UNL     1      -7.498   5.707  68.809  1.00  0.00    -0.084 A  
HETATM   15  H   UNL     1      -9.873   8.766  66.654  1.00  0.00     0.000 HD 
HETATM   16  C   UNL     1      -7.835   6.493  67.696  1.00  0.00    -0.110 A  
HETATM   17  C   UNL     1      -8.869   7.434  67.752  1.00  0.00    -0.128 A  
HETATM   18  O   UNL     1      -9.171   8.127  66.616  1.00  0.00    -0.158 OA 
HETATM   19  C   UNL     1      -9.601   7.659  68.924  1.00  0.00    -0.150 A  
ENDROOT
BRANCH  14  20
HETATM   20  C   UNL     1      -6.332   4.706  68.726  1.00  0.00    -0.036 C  
HETATM   21  C   UNL     1      -5.540   4.787  67.400  1.00  0.00    -0.013 C  
HETATM   22  C   UNL     1      -5.323   5.027  69.857  1.00  0.00    -0.003 C  
BRANCH  20  23
HETATM   23  C   UNL     1      -6.837   3.241  68.930  1.00  0.00    -0.045 C  
BRANCH  23  24
HETATM   24  C   UNL     1      -7.515   2.616  67.705  1.00  0.00    -0.056 C  
BRANCH  24  25
HETATM   25  C   UNL     1      -9.037   2.777  67.750  1.00  0.00    -0.223 C  
BRANCH  25  26
HETATM   26  C   UNL     1      -9.522   3.609  66.562  1.00  0.00    -0.188 C  
BRANCH  26  27
HETATM   27  C   UNL     1      -8.440   3.772  65.498  1.00  0.00    -0.110 C  
HETATM   28  C   UNL     1      -8.777   4.912  64.549  1.00  0.00    -0.148 C  
ENDBRANCH  26  27
ENDBRANCH  25  26
ENDBRANCH  24  25
ENDBRANCH  23  24
ENDBRANCH  20  23
ENDBRANCH  14  20
TORSDOF 6
ENDMDL
MODEL      117
REMARK 921   NORMALIZED FREE ENERGY PREDICTED BY IDOCK:   -3.60 KCAL/MOL
REMARK 922        TOTAL FREE ENERGY PREDICTED BY IDOCK:   -6.88 KCAL/MOL
REMARK 923 INTER-LIGAND FREE ENERGY PREDICTED BY IDOCK:   -5.93 KCAL/MOL
REMARK 924 INTRA-LIGAND FREE ENERGY PREDICTED BY IDOCK:   -0.95 KCAL/MOL
REMARK 927      BINDING AFFINITY PREDICTED BY RF-SCORE:    0.00 PKD
ROOT
HETATM    1  C   UNL     1     -10.095   6.802  69.450  1.00  0.00    -0.183 C  
HETATM    2  C   UNL     1      -9.531   6.691  70.877  1.00  0.00    -0.169 C  
HETATM    3  C   UNL     1      -9.140   5.267  71.182  1.00  0.00    -0.144 C  
HETATM    4  C   UNL     1      -8.170   4.636  70.225  1.00  0.00    -0.075 C  
HETATM    5  O   UNL     1      -9.533   4.678  72.187  1.00  0.00    -0.133 OA 
HETATM    6  C   UNL     1      -8.744   4.708  68.819  1.00  0.00    -0.113 C  
HETATM    7  C   UNL     1      -9.120   6.149  68.430  1.00  0.00    -0.113 C  
HETATM    8  C   UNL     1      -9.706   6.299  67.002  1.00  0.00    -0.144 C  
HETATM    9  C   UNL     1     -11.110   5.699  66.802  1.00  0.00    -0.010 C  
HETATM   10  C   UNL     1      -8.779   5.665  65.950  1.00  0.00    -0.147 C  
HETATM   11  O   UNL     1      -9.754   7.701  66.666  1.00  0.00    -0.202 OA 
HETATM   12  C   UNL     1     -10.187   8.566  67.638  1.00  0.00    -0.236 A  
HETATM   13  C   UNL     1     -10.395   9.877  67.181  1.00  0.00    -0.304 A  
HETATM   14  C   UNL     1     -10.863  10.887  68.032  1.00  0.00    -0.293 A  
HETATM   15  H   UNL     1     -11.134   8.027  71.406  1.00  0.00     0.000 HD 
HETATM   16  C   UNL     1     -11.146  10.517  69.355  1.00  0.00    -0.310 A  
HETATM   17  C   UNL     1     -10.934   9.211  69.810  1.00  0.00    -0.181 A  
HETATM   18  O   UNL     1     -11.279   8.914  71.097  1.00  0.00    -0.249 OA 
HETATM   19  C   UNL     1     -10.405   8.216  68.980  1.00  0.00    -0.229 A  
ENDROOT
BRANCH  14  20
HETATM   20  C   UNL     1     -11.074  12.341  67.571  1.00  0.00    -0.326 C  
HETATM   21  C   UNL     1     -11.838  12.461  66.232  1.00  0.00    -0.431 C  
HETATM   22  C   UNL     1     -11.932  13.076  68.631  1.00  0.00    -0.298 C  
BRANCH  20  23
HETATM   23  C   UNL     1      -9.708  13.092  67.448  1.00  0.00    -0.220 C  
BRANCH  23  24
HETATM   24  C   UNL     1      -9.595  14.031  66.242  1.00  0.00    -0.284 C  
BRANCH  24  25
HETATM   25  C   UNL     1      -9.023  15.396  66.632  1.00  0.00    -0.319 C  
BRANCH  25  26
HETATM   26  C   UNL     1      -9.389  15.736  68.078  1.00  0.00    -0.197 C  
BRANCH  26  27
HETATM   27  C   UNL     1     -10.464  16.816  68.156  1.00  0.00    -0.332 C  
HETATM   28  C   UNL     1     -10.531  17.612  66.862  1.00  0.00    -0.290 C  
ENDBRANCH  26  27
ENDBRANCH  25  26
ENDBRANCH  24  25
ENDBRANCH  23  24
ENDBRANCH  20  23
ENDBRANCH  14  20
TORSDOF 6
ENDMDL
MODEL      118
REMARK 921   NORMALIZED FREE ENERGY PREDICTED BY IDOCK:   -3.59 KCAL/MOL
REMARK 922        TOTAL FREE ENERGY PREDICTED BY IDOCK:   -6.87 KCAL/MOL
REMARK 923 INTER-LIGAND FREE ENERGY PREDICTED BY IDOCK:   -6.08 KCAL/MOL
REMARK 924 INTRA-LIGAND FREE ENERGY PREDICTED BY IDOCK:   -0.79 KCAL/MOL
REMARK 927      BINDING AFFINITY PREDICTED BY RF-SCORE:    0.00 PKD
ROOT
HETATM    1  C   UNL     1      -9.544   4.267  66.193  1.00  0.00    -0.199 C  
HETATM    2  C   UNL     1     -10.800   4.267  65.305  1.00  0.00    -0.037 C  
HETATM    3  C   UNL     1     -10.498   3.648  63.963  1.00  0.00    -0.265 C  
HETATM    4  C   UNL     1      -9.926   2.260  63.997  1.00  0.00    -0.099 C  
HETATM    5  O   UNL     1     -10.765   4.212  62.903  1.00  0.00    -0.154 OA 
HETATM    6  C   UNL     1      -8.662   2.265  64.843  1.00  0.00    -0.111 C  
HETATM    7  C   UNL     1      -8.918   2.844  66.245  1.00  0.00    -0.153 C  
HETATM    8  C   UNL     1      -7.671   2.874  67.168  1.00  0.00    -0.074 C  
HETATM    9  C   UNL     1      -6.581   3.884  66.765  1.00  0.00    -0.046 C  
HETATM   10  C   UNL     1      -7.008   1.488  67.253  1.00  0.00    -0.038 C  
HETATM   11  O   UNL     1      -8.097   3.171  68.514  1.00  0.00    -0.060 OA 
HETATM   12  C   UNL     1      -9.042   4.152  68.671  1.00  0.00    -0.133 A  
HETATM   13  C   UNL     1      -9.261   4.521  70.008  1.00  0.00    -0.195 A  
HETATM   14  C   UNL     1     -10.173   5.527  70.354  1.00  0.00    -0.321 A  
HETATM   15  H   UNL     1     -11.114   6.249  66.084  1.00  0.00     0.000 HD 
HETATM   16  C   UNL     1     -10.833   6.171  69.297  1.00  0.00    -0.418 A  
HETATM   17  C   UNL     1     -10.618   5.798  67.965  1.00  0.00    -0.224 A  
HETATM   18  O   UNL     1     -11.260   6.503  66.989  1.00  0.00    -0.397 OA 
HETATM   19  C   UNL     1      -9.757   4.750  67.621  1.00  0.00    -0.202 A  
ENDROOT
BRANCH  14  20
HETATM   20  C   UNL     1     -10.458   5.936  71.810  1.00  0.00    -0.276 C  
HETATM   21  C   UNL     1     -11.785   5.368  72.365  1.00  0.00    -0.115 C  
HETATM   22  C   UNL     1      -9.331   5.373  72.712  1.00  0.00    -0.148 C  
BRANCH  20  23
HETATM   23  C   UNL     1     -10.467   7.492  71.962  1.00  0.00    -0.245 C  
BRANCH  23  24
HETATM   24  C   UNL     1     -11.777   8.081  72.497  1.00  0.00    -0.446 C  
BRANCH  24  25
HETATM   25  C   UNL     1     -12.631   8.683  71.379  1.00  0.00    -0.325 C  
BRANCH  25  26
HETATM   26  C   UNL     1     -13.372   9.923  71.881  1.00  0.00    -0.524 C  
BRANCH  26  27
HETATM   27  C   UNL     1     -12.646  11.212  71.508  1.00  0.00    -0.431 C  
HETATM   28  C   UNL     1     -11.954  11.077  70.160  1.00  0.00    -0.443 C  
ENDBRANCH  26  27
ENDBRANCH  25  26
ENDBRANCH  24  25
ENDBRANCH  23  24
ENDBRANCH  20  23
ENDBRANCH  14  20
TORSDOF 6
ENDMDL
MODEL      119
REMARK 921   NORMALIZED FREE ENERGY PREDICTED BY IDOCK:   -3.59 KCAL/MOL
REMARK 922        TOTAL FREE ENERGY PREDICTED BY IDOCK:   -6.86 KCAL/MOL
REMARK 923 INTER-LIGAND FREE ENERGY PREDICTED BY IDOCK:   -5.73 KCAL/MOL
REMARK 924 INTRA-LIGAND FREE ENERGY PREDICTED BY IDOCK:   -1.13 KCAL/MOL
REMARK 927      BINDING AFFINITY PREDICTED BY RF-SCORE:    0.00 PKD
ROOT
HETATM    1  C   UNL     1     -10.474   6.599  69.473  1.00  0.00    -0.253 C  
HETATM    2  C   UNL     1     -10.485   6.833  70.993  1.00  0.00    -0.237 C  
HETATM    3  C   UNL     1     -10.625   5.524  71.729  1.00  0.00    -0.235 C  
HETATM    4  C   UNL     1      -9.597   4.479  71.405  1.00  0.00    -0.232 C  
HETATM    5  O   UNL     1     -11.484   5.343  72.590  1.00  0.00    -0.283 OA 
HETATM    6  C   UNL     1      -9.612   4.217  69.908  1.00  0.00    -0.282 C  
HETATM    7  C   UNL     1      -9.424   5.513  69.101  1.00  0.00    -0.169 C  
HETATM    8  C   UNL     1      -9.421   5.320  67.561  1.00  0.00    -0.125 C  
HETATM    9  C   UNL     1     -10.778   4.932  66.946  1.00  0.00     0.028 C  
HETATM   10  C   UNL     1      -8.399   4.250  67.136  1.00  0.00    -0.100 C  
HETATM   11  O   UNL     1      -8.968   6.541  66.941  1.00  0.00    -0.119 OA 
HETATM   12  C   UNL     1      -9.456   7.719  67.445  1.00  0.00    -0.144 A  
HETATM   13  C   UNL     1      -9.129   8.845  66.673  1.00  0.00    -0.192 A  
HETATM   14  C   UNL     1      -9.566  10.129  67.022  1.00  0.00    -0.209 A  
HETATM   15  H   UNL     1     -11.745   8.516  70.528  1.00  0.00     0.000 HD 
HETATM   16  C   UNL     1     -10.375  10.231  68.164  1.00  0.00    -0.208 A  
HETATM   17  C   UNL     1     -10.696   9.109  68.936  1.00  0.00    -0.141 A  
HETATM   18  O   UNL     1     -11.527   9.279  70.004  1.00  0.00    -0.181 OA 
HETATM   19  C   UNL     1     -10.206   7.835  68.625  1.00  0.00    -0.217 A  
ENDROOT
BRANCH  14  20
HETATM   20  C   UNL     1      -9.203  11.389  66.215  1.00  0.00    -0.220 C  
HETATM   21  C   UNL     1      -8.194  12.315  66.934  1.00  0.00    -0.112 C  
HETATM   22  C   UNL     1      -8.526  10.950  64.892  1.00  0.00     0.019 C  
BRANCH  20  23
HETATM   23  C   UNL     1     -10.483  12.211  65.855  1.00  0.00    -0.288 C  
BRANCH  23  24
HETATM   24  C   UNL     1     -10.240  13.703  65.599  1.00  0.00    -0.316 C  
BRANCH  24  25
HETATM   25  C   UNL     1     -11.276  14.579  66.308  1.00  0.00    -0.342 C  
BRANCH  25  26
HETATM   26  C   UNL     1     -12.032  13.768  67.362  1.00  0.00    -0.423 C  
BRANCH  26  27
HETATM   27  C   UNL     1     -11.874  14.361  68.759  1.00  0.00    -0.360 C  
HETATM   28  C   UNL     1     -12.005  13.284  69.826  1.00  0.00    -0.391 C  
ENDBRANCH  26  27
ENDBRANCH  25  26
ENDBRANCH  24  25
ENDBRANCH  23  24
ENDBRANCH  20  23
ENDBRANCH  14  20
TORSDOF 6
ENDMDL
MODEL      120
REMARK 921   NORMALIZED FREE ENERGY PREDICTED BY IDOCK:   -3.55 KCAL/MOL
REMARK 922        TOTAL FREE ENERGY PREDICTED BY IDOCK:   -6.81 KCAL/MOL
REMARK 923 INTER-LIGAND FREE ENERGY PREDICTED BY IDOCK:   -5.87 KCAL/MOL
REMARK 924 INTRA-LIGAND FREE ENERGY PREDICTED BY IDOCK:   -0.94 KCAL/MOL
REMARK 927      BINDING AFFINITY PREDICTED BY RF-SCORE:    0.00 PKD
ROOT
HETATM    1  C   UNL     1      -8.581   8.201  70.834  1.00  0.00    -0.144 C  
HETATM    2  C   UNL     1      -7.210   7.563  70.551  1.00  0.00    -0.064 C  
HETATM    3  C   UNL     1      -6.990   6.366  71.440  1.00  0.00    -0.076 C  
HETATM    4  C   UNL     1      -8.046   5.300  71.375  1.00  0.00    -0.115 C  
HETATM    5  O   UNL     1      -5.978   6.233  72.126  1.00  0.00    -0.036 OA 
HETATM    6  C   UNL     1      -9.396   5.920  71.694  1.00  0.00    -0.162 C  
HETATM    7  C   UNL     1      -9.700   7.123  70.784  1.00  0.00    -0.171 C  
HETATM    8  C   UNL     1     -11.069   7.803  71.049  1.00  0.00    -0.257 C  
HETATM    9  C   UNL     1     -11.175   8.568  72.380  1.00  0.00    -0.399 C  
HETATM   10  C   UNL     1     -12.217   6.777  71.013  1.00  0.00    -0.405 C  
HETATM   11  O   UNL     1     -11.349   8.718  69.970  1.00  0.00    -0.173 OA 
HETATM   12  C   UNL     1     -10.314   9.500  69.525  1.00  0.00    -0.217 A  
HETATM   13  C   UNL     1     -10.704  10.497  68.617  1.00  0.00    -0.247 A  
HETATM   14  C   UNL     1      -9.782  11.404  68.079  1.00  0.00    -0.190 A  
HETATM   15  H   UNL     1      -6.504   9.595  70.448  1.00  0.00     0.000 HD 
HETATM   16  C   UNL     1      -8.455  11.289  68.518  1.00  0.00    -0.156 A  
HETATM   17  C   UNL     1      -8.066  10.291  69.418  1.00  0.00    -0.163 A  
HETATM   18  O   UNL     1      -6.767  10.272  69.837  1.00  0.00    -0.090 OA 
HETATM   19  C   UNL     1      -8.972   9.343  69.907  1.00  0.00    -0.215 A  
ENDROOT
BRANCH  14  20
HETATM   20  C   UNL     1     -10.171  12.491  67.060  1.00  0.00    -0.231 C  
HETATM   21  C   UNL     1      -9.614  12.235  65.640  1.00  0.00    -0.148 C  
HETATM   22  C   UNL     1     -11.714  12.514  66.926  1.00  0.00    -0.447 C  
BRANCH  20  23
HETATM   23  C   UNL     1      -9.705  13.902  67.543  1.00  0.00    -0.232 C  
BRANCH  23  24
HETATM   24  C   UNL     1     -10.477  14.459  68.746  1.00  0.00    -0.244 C  
BRANCH  24  25
HETATM   25  C   UNL     1     -11.075  15.837  68.453  1.00  0.00    -0.341 C  
BRANCH  25  26
HETATM   26  C   UNL     1     -10.643  16.324  67.068  1.00  0.00    -0.284 C  
BRANCH  26  27
HETATM   27  C   UNL     1     -10.032  17.721  67.119  1.00  0.00    -0.322 C  
HETATM   28  C   UNL     1      -9.584  18.069  68.531  1.00  0.00    -0.342 C  
ENDBRANCH  26  27
ENDBRANCH  25  26
ENDBRANCH  24  25
ENDBRANCH  23  24
ENDBRANCH  20  23
ENDBRANCH  14  20
TORSDOF 6
ENDMDL
MODEL      121
REMARK 921   NORMALIZED FREE ENERGY PREDICTED BY IDOCK:   -3.52 KCAL/MOL
REMARK 922        TOTAL FREE ENERGY PREDICTED BY IDOCK:   -6.78 KCAL/MOL
REMARK 923 INTER-LIGAND FREE ENERGY PREDICTED BY IDOCK:   -6.11 KCAL/MOL
REMARK 924 INTRA-LIGAND FREE ENERGY PREDICTED BY IDOCK:   -0.66 KCAL/MOL
REMARK 927      BINDING AFFINITY PREDICTED BY RF-SCORE:    0.00 PKD
ROOT
HETATM    1  C   UNL     1      -9.254  17.149  67.676  1.00  0.00    -0.238 C  
HETATM    2  C   UNL     1     -10.464  17.896  67.089  1.00  0.00    -0.359 C  
HETATM    3  C   UNL     1     -10.216  19.384  67.084  1.00  0.00    -0.412 C  
HETATM    4  C   UNL     1      -8.974  19.837  66.373  1.00  0.00    -0.440 C  
HETATM    5  O   UNL     1     -11.012  20.185  67.571  1.00  0.00    -0.129 OA 
HETATM    6  C   UNL     1      -7.771  19.129  66.977  1.00  0.00    -0.259 C  
HETATM    7  C   UNL     1      -7.945  17.601  66.967  1.00  0.00    -0.242 C  
HETATM    8  C   UNL     1      -6.750  16.812  67.564  1.00  0.00    -0.148 C  
HETATM    9  C   UNL     1      -6.566  16.951  69.086  1.00  0.00    -0.224 C  
HETATM   10  C   UNL     1      -5.424  17.223  66.899  1.00  0.00    -0.209 C  
HETATM   11  O   UNL     1      -6.912  15.414  67.247  1.00  0.00    -0.196 OA 
HETATM   12  C   UNL     1      -8.169  14.882  67.379  1.00  0.00    -0.197 A  
HETATM   13  C   UNL     1      -8.212  13.485  67.246  1.00  0.00    -0.164 A  
HETATM   14  C   UNL     1      -9.410  12.770  67.378  1.00  0.00    -0.193 A  
HETATM   15  H   UNL     1     -11.635  16.504  68.241  1.00  0.00     0.000 HD 
HETATM   16  C   UNL     1     -10.559  13.514  67.683  1.00  0.00    -0.246 A  
HETATM   17  C   UNL     1     -10.516  14.907  67.809  1.00  0.00    -0.255 A  
HETATM   18  O   UNL     1     -11.665  15.558  68.155  1.00  0.00    -0.342 OA 
HETATM   19  C   UNL     1      -9.334  15.631  67.613  1.00  0.00    -0.206 A  
ENDROOT
BRANCH  14  20
HETATM   20  C   UNL     1      -9.497  11.242  67.210  1.00  0.00    -0.184 C  
HETATM   21  C   UNL     1      -8.962  10.454  68.428  1.00  0.00    -0.137 C  
HETATM   22  C   UNL     1     -10.987  10.846  67.055  1.00  0.00    -0.310 C  
BRANCH  20  23
HETATM   23  C   UNL     1      -8.737  10.776  65.926  1.00  0.00    -0.189 C  
BRANCH  23  24
HETATM   24  C   UNL     1      -9.436   9.669  65.129  1.00  0.00    -0.332 C  
BRANCH  24  25
HETATM   25  C   UNL     1      -8.761   9.426  63.777  1.00  0.00    -0.223 C  
BRANCH  25  26
HETATM   26  C   UNL     1      -7.372   8.815  63.974  1.00  0.00    -0.102 C  
BRANCH  26  27
HETATM   27  C   UNL     1      -7.434   7.484  64.719  1.00  0.00    -0.091 C  
HETATM   28  C   UNL     1      -7.569   6.322  63.746  1.00  0.00    -0.091 C  
ENDBRANCH  26  27
ENDBRANCH  25  26
ENDBRANCH  24  25
ENDBRANCH  23  24
ENDBRANCH  20  23
ENDBRANCH  14  20
TORSDOF 6
ENDMDL
MODEL      122
REMARK 921   NORMALIZED FREE ENERGY PREDICTED BY IDOCK:   -3.49 KCAL/MOL
REMARK 922        TOTAL FREE ENERGY PREDICTED BY IDOCK:   -6.73 KCAL/MOL
REMARK 923 INTER-LIGAND FREE ENERGY PREDICTED BY IDOCK:   -5.06 KCAL/MOL
REMARK 924 INTRA-LIGAND FREE ENERGY PREDICTED BY IDOCK:   -1.67 KCAL/MOL
REMARK 927      BINDING AFFINITY PREDICTED BY RF-SCORE:    0.00 PKD
ROOT
HETATM    1  C   UNL     1      -8.153  10.315  67.778  1.00  0.00    -0.103 C  
HETATM    2  C   UNL     1      -6.617  10.330  67.688  1.00  0.00    -0.066 C  
HETATM    3  C   UNL     1      -6.147  11.507  66.871  1.00  0.00    -0.146 C  
HETATM    4  C   UNL     1      -6.620  12.855  67.334  1.00  0.00    -0.132 C  
HETATM    5  O   UNL     1      -5.370  11.384  65.926  1.00  0.00    -0.263 OA 
HETATM    6  C   UNL     1      -8.140  12.855  67.386  1.00  0.00    -0.181 C  
HETATM    7  C   UNL     1      -8.681  11.701  68.247  1.00  0.00    -0.163 C  
HETATM    8  C   UNL     1     -10.227  11.643  68.351  1.00  0.00    -0.207 C  
HETATM    9  C   UNL     1     -10.958  11.244  67.056  1.00  0.00    -0.352 C  
HETATM   10  C   UNL     1     -10.806  12.994  68.810  1.00  0.00    -0.277 C  
HETATM   11  O   UNL     1     -10.588  10.708  69.388  1.00  0.00    -0.219 OA 
HETATM   12  C   UNL     1      -9.892   9.527  69.439  1.00  0.00    -0.186 A  
HETATM   13  C   UNL     1     -10.425   8.592  70.340  1.00  0.00    -0.227 A  
HETATM   14  C   UNL     1      -9.857   7.321  70.503  1.00  0.00    -0.183 A  
HETATM   15  H   UNL     1      -6.807   8.203  67.412  1.00  0.00     0.000 HD 
HETATM   16  C   UNL     1      -8.750   7.017  69.697  1.00  0.00    -0.141 A  
HETATM   17  C   UNL     1      -8.216   7.953  68.804  1.00  0.00    -0.127 A  
HETATM   18  O   UNL     1      -7.169   7.568  68.019  1.00  0.00    -0.085 OA 
HETATM   19  C   UNL     1      -8.741   9.245  68.687  1.00  0.00    -0.132 A  
ENDROOT
BRANCH  14  20
HETATM   20  C   UNL     1     -10.398   6.282  71.502  1.00  0.00    -0.243 C  
HETATM   21  C   UNL     1     -11.897   6.467  71.837  1.00  0.00    -0.381 C  
HETATM   22  C   UNL     1     -10.263   4.873  70.872  1.00  0.00    -0.272 C  
BRANCH  20  23
HETATM   23  C   UNL     1      -9.573   6.300  72.829  1.00  0.00    -0.155 C  
BRANCH  23  24
HETATM   24  C   UNL     1      -9.655   7.610  73.622  1.00  0.00    -0.333 C  
BRANCH  24  25
HETATM   25  C   UNL     1      -8.270   8.130  74.012  1.00  0.00    -0.314 C  
BRANCH  25  26
HETATM   26  C   UNL     1      -7.225   7.690  72.984  1.00  0.00    -0.092 C  
BRANCH  26  27
HETATM   27  C   UNL     1      -6.868   8.814  72.015  1.00  0.00    -0.051 C  
HETATM   28  C   UNL     1      -5.638   8.456  71.196  1.00  0.00    -0.033 C  
ENDBRANCH  26  27
ENDBRANCH  25  26
ENDBRANCH  24  25
ENDBRANCH  23  24
ENDBRANCH  20  23
ENDBRANCH  14  20
TORSDOF 6
ENDMDL
MODEL      123
REMARK 921   NORMALIZED FREE ENERGY PREDICTED BY IDOCK:   -3.49 KCAL/MOL
REMARK 922        TOTAL FREE ENERGY PREDICTED BY IDOCK:   -6.73 KCAL/MOL
REMARK 923 INTER-LIGAND FREE ENERGY PREDICTED BY IDOCK:   -5.52 KCAL/MOL
REMARK 924 INTRA-LIGAND FREE ENERGY PREDICTED BY IDOCK:   -1.20 KCAL/MOL
REMARK 927      BINDING AFFINITY PREDICTED BY RF-SCORE:    0.00 PKD
ROOT
HETATM    1  C   UNL     1      -8.844   6.195  69.107  1.00  0.00    -0.123 C  
HETATM    2  C   UNL     1     -10.038   5.266  69.388  1.00  0.00    -0.311 C  
HETATM    3  C   UNL     1      -9.567   3.972  70.001  1.00  0.00    -0.204 C  
HETATM    4  C   UNL     1      -8.747   4.100  71.252  1.00  0.00    -0.134 C  
HETATM    5  O   UNL     1      -9.889   2.874  69.549  1.00  0.00     0.039 OA 
HETATM    6  C   UNL     1      -7.545   4.986  70.967  1.00  0.00    -0.082 C  
HETATM    7  C   UNL     1      -7.965   6.346  70.381  1.00  0.00    -0.112 C  
HETATM    8  C   UNL     1      -6.787   7.306  70.072  1.00  0.00    -0.055 C  
HETATM    9  C   UNL     1      -5.889   6.886  68.894  1.00  0.00    -0.019 C  
HETATM   10  C   UNL     1      -5.879   7.489  71.302  1.00  0.00    -0.035 C  
HETATM   11  O   UNL     1      -7.318   8.619  69.798  1.00  0.00    -0.051 OA 
HETATM   12  C   UNL     1      -8.437   8.691  69.008  1.00  0.00    -0.124 A  
HETATM   13  C   UNL     1      -8.778   9.997  68.624  1.00  0.00    -0.127 A  
HETATM   14  C   UNL     1      -9.877  10.258  67.794  1.00  0.00    -0.195 A  
HETATM   15  H   UNL     1     -10.752   5.926  67.467  1.00  0.00     0.000 HD 
HETATM   16  C   UNL     1     -10.600   9.145  67.338  1.00  0.00    -0.315 A  
HETATM   17  C   UNL     1     -10.262   7.844  67.726  1.00  0.00    -0.216 A  
HETATM   18  O   UNL     1     -10.982   6.809  67.203  1.00  0.00    -0.363 OA 
HETATM   19  C   UNL     1      -9.205   7.587  68.607  1.00  0.00    -0.144 A  
ENDROOT
BRANCH  14  20
HETATM   20  C   UNL     1     -10.297  11.679  67.378  1.00  0.00    -0.231 C  
HETATM   21  C   UNL     1     -11.056  12.449  68.484  1.00  0.00    -0.296 C  
HETATM   22  C   UNL     1      -9.020  12.501  67.071  1.00  0.00    -0.211 C  
BRANCH  20  23
HETATM   23  C   UNL     1     -11.174  11.647  66.085  1.00  0.00    -0.314 C  
BRANCH  23  24
HETATM   24  C   UNL     1     -10.391  11.743  64.771  1.00  0.00    -0.333 C  
BRANCH  24  25
HETATM   25  C   UNL     1     -10.965  12.814  63.840  1.00  0.00    -0.458 C  
BRANCH  25  26
HETATM   26  C   UNL     1     -11.697  13.888  64.648  1.00  0.00    -0.413 C  
BRANCH  26  27
HETATM   27  C   UNL     1     -10.903  15.189  64.720  1.00  0.00    -0.378 C  
HETATM   28  C   UNL     1     -10.642  15.588  66.165  1.00  0.00    -0.321 C  
ENDBRANCH  26  27
ENDBRANCH  25  26
ENDBRANCH  24  25
ENDBRANCH  23  24
ENDBRANCH  20  23
ENDBRANCH  14  20
TORSDOF 6
ENDMDL
MODEL      124
REMARK 921   NORMALIZED FREE ENERGY PREDICTED BY IDOCK:   -3.41 KCAL/MOL
REMARK 922        TOTAL FREE ENERGY PREDICTED BY IDOCK:   -6.62 KCAL/MOL
REMARK 923 INTER-LIGAND FREE ENERGY PREDICTED BY IDOCK:   -5.74 KCAL/MOL
REMARK 924 INTRA-LIGAND FREE ENERGY PREDICTED BY IDOCK:   -0.88 KCAL/MOL
REMARK 927      BINDING AFFINITY PREDICTED BY RF-SCORE:    0.00 PKD
ROOT
HETATM    1  C   UNL     1     -11.179  14.670  68.255  1.00  0.00    -0.301 C  
HETATM    2  C   UNL     1     -10.163  15.162  67.210  1.00  0.00    -0.243 C  
HETATM    3  C   UNL     1     -10.192  16.666  67.113  1.00  0.00    -0.290 C  
HETATM    4  C   UNL     1      -9.966  17.410  68.398  1.00  0.00    -0.329 C  
HETATM    5  O   UNL     1     -10.322  17.254  66.040  1.00  0.00    -0.370 OA 
HETATM    6  C   UNL     1     -10.994  16.953  69.421  1.00  0.00    -0.081 C  
HETATM    7  C   UNL     1     -10.980  15.425  69.600  1.00  0.00    -0.288 C  
HETATM    8  C   UNL     1     -12.002  14.888  70.637  1.00  0.00    -0.305 C  
HETATM    9  C   UNL     1     -13.479  14.996  70.218  1.00  0.00     0.210 C  
HETATM   10  C   UNL     1     -11.852  15.606  71.990  1.00  0.00    -0.548 C  
HETATM   11  O   UNL     1     -11.701  13.504  70.910  1.00  0.00    -0.082 OA 
HETATM   12  C   UNL     1     -11.386  12.707  69.839  1.00  0.00     0.036 A  
HETATM   13  C   UNL     1     -11.300  11.341  70.153  1.00  0.00    -0.251 A  
HETATM   14  C   UNL     1     -11.013  10.378  69.177  1.00  0.00    -0.285 A  
HETATM   15  H   UNL     1     -10.860  13.499  66.034  1.00  0.00     0.000 HD 
HETATM   16  C   UNL     1     -10.849  10.841  67.863  1.00  0.00    -0.313 A  
HETATM   17  C   UNL     1     -10.929  12.204  67.553  1.00  0.00    -0.257 A  
HETATM   18  O   UNL     1     -10.806  12.573  66.245  1.00  0.00    -0.258 OA 
HETATM   19  C   UNL     1     -11.150  13.174  68.537  1.00  0.00    -0.296 A  
ENDROOT
BRANCH  14  20
HETATM   20  C   UNL     1     -10.884   8.877  69.492  1.00  0.00    -0.163 C  
HETATM   21  C   UNL     1     -11.029   7.969  68.248  1.00  0.00     0.155 C  
HETATM   22  C   UNL     1      -9.468   8.611  70.062  1.00  0.00    -0.170 C  
BRANCH  20  23
HETATM   23  C   UNL     1     -11.929   8.439  70.568  1.00  0.00     0.066 C  
BRANCH  23  24
HETATM   24  C   UNL     1     -11.997   6.929  70.825  1.00  0.00    -0.424 C  
BRANCH  24  25
HETATM   25  C   UNL     1     -11.870   6.596  72.313  1.00  0.00    -0.289 C  
BRANCH  25  26
HETATM   26  C   UNL     1     -10.426   6.224  72.656  1.00  0.00    -0.234 C  
BRANCH  26  27
HETATM   27  C   UNL     1      -9.813   5.293  71.615  1.00  0.00    -0.223 C  
HETATM   28  C   UNL     1     -10.056   3.835  71.977  1.00  0.00    -0.209 C  
ENDBRANCH  26  27
ENDBRANCH  25  26
ENDBRANCH  24  25
ENDBRANCH  23  24
ENDBRANCH  20  23
ENDBRANCH  14  20
TORSDOF 6
ENDMDL
MODEL      125
REMARK 921   NORMALIZED FREE ENERGY PREDICTED BY IDOCK:   -3.40 KCAL/MOL
REMARK 922        TOTAL FREE ENERGY PREDICTED BY IDOCK:   -6.61 KCAL/MOL
REMARK 923 INTER-LIGAND FREE ENERGY PREDICTED BY IDOCK:   -5.66 KCAL/MOL
REMARK 924 INTRA-LIGAND FREE ENERGY PREDICTED BY IDOCK:   -0.95 KCAL/MOL
REMARK 927      BINDING AFFINITY PREDICTED BY RF-SCORE:    0.00 PKD
ROOT
HETATM    1  C   UNL     1      -9.368   8.153  66.113  1.00  0.00    -0.232 C  
HETATM    2  C   UNL     1      -8.612   6.940  65.545  1.00  0.00    -0.087 C  
HETATM    3  C   UNL     1      -7.902   7.311  64.267  1.00  0.00    -0.125 C  
HETATM    4  C   UNL     1      -6.957   8.474  64.358  1.00  0.00    -0.081 C  
HETATM    5  O   UNL     1      -8.032   6.663  63.230  1.00  0.00    -0.117 OA 
HETATM    6  C   UNL     1      -7.712   9.685  64.883  1.00  0.00    -0.120 C  
HETATM    7  C   UNL     1      -8.422   9.382  66.214  1.00  0.00    -0.133 C  
HETATM    8  C   UNL     1      -9.208  10.578  66.813  1.00  0.00    -0.155 C  
HETATM    9  C   UNL     1     -10.473  10.986  66.037  1.00  0.00    -0.304 C  
HETATM   10  C   UNL     1      -8.316  11.827  66.932  1.00  0.00    -0.170 C  
HETATM   11  O   UNL     1      -9.585  10.254  68.167  1.00  0.00    -0.138 OA 
HETATM   12  C   UNL     1     -10.055   8.987  68.402  1.00  0.00    -0.191 A  
HETATM   13  C   UNL     1     -10.584   8.807  69.690  1.00  0.00    -0.220 A  
HETATM   14  C   UNL     1     -11.133   7.583  70.095  1.00  0.00    -0.246 A  
HETATM   15  H   UNL     1     -10.372   5.829  66.098  1.00  0.00     0.000 HD 
HETATM   16  C   UNL     1     -11.160   6.556  69.140  1.00  0.00    -0.387 A  
HETATM   17  C   UNL     1     -10.627   6.736  67.858  1.00  0.00    -0.242 A  
HETATM   18  O   UNL     1     -10.733   5.707  66.968  1.00  0.00    -0.271 OA 
HETATM   19  C   UNL     1     -10.019   7.936  67.472  1.00  0.00    -0.250 A  
ENDROOT
BRANCH  14  20
HETATM   20  C   UNL     1     -11.695   7.343  71.508  1.00  0.00    -0.314 C  
HETATM   21  C   UNL     1     -10.973   8.157  72.608  1.00  0.00    -0.440 C  
HETATM   22  C   UNL     1     -13.177   7.793  71.534  1.00  0.00    -0.356 C  
BRANCH  20  23
HETATM   23  C   UNL     1     -11.643   5.825  71.880  1.00  0.00    -0.184 C  
BRANCH  23  24
HETATM   24  C   UNL     1     -10.836   5.498  73.141  1.00  0.00    -0.328 C  
BRANCH  24  25
HETATM   25  C   UNL     1     -10.202   4.106  73.069  1.00  0.00    -0.224 C  
BRANCH  25  26
HETATM   26  C   UNL     1      -9.971   3.699  71.613  1.00  0.00    -0.196 C  
BRANCH  26  27
HETATM   27  C   UNL     1      -8.497   3.768  71.227  1.00  0.00    -0.096 C  
HETATM   28  C   UNL     1      -8.005   2.423  70.714  1.00  0.00    -0.052 C  
ENDBRANCH  26  27
ENDBRANCH  25  26
ENDBRANCH  24  25
ENDBRANCH  23  24
ENDBRANCH  20  23
ENDBRANCH  14  20
TORSDOF 6
ENDMDL
MODEL      126
REMARK 921   NORMALIZED FREE ENERGY PREDICTED BY IDOCK:   -3.40 KCAL/MOL
REMARK 922        TOTAL FREE ENERGY PREDICTED BY IDOCK:   -6.61 KCAL/MOL
REMARK 923 INTER-LIGAND FREE ENERGY PREDICTED BY IDOCK:   -5.86 KCAL/MOL
REMARK 924 INTRA-LIGAND FREE ENERGY PREDICTED BY IDOCK:   -0.75 KCAL/MOL
REMARK 927      BINDING AFFINITY PREDICTED BY RF-SCORE:    0.00 PKD
ROOT
HETATM    1  C   UNL     1     -10.365  15.688  67.581  1.00  0.00    -0.275 C  
HETATM    2  C   UNL     1      -9.493  16.554  66.654  1.00  0.00    -0.278 C  
HETATM    3  C   UNL     1      -9.705  18.018  66.945  1.00  0.00    -0.314 C  
HETATM    4  C   UNL     1      -9.474  18.443  68.367  1.00  0.00    -0.352 C  
HETATM    5  O   UNL     1      -9.981  18.830  66.064  1.00  0.00    -0.473 OA 
HETATM    6  C   UNL     1     -10.365  17.616  69.281  1.00  0.00    -0.105 C  
HETATM    7  C   UNL     1     -10.159  16.107  69.064  1.00  0.00    -0.247 C  
HETATM    8  C   UNL     1     -11.032  15.200  69.971  1.00  0.00    -0.271 C  
HETATM    9  C   UNL     1     -12.539  15.212  69.655  1.00  0.00    -0.094 C  
HETATM   10  C   UNL     1     -10.868  15.574  71.455  1.00  0.00    -0.028 C  
HETATM   11  O   UNL     1     -10.553  13.843  69.869  1.00  0.00     0.228 OA 
HETATM   12  C   UNL     1     -10.225  13.385  68.619  1.00  0.00    -0.182 A  
HETATM   13  C   UNL     1      -9.958  12.008  68.571  1.00  0.00    -0.188 A  
HETATM   14  C   UNL     1      -9.632  11.363  67.370  1.00  0.00    -0.185 A  
HETATM   15  H   UNL     1     -10.075  15.156  65.123  1.00  0.00     0.000 HD 
HETATM   16  C   UNL     1      -9.619  12.154  66.212  1.00  0.00    -0.246 A  
HETATM   17  C   UNL     1      -9.881  13.528  66.263  1.00  0.00    -0.299 A  
HETATM   18  O   UNL     1      -9.898  14.223  65.088  1.00  0.00    -0.286 OA 
HETATM   19  C   UNL     1     -10.142  14.187  67.470  1.00  0.00    -0.236 A  
ENDROOT
BRANCH  14  20
HETATM   20  C   UNL     1      -9.305   9.861  67.286  1.00  0.00    -0.167 C  
HETATM   21  C   UNL     1     -10.341   9.046  66.476  1.00  0.00    -0.263 C  
HETATM   22  C   UNL     1      -7.949   9.690  66.558  1.00  0.00    -0.112 C  
BRANCH  20  23
HETATM   23  C   UNL     1      -9.170   9.237  68.713  1.00  0.00    -0.136 C  
BRANCH  23  24
HETATM   24  C   UNL     1     -10.219   8.172  69.053  1.00  0.00    -0.228 C  
BRANCH  24  25
HETATM   25  C   UNL     1      -9.745   7.239  70.171  1.00  0.00    -0.172 C  
BRANCH  25  26
HETATM   26  C   UNL     1     -10.644   7.379  71.401  1.00  0.00    -0.232 C  
BRANCH  26  27
HETATM   27  C   UNL     1     -11.452   8.673  71.374  1.00  0.00    -0.352 C  
HETATM   28  C   UNL     1     -12.904   8.416  71.749  1.00  0.00    -0.371 C  
ENDBRANCH  26  27
ENDBRANCH  25  26
ENDBRANCH  24  25
ENDBRANCH  23  24
ENDBRANCH  20  23
ENDBRANCH  14  20
TORSDOF 6
ENDMDL
MODEL      127
REMARK 921   NORMALIZED FREE ENERGY PREDICTED BY IDOCK:   -3.40 KCAL/MOL
REMARK 922        TOTAL FREE ENERGY PREDICTED BY IDOCK:   -6.61 KCAL/MOL
REMARK 923 INTER-LIGAND FREE ENERGY PREDICTED BY IDOCK:   -4.94 KCAL/MOL
REMARK 924 INTRA-LIGAND FREE ENERGY PREDICTED BY IDOCK:   -1.67 KCAL/MOL
REMARK 927      BINDING AFFINITY PREDICTED BY RF-SCORE:    0.00 PKD
ROOT
HETATM    1  C   UNL     1      -8.487   6.628  66.773  1.00  0.00    -0.117 C  
HETATM    2  C   UNL     1      -8.631   7.601  65.590  1.00  0.00    -0.142 C  
HETATM    3  C   UNL     1      -7.901   7.075  64.381  1.00  0.00    -0.111 C  
HETATM    4  C   UNL     1      -8.293   5.697  63.928  1.00  0.00    -0.058 C  
HETATM    5  O   UNL     1      -7.084   7.752  63.759  1.00  0.00    -0.067 OA 
HETATM    6  C   UNL     1      -8.113   4.727  65.084  1.00  0.00    -0.106 C  
HETATM    7  C   UNL     1      -8.876   5.187  66.338  1.00  0.00    -0.120 C  
HETATM    8  C   UNL     1      -8.744   4.238  67.558  1.00  0.00    -0.106 C  
HETATM    9  C   UNL     1      -7.351   4.201  68.213  1.00  0.00    -0.060 C  
HETATM   10  C   UNL     1      -9.116   2.792  67.182  1.00  0.00    -0.192 C  
HETATM   11  O   UNL     1      -9.710   4.627  68.556  1.00  0.00    -0.153 OA 
HETATM   12  C   UNL     1      -9.861   5.969  68.794  1.00  0.00    -0.139 A  
HETATM   13  C   UNL     1     -10.666   6.263  69.906  1.00  0.00    -0.355 A  
HETATM   14  C   UNL     1     -10.907   7.582  70.312  1.00  0.00    -0.257 A  
HETATM   15  H   UNL     1      -8.320   9.136  67.068  1.00  0.00     0.000 HD 
HETATM   16  C   UNL     1     -10.278   8.595  69.573  1.00  0.00    -0.209 A  
HETATM   17  C   UNL     1      -9.480   8.301  68.462  1.00  0.00    -0.146 A  
HETATM   18  O   UNL     1      -8.862   9.336  67.823  1.00  0.00    -0.121 OA 
HETATM   19  C   UNL     1      -9.290   6.988  68.015  1.00  0.00    -0.127 A  
ENDROOT
BRANCH  14  20
HETATM   20  C   UNL     1     -11.808   7.940  71.508  1.00  0.00    -0.322 C  
HETATM   21  C   UNL     1     -12.196   9.436  71.565  1.00  0.00    -0.448 C  
HETATM   22  C   UNL     1     -13.134   7.149  71.383  1.00  0.00    -0.408 C  
BRANCH  20  23
HETATM   23  C   UNL     1     -11.130   7.537  72.858  1.00  0.00    -0.426 C  
BRANCH  23  24
HETATM   24  C   UNL     1      -9.738   8.136  73.085  1.00  0.00    -0.294 C  
BRANCH  24  25
HETATM   25  C   UNL     1      -8.815   7.171  73.832  1.00  0.00    -0.222 C  
BRANCH  25  26
HETATM   26  C   UNL     1      -7.376   7.312  73.332  1.00  0.00    -0.083 C  
BRANCH  26  27
HETATM   27  C   UNL     1      -7.315   7.889  71.921  1.00  0.00    -0.080 C  
HETATM   28  C   UNL     1      -6.962   6.813  70.906  1.00  0.00    -0.067 C  
ENDBRANCH  26  27
ENDBRANCH  25  26
ENDBRANCH  24  25
ENDBRANCH  23  24
ENDBRANCH  20  23
ENDBRANCH  14  20
TORSDOF 6
ENDMDL
MODEL      128
REMARK 921   NORMALIZED FREE ENERGY PREDICTED BY IDOCK:   -3.38 KCAL/MOL
REMARK 922        TOTAL FREE ENERGY PREDICTED BY IDOCK:   -6.58 KCAL/MOL
REMARK 923 INTER-LIGAND FREE ENERGY PREDICTED BY IDOCK:   -5.57 KCAL/MOL
REMARK 924 INTRA-LIGAND FREE ENERGY PREDICTED BY IDOCK:   -1.01 KCAL/MOL
REMARK 927      BINDING AFFINITY PREDICTED BY RF-SCORE:    0.00 PKD
ROOT
HETATM    1  C   UNL     1     -10.927  12.342  66.217  1.00  0.00    -0.327 C  
HETATM    2  C   UNL     1     -11.013  12.060  64.707  1.00  0.00    -0.361 C  
HETATM    3  C   UNL     1     -12.060  12.935  64.064  1.00  0.00    -0.455 C  
HETATM    4  C   UNL     1     -11.897  14.413  64.275  1.00  0.00    -0.385 C  
HETATM    5  O   UNL     1     -12.954  12.477  63.354  1.00  0.00    -0.685 OA 
HETATM    6  C   UNL     1     -11.852  14.698  65.768  1.00  0.00    -0.274 C  
HETATM    7  C   UNL     1     -10.767  13.867  66.474  1.00  0.00    -0.277 C  
HETATM    8  C   UNL     1     -10.658  14.113  68.002  1.00  0.00    -0.239 C  
HETATM    9  C   UNL     1     -11.841  13.589  68.836  1.00  0.00    -0.384 C  
HETATM   10  C   UNL     1     -10.500  15.612  68.315  1.00  0.00    -0.252 C  
HETATM   11  O   UNL     1      -9.447  13.498  68.486  1.00  0.00    -0.202 OA 
HETATM   12  C   UNL     1      -9.143  12.249  68.009  1.00  0.00    -0.191 A  
HETATM   13  C   UNL     1      -8.065  11.636  68.667  1.00  0.00    -0.121 A  
HETATM   14  C   UNL     1      -7.633  10.347  68.328  1.00  0.00    -0.095 A  
HETATM   15  H   UNL     1     -10.829   9.993  65.280  1.00  0.00     0.000 HD 
HETATM   16  C   UNL     1      -8.351   9.685  67.321  1.00  0.00    -0.114 A  
HETATM   17  C   UNL     1      -9.421  10.299  66.662  1.00  0.00    -0.166 A  
HETATM   18  O   UNL     1     -10.102   9.575  65.727  1.00  0.00    -0.288 OA 
HETATM   19  C   UNL     1      -9.813  11.611  66.953  1.00  0.00    -0.218 A  
ENDROOT
BRANCH  14  20
HETATM   20  C   UNL     1      -6.437   9.656  69.009  1.00  0.00    -0.045 C  
HETATM   21  C   UNL     1      -5.250  10.608  69.289  1.00  0.00    -0.038 C  
HETATM   22  C   UNL     1      -6.897   9.116  70.387  1.00  0.00    -0.062 C  
BRANCH  20  23
HETATM   23  C   UNL     1      -5.932   8.446  68.159  1.00  0.00    -0.046 C  
BRANCH  23  24
HETATM   24  C   UNL     1      -6.012   7.086  68.862  1.00  0.00    -0.022 C  
BRANCH  24  25
HETATM   25  C   UNL     1      -6.355   5.958  67.887  1.00  0.00    -0.041 C  
BRANCH  25  26
HETATM   26  C   UNL     1      -7.116   6.508  66.678  1.00  0.00    -0.068 C  
BRANCH  26  27
HETATM   27  C   UNL     1      -8.601   6.166  66.734  1.00  0.00    -0.111 C  
HETATM   28  C   UNL     1      -8.890   5.172  67.849  1.00  0.00    -0.104 C  
ENDBRANCH  26  27
ENDBRANCH  25  26
ENDBRANCH  24  25
ENDBRANCH  23  24
ENDBRANCH  20  23
ENDBRANCH  14  20
TORSDOF 6
ENDMDL
MODEL      129
REMARK 921   NORMALIZED FREE ENERGY PREDICTED BY IDOCK:   -3.38 KCAL/MOL
REMARK 922        TOTAL FREE ENERGY PREDICTED BY IDOCK:   -6.58 KCAL/MOL
REMARK 923 INTER-LIGAND FREE ENERGY PREDICTED BY IDOCK:   -6.03 KCAL/MOL
REMARK 924 INTRA-LIGAND FREE ENERGY PREDICTED BY IDOCK:   -0.55 KCAL/MOL
REMARK 927      BINDING AFFINITY PREDICTED BY RF-SCORE:    0.00 PKD
ROOT
HETATM    1  C   UNL     1      -9.659   6.979  71.743  1.00  0.00    -0.161 C  
HETATM    2  C   UNL     1     -11.069   6.505  72.133  1.00  0.00    -0.296 C  
HETATM    3  C   UNL     1     -11.012   5.627  73.358  1.00  0.00    -0.249 C  
HETATM    4  C   UNL     1     -10.350   6.229  74.564  1.00  0.00    -0.233 C  
HETATM    5  O   UNL     1     -11.533   4.514  73.394  1.00  0.00    -0.316 OA 
HETATM    6  C   UNL     1      -8.941   6.663  74.190  1.00  0.00    -0.194 C  
HETATM    7  C   UNL     1      -8.938   7.602  72.972  1.00  0.00    -0.228 C  
HETATM    8  C   UNL     1      -7.532   8.091  72.538  1.00  0.00    -0.111 C  
HETATM    9  C   UNL     1      -6.622   7.012  71.922  1.00  0.00    -0.052 C  
HETATM   10  C   UNL     1      -6.770   8.716  73.721  1.00  0.00    -0.054 C  
HETATM   11  O   UNL     1      -7.686   9.162  71.583  1.00  0.00    -0.338 OA 
HETATM   12  C   UNL     1      -8.644   9.004  70.614  1.00  0.00    -0.210 A  
HETATM   13  C   UNL     1      -8.604   9.986  69.611  1.00  0.00    -0.198 A  
HETATM   14  C   UNL     1      -9.492   9.968  68.528  1.00  0.00    -0.150 A  
HETATM   15  H   UNL     1     -11.352   6.231  70.016  1.00  0.00     0.000 HD 
HETATM   16  C   UNL     1     -10.402   8.901  68.475  1.00  0.00    -0.229 A  
HETATM   17  C   UNL     1     -10.444   7.927  69.479  1.00  0.00    -0.226 A  
HETATM   18  O   UNL     1     -11.323   6.893  69.335  1.00  0.00    -0.203 OA 
HETATM   19  C   UNL     1      -9.602   7.979  70.596  1.00  0.00    -0.172 A  
ENDROOT
BRANCH  14  20
HETATM   20  C   UNL     1      -9.494  11.043  67.426  1.00  0.00    -0.173 C  
HETATM   21  C   UNL     1      -8.433  10.806  66.327  1.00  0.00    -0.161 C  
HETATM   22  C   UNL     1     -10.871  11.020  66.716  1.00  0.00    -0.307 C  
BRANCH  20  23
HETATM   23  C   UNL     1      -9.288  12.468  68.036  1.00  0.00    -0.205 C  
BRANCH  23  24
HETATM   24  C   UNL     1     -10.436  13.451  67.780  1.00  0.00    -0.246 C  
BRANCH  24  25
HETATM   25  C   UNL     1      -9.924  14.852  67.438  1.00  0.00    -0.223 C  
BRANCH  25  26
HETATM   26  C   UNL     1     -10.979  15.906  67.780  1.00  0.00    -0.315 C  
BRANCH  26  27
HETATM   27  C   UNL     1     -10.388  17.069  68.570  1.00  0.00    -0.359 C  
HETATM   28  C   UNL     1     -10.288  18.318  67.707  1.00  0.00    -0.419 C  
ENDBRANCH  26  27
ENDBRANCH  25  26
ENDBRANCH  24  25
ENDBRANCH  23  24
ENDBRANCH  20  23
ENDBRANCH  14  20
TORSDOF 6
ENDMDL
MODEL      130
REMARK 921   NORMALIZED FREE ENERGY PREDICTED BY IDOCK:   -3.35 KCAL/MOL
REMARK 922        TOTAL FREE ENERGY PREDICTED BY IDOCK:   -6.54 KCAL/MOL
REMARK 923 INTER-LIGAND FREE ENERGY PREDICTED BY IDOCK:   -4.83 KCAL/MOL
REMARK 924 INTRA-LIGAND FREE ENERGY PREDICTED BY IDOCK:   -1.71 KCAL/MOL
REMARK 927      BINDING AFFINITY PREDICTED BY RF-SCORE:    0.00 PKD
ROOT
HETATM    1  C   UNL     1      -7.340  10.661  67.826  1.00  0.00    -0.089 C  
HETATM    2  C   UNL     1      -5.911  10.170  68.111  1.00  0.00    -0.041 C  
HETATM    3  C   UNL     1      -5.839   8.667  68.014  1.00  0.00    -0.042 C  
HETATM    4  C   UNL     1      -6.309   8.072  66.717  1.00  0.00    -0.055 C  
HETATM    5  O   UNL     1      -5.364   7.971  68.909  1.00  0.00    -0.025 OA 
HETATM    6  C   UNL     1      -7.736   8.525  66.453  1.00  0.00    -0.098 C  
HETATM    7  C   UNL     1      -7.864  10.058  66.493  1.00  0.00    -0.112 C  
HETATM    8  C   UNL     1      -9.295  10.592  66.224  1.00  0.00    -0.171 C  
HETATM    9  C   UNL     1     -10.322  10.309  67.336  1.00  0.00    -0.282 C  
HETATM   10  C   UNL     1      -9.866  10.022  64.912  1.00  0.00    -0.352 C  
HETATM   11  O   UNL     1      -9.226  12.018  66.015  1.00  0.00    -0.221 OA 
HETATM   12  C   UNL     1      -8.414  12.737  66.854  1.00  0.00    -0.102 A  
HETATM   13  C   UNL     1      -8.548  14.128  66.722  1.00  0.00    -0.097 A  
HETATM   14  C   UNL     1      -7.815  15.017  67.518  1.00  0.00    -0.203 A  
HETATM   15  H   UNL     1      -5.926  11.643  69.681  1.00  0.00     0.000 HD 
HETATM   16  C   UNL     1      -6.964  14.450  68.478  1.00  0.00    -0.100 A  
HETATM   17  C   UNL     1      -6.827  13.063  68.606  1.00  0.00    -0.099 A  
HETATM   18  O   UNL     1      -6.018  12.585  69.595  1.00  0.00    -0.102 OA 
HETATM   19  C   UNL     1      -7.509  12.173  67.768  1.00  0.00    -0.122 A  
ENDROOT
BRANCH  14  20
HETATM   20  C   UNL     1      -7.916  16.547  67.379  1.00  0.00    -0.175 C  
HETATM   21  C   UNL     1      -6.565  17.230  67.062  1.00  0.00    -0.212 C  
HETATM   22  C   UNL     1      -8.859  16.875  66.195  1.00  0.00    -0.279 C  
BRANCH  20  23
HETATM   23  C   UNL     1      -8.521  17.187  68.671  1.00  0.00    -0.258 C  
BRANCH  23  24
HETATM   24  C   UNL     1     -10.007  16.891  68.902  1.00  0.00    -0.279 C  
BRANCH  24  25
HETATM   25  C   UNL     1     -10.214  15.781  69.935  1.00  0.00    -0.277 C  
BRANCH  25  26
HETATM   26  C   UNL     1     -10.930  14.587  69.301  1.00  0.00    -0.282 C  
BRANCH  26  27
HETATM   27  C   UNL     1     -11.909  15.020  68.213  1.00  0.00    -0.295 C  
HETATM   28  C   UNL     1     -12.027  13.956  67.132  1.00  0.00    -0.455 C  
ENDBRANCH  26  27
ENDBRANCH  25  26
ENDBRANCH  24  25
ENDBRANCH  23  24
ENDBRANCH  20  23
ENDBRANCH  14  20
TORSDOF 6
ENDMDL
MODEL      131
REMARK 921   NORMALIZED FREE ENERGY PREDICTED BY IDOCK:   -3.34 KCAL/MOL
REMARK 922        TOTAL FREE ENERGY PREDICTED BY IDOCK:   -6.53 KCAL/MOL
REMARK 923 INTER-LIGAND FREE ENERGY PREDICTED BY IDOCK:   -5.79 KCAL/MOL
REMARK 924 INTRA-LIGAND FREE ENERGY PREDICTED BY IDOCK:   -0.74 KCAL/MOL
REMARK 927      BINDING AFFINITY PREDICTED BY RF-SCORE:    0.00 PKD
ROOT
HETATM    1  C   UNL     1      -9.184   8.298  67.461  1.00  0.00    -0.155 C  
HETATM    2  C   UNL     1      -9.828   7.349  66.435  1.00  0.00    -0.137 C  
HETATM    3  C   UNL     1      -9.410   5.924  66.699  1.00  0.00    -0.145 C  
HETATM    4  C   UNL     1      -9.687   5.407  68.081  1.00  0.00    -0.174 C  
HETATM    5  O   UNL     1      -8.936   5.204  65.822  1.00  0.00    -0.143 OA 
HETATM    6  C   UNL     1      -9.018   6.322  69.095  1.00  0.00    -0.127 C  
HETATM    7  C   UNL     1      -9.443   7.788  68.907  1.00  0.00    -0.150 C  
HETATM    8  C   UNL     1      -8.803   8.780  69.914  1.00  0.00    -0.143 C  
HETATM    9  C   UNL     1      -7.293   9.017  69.732  1.00  0.00    -0.058 C  
HETATM   10  C   UNL     1      -9.027   8.320  71.366  1.00  0.00    -0.211 C  
HETATM   11  O   UNL     1      -9.483  10.048  69.811  1.00  0.00    -0.220 OA 
HETATM   12  C   UNL     1      -9.775  10.504  68.552  1.00  0.00    -0.165 A  
HETATM   13  C   UNL     1     -10.254  11.823  68.522  1.00  0.00    -0.215 A  
HETATM   14  C   UNL     1     -10.578  12.461  67.317  1.00  0.00    -0.246 A  
HETATM   15  H   UNL     1      -9.352   8.886  65.004  1.00  0.00     0.000 HD 
HETATM   16  C   UNL     1     -10.369  11.729  66.139  1.00  0.00    -0.266 A  
HETATM   17  C   UNL     1      -9.897  10.412  66.171  1.00  0.00    -0.222 A  
HETATM   18  O   UNL     1      -9.673   9.780  64.982  1.00  0.00    -0.298 OA 
HETATM   19  C   UNL     1      -9.635   9.750  67.376  1.00  0.00    -0.187 A  
ENDROOT
BRANCH  14  20
HETATM   20  C   UNL     1     -11.132  13.896  67.250  1.00  0.00    -0.312 C  
HETATM   21  C   UNL     1     -11.986  14.171  65.990  1.00  0.00    -0.427 C  
HETATM   22  C   UNL     1     -12.063  14.124  68.467  1.00  0.00    -0.312 C  
BRANCH  20  23
HETATM   23  C   UNL     1      -9.976  14.946  67.322  1.00  0.00    -0.230 C  
BRANCH  23  24
HETATM   24  C   UNL     1      -9.447  15.416  65.962  1.00  0.00    -0.381 C  
BRANCH  24  25
HETATM   25  C   UNL     1      -8.417  16.539  66.107  1.00  0.00    -0.320 C  
BRANCH  25  26
HETATM   26  C   UNL     1      -8.077  16.766  67.581  1.00  0.00    -0.188 C  
BRANCH  26  27
HETATM   27  C   UNL     1      -6.884  17.700  67.755  1.00  0.00    -0.187 C  
HETATM   28  C   UNL     1      -5.579  16.979  67.454  1.00  0.00    -0.171 C  
ENDBRANCH  26  27
ENDBRANCH  25  26
ENDBRANCH  24  25
ENDBRANCH  23  24
ENDBRANCH  20  23
ENDBRANCH  14  20
TORSDOF 6
ENDMDL
MODEL      132
REMARK 921   NORMALIZED FREE ENERGY PREDICTED BY IDOCK:   -3.34 KCAL/MOL
REMARK 922        TOTAL FREE ENERGY PREDICTED BY IDOCK:   -6.53 KCAL/MOL
REMARK 923 INTER-LIGAND FREE ENERGY PREDICTED BY IDOCK:   -5.26 KCAL/MOL
REMARK 924 INTRA-LIGAND FREE ENERGY PREDICTED BY IDOCK:   -1.27 KCAL/MOL
REMARK 927      BINDING AFFINITY PREDICTED BY RF-SCORE:    0.00 PKD
ROOT
HETATM    1  C   UNL     1      -7.997  10.827  68.673  1.00  0.00    -0.133 C  
HETATM    2  C   UNL     1      -6.660  11.586  68.747  1.00  0.00    -0.070 C  
HETATM    3  C   UNL     1      -6.563  12.595  67.632  1.00  0.00    -0.143 C  
HETATM    4  C   UNL     1      -7.684  13.592  67.552  1.00  0.00    -0.182 C  
HETATM    5  O   UNL     1      -5.595  12.648  66.875  1.00  0.00    -0.326 OA 
HETATM    6  C   UNL     1      -9.003  12.844  67.438  1.00  0.00    -0.199 C  
HETATM    7  C   UNL     1      -9.183  11.828  68.580  1.00  0.00    -0.152 C  
HETATM    8  C   UNL     1     -10.513  11.033  68.532  1.00  0.00    -0.189 C  
HETATM    9  C   UNL     1     -10.629  10.016  67.382  1.00  0.00    -0.330 C  
HETATM   10  C   UNL     1     -11.725  11.978  68.436  1.00  0.00    -0.390 C  
HETATM   11  O   UNL     1     -10.681  10.333  69.782  1.00  0.00    -0.249 OA 
HETATM   12  C   UNL     1      -9.576   9.715  70.308  1.00  0.00    -0.254 A  
HETATM   13  C   UNL     1      -9.855   8.895  71.413  1.00  0.00    -0.376 A  
HETATM   14  C   UNL     1      -8.850   8.165  72.061  1.00  0.00    -0.233 A  
HETATM   15  H   UNL     1      -5.814   9.658  69.198  1.00  0.00     0.000 HD 
HETATM   16  C   UNL     1      -7.555   8.267  71.531  1.00  0.00    -0.104 A  
HETATM   17  C   UNL     1      -7.277   9.089  70.434  1.00  0.00    -0.069 A  
HETATM   18  O   UNL     1      -6.003   9.099  69.944  1.00  0.00    -0.034 OA 
HETATM   19  C   UNL     1      -8.267   9.870  69.825  1.00  0.00    -0.191 A  
ENDROOT
BRANCH  14  20
HETATM   20  C   UNL     1      -9.116   7.279  73.292  1.00  0.00    -0.201 C  
HETATM   21  C   UNL     1      -8.272   5.984  73.317  1.00  0.00    -0.115 C  
HETATM   22  C   UNL     1      -8.733   8.074  74.565  1.00  0.00     0.120 C  
BRANCH  20  23
HETATM   23  C   UNL     1     -10.630   6.903  73.393  1.00  0.00    -0.372 C  
BRANCH  23  24
HETATM   24  C   UNL     1     -10.918   5.399  73.455  1.00  0.00    -0.349 C  
BRANCH  24  25
HETATM   25  C   UNL     1     -11.460   4.866  72.126  1.00  0.00     0.306 C  
BRANCH  25  26
HETATM   26  C   UNL     1     -11.460   5.970  71.067  1.00  0.00    -0.236 C  
BRANCH  26  27
HETATM   27  C   UNL     1     -10.531   5.644  69.902  1.00  0.00    -0.378 C  
HETATM   28  C   UNL     1     -11.039   6.264  68.609  1.00  0.00    -0.409 C  
ENDBRANCH  26  27
ENDBRANCH  25  26
ENDBRANCH  24  25
ENDBRANCH  23  24
ENDBRANCH  20  23
ENDBRANCH  14  20
TORSDOF 6
ENDMDL
MODEL      133
REMARK 921   NORMALIZED FREE ENERGY PREDICTED BY IDOCK:   -3.34 KCAL/MOL
REMARK 922        TOTAL FREE ENERGY PREDICTED BY IDOCK:   -6.53 KCAL/MOL
REMARK 923 INTER-LIGAND FREE ENERGY PREDICTED BY IDOCK:   -5.53 KCAL/MOL
REMARK 924 INTRA-LIGAND FREE ENERGY PREDICTED BY IDOCK:   -1.00 KCAL/MOL
REMARK 927      BINDING AFFINITY PREDICTED BY RF-SCORE:    0.00 PKD
ROOT
HETATM    1  C   UNL     1      -8.634  15.958  67.713  1.00  0.00    -0.164 C  
HETATM    2  C   UNL     1      -7.597  16.985  68.201  1.00  0.00    -0.194 C  
HETATM    3  C   UNL     1      -8.152  18.384  68.101  1.00  0.00    -0.290 C  
HETATM    4  C   UNL     1      -9.450  18.626  68.815  1.00  0.00    -0.358 C  
HETATM    5  O   UNL     1      -7.549  19.291  67.530  1.00  0.00    -0.233 OA 
HETATM    6  C   UNL     1     -10.487  17.638  68.305  1.00  0.00    -0.376 C  
HETATM    7  C   UNL     1      -9.997  16.184  68.426  1.00  0.00    -0.230 C  
HETATM    8  C   UNL     1     -11.009  15.119  67.930  1.00  0.00    -0.302 C  
HETATM    9  C   UNL     1     -11.242  15.093  66.408  1.00  0.00    -0.277 C  
HETATM   10  C   UNL     1     -12.382  15.298  68.604  1.00  0.00     0.124 C  
HETATM   11  O   UNL     1     -10.553  13.815  68.347  1.00  0.00    -0.240 OA 
HETATM   12  C   UNL     1      -9.215  13.547  68.216  1.00  0.00    -0.195 A  
HETATM   13  C   UNL     1      -8.878  12.205  68.453  1.00  0.00    -0.143 A  
HETATM   14  C   UNL     1      -7.560  11.745  68.338  1.00  0.00    -0.123 A  
HETATM   15  H   UNL     1      -6.179  15.777  67.122  1.00  0.00     0.000 HD 
HETATM   16  C   UNL     1      -6.597  12.684  67.941  1.00  0.00    -0.111 A  
HETATM   17  C   UNL     1      -6.933  14.023  67.710  1.00  0.00    -0.177 A  
HETATM   18  O   UNL     1      -5.951  14.868  67.279  1.00  0.00    -0.312 OA 
HETATM   19  C   UNL     1      -8.237  14.499  67.888  1.00  0.00    -0.155 A  
ENDROOT
BRANCH  14  20
HETATM   20  C   UNL     1      -7.152  10.288  68.619  1.00  0.00    -0.075 C  
HETATM   21  C   UNL     1      -7.757   9.272  67.621  1.00  0.00    -0.092 C  
HETATM   22  C   UNL     1      -5.613  10.170  68.482  1.00  0.00    -0.038 C  
BRANCH  20  23
HETATM   23  C   UNL     1      -7.542   9.868  70.073  1.00  0.00    -0.179 C  
BRANCH  23  24
HETATM   24  C   UNL     1      -8.047   8.428  70.216  1.00  0.00    -0.104 C  
BRANCH  24  25
HETATM   25  C   UNL     1      -9.393   8.363  70.942  1.00  0.00    -0.201 C  
BRANCH  25  26
HETATM   26  C   UNL     1     -10.471   9.089  70.135  1.00  0.00    -0.240 C  
BRANCH  26  27
HETATM   27  C   UNL     1     -11.782   9.205  70.908  1.00  0.00    -0.341 C  
HETATM   28  C   UNL     1     -12.329  10.623  70.843  1.00  0.00    -0.502 C  
ENDBRANCH  26  27
ENDBRANCH  25  26
ENDBRANCH  24  25
ENDBRANCH  23  24
ENDBRANCH  20  23
ENDBRANCH  14  20
TORSDOF 6
ENDMDL
MODEL      134
REMARK 921   NORMALIZED FREE ENERGY PREDICTED BY IDOCK:   -3.34 KCAL/MOL
REMARK 922        TOTAL FREE ENERGY PREDICTED BY IDOCK:   -6.52 KCAL/MOL
REMARK 923 INTER-LIGAND FREE ENERGY PREDICTED BY IDOCK:   -5.36 KCAL/MOL
REMARK 924 INTRA-LIGAND FREE ENERGY PREDICTED BY IDOCK:   -1.16 KCAL/MOL
REMARK 927      BINDING AFFINITY PREDICTED BY RF-SCORE:    0.00 PKD
ROOT
HETATM    1  C   UNL     1      -7.992   9.445  68.746  1.00  0.00    -0.092 C  
HETATM    2  C   UNL     1      -6.468   9.593  68.902  1.00  0.00    -0.046 C  
HETATM    3  C   UNL     1      -5.893   8.404  69.629  1.00  0.00    -0.029 C  
HETATM    4  C   UNL     1      -6.192   7.061  69.026  1.00  0.00    -0.027 C  
HETATM    5  O   UNL     1      -5.167   8.523  70.615  1.00  0.00    -0.022 OA 
HETATM    6  C   UNL     1      -7.699   6.897  68.908  1.00  0.00    -0.110 C  
HETATM    7  C   UNL     1      -8.340   8.060  68.132  1.00  0.00    -0.127 C  
HETATM    8  C   UNL     1      -9.879   7.954  67.965  1.00  0.00    -0.165 C  
HETATM    9  C   UNL     1     -10.694   8.145  69.257  1.00  0.00    -0.141 C  
HETATM   10  C   UNL     1     -10.282   6.597  67.361  1.00  0.00    -0.243 C  
HETATM   11  O   UNL     1     -10.310   8.937  67.001  1.00  0.00    -0.252 OA 
HETATM   12  C   UNL     1      -9.753  10.187  67.088  1.00  0.00    -0.173 A  
HETATM   13  C   UNL     1     -10.360  11.138  66.252  1.00  0.00    -0.299 A  
HETATM   14  C   UNL     1      -9.937  12.474  66.229  1.00  0.00    -0.263 A  
HETATM   15  H   UNL     1      -6.911  11.650  69.360  1.00  0.00     0.000 HD 
HETATM   16  C   UNL     1      -8.900  12.823  67.107  1.00  0.00    -0.202 A  
HETATM   17  C   UNL     1      -8.292  11.872  67.935  1.00  0.00    -0.152 A  
HETATM   18  O   UNL     1      -7.323  12.296  68.797  1.00  0.00    -0.109 OA 
HETATM   19  C   UNL     1      -8.668  10.524  67.912  1.00  0.00    -0.126 A  
ENDROOT
BRANCH  14  20
HETATM   20  C   UNL     1     -10.560  13.536  65.305  1.00  0.00    -0.335 C  
HETATM   21  C   UNL     1     -10.822  13.028  63.867  1.00  0.00    -0.347 C  
HETATM   22  C   UNL     1     -11.939  13.946  65.881  1.00  0.00    -0.429 C  
BRANCH  20  23
HETATM   23  C   UNL     1      -9.664  14.815  65.239  1.00  0.00    -0.117 C  
BRANCH  23  24
HETATM   24  C   UNL     1     -10.308  16.084  65.809  1.00  0.00    -0.398 C  
BRANCH  24  25
HETATM   25  C   UNL     1      -9.386  16.796  66.802  1.00  0.00    -0.263 C  
BRANCH  25  26
HETATM   26  C   UNL     1      -9.686  16.341  68.231  1.00  0.00    -0.222 C  
BRANCH  26  27
HETATM   27  C   UNL     1     -11.171  16.444  68.564  1.00  0.00    -0.334 C  
HETATM   28  C   UNL     1     -11.431  16.072  70.016  1.00  0.00    -0.334 C  
ENDBRANCH  26  27
ENDBRANCH  25  26
ENDBRANCH  24  25
ENDBRANCH  23  24
ENDBRANCH  20  23
ENDBRANCH  14  20
TORSDOF 6
ENDMDL
MODEL      135
REMARK 921   NORMALIZED FREE ENERGY PREDICTED BY IDOCK:   -3.32 KCAL/MOL
REMARK 922        TOTAL FREE ENERGY PREDICTED BY IDOCK:   -6.49 KCAL/MOL
REMARK 923 INTER-LIGAND FREE ENERGY PREDICTED BY IDOCK:   -5.32 KCAL/MOL
REMARK 924 INTRA-LIGAND FREE ENERGY PREDICTED BY IDOCK:   -1.18 KCAL/MOL
REMARK 927      BINDING AFFINITY PREDICTED BY RF-SCORE:    0.00 PKD
ROOT
HETATM    1  C   UNL     1      -8.577  15.951  67.542  1.00  0.00    -0.181 C  
HETATM    2  C   UNL     1      -7.550  16.946  68.110  1.00  0.00    -0.188 C  
HETATM    3  C   UNL     1      -8.054  18.361  67.973  1.00  0.00    -0.274 C  
HETATM    4  C   UNL     1      -9.394  18.640  68.590  1.00  0.00    -0.375 C  
HETATM    5  O   UNL     1      -7.383  19.250  67.452  1.00  0.00    -0.226 OA 
HETATM    6  C   UNL     1     -10.419  17.684  68.000  1.00  0.00    -0.395 C  
HETATM    7  C   UNL     1      -9.982  16.217  68.152  1.00  0.00    -0.230 C  
HETATM    8  C   UNL     1     -10.986  15.182  67.579  1.00  0.00    -0.310 C  
HETATM    9  C   UNL     1     -11.105  15.165  66.044  1.00  0.00    -0.312 C  
HETATM   10  C   UNL     1     -12.399  15.402  68.149  1.00  0.00     0.483 C  
HETATM   11  O   UNL     1     -10.601  13.865  68.024  1.00  0.00    -0.240 OA 
HETATM   12  C   UNL     1      -9.265  13.558  67.992  1.00  0.00    -0.209 A  
HETATM   13  C   UNL     1      -8.987  12.206  68.249  1.00  0.00    -0.186 A  
HETATM   14  C   UNL     1      -7.678  11.707  68.231  1.00  0.00    -0.128 A  
HETATM   15  H   UNL     1      -6.092  15.697  67.135  1.00  0.00     0.000 HD 
HETATM   16  C   UNL     1      -6.660  12.618  67.910  1.00  0.00    -0.111 A  
HETATM   17  C   UNL     1      -6.938  13.966  67.659  1.00  0.00    -0.175 A  
HETATM   18  O   UNL     1      -5.903  14.782  67.306  1.00  0.00    -0.303 OA 
HETATM   19  C   UNL     1      -8.238  14.481  67.741  1.00  0.00    -0.171 A  
ENDROOT
BRANCH  14  20
HETATM   20  C   UNL     1      -7.335  10.238  68.537  1.00  0.00    -0.082 C  
HETATM   21  C   UNL     1      -5.837   9.901  68.352  1.00  0.00    -0.042 C  
HETATM   22  C   UNL     1      -7.666   9.951  70.023  1.00  0.00    -0.188 C  
BRANCH  20  23
HETATM   23  C   UNL     1      -8.189   9.270  67.655  1.00  0.00    -0.115 C  
BRANCH  23  24
HETATM   24  C   UNL     1      -7.827   9.266  66.166  1.00  0.00    -0.099 C  
BRANCH  24  25
HETATM   25  C   UNL     1      -9.072   9.264  65.275  1.00  0.00    -0.271 C  
BRANCH  25  26
HETATM   26  C   UNL     1      -9.899  10.530  65.509  1.00  0.00    -0.324 C  
BRANCH  26  27
HETATM   27  C   UNL     1     -10.438  11.109  64.205  1.00  0.00    -0.442 C  
HETATM   28  C   UNL     1      -9.914  12.519  63.977  1.00  0.00    -0.225 C  
ENDBRANCH  26  27
ENDBRANCH  25  26
ENDBRANCH  24  25
ENDBRANCH  23  24
ENDBRANCH  20  23
ENDBRANCH  14  20
TORSDOF 6
ENDMDL
MODEL      136
REMARK 921   NORMALIZED FREE ENERGY PREDICTED BY IDOCK:   -3.31 KCAL/MOL
REMARK 922        TOTAL FREE ENERGY PREDICTED BY IDOCK:   -6.48 KCAL/MOL
REMARK 923 INTER-LIGAND FREE ENERGY PREDICTED BY IDOCK:   -5.24 KCAL/MOL
REMARK 924 INTRA-LIGAND FREE ENERGY PREDICTED BY IDOCK:   -1.25 KCAL/MOL
REMARK 927      BINDING AFFINITY PREDICTED BY RF-SCORE:    0.00 PKD
ROOT
HETATM    1  C   UNL     1      -9.599   4.328  66.186  1.00  0.00    -0.199 C  
HETATM    2  C   UNL     1     -10.723   4.351  65.136  1.00  0.00    -0.144 C  
HETATM    3  C   UNL     1     -10.287   3.640  63.880  1.00  0.00    -0.254 C  
HETATM    4  C   UNL     1      -9.817   2.225  64.059  1.00  0.00    -0.124 C  
HETATM    5  O   UNL     1     -10.375   4.157  62.767  1.00  0.00    -0.173 OA 
HETATM    6  C   UNL     1      -8.679   2.205  65.066  1.00  0.00    -0.115 C  
HETATM    7  C   UNL     1      -9.079   2.877  66.391  1.00  0.00    -0.146 C  
HETATM    8  C   UNL     1      -7.966   2.887  67.472  1.00  0.00    -0.075 C  
HETATM    9  C   UNL     1      -6.768   3.807  67.171  1.00  0.00    -0.046 C  
HETATM   10  C   UNL     1      -7.412   1.472  67.714  1.00  0.00    -0.053 C  
HETATM   11  O   UNL     1      -8.546   3.285  68.731  1.00  0.00    -0.075 OA 
HETATM   12  C   UNL     1      -9.437   4.326  68.711  1.00  0.00    -0.164 A  
HETATM   13  C   UNL     1      -9.806   4.783  69.986  1.00  0.00    -0.297 A  
HETATM   14  C   UNL     1     -10.689   5.858  70.156  1.00  0.00    -0.389 A  
HETATM   15  H   UNL     1     -11.008   6.389  65.768  1.00  0.00     0.000 HD 
HETATM   16  C   UNL     1     -11.160   6.478  68.989  1.00  0.00    -0.375 A  
HETATM   17  C   UNL     1     -10.796   6.018  67.719  1.00  0.00    -0.290 A  
HETATM   18  O   UNL     1     -11.255   6.702  66.631  1.00  0.00    -0.231 OA 
HETATM   19  C   UNL     1      -9.967   4.903  67.546  1.00  0.00    -0.202 A  
ENDROOT
BRANCH  14  20
HETATM   20  C   UNL     1     -11.137   6.366  71.539  1.00  0.00    -0.322 C  
HETATM   21  C   UNL     1     -10.249   7.503  72.098  1.00  0.00    -0.238 C  
HETATM   22  C   UNL     1     -12.566   6.950  71.412  1.00  0.00    -0.400 C  
BRANCH  20  23
HETATM   23  C   UNL     1     -11.182   5.197  72.576  1.00  0.00    -0.229 C  
BRANCH  23  24
HETATM   24  C   UNL     1     -10.542   5.513  73.932  1.00  0.00    -0.304 C  
BRANCH  24  25
HETATM   25  C   UNL     1      -9.368   4.581  74.241  1.00  0.00    -0.127 C  
BRANCH  25  26
HETATM   26  C   UNL     1      -9.431   3.331  73.361  1.00  0.00    -0.125 C  
BRANCH  26  27
HETATM   27  C   UNL     1      -8.109   3.068  72.646  1.00  0.00    -0.067 C  
HETATM   28  C   UNL     1      -7.440   4.373  72.240  1.00  0.00    -0.073 C  
ENDBRANCH  26  27
ENDBRANCH  25  26
ENDBRANCH  24  25
ENDBRANCH  23  24
ENDBRANCH  20  23
ENDBRANCH  14  20
TORSDOF 6
ENDMDL
MODEL      137
REMARK 921   NORMALIZED FREE ENERGY PREDICTED BY IDOCK:   -3.30 KCAL/MOL
REMARK 922        TOTAL FREE ENERGY PREDICTED BY IDOCK:   -6.47 KCAL/MOL
REMARK 923 INTER-LIGAND FREE ENERGY PREDICTED BY IDOCK:   -5.22 KCAL/MOL
REMARK 924 INTRA-LIGAND FREE ENERGY PREDICTED BY IDOCK:   -1.25 KCAL/MOL
REMARK 927      BINDING AFFINITY PREDICTED BY RF-SCORE:    0.00 PKD
ROOT
HETATM    1  C   UNL     1      -8.628   7.953  70.483  1.00  0.00    -0.131 C  
HETATM    2  C   UNL     1      -7.612   8.558  71.467  1.00  0.00    -0.131 C  
HETATM    3  C   UNL     1      -7.867   8.055  72.866  1.00  0.00    -0.142 C  
HETATM    4  C   UNL     1      -7.877   6.563  73.033  1.00  0.00    -0.104 C  
HETATM    5  O   UNL     1      -7.991   8.815  73.825  1.00  0.00    -0.396 OA 
HETATM    6  C   UNL     1      -8.909   5.967  72.089  1.00  0.00    -0.136 C  
HETATM    7  C   UNL     1      -8.673   6.406  70.634  1.00  0.00    -0.144 C  
HETATM    8  C   UNL     1      -9.686   5.828  69.612  1.00  0.00    -0.161 C  
HETATM    9  C   UNL     1     -11.119   6.381  69.724  1.00  0.00    -0.459 C  
HETATM   10  C   UNL     1      -9.773   4.295  69.721  1.00  0.00    -0.290 C  
HETATM   11  O   UNL     1      -9.199   6.084  68.279  1.00  0.00    -0.118 OA 
HETATM   12  C   UNL     1      -8.667   7.323  68.032  1.00  0.00    -0.127 A  
HETATM   13  C   UNL     1      -8.397   7.566  66.676  1.00  0.00    -0.127 A  
HETATM   14  C   UNL     1      -7.876   8.790  66.237  1.00  0.00    -0.102 A  
HETATM   15  H   UNL     1      -7.931  10.384  70.372  1.00  0.00     0.000 HD 
HETATM   16  C   UNL     1      -7.668   9.774  67.215  1.00  0.00    -0.095 A  
HETATM   17  C   UNL     1      -7.932   9.529  68.567  1.00  0.00    -0.093 A  
HETATM   18  O   UNL     1      -7.751  10.551  69.453  1.00  0.00    -0.141 OA 
HETATM   19  C   UNL     1      -8.391   8.285  69.016  1.00  0.00    -0.120 A  
ENDROOT
BRANCH  14  20
HETATM   20  C   UNL     1      -7.541   9.080  64.762  1.00  0.00    -0.105 C  
HETATM   21  C   UNL     1      -6.023   9.154  64.475  1.00  0.00    -0.070 C  
HETATM   22  C   UNL     1      -8.094   7.922  63.893  1.00  0.00    -0.082 C  
BRANCH  20  23
HETATM   23  C   UNL     1      -8.216  10.407  64.286  1.00  0.00    -0.121 C  
BRANCH  23  24
HETATM   24  C   UNL     1      -9.615  10.238  63.681  1.00  0.00    -0.334 C  
BRANCH  24  25
HETATM   25  C   UNL     1     -10.368  11.568  63.605  1.00  0.00    -0.467 C  
BRANCH  25  26
HETATM   26  C   UNL     1     -10.232  12.337  64.921  1.00  0.00    -0.307 C  
BRANCH  26  27
HETATM   27  C   UNL     1     -11.361  12.008  65.893  1.00  0.00    -0.391 C  
HETATM   28  C   UNL     1     -10.829  11.287  67.122  1.00  0.00    -0.321 C  
ENDBRANCH  26  27
ENDBRANCH  25  26
ENDBRANCH  24  25
ENDBRANCH  23  24
ENDBRANCH  20  23
ENDBRANCH  14  20
TORSDOF 6
ENDMDL
MODEL      138
REMARK 921   NORMALIZED FREE ENERGY PREDICTED BY IDOCK:   -3.30 KCAL/MOL
REMARK 922        TOTAL FREE ENERGY PREDICTED BY IDOCK:   -6.47 KCAL/MOL
REMARK 923 INTER-LIGAND FREE ENERGY PREDICTED BY IDOCK:   -4.88 KCAL/MOL
REMARK 924 INTRA-LIGAND FREE ENERGY PREDICTED BY IDOCK:   -1.59 KCAL/MOL
REMARK 927      BINDING AFFINITY PREDICTED BY RF-SCORE:    0.00 PKD
ROOT
HETATM    1  C   UNL     1      -9.831   8.794  68.283  1.00  0.00    -0.185 C  
HETATM    2  C   UNL     1     -10.405   9.374  66.979  1.00  0.00    -0.322 C  
HETATM    3  C   UNL     1     -10.623  10.860  67.112  1.00  0.00    -0.255 C  
HETATM    4  C   UNL     1      -9.419  11.664  67.513  1.00  0.00    -0.173 C  
HETATM    5  O   UNL     1     -11.697  11.394  66.843  1.00  0.00    -0.507 OA 
HETATM    6  C   UNL     1      -8.874  11.117  68.823  1.00  0.00    -0.128 C  
HETATM    7  C   UNL     1      -8.586   9.609  68.735  1.00  0.00    -0.125 C  
HETATM    8  C   UNL     1      -8.018   8.983  70.036  1.00  0.00    -0.113 C  
HETATM    9  C   UNL     1      -9.010   8.898  71.210  1.00  0.00    -0.312 C  
HETATM   10  C   UNL     1      -6.782   9.755  70.532  1.00  0.00    -0.125 C  
HETATM   11  O   UNL     1      -7.539   7.655  69.742  1.00  0.00    -0.088 OA 
HETATM   12  C   UNL     1      -8.321   6.870  68.935  1.00  0.00    -0.121 A  
HETATM   13  C   UNL     1      -7.894   5.535  68.853  1.00  0.00    -0.095 A  
HETATM   14  C   UNL     1      -8.590   4.585  68.095  1.00  0.00    -0.110 A  
HETATM   15  H   UNL     1     -11.629   7.603  66.959  1.00  0.00     0.000 HD 
HETATM   16  C   UNL     1      -9.754   5.024  67.446  1.00  0.00    -0.183 A  
HETATM   17  C   UNL     1     -10.175   6.356  67.523  1.00  0.00    -0.170 A  
HETATM   18  O   UNL     1     -11.343   6.698  66.906  1.00  0.00    -0.333 OA 
HETATM   19  C   UNL     1      -9.446   7.322  68.227  1.00  0.00    -0.141 A  
ENDROOT
BRANCH  14  20
HETATM   20  C   UNL     1      -8.133   3.120  67.961  1.00  0.00    -0.083 C  
HETATM   21  C   UNL     1      -9.000   2.289  66.986  1.00  0.00    -0.155 C  
HETATM   22  C   UNL     1      -6.694   3.101  67.389  1.00  0.00    -0.045 C  
BRANCH  20  23
HETATM   23  C   UNL     1      -8.110   2.412  69.354  1.00  0.00    -0.061 C  
BRANCH  23  24
HETATM   24  C   UNL     1      -9.436   2.459  70.123  1.00  0.00    -0.144 C  
BRANCH  24  25
HETATM   25  C   UNL     1      -9.223   2.742  71.612  1.00  0.00    -0.181 C  
BRANCH  25  26
HETATM   26  C   UNL     1      -9.196   4.250  71.870  1.00  0.00    -0.173 C  
BRANCH  26  27
HETATM   27  C   UNL     1     -10.409   4.954  71.271  1.00  0.00    -0.219 C  
HETATM   28  C   UNL     1     -11.073   5.861  72.296  1.00  0.00    -0.330 C  
ENDBRANCH  26  27
ENDBRANCH  25  26
ENDBRANCH  24  25
ENDBRANCH  23  24
ENDBRANCH  20  23
ENDBRANCH  14  20
TORSDOF 6
ENDMDL
MODEL      139
REMARK 921   NORMALIZED FREE ENERGY PREDICTED BY IDOCK:   -3.29 KCAL/MOL
REMARK 922        TOTAL FREE ENERGY PREDICTED BY IDOCK:   -6.46 KCAL/MOL
REMARK 923 INTER-LIGAND FREE ENERGY PREDICTED BY IDOCK:   -5.31 KCAL/MOL
REMARK 924 INTRA-LIGAND FREE ENERGY PREDICTED BY IDOCK:   -1.14 KCAL/MOL
REMARK 927      BINDING AFFINITY PREDICTED BY RF-SCORE:    0.00 PKD
ROOT
HETATM    1  C   UNL     1     -10.888  12.139  69.093  1.00  0.00    -0.165 C  
HETATM    2  C   UNL     1     -12.001  12.451  70.108  1.00  0.00    -0.376 C  
HETATM    3  C   UNL     1     -12.281  13.932  70.147  1.00  0.00    -0.358 C  
HETATM    4  C   UNL     1     -12.630  14.567  68.832  1.00  0.00     0.279 C  
HETATM    5  O   UNL     1     -12.291  14.572  71.197  1.00  0.00    -0.304 OA 
HETATM    6  C   UNL     1     -11.512  14.294  67.838  1.00  0.00    -0.341 C  
HETATM    7  C   UNL     1     -11.212  12.789  67.718  1.00  0.00    -0.317 C  
HETATM    8  C   UNL     1     -10.085  12.435  66.713  1.00  0.00    -0.214 C  
HETATM    9  C   UNL     1      -8.667  12.857  67.142  1.00  0.00    -0.205 C  
HETATM   10  C   UNL     1     -10.354  13.058  65.331  1.00  0.00    -0.313 C  
HETATM   11  O   UNL     1     -10.092  11.010  66.491  1.00  0.00    -0.211 OA 
HETATM   12  C   UNL     1     -10.257  10.204  67.588  1.00  0.00    -0.203 A  
HETATM   13  C   UNL     1     -10.058   8.840  67.327  1.00  0.00    -0.301 A  
HETATM   14  C   UNL     1     -10.160   7.874  68.337  1.00  0.00    -0.218 A  
HETATM   15  H   UNL     1     -11.000  11.009  71.354  1.00  0.00     0.000 HD 
HETATM   16  C   UNL     1     -10.439   8.341  69.630  1.00  0.00    -0.221 A  
HETATM   17  C   UNL     1     -10.643   9.701  69.888  1.00  0.00    -0.249 A  
HETATM   18  O   UNL     1     -10.862  10.085  71.180  1.00  0.00    -0.260 OA 
HETATM   19  C   UNL     1     -10.606  10.660  68.870  1.00  0.00    -0.241 A  
ENDROOT
BRANCH  14  20
HETATM   20  C   UNL     1      -9.976   6.367  68.080  1.00  0.00    -0.144 C  
HETATM   21  C   UNL     1     -10.758   5.471  69.068  1.00  0.00    -0.231 C  
HETATM   22  C   UNL     1     -10.518   6.037  66.667  1.00  0.00    -0.291 C  
BRANCH  20  23
HETATM   23  C   UNL     1      -8.464   5.974  68.122  1.00  0.00    -0.115 C  
BRANCH  23  24
HETATM   24  C   UNL     1      -7.628   6.498  66.948  1.00  0.00    -0.095 C  
BRANCH  24  25
HETATM   25  C   UNL     1      -6.221   6.910  67.387  1.00  0.00    -0.037 C  
BRANCH  25  26
HETATM   26  C   UNL     1      -6.148   8.423  67.598  1.00  0.00    -0.052 C  
BRANCH  26  27
HETATM   27  C   UNL     1      -6.768   9.193  66.436  1.00  0.00    -0.071 C  
HETATM   28  C   UNL     1      -5.752   9.414  65.326  1.00  0.00    -0.057 C  
ENDBRANCH  26  27
ENDBRANCH  25  26
ENDBRANCH  24  25
ENDBRANCH  23  24
ENDBRANCH  20  23
ENDBRANCH  14  20
TORSDOF 6
ENDMDL
MODEL      140
REMARK 921   NORMALIZED FREE ENERGY PREDICTED BY IDOCK:   -3.27 KCAL/MOL
REMARK 922        TOTAL FREE ENERGY PREDICTED BY IDOCK:   -6.43 KCAL/MOL
REMARK 923 INTER-LIGAND FREE ENERGY PREDICTED BY IDOCK:   -4.55 KCAL/MOL
REMARK 924 INTRA-LIGAND FREE ENERGY PREDICTED BY IDOCK:   -1.88 KCAL/MOL
REMARK 927      BINDING AFFINITY PREDICTED BY RF-SCORE:    0.00 PKD
ROOT
HETATM    1  C   UNL     1      -9.083   6.849  71.434  1.00  0.00    -0.148 C  
HETATM    2  C   UNL     1      -8.025   5.733  71.363  1.00  0.00    -0.113 C  
HETATM    3  C   UNL     1      -8.359   4.627  72.331  1.00  0.00    -0.115 C  
HETATM    4  C   UNL     1      -9.722   4.015  72.181  1.00  0.00    -0.221 C  
HETATM    5  O   UNL     1      -7.545   4.200  73.149  1.00  0.00    -0.076 OA 
HETATM    6  C   UNL     1     -10.771   5.111  72.291  1.00  0.00    -0.266 C  
HETATM    7  C   UNL     1     -10.511   6.251  71.292  1.00  0.00    -0.264 C  
HETATM    8  C   UNL     1     -11.548   7.403  71.343  1.00  0.00    -0.275 C  
HETATM    9  C   UNL     1     -11.499   8.275  72.610  1.00  0.00    -0.423 C  
HETATM   10  C   UNL     1     -12.985   6.865  71.209  1.00  0.00    -0.309 C  
HETATM   11  O   UNL     1     -11.356   8.252  70.193  1.00  0.00    -0.192 OA 
HETATM   12  C   UNL     1     -10.065   8.559  69.848  1.00  0.00    -0.195 A  
HETATM   13  C   UNL     1      -9.961   9.540  68.850  1.00  0.00    -0.187 A  
HETATM   14  C   UNL     1      -8.718   9.997  68.393  1.00  0.00    -0.117 A  
HETATM   15  H   UNL     1      -6.608   7.351  71.254  1.00  0.00     0.000 HD 
HETATM   16  C   UNL     1      -7.580   9.450  69.006  1.00  0.00    -0.074 A  
HETATM   17  C   UNL     1      -7.685   8.467  69.997  1.00  0.00    -0.086 A  
HETATM   18  O   UNL     1      -6.537   8.018  70.581  1.00  0.00    -0.037 OA 
HETATM   19  C   UNL     1      -8.924   7.963  70.409  1.00  0.00    -0.147 A  
ENDROOT
BRANCH  14  20
HETATM   20  C   UNL     1      -8.567  11.050  67.280  1.00  0.00    -0.130 C  
HETATM   21  C   UNL     1      -9.667  10.965  66.195  1.00  0.00    -0.252 C  
HETATM   22  C   UNL     1      -8.687  12.459  67.913  1.00  0.00    -0.175 C  
BRANCH  20  23
HETATM   23  C   UNL     1      -7.166  10.944  66.596  1.00  0.00    -0.139 C  
BRANCH  23  24
HETATM   24  C   UNL     1      -7.152  10.175  65.270  1.00  0.00    -0.137 C  
BRANCH  24  25
HETATM   25  C   UNL     1      -6.756   8.710  65.463  1.00  0.00    -0.063 C  
BRANCH  25  26
HETATM   26  C   UNL     1      -7.850   7.785  64.924  1.00  0.00    -0.123 C  
BRANCH  26  27
HETATM   27  C   UNL     1      -8.826   7.358  66.015  1.00  0.00    -0.173 C  
HETATM   28  C   UNL     1      -8.135   6.489  67.055  1.00  0.00    -0.113 C  
ENDBRANCH  26  27
ENDBRANCH  25  26
ENDBRANCH  24  25
ENDBRANCH  23  24
ENDBRANCH  20  23
ENDBRANCH  14  20
TORSDOF 6
ENDMDL
MODEL      141
REMARK 921   NORMALIZED FREE ENERGY PREDICTED BY IDOCK:   -3.26 KCAL/MOL
REMARK 922        TOTAL FREE ENERGY PREDICTED BY IDOCK:   -6.42 KCAL/MOL
REMARK 923 INTER-LIGAND FREE ENERGY PREDICTED BY IDOCK:   -5.82 KCAL/MOL
REMARK 924 INTRA-LIGAND FREE ENERGY PREDICTED BY IDOCK:   -0.60 KCAL/MOL
REMARK 927      BINDING AFFINITY PREDICTED BY RF-SCORE:    0.00 PKD
ROOT
HETATM    1  C   UNL     1      -9.298  15.540  67.861  1.00  0.00    -0.192 C  
HETATM    2  C   UNL     1     -10.445  16.149  67.037  1.00  0.00    -0.306 C  
HETATM    3  C   UNL     1     -10.247  17.635  66.874  1.00  0.00    -0.334 C  
HETATM    4  C   UNL     1      -8.938  18.058  66.272  1.00  0.00    -0.194 C  
HETATM    5  O   UNL     1     -11.126  18.450  67.150  1.00  0.00    -0.203 OA 
HETATM    6  C   UNL     1      -7.802  17.489  67.108  1.00  0.00    -0.229 C  
HETATM    7  C   UNL     1      -7.924  15.964  67.272  1.00  0.00    -0.212 C  
HETATM    8  C   UNL     1      -6.792  15.313  68.109  1.00  0.00    -0.129 C  
HETATM    9  C   UNL     1      -6.813  15.646  69.612  1.00  0.00    -0.173 C  
HETATM   10  C   UNL     1      -5.404  15.704  67.569  1.00  0.00    -0.033 C  
HETATM   11  O   UNL     1      -6.866  13.881  67.955  1.00  0.00    -0.109 OA 
HETATM   12  C   UNL     1      -8.111  13.309  67.995  1.00  0.00    -0.157 A  
HETATM   13  C   UNL     1      -8.091  11.906  68.037  1.00  0.00    -0.151 A  
HETATM   14  C   UNL     1      -9.271  11.154  68.108  1.00  0.00    -0.166 A  
HETATM   15  H   UNL     1     -11.711  14.852  68.201  1.00  0.00     0.000 HD 
HETATM   16  C   UNL     1     -10.474  11.873  68.168  1.00  0.00    -0.225 A  
HETATM   17  C   UNL     1     -10.493  13.272  68.120  1.00  0.00    -0.245 A  
HETATM   18  O   UNL     1     -11.698  13.903  68.233  1.00  0.00    -0.320 OA 
HETATM   19  C   UNL     1      -9.320  14.022  67.984  1.00  0.00    -0.205 A  
ENDROOT
BRANCH  14  20
HETATM   20  C   UNL     1      -9.286   9.615  68.127  1.00  0.00    -0.140 C  
HETATM   21  C   UNL     1     -10.468   8.998  67.341  1.00  0.00    -0.338 C  
HETATM   22  C   UNL     1      -7.994   9.099  67.447  1.00  0.00    -0.103 C  
BRANCH  20  23
HETATM   23  C   UNL     1      -9.311   9.074  69.593  1.00  0.00    -0.169 C  
BRANCH  23  24
HETATM   24  C   UNL     1     -10.573   8.290  69.970  1.00  0.00    -0.235 C  
BRANCH  24  25
HETATM   25  C   UNL     1     -10.264   6.825  70.284  1.00  0.00    -0.216 C  
BRANCH  25  26
HETATM   26  C   UNL     1     -11.532   6.093  70.727  1.00  0.00    -0.321 C  
BRANCH  26  27
HETATM   27  C   UNL     1     -11.850   6.341  72.199  1.00  0.00    -0.365 C  
HETATM   28  C   UNL     1     -11.494   5.127  73.044  1.00  0.00    -0.349 C  
ENDBRANCH  26  27
ENDBRANCH  25  26
ENDBRANCH  24  25
ENDBRANCH  23  24
ENDBRANCH  20  23
ENDBRANCH  14  20
TORSDOF 6
ENDMDL
MODEL      142
REMARK 921   NORMALIZED FREE ENERGY PREDICTED BY IDOCK:   -3.22 KCAL/MOL
REMARK 922        TOTAL FREE ENERGY PREDICTED BY IDOCK:   -6.36 KCAL/MOL
REMARK 923 INTER-LIGAND FREE ENERGY PREDICTED BY IDOCK:   -5.15 KCAL/MOL
REMARK 924 INTRA-LIGAND FREE ENERGY PREDICTED BY IDOCK:   -1.21 KCAL/MOL
REMARK 927      BINDING AFFINITY PREDICTED BY RF-SCORE:    0.00 PKD
ROOT
HETATM    1  C   UNL     1      -9.716   6.279  70.940  1.00  0.00    -0.197 C  
HETATM    2  C   UNL     1      -9.490   4.763  70.816  1.00  0.00    -0.228 C  
HETATM    3  C   UNL     1      -9.938   4.057  72.071  1.00  0.00    -0.176 C  
HETATM    4  C   UNL     1     -11.360   4.304  72.487  1.00  0.00     0.288 C  
HETATM    5  O   UNL     1      -9.212   3.273  72.680  1.00  0.00    -0.090 OA 
HETATM    6  C   UNL     1     -11.575   5.800  72.649  1.00  0.00    -0.304 C  
HETATM    7  C   UNL     1     -11.178   6.574  71.380  1.00  0.00    -0.331 C  
HETATM    8  C   UNL     1     -11.379   8.109  71.471  1.00  0.00    -0.263 C  
HETATM    9  C   UNL     1     -10.416   8.842  72.423  1.00  0.00    -0.220 C  
HETATM   10  C   UNL     1     -12.813   8.459  71.907  1.00  0.00    -0.384 C  
HETATM   11  O   UNL     1     -11.239   8.674  70.151  1.00  0.00    -0.237 OA 
HETATM   12  C   UNL     1     -10.215   8.201  69.371  1.00  0.00    -0.211 A  
HETATM   13  C   UNL     1     -10.019   8.929  68.187  1.00  0.00    -0.208 A  
HETATM   14  C   UNL     1      -9.001   8.603  67.282  1.00  0.00    -0.145 A  
HETATM   15  H   UNL     1      -7.616   5.313  69.909  1.00  0.00     0.000 HD 
HETATM   16  C   UNL     1      -8.164   7.533  67.633  1.00  0.00    -0.118 A  
HETATM   17  C   UNL     1      -8.364   6.804  68.811  1.00  0.00    -0.121 A  
HETATM   18  O   UNL     1      -7.480   5.808  69.109  1.00  0.00    -0.080 OA 
HETATM   19  C   UNL     1      -9.421   7.086  69.684  1.00  0.00    -0.147 A  
ENDROOT
BRANCH  14  20
HETATM   20  C   UNL     1      -8.776   9.362  65.962  1.00  0.00    -0.171 C  
HETATM   21  C   UNL     1      -8.193   8.480  64.832  1.00  0.00    -0.166 C  
HETATM   22  C   UNL     1     -10.143   9.880  65.450  1.00  0.00    -0.270 C  
BRANCH  20  23
HETATM   23  C   UNL     1      -7.841  10.596  66.178  1.00  0.00    -0.152 C  
BRANCH  23  24
HETATM   24  C   UNL     1      -8.561  11.949  66.229  1.00  0.00    -0.016 C  
BRANCH  24  25
HETATM   25  C   UNL     1      -8.758  12.438  67.665  1.00  0.00    -0.178 C  
BRANCH  25  26
HETATM   26  C   UNL     1      -9.995  13.333  67.760  1.00  0.00    -0.223 C  
BRANCH  26  27
HETATM   27  C   UNL     1     -11.270  12.590  67.372  1.00  0.00    -0.344 C  
HETATM   28  C   UNL     1     -12.086  13.393  66.370  1.00  0.00    -0.464 C  
ENDBRANCH  26  27
ENDBRANCH  25  26
ENDBRANCH  24  25
ENDBRANCH  23  24
ENDBRANCH  20  23
ENDBRANCH  14  20
TORSDOF 6
ENDMDL
MODEL      143
REMARK 921   NORMALIZED FREE ENERGY PREDICTED BY IDOCK:   -3.22 KCAL/MOL
REMARK 922        TOTAL FREE ENERGY PREDICTED BY IDOCK:   -6.36 KCAL/MOL
REMARK 923 INTER-LIGAND FREE ENERGY PREDICTED BY IDOCK:   -5.41 KCAL/MOL
REMARK 924 INTRA-LIGAND FREE ENERGY PREDICTED BY IDOCK:   -0.95 KCAL/MOL
REMARK 927      BINDING AFFINITY PREDICTED BY RF-SCORE:    0.00 PKD
ROOT
HETATM    1  C   UNL     1      -8.588   6.020  65.488  1.00  0.00    -0.145 C  
HETATM    2  C   UNL     1      -8.914   4.767  66.320  1.00  0.00    -0.119 C  
HETATM    3  C   UNL     1      -8.285   3.544  65.702  1.00  0.00    -0.097 C  
HETATM    4  C   UNL     1      -6.801   3.611  65.485  1.00  0.00    -0.053 C  
HETATM    5  O   UNL     1      -8.930   2.527  65.454  1.00  0.00    -0.126 OA 
HETATM    6  C   UNL     1      -6.480   4.826  64.629  1.00  0.00    -0.039 C  
HETATM    7  C   UNL     1      -7.057   6.118  65.234  1.00  0.00    -0.064 C  
HETATM    8  C   UNL     1      -6.762   7.402  64.416  1.00  0.00    -0.047 C  
HETATM    9  C   UNL     1      -7.498   7.505  63.068  1.00  0.00    -0.107 C  
HETATM   10  C   UNL     1      -5.256   7.548  64.133  1.00  0.00    -0.029 C  
HETATM   11  O   UNL     1      -7.107   8.552  65.216  1.00  0.00    -0.079 OA 
HETATM   12  C   UNL     1      -8.278   8.493  65.928  1.00  0.00    -0.125 A  
HETATM   13  C   UNL     1      -8.644   9.711  66.521  1.00  0.00    -0.135 A  
HETATM   14  C   UNL     1      -9.825   9.843  67.263  1.00  0.00    -0.228 A  
HETATM   15  H   UNL     1     -10.888   5.615  66.465  1.00  0.00     0.000 HD 
HETATM   16  C   UNL     1     -10.641   8.705  67.358  1.00  0.00    -0.298 A  
HETATM   17  C   UNL     1     -10.271   7.490  66.771  1.00  0.00    -0.254 A  
HETATM   18  O   UNL     1     -11.139   6.440  66.864  1.00  0.00    -0.384 OA 
HETATM   19  C   UNL     1      -9.061   7.338  66.084  1.00  0.00    -0.160 A  
ENDROOT
BRANCH  14  20
HETATM   20  C   UNL     1     -10.243  11.155  67.950  1.00  0.00    -0.202 C  
HETATM   21  C   UNL     1     -10.661  10.974  69.429  1.00  0.00    -0.247 C  
HETATM   22  C   UNL     1      -9.030  12.119  67.955  1.00  0.00    -0.189 C  
BRANCH  20  23
HETATM   23  C   UNL     1     -11.408  11.848  67.172  1.00  0.00    -0.393 C  
BRANCH  23  24
HETATM   24  C   UNL     1     -11.177  11.997  65.664  1.00  0.00    -0.377 C  
BRANCH  24  25
HETATM   25  C   UNL     1     -11.810  13.276  65.112  1.00  0.00    -0.377 C  
BRANCH  25  26
HETATM   26  C   UNL     1     -10.728  14.281  64.716  1.00  0.00    -0.435 C  
BRANCH  26  27
HETATM   27  C   UNL     1     -10.619  15.428  65.717  1.00  0.00    -0.361 C  
HETATM   28  C   UNL     1      -9.277  15.400  66.433  1.00  0.00    -0.339 C  
ENDBRANCH  26  27
ENDBRANCH  25  26
ENDBRANCH  24  25
ENDBRANCH  23  24
ENDBRANCH  20  23
ENDBRANCH  14  20
TORSDOF 6
ENDMDL
MODEL      144
REMARK 921   NORMALIZED FREE ENERGY PREDICTED BY IDOCK:   -3.21 KCAL/MOL
REMARK 922        TOTAL FREE ENERGY PREDICTED BY IDOCK:   -6.36 KCAL/MOL
REMARK 923 INTER-LIGAND FREE ENERGY PREDICTED BY IDOCK:   -5.78 KCAL/MOL
REMARK 924 INTRA-LIGAND FREE ENERGY PREDICTED BY IDOCK:   -0.57 KCAL/MOL
REMARK 927      BINDING AFFINITY PREDICTED BY RF-SCORE:    0.00 PKD
ROOT
HETATM    1  C   UNL     1      -9.667  13.045  66.988  1.00  0.00    -0.235 C  
HETATM    2  C   UNL     1      -9.473  13.295  68.494  1.00  0.00    -0.113 C  
HETATM    3  C   UNL     1     -10.333  14.445  68.953  1.00  0.00    -0.231 C  
HETATM    4  C   UNL     1     -11.802  14.318  68.666  1.00  0.00    -0.379 C  
HETATM    5  O   UNL     1      -9.877  15.397  69.584  1.00  0.00    -0.264 OA 
HETATM    6  C   UNL     1     -11.998  14.110  67.173  1.00  0.00    -0.460 C  
HETATM    7  C   UNL     1     -11.179  12.917  66.651  1.00  0.00    -0.342 C  
HETATM    8  C   UNL     1     -11.337  12.640  65.133  1.00  0.00    -0.308 C  
HETATM    9  C   UNL     1     -10.708  13.695  64.205  1.00  0.00    -0.280 C  
HETATM   10  C   UNL     1     -12.820  12.507  64.743  1.00  0.00    -0.287 C  
HETATM   11  O   UNL     1     -10.753  11.356  64.832  1.00  0.00    -0.295 OA 
HETATM   12  C   UNL     1      -9.551  11.060  65.422  1.00  0.00    -0.225 A  
HETATM   13  C   UNL     1      -8.951   9.889  64.933  1.00  0.00    -0.246 A  
HETATM   14  C   UNL     1      -7.707   9.447  65.403  1.00  0.00    -0.103 A  
HETATM   15  H   UNL     1      -7.386  12.962  68.082  1.00  0.00     0.000 HD 
HETATM   16  C   UNL     1      -7.074  10.251  66.362  1.00  0.00    -0.112 A  
HETATM   17  C   UNL     1      -7.675  11.415  66.853  1.00  0.00    -0.155 A  
HETATM   18  O   UNL     1      -6.977  12.171  67.749  1.00  0.00    -0.089 OA 
HETATM   19  C   UNL     1      -8.947  11.823  66.434  1.00  0.00    -0.201 A  
ENDROOT
BRANCH  14  20
HETATM   20  C   UNL     1      -7.035   8.153  64.910  1.00  0.00    -0.074 C  
HETATM   21  C   UNL     1      -7.773   7.484  63.727  1.00  0.00    -0.126 C  
HETATM   22  C   UNL     1      -5.614   8.498  64.398  1.00  0.00    -0.063 C  
BRANCH  20  23
HETATM   23  C   UNL     1      -6.893   7.119  66.073  1.00  0.00    -0.057 C  
BRANCH  23  24
HETATM   24  C   UNL     1      -8.006   7.174  67.125  1.00  0.00    -0.110 C  
BRANCH  24  25
HETATM   25  C   UNL     1      -8.441   5.776  67.571  1.00  0.00    -0.103 C  
BRANCH  25  26
HETATM   26  C   UNL     1      -9.182   5.847  68.908  1.00  0.00    -0.126 C  
BRANCH  26  27
HETATM   27  C   UNL     1     -10.696   5.782  68.726  1.00  0.00    -0.318 C  
HETATM   28  C   UNL     1     -11.415   6.351  69.940  1.00  0.00    -0.483 C  
ENDBRANCH  26  27
ENDBRANCH  25  26
ENDBRANCH  24  25
ENDBRANCH  23  24
ENDBRANCH  20  23
ENDBRANCH  14  20
TORSDOF 6
ENDMDL
MODEL      145
REMARK 921   NORMALIZED FREE ENERGY PREDICTED BY IDOCK:   -3.20 KCAL/MOL
REMARK 922        TOTAL FREE ENERGY PREDICTED BY IDOCK:   -6.34 KCAL/MOL
REMARK 923 INTER-LIGAND FREE ENERGY PREDICTED BY IDOCK:   -5.64 KCAL/MOL
REMARK 924 INTRA-LIGAND FREE ENERGY PREDICTED BY IDOCK:   -0.70 KCAL/MOL
REMARK 927      BINDING AFFINITY PREDICTED BY RF-SCORE:    0.00 PKD
ROOT
HETATM    1  C   UNL     1      -9.347   9.659  68.478  1.00  0.00    -0.138 C  
HETATM    2  C   UNL     1      -8.820   9.152  67.125  1.00  0.00    -0.130 C  
HETATM    3  C   UNL     1      -8.489   7.683  67.203  1.00  0.00    -0.121 C  
HETATM    4  C   UNL     1      -9.603   6.785  67.658  1.00  0.00    -0.139 C  
HETATM    5  O   UNL     1      -7.399   7.234  66.851  1.00  0.00    -0.087 OA 
HETATM    6  C   UNL     1     -10.099   7.261  69.015  1.00  0.00    -0.186 C  
HETATM    7  C   UNL     1     -10.498   8.746  68.987  1.00  0.00    -0.220 C  
HETATM    8  C   UNL     1     -11.022   9.299  70.338  1.00  0.00    -0.255 C  
HETATM    9  C   UNL     1      -9.963   9.430  71.448  1.00  0.00    -0.230 C  
HETATM   10  C   UNL     1     -12.165   8.429  70.891  1.00  0.00    -0.106 C  
HETATM   11  O   UNL     1     -11.612  10.596  70.112  1.00  0.00    -0.276 OA 
HETATM   12  C   UNL     1     -10.942  11.453  69.278  1.00  0.00    -0.229 A  
HETATM   13  C   UNL     1     -11.467  12.755  69.261  1.00  0.00    -0.349 A  
HETATM   14  C   UNL     1     -10.892  13.771  68.485  1.00  0.00    -0.280 A  
HETATM   15  H   UNL     1      -7.728  11.007  67.075  1.00  0.00     0.000 HD 
HETATM   16  C   UNL     1      -9.745  13.432  67.752  1.00  0.00    -0.216 A  
HETATM   17  C   UNL     1      -9.226  12.132  67.765  1.00  0.00    -0.189 A  
HETATM   18  O   UNL     1      -8.080  11.890  67.066  1.00  0.00    -0.161 OA 
HETATM   19  C   UNL     1      -9.837  11.100  68.487  1.00  0.00    -0.199 A  
ENDROOT
BRANCH  14  20
HETATM   20  C   UNL     1     -11.458  15.201  68.421  1.00  0.00    -0.347 C  
HETATM   21  C   UNL     1     -12.450  15.525  69.563  1.00  0.00    -0.081 C  
HETATM   22  C   UNL     1     -10.286  16.204  68.563  1.00  0.00    -0.254 C  
BRANCH  20  23
HETATM   23  C   UNL     1     -12.157  15.464  67.048  1.00  0.00     0.536 C  
BRANCH  23  24
HETATM   24  C   UNL     1     -12.500  14.203  66.247  1.00  0.00    -0.395 C  
BRANCH  24  25
HETATM   25  C   UNL     1     -12.461  14.456  64.738  1.00  0.00    -0.371 C  
BRANCH  25  26
HETATM   26  C   UNL     1     -11.107  14.041  64.160  1.00  0.00    -0.062 C  
BRANCH  26  27
HETATM   27  C   UNL     1     -11.077  12.564  63.779  1.00  0.00    -0.503 C  
HETATM   28  C   UNL     1     -12.484  12.029  63.562  1.00  0.00    -0.654 C  
ENDBRANCH  26  27
ENDBRANCH  25  26
ENDBRANCH  24  25
ENDBRANCH  23  24
ENDBRANCH  20  23
ENDBRANCH  14  20
TORSDOF 6
ENDMDL
MODEL      146
REMARK 921   NORMALIZED FREE ENERGY PREDICTED BY IDOCK:   -3.20 KCAL/MOL
REMARK 922        TOTAL FREE ENERGY PREDICTED BY IDOCK:   -6.34 KCAL/MOL
REMARK 923 INTER-LIGAND FREE ENERGY PREDICTED BY IDOCK:   -5.19 KCAL/MOL
REMARK 924 INTRA-LIGAND FREE ENERGY PREDICTED BY IDOCK:   -1.15 KCAL/MOL
REMARK 927      BINDING AFFINITY PREDICTED BY RF-SCORE:    0.00 PKD
ROOT
HETATM    1  C   UNL     1     -12.263  12.532  70.003  1.00  0.00    -0.262 C  
HETATM    2  C   UNL     1     -12.068  14.034  70.276  1.00  0.00    -0.425 C  
HETATM    3  C   UNL     1     -13.148  14.548  71.195  1.00  0.00    -0.359 C  
HETATM    4  C   UNL     1     -13.288  13.829  72.506  1.00  0.00    -0.656 C  
HETATM    5  O   UNL     1     -13.828  15.536  70.923  1.00  0.00    -0.512 OA 
HETATM    6  C   UNL     1     -13.520  12.350  72.237  1.00  0.00    -0.428 C  
HETATM    7  C   UNL     1     -12.421  11.755  71.340  1.00  0.00    -0.281 C  
HETATM    8  C   UNL     1     -12.589  10.245  71.029  1.00  0.00    -0.390 C  
HETATM    9  C   UNL     1     -13.770   9.892  70.106  1.00  0.00     1.010 C  
HETATM   10  C   UNL     1     -12.754   9.425  72.322  1.00  0.00    -0.416 C  
HETATM   11  O   UNL     1     -11.373   9.756  70.427  1.00  0.00    -0.262 OA 
HETATM   12  C   UNL     1     -10.780  10.550  69.478  1.00  0.00    -0.255 A  
HETATM   13  C   UNL     1      -9.721   9.928  68.799  1.00  0.00    -0.164 A  
HETATM   14  C   UNL     1      -9.016  10.580  67.779  1.00  0.00    -0.132 A  
HETATM   15  H   UNL     1     -11.602  14.157  68.178  1.00  0.00     0.000 HD 
HETATM   16  C   UNL     1      -9.444  11.874  67.446  1.00  0.00    -0.175 A  
HETATM   17  C   UNL     1     -10.496  12.495  68.127  1.00  0.00    -0.229 A  
HETATM   18  O   UNL     1     -10.887  13.736  67.715  1.00  0.00    -0.245 OA 
HETATM   19  C   UNL     1     -11.158  11.870  69.190  1.00  0.00    -0.285 A  
ENDROOT
BRANCH  14  20
HETATM   20  C   UNL     1      -7.832   9.939  67.034  1.00  0.00    -0.102 C  
HETATM   21  C   UNL     1      -8.077   9.764  65.517  1.00  0.00    -0.125 C  
HETATM   22  C   UNL     1      -6.599  10.868  67.172  1.00  0.00    -0.083 C  
BRANCH  20  23
HETATM   23  C   UNL     1      -7.465   8.553  67.655  1.00  0.00    -0.094 C  
BRANCH  23  24
HETATM   24  C   UNL     1      -5.972   8.347  67.937  1.00  0.00    -0.047 C  
BRANCH  24  25
HETATM   25  C   UNL     1      -5.721   7.872  69.370  1.00  0.00    -0.027 C  
BRANCH  25  26
HETATM   26  C   UNL     1      -6.103   8.966  70.370  1.00  0.00    -0.035 C  
BRANCH  26  27
HETATM   27  C   UNL     1      -6.365   8.400  71.762  1.00  0.00    -0.061 C  
HETATM   28  C   UNL     1      -7.851   8.158  71.980  1.00  0.00    -0.150 C  
ENDBRANCH  26  27
ENDBRANCH  25  26
ENDBRANCH  24  25
ENDBRANCH  23  24
ENDBRANCH  20  23
ENDBRANCH  14  20
TORSDOF 6
ENDMDL
MODEL      147
REMARK 921   NORMALIZED FREE ENERGY PREDICTED BY IDOCK:   -3.18 KCAL/MOL
REMARK 922        TOTAL FREE ENERGY PREDICTED BY IDOCK:   -6.31 KCAL/MOL
REMARK 923 INTER-LIGAND FREE ENERGY PREDICTED BY IDOCK:   -5.52 KCAL/MOL
REMARK 924 INTRA-LIGAND FREE ENERGY PREDICTED BY IDOCK:   -0.79 KCAL/MOL
REMARK 927      BINDING AFFINITY PREDICTED BY RF-SCORE:    0.00 PKD
ROOT
HETATM    1  C   UNL     1      -8.154  17.732  67.321  1.00  0.00    -0.223 C  
HETATM    2  C   UNL     1      -6.750  17.850  67.939  1.00  0.00    -0.193 C  
HETATM    3  C   UNL     1      -6.247  19.268  67.841  1.00  0.00    -0.207 C  
HETATM    4  C   UNL     1      -7.133  20.319  68.444  1.00  0.00    -0.232 C  
HETATM    5  O   UNL     1      -5.149  19.545  67.361  1.00  0.00    -0.160 OA 
HETATM    6  C   UNL     1      -8.511  20.230  67.806  1.00  0.00    -0.266 C  
HETATM    7  C   UNL     1      -9.099  18.813  67.916  1.00  0.00    -0.318 C  
HETATM    8  C   UNL     1     -10.510  18.650  67.292  1.00  0.00    -0.423 C  
HETATM    9  C   UNL     1     -10.561  18.735  65.756  1.00  0.00    -0.321 C  
HETATM   10  C   UNL     1     -11.489  19.701  67.845  1.00  0.00     0.912 C  
HETATM   11  O   UNL     1     -11.054  17.378  67.700  1.00  0.00    -0.214 OA 
HETATM   12  C   UNL     1     -10.209  16.298  67.680  1.00  0.00    -0.272 A  
HETATM   13  C   UNL     1     -10.851  15.069  67.897  1.00  0.00    -0.280 A  
HETATM   14  C   UNL     1     -10.147  13.858  67.885  1.00  0.00    -0.242 A  
HETATM   15  H   UNL     1      -6.369  15.976  66.949  1.00  0.00     0.000 HD 
HETATM   16  C   UNL     1      -8.773  13.930  67.611  1.00  0.00    -0.187 A  
HETATM   17  C   UNL     1      -8.133  15.156  67.401  1.00  0.00    -0.186 A  
HETATM   18  O   UNL     1      -6.803  15.143  67.092  1.00  0.00    -0.259 OA 
HETATM   19  C   UNL     1      -8.822  16.373  67.477  1.00  0.00    -0.187 A  
ENDROOT
BRANCH  14  20
HETATM   20  C   UNL     1     -10.815  12.496  68.147  1.00  0.00    -0.248 C  
HETATM   21  C   UNL     1     -11.672  12.465  69.435  1.00  0.00    -0.384 C  
HETATM   22  C   UNL     1     -11.778  12.183  66.974  1.00  0.00    -0.373 C  
BRANCH  20  23
HETATM   23  C   UNL     1      -9.749  11.355  68.215  1.00  0.00    -0.202 C  
BRANCH  23  24
HETATM   24  C   UNL     1      -9.858  10.444  69.443  1.00  0.00    -0.235 C  
BRANCH  24  25
HETATM   25  C   UNL     1      -9.267   9.057  69.180  1.00  0.00    -0.144 C  
BRANCH  25  26
HETATM   26  C   UNL     1     -10.340   8.112  68.637  1.00  0.00    -0.224 C  
BRANCH  26  27
HETATM   27  C   UNL     1      -9.829   7.280  67.465  1.00  0.00    -0.198 C  
HETATM   28  C   UNL     1      -9.177   8.164  66.412  1.00  0.00    -0.250 C  
ENDBRANCH  26  27
ENDBRANCH  25  26
ENDBRANCH  24  25
ENDBRANCH  23  24
ENDBRANCH  20  23
ENDBRANCH  14  20
TORSDOF 6
ENDMDL
MODEL      148
REMARK 921   NORMALIZED FREE ENERGY PREDICTED BY IDOCK:   -3.17 KCAL/MOL
REMARK 922        TOTAL FREE ENERGY PREDICTED BY IDOCK:   -6.30 KCAL/MOL
REMARK 923 INTER-LIGAND FREE ENERGY PREDICTED BY IDOCK:   -4.84 KCAL/MOL
REMARK 924 INTRA-LIGAND FREE ENERGY PREDICTED BY IDOCK:   -1.46 KCAL/MOL
REMARK 927      BINDING AFFINITY PREDICTED BY RF-SCORE:    0.00 PKD
ROOT
HETATM    1  C   UNL     1      -9.520   7.005  71.768  1.00  0.00    -0.157 C  
HETATM    2  C   UNL     1     -10.912   6.444  72.112  1.00  0.00    -0.288 C  
HETATM    3  C   UNL     1     -10.832   5.531  73.309  1.00  0.00    -0.293 C  
HETATM    4  C   UNL     1     -10.228   6.127  74.548  1.00  0.00    -0.318 C  
HETATM    5  O   UNL     1     -11.294   4.391  73.298  1.00  0.00    -0.279 OA 
HETATM    6  C   UNL     1      -8.837   6.646  74.220  1.00  0.00    -0.180 C  
HETATM    7  C   UNL     1      -8.859   7.623  73.032  1.00  0.00    -0.220 C  
HETATM    8  C   UNL     1      -7.472   8.200  72.645  1.00  0.00    -0.121 C  
HETATM    9  C   UNL     1      -6.494   7.191  72.015  1.00  0.00    -0.044 C  
HETATM   10  C   UNL     1      -6.769   8.824  73.864  1.00  0.00    -0.006 C  
HETATM   11  O   UNL     1      -7.664   9.291  71.722  1.00  0.00    -0.320 OA 
HETATM   12  C   UNL     1      -8.592   9.116  70.728  1.00  0.00    -0.219 A  
HETATM   13  C   UNL     1      -8.583  10.131  69.758  1.00  0.00    -0.148 A  
HETATM   14  C   UNL     1      -9.447  10.102  68.654  1.00  0.00    -0.164 A  
HETATM   15  H   UNL     1     -11.136   6.226  69.982  1.00  0.00     0.000 HD 
HETATM   16  C   UNL     1     -10.297   8.991  68.548  1.00  0.00    -0.233 A  
HETATM   17  C   UNL     1     -10.308   7.983  69.519  1.00  0.00    -0.221 A  
HETATM   18  O   UNL     1     -11.128   6.910  69.322  1.00  0.00    -0.233 OA 
HETATM   19  C   UNL     1      -9.494   8.043  70.655  1.00  0.00    -0.167 A  
ENDROOT
BRANCH  14  20
HETATM   20  C   UNL     1      -9.484  11.212  67.588  1.00  0.00    -0.173 C  
HETATM   21  C   UNL     1     -10.120  10.764  66.251  1.00  0.00    -0.285 C  
HETATM   22  C   UNL     1     -10.356  12.377  68.118  1.00  0.00    -0.231 C  
BRANCH  20  23
HETATM   23  C   UNL     1      -8.050  11.768  67.310  1.00  0.00    -0.164 C  
BRANCH  23  24
HETATM   24  C   UNL     1      -7.182  10.889  66.401  1.00  0.00    -0.140 C  
BRANCH  24  25
HETATM   25  C   UNL     1      -5.985  10.300  67.150  1.00  0.00    -0.050 C  
BRANCH  25  26
HETATM   26  C   UNL     1      -6.164   8.793  67.343  1.00  0.00    -0.056 C  
BRANCH  26  27
HETATM   27  C   UNL     1      -7.291   8.236  66.478  1.00  0.00    -0.081 C  
HETATM   28  C   UNL     1      -6.757   7.741  65.142  1.00  0.00    -0.051 C  
ENDBRANCH  26  27
ENDBRANCH  25  26
ENDBRANCH  24  25
ENDBRANCH  23  24
ENDBRANCH  20  23
ENDBRANCH  14  20
TORSDOF 6
ENDMDL
MODEL      149
REMARK 921   NORMALIZED FREE ENERGY PREDICTED BY IDOCK:   -3.15 KCAL/MOL
REMARK 922        TOTAL FREE ENERGY PREDICTED BY IDOCK:   -6.26 KCAL/MOL
REMARK 923 INTER-LIGAND FREE ENERGY PREDICTED BY IDOCK:   -4.99 KCAL/MOL
REMARK 924 INTRA-LIGAND FREE ENERGY PREDICTED BY IDOCK:   -1.28 KCAL/MOL
REMARK 927      BINDING AFFINITY PREDICTED BY RF-SCORE:    0.00 PKD
ROOT
HETATM    1  C   UNL     1     -11.555  14.305  68.837  1.00  0.00    -0.340 C  
HETATM    2  C   UNL     1     -10.613  15.209  68.023  1.00  0.00    -0.258 C  
HETATM    3  C   UNL     1     -10.847  16.659  68.364  1.00  0.00    -0.361 C  
HETATM    4  C   UNL     1     -10.728  17.016  69.818  1.00  0.00     0.031 C  
HETATM    5  O   UNL     1     -11.054  17.512  67.503  1.00  0.00    -0.181 OA 
HETATM    6  C   UNL     1     -11.687  16.151  70.620  1.00  0.00    -0.300 C  
HETATM    7  C   UNL     1     -11.465  14.653  70.350  1.00  0.00    -0.283 C  
HETATM    8  C   UNL     1     -12.405  13.708  71.143  1.00  0.00    -0.318 C  
HETATM    9  C   UNL     1     -13.883  13.740  70.711  1.00  0.00     0.569 C  
HETATM   10  C   UNL     1     -12.358  14.011  72.651  1.00  0.00     0.027 C  
HETATM   11  O   UNL     1     -11.919  12.355  71.016  1.00  0.00    -0.088 OA 
HETATM   12  C   UNL     1     -11.495  11.955  69.775  1.00  0.00    -0.229 A  
HETATM   13  C   UNL     1     -11.225  10.580  69.683  1.00  0.00    -0.342 A  
HETATM   14  C   UNL     1     -10.806   9.991  68.483  1.00  0.00    -0.270 A  
HETATM   15  H   UNL     1     -11.074  13.886  66.388  1.00  0.00     0.000 HD 
HETATM   16  C   UNL     1     -10.703  10.835  67.368  1.00  0.00    -0.317 A  
HETATM   17  C   UNL     1     -10.968  12.206  67.462  1.00  0.00    -0.257 A  
HETATM   18  O   UNL     1     -10.894  12.955  66.323  1.00  0.00    -0.271 OA 
HETATM   19  C   UNL     1     -11.323  12.809  68.674  1.00  0.00    -0.333 A  
ENDROOT
BRANCH  14  20
HETATM   20  C   UNL     1     -10.474   8.493  68.355  1.00  0.00    -0.215 C  
HETATM   21  C   UNL     1     -11.353   7.585  69.246  1.00  0.00     0.253 C  
HETATM   22  C   UNL     1     -10.734   8.052  66.892  1.00  0.00    -0.201 C  
BRANCH  20  23
HETATM   23  C   UNL     1      -8.969   8.225  68.680  1.00  0.00    -0.137 C  
BRANCH  23  24
HETATM   24  C   UNL     1      -8.709   7.584  70.049  1.00  0.00    -0.140 C  
BRANCH  24  25
HETATM   25  C   UNL     1      -8.297   8.621  71.096  1.00  0.00    -0.201 C  
BRANCH  25  26
HETATM   26  C   UNL     1      -9.356   8.720  72.196  1.00  0.00    -0.277 C  
BRANCH  26  27
HETATM   27  C   UNL     1      -9.558   7.391  72.917  1.00  0.00    -0.224 C  
HETATM   28  C   UNL     1     -11.016   7.199  73.307  1.00  0.00    -0.325 C  
ENDBRANCH  26  27
ENDBRANCH  25  26
ENDBRANCH  24  25
ENDBRANCH  23  24
ENDBRANCH  20  23
ENDBRANCH  14  20
TORSDOF 6
ENDMDL
MODEL      150
REMARK 921   NORMALIZED FREE ENERGY PREDICTED BY IDOCK:   -3.14 KCAL/MOL
REMARK 922        TOTAL FREE ENERGY PREDICTED BY IDOCK:   -6.25 KCAL/MOL
REMARK 923 INTER-LIGAND FREE ENERGY PREDICTED BY IDOCK:   -4.53 KCAL/MOL
REMARK 924 INTRA-LIGAND FREE ENERGY PREDICTED BY IDOCK:   -1.72 KCAL/MOL
REMARK 927      BINDING AFFINITY PREDICTED BY RF-SCORE:    0.00 PKD
ROOT
HETATM    1  C   UNL     1      -9.248   8.630  67.607  1.00  0.00    -0.148 C  
HETATM    2  C   UNL     1      -9.899   8.631  66.213  1.00  0.00    -0.320 C  
HETATM    3  C   UNL     1      -9.728   9.975  65.551  1.00  0.00    -0.289 C  
HETATM    4  C   UNL     1      -8.315  10.468  65.428  1.00  0.00    -0.165 C  
HETATM    5  O   UNL     1     -10.675  10.600  65.077  1.00  0.00    -0.203 OA 
HETATM    6  C   UNL     1      -7.682  10.506  66.810  1.00  0.00    -0.118 C  
HETATM    7  C   UNL     1      -7.784   9.145  67.520  1.00  0.00    -0.092 C  
HETATM    8  C   UNL     1      -7.150   9.107  68.936  1.00  0.00    -0.068 C  
HETATM    9  C   UNL     1      -7.899   9.915  70.012  1.00  0.00    -0.192 C  
HETATM   10  C   UNL     1      -5.696   9.611  68.909  1.00  0.00    -0.036 C  
HETATM   11  O   UNL     1      -7.065   7.734  69.370  1.00  0.00    -0.067 OA 
HETATM   12  C   UNL     1      -8.148   6.929  69.124  1.00  0.00    -0.121 A  
HETATM   13  C   UNL     1      -8.074   5.672  69.744  1.00  0.00    -0.102 A  
HETATM   14  C   UNL     1      -9.104   4.730  69.623  1.00  0.00    -0.163 A  
HETATM   15  H   UNL     1     -11.492   7.544  67.170  1.00  0.00     0.000 HD 
HETATM   16  C   UNL     1     -10.229   5.118  68.880  1.00  0.00    -0.221 A  
HETATM   17  C   UNL     1     -10.299   6.369  68.258  1.00  0.00    -0.191 A  
HETATM   18  O   UNL     1     -11.445   6.694  67.592  1.00  0.00    -0.140 OA 
HETATM   19  C   UNL     1      -9.243   7.286  68.322  1.00  0.00    -0.133 A  
ENDROOT
BRANCH  14  20
HETATM   20  C   UNL     1      -9.043   3.332  70.265  1.00  0.00    -0.196 C  
HETATM   21  C   UNL     1      -9.386   2.186  69.285  1.00  0.00    -0.176 C  
HETATM   22  C   UNL     1      -7.594   3.073  70.750  1.00  0.00    -0.040 C  
BRANCH  20  23
HETATM   23  C   UNL     1      -9.991   3.245  71.505  1.00  0.00    -0.148 C  
BRANCH  23  24
HETATM   24  C   UNL     1      -9.854   4.400  72.504  1.00  0.00    -0.213 C  
BRANCH  24  25
HETATM   25  C   UNL     1     -11.212   4.847  73.050  1.00  0.00    -0.367 C  
BRANCH  25  26
HETATM   26  C   UNL     1     -11.256   6.369  73.195  1.00  0.00    -0.114 C  
BRANCH  26  27
HETATM   27  C   UNL     1     -10.391   7.067  72.149  1.00  0.00    -0.214 C  
HETATM   28  C   UNL     1     -11.174   8.158  71.435  1.00  0.00    -0.297 C  
ENDBRANCH  26  27
ENDBRANCH  25  26
ENDBRANCH  24  25
ENDBRANCH  23  24
ENDBRANCH  20  23
ENDBRANCH  14  20
TORSDOF 6
ENDMDL
MODEL      151
REMARK 921   NORMALIZED FREE ENERGY PREDICTED BY IDOCK:   -3.11 KCAL/MOL
REMARK 922        TOTAL FREE ENERGY PREDICTED BY IDOCK:   -6.21 KCAL/MOL
REMARK 923 INTER-LIGAND FREE ENERGY PREDICTED BY IDOCK:   -5.46 KCAL/MOL
REMARK 924 INTRA-LIGAND FREE ENERGY PREDICTED BY IDOCK:   -0.76 KCAL/MOL
REMARK 927      BINDING AFFINITY PREDICTED BY RF-SCORE:    0.00 PKD
ROOT
HETATM    1  C   UNL     1     -12.362  12.096  69.966  1.00  0.00    -0.167 C  
HETATM    2  C   UNL     1     -12.052  13.597  70.097  1.00  0.00    -0.431 C  
HETATM    3  C   UNL     1     -13.004  14.251  71.066  1.00  0.00    -0.342 C  
HETATM    4  C   UNL     1     -13.058  13.644  72.439  1.00  0.00    -0.498 C  
HETATM    5  O   UNL     1     -13.647  15.259  70.779  1.00  0.00    -0.376 OA 
HETATM    6  C   UNL     1     -13.403  12.169  72.315  1.00  0.00    -0.316 C  
HETATM    7  C   UNL     1     -12.435  11.435  71.372  1.00  0.00    -0.370 C  
HETATM    8  C   UNL     1     -12.723   9.920  71.203  1.00  0.00    -0.366 C  
HETATM    9  C   UNL     1     -14.007   9.579  70.425  1.00  0.00     0.848 C  
HETATM   10  C   UNL     1     -12.809   9.214  72.568  1.00  0.00    -0.387 C  
HETATM   11  O   UNL     1     -11.603   9.306  70.532  1.00  0.00    -0.267 OA 
HETATM   12  C   UNL     1     -11.059   9.984  69.471  1.00  0.00    -0.238 A  
HETATM   13  C   UNL     1     -10.110   9.242  68.750  1.00  0.00    -0.210 A  
HETATM   14  C   UNL     1      -9.471   9.767  67.619  1.00  0.00    -0.164 A  
HETATM   15  H   UNL     1     -11.787  13.529  67.961  1.00  0.00     0.000 HD 
HETATM   16  C   UNL     1      -9.850  11.057  67.222  1.00  0.00    -0.204 A  
HETATM   17  C   UNL     1     -10.792  11.798  67.945  1.00  0.00    -0.211 A  
HETATM   18  O   UNL     1     -11.147  13.027  67.470  1.00  0.00    -0.252 OA 
HETATM   19  C   UNL     1     -11.384  11.301  69.112  1.00  0.00    -0.349 A  
ENDROOT
BRANCH  14  20
HETATM   20  C   UNL     1      -8.405   8.992  66.822  1.00  0.00    -0.115 C  
HETATM   21  C   UNL     1      -8.809   8.718  65.354  1.00  0.00    -0.221 C  
HETATM   22  C   UNL     1      -7.113   9.844  66.767  1.00  0.00    -0.090 C  
BRANCH  20  23
HETATM   23  C   UNL     1      -8.062   7.636  67.519  1.00  0.00    -0.120 C  
BRANCH  23  24
HETATM   24  C   UNL     1      -7.286   6.642  66.648  1.00  0.00    -0.078 C  
BRANCH  24  25
HETATM   25  C   UNL     1      -7.565   5.191  67.049  1.00  0.00    -0.088 C  
BRANCH  25  26
HETATM   26  C   UNL     1      -7.885   4.347  65.814  1.00  0.00    -0.094 C  
BRANCH  26  27
HETATM   27  C   UNL     1      -9.004   4.960  64.977  1.00  0.00    -0.147 C  
HETATM   28  C   UNL     1      -9.993   3.895  64.526  1.00  0.00    -0.205 C  
ENDBRANCH  26  27
ENDBRANCH  25  26
ENDBRANCH  24  25
ENDBRANCH  23  24
ENDBRANCH  20  23
ENDBRANCH  14  20
TORSDOF 6
ENDMDL
MODEL      152
REMARK 921   NORMALIZED FREE ENERGY PREDICTED BY IDOCK:   -3.06 KCAL/MOL
REMARK 922        TOTAL FREE ENERGY PREDICTED BY IDOCK:   -6.15 KCAL/MOL
REMARK 923 INTER-LIGAND FREE ENERGY PREDICTED BY IDOCK:   -5.25 KCAL/MOL
REMARK 924 INTRA-LIGAND FREE ENERGY PREDICTED BY IDOCK:   -0.90 KCAL/MOL
REMARK 927      BINDING AFFINITY PREDICTED BY RF-SCORE:    0.00 PKD
ROOT
HETATM    1  C   UNL     1      -9.375  13.043  66.087  1.00  0.00    -0.092 C  
HETATM    2  C   UNL     1      -8.983  13.965  67.255  1.00  0.00    -0.225 C  
HETATM    3  C   UNL     1      -9.453  15.374  66.997  1.00  0.00    -0.220 C  
HETATM    4  C   UNL     1     -10.921  15.534  66.723  1.00  0.00    -0.257 C  
HETATM    5  O   UNL     1      -8.700  16.343  67.074  1.00  0.00    -0.181 OA 
HETATM    6  C   UNL     1     -11.302  14.654  65.543  1.00  0.00    -0.341 C  
HETATM    7  C   UNL     1     -10.889  13.189  65.767  1.00  0.00    -0.289 C  
HETATM    8  C   UNL     1     -11.255  12.230  64.604  1.00  0.00    -0.315 C  
HETATM    9  C   UNL     1     -10.451  12.435  63.307  1.00  0.00    -0.205 C  
HETATM   10  C   UNL     1     -12.748  12.336  64.243  1.00  0.00    -0.413 C  
HETATM   11  O   UNL     1     -11.071  10.870  65.048  1.00  0.00    -0.061 OA 
HETATM   12  C   UNL     1      -9.946  10.597  65.783  1.00  0.00    -0.257 A  
HETATM   13  C   UNL     1      -9.734   9.228  66.010  1.00  0.00    -0.359 A  
HETATM   14  C   UNL     1      -8.619   8.763  66.720  1.00  0.00    -0.122 A  
HETATM   15  H   UNL     1      -7.111  12.901  67.211  1.00  0.00     0.000 HD 
HETATM   16  C   UNL     1      -7.706   9.731  67.164  1.00  0.00    -0.095 A  
HETATM   17  C   UNL     1      -7.921  11.095  66.943  1.00  0.00    -0.151 A  
HETATM   18  O   UNL     1      -6.965  11.974  67.362  1.00  0.00    -0.114 OA 
HETATM   19  C   UNL     1      -9.067  11.566  66.291  1.00  0.00    -0.215 A  
ENDROOT
BRANCH  14  20
HETATM   20  C   UNL     1      -8.371   7.272  67.011  1.00  0.00    -0.118 C  
HETATM   21  C   UNL     1      -8.631   6.352  65.795  1.00  0.00    -0.152 C  
HETATM   22  C   UNL     1      -6.881   7.083  67.390  1.00  0.00    -0.073 C  
BRANCH  20  23
HETATM   23  C   UNL     1      -9.243   6.785  68.214  1.00  0.00    -0.122 C  
BRANCH  23  24
HETATM   24  C   UNL     1      -9.984   5.463  67.981  1.00  0.00    -0.199 C  
BRANCH  24  25
HETATM   25  C   UNL     1      -9.611   4.407  69.023  1.00  0.00    -0.244 C  
BRANCH  25  26
HETATM   26  C   UNL     1      -8.331   4.810  69.759  1.00  0.00    -0.078 C  
BRANCH  26  27
HETATM   27  C   UNL     1      -8.480   4.686  71.273  1.00  0.00    -0.112 C  
HETATM   28  C   UNL     1      -9.879   5.084  71.717  1.00  0.00    -0.234 C  
ENDBRANCH  26  27
ENDBRANCH  25  26
ENDBRANCH  24  25
ENDBRANCH  23  24
ENDBRANCH  20  23
ENDBRANCH  14  20
TORSDOF 6
ENDMDL
MODEL      153
REMARK 921   NORMALIZED FREE ENERGY PREDICTED BY IDOCK:   -3.06 KCAL/MOL
REMARK 922        TOTAL FREE ENERGY PREDICTED BY IDOCK:   -6.15 KCAL/MOL
REMARK 923 INTER-LIGAND FREE ENERGY PREDICTED BY IDOCK:   -4.99 KCAL/MOL
REMARK 924 INTRA-LIGAND FREE ENERGY PREDICTED BY IDOCK:   -1.16 KCAL/MOL
REMARK 927      BINDING AFFINITY PREDICTED BY RF-SCORE:    0.00 PKD
ROOT
HETATM    1  C   UNL     1      -8.048   7.837  67.411  1.00  0.00    -0.123 C  
HETATM    2  C   UNL     1      -7.894   7.147  66.045  1.00  0.00    -0.107 C  
HETATM    3  C   UNL     1      -7.354   5.750  66.216  1.00  0.00    -0.078 C  
HETATM    4  C   UNL     1      -8.139   4.852  67.129  1.00  0.00    -0.107 C  
HETATM    5  O   UNL     1      -6.372   5.344  65.597  1.00  0.00    -0.033 OA 
HETATM    6  C   UNL     1      -8.258   5.515  68.492  1.00  0.00    -0.098 C  
HETATM    7  C   UNL     1      -8.850   6.931  68.388  1.00  0.00    -0.123 C  
HETATM    8  C   UNL     1      -9.008   7.666  69.745  1.00  0.00    -0.140 C  
HETATM    9  C   UNL     1      -7.690   8.084  70.422  1.00  0.00    -0.085 C  
HETATM   10  C   UNL     1      -9.794   6.810  70.754  1.00  0.00    -0.194 C  
HETATM   11  O   UNL     1      -9.814   8.846  69.543  1.00  0.00    -0.173 OA 
HETATM   12  C   UNL     1      -9.557   9.598  68.425  1.00  0.00    -0.144 A  
HETATM   13  C   UNL     1     -10.238  10.825  68.397  1.00  0.00    -0.192 A  
HETATM   14  C   UNL     1     -10.075  11.733  67.344  1.00  0.00    -0.212 A  
HETATM   15  H   UNL     1      -7.140   9.053  65.385  1.00  0.00     0.000 HD 
HETATM   16  C   UNL     1      -9.172  11.372  66.333  1.00  0.00    -0.209 A  
HETATM   17  C   UNL     1      -8.497  10.146  66.359  1.00  0.00    -0.131 A  
HETATM   18  O   UNL     1      -7.598   9.885  65.367  1.00  0.00    -0.119 OA 
HETATM   19  C   UNL     1      -8.708   9.209  67.377  1.00  0.00    -0.118 A  
ENDROOT
BRANCH  14  20
HETATM   20  C   UNL     1     -10.828  13.074  67.267  1.00  0.00    -0.270 C  
HETATM   21  C   UNL     1     -12.269  13.007  67.826  1.00  0.00    -0.079 C  
HETATM   22  C   UNL     1     -10.073  14.115  68.130  1.00  0.00    -0.239 C  
BRANCH  20  23
HETATM   23  C   UNL     1     -10.875  13.606  65.798  1.00  0.00    -0.274 C  
BRANCH  23  24
HETATM   24  C   UNL     1     -12.134  13.222  65.013  1.00  0.00    -0.447 C  
BRANCH  24  25
HETATM   25  C   UNL     1     -11.834  12.988  63.530  1.00  0.00    -0.582 C  
BRANCH  25  26
HETATM   26  C   UNL     1     -11.216  11.604  63.322  1.00  0.00    -0.305 C  
BRANCH  26  27
HETATM   27  C   UNL     1      -9.784  11.690  62.802  1.00  0.00    -0.085 C  
HETATM   28  C   UNL     1      -9.220  10.304  62.528  1.00  0.00    -0.321 C  
ENDBRANCH  26  27
ENDBRANCH  25  26
ENDBRANCH  24  25
ENDBRANCH  23  24
ENDBRANCH  20  23
ENDBRANCH  14  20
TORSDOF 6
ENDMDL
MODEL      154
REMARK 921   NORMALIZED FREE ENERGY PREDICTED BY IDOCK:   -3.06 KCAL/MOL
REMARK 922        TOTAL FREE ENERGY PREDICTED BY IDOCK:   -6.14 KCAL/MOL
REMARK 923 INTER-LIGAND FREE ENERGY PREDICTED BY IDOCK:   -5.22 KCAL/MOL
REMARK 924 INTRA-LIGAND FREE ENERGY PREDICTED BY IDOCK:   -0.93 KCAL/MOL
REMARK 927      BINDING AFFINITY PREDICTED BY RF-SCORE:    0.00 PKD
ROOT
HETATM    1  C   UNL     1      -8.520   8.800  66.439  1.00  0.00    -0.127 C  
HETATM    2  C   UNL     1      -8.813  10.000  65.521  1.00  0.00    -0.189 C  
HETATM    3  C   UNL     1      -8.054   9.871  64.225  1.00  0.00    -0.152 C  
HETATM    4  C   UNL     1      -8.285   8.603  63.455  1.00  0.00    -0.155 C  
HETATM    5  O   UNL     1      -7.343  10.774  63.786  1.00  0.00     0.136 OA 
HETATM    6  C   UNL     1      -7.958   7.416  64.347  1.00  0.00    -0.109 C  
HETATM    7  C   UNL     1      -8.740   7.466  65.671  1.00  0.00    -0.099 C  
HETATM    8  C   UNL     1      -8.461   6.279  66.630  1.00  0.00    -0.114 C  
HETATM    9  C   UNL     1      -7.058   6.263  67.264  1.00  0.00    -0.073 C  
HETATM   10  C   UNL     1      -8.662   4.928  65.918  1.00  0.00    -0.127 C  
HETATM   11  O   UNL     1      -9.443   6.296  67.687  1.00  0.00    -0.117 OA 
HETATM   12  C   UNL     1      -9.751   7.514  68.237  1.00  0.00    -0.155 A  
HETATM   13  C   UNL     1     -10.558   7.431  69.383  1.00  0.00    -0.231 A  
HETATM   14  C   UNL     1     -10.950   8.575  70.091  1.00  0.00    -0.221 A  
HETATM   15  H   UNL     1      -8.656  11.167  67.324  1.00  0.00     0.000 HD 
HETATM   16  C   UNL     1     -10.469   9.805  69.618  1.00  0.00    -0.263 A  
HETATM   17  C   UNL     1      -9.669   9.886  68.473  1.00  0.00    -0.154 A  
HETATM   18  O   UNL     1      -9.199  11.113  68.102  1.00  0.00    -0.153 OA 
HETATM   19  C   UNL     1      -9.331   8.752  67.726  1.00  0.00    -0.157 A  
ENDROOT
BRANCH  14  20
HETATM   20  C   UNL     1     -11.857   8.523  71.334  1.00  0.00    -0.345 C  
HETATM   21  C   UNL     1     -12.812   9.734  71.454  1.00  0.00    -0.489 C  
HETATM   22  C   UNL     1     -12.757   7.266  71.237  1.00  0.00    -0.400 C  
BRANCH  20  23
HETATM   23  C   UNL     1     -11.008   8.411  72.641  1.00  0.00    -0.318 C  
BRANCH  23  24
HETATM   24  C   UNL     1      -9.498   8.265  72.420  1.00  0.00    -0.357 C  
BRANCH  24  25
HETATM   25  C   UNL     1      -9.012   6.844  72.714  1.00  0.00    -0.146 C  
BRANCH  25  26
HETATM   26  C   UNL     1     -10.047   6.087  73.548  1.00  0.00    -0.207 C  
BRANCH  26  27
HETATM   27  C   UNL     1     -10.519   4.813  72.853  1.00  0.00    -0.257 C  
HETATM   28  C   UNL     1     -11.145   3.849  73.850  1.00  0.00    -0.239 C  
ENDBRANCH  26  27
ENDBRANCH  25  26
ENDBRANCH  24  25
ENDBRANCH  23  24
ENDBRANCH  20  23
ENDBRANCH  14  20
TORSDOF 6
ENDMDL
MODEL      155
REMARK 921   NORMALIZED FREE ENERGY PREDICTED BY IDOCK:   -3.05 KCAL/MOL
REMARK 922        TOTAL FREE ENERGY PREDICTED BY IDOCK:   -6.13 KCAL/MOL
REMARK 923 INTER-LIGAND FREE ENERGY PREDICTED BY IDOCK:   -5.11 KCAL/MOL
REMARK 924 INTRA-LIGAND FREE ENERGY PREDICTED BY IDOCK:   -1.02 KCAL/MOL
REMARK 927      BINDING AFFINITY PREDICTED BY RF-SCORE:    0.00 PKD
ROOT
HETATM    1  C   UNL     1      -8.577   4.789  66.818  1.00  0.00    -0.108 C  
HETATM    2  C   UNL     1      -7.873   3.486  66.403  1.00  0.00    -0.085 C  
HETATM    3  C   UNL     1      -7.463   3.545  64.953  1.00  0.00    -0.073 C  
HETATM    4  C   UNL     1      -6.599   4.710  64.564  1.00  0.00    -0.043 C  
HETATM    5  O   UNL     1      -7.757   2.662  64.149  1.00  0.00    -0.073 OA 
HETATM    6  C   UNL     1      -7.311   6.001  64.938  1.00  0.00    -0.073 C  
HETATM    7  C   UNL     1      -7.714   6.020  66.422  1.00  0.00    -0.102 C  
HETATM    8  C   UNL     1      -8.440   7.313  66.877  1.00  0.00    -0.119 C  
HETATM    9  C   UNL     1      -9.861   7.500  66.314  1.00  0.00    -0.059 C  
HETATM   10  C   UNL     1      -7.628   8.568  66.507  1.00  0.00    -0.088 C  
HETATM   11  O   UNL     1      -8.512   7.324  68.318  1.00  0.00    -0.124 OA 
HETATM   12  C   UNL     1      -8.840   6.145  68.938  1.00  0.00    -0.122 A  
HETATM   13  C   UNL     1      -9.083   6.277  70.314  1.00  0.00    -0.156 A  
HETATM   14  C   UNL     1      -9.456   5.181  71.104  1.00  0.00    -0.205 A  
HETATM   15  H   UNL     1      -9.406   2.516  67.563  1.00  0.00     0.000 HD 
HETATM   16  C   UNL     1      -9.607   3.951  70.445  1.00  0.00    -0.266 A  
HETATM   17  C   UNL     1      -9.359   3.821  69.074  1.00  0.00    -0.171 A  
HETATM   18  O   UNL     1      -9.574   2.604  68.494  1.00  0.00    -0.176 OA 
HETATM   19  C   UNL     1      -8.923   4.900  68.296  1.00  0.00    -0.126 A  
ENDROOT
BRANCH  14  20
HETATM   20  C   UNL     1      -9.702   5.283  72.620  1.00  0.00    -0.175 C  
HETATM   21  C   UNL     1     -10.091   3.937  73.276  1.00  0.00    -0.204 C  
HETATM   22  C   UNL     1      -8.389   5.739  73.304  1.00  0.00    -0.116 C  
BRANCH  20  23
HETATM   23  C   UNL     1     -10.806   6.343  72.936  1.00  0.00    -0.286 C  
BRANCH  23  24
HETATM   24  C   UNL     1     -12.081   6.217  72.094  1.00  0.00    -0.304 C  
BRANCH  24  25
HETATM   25  C   UNL     1     -12.580   7.579  71.606  1.00  0.00    -0.376 C  
BRANCH  25  26
HETATM   26  C   UNL     1     -11.638   8.692  72.071  1.00  0.00    -0.440 C  
BRANCH  26  27
HETATM   27  C   UNL     1     -11.703   9.913  71.159  1.00  0.00    -0.478 C  
HETATM   28  C   UNL     1     -12.938  10.750  71.456  1.00  0.00    -0.562 C  
ENDBRANCH  26  27
ENDBRANCH  25  26
ENDBRANCH  24  25
ENDBRANCH  23  24
ENDBRANCH  20  23
ENDBRANCH  14  20
TORSDOF 6
ENDMDL
MODEL      156
REMARK 921   NORMALIZED FREE ENERGY PREDICTED BY IDOCK:   -3.03 KCAL/MOL
REMARK 922        TOTAL FREE ENERGY PREDICTED BY IDOCK:   -6.11 KCAL/MOL
REMARK 923 INTER-LIGAND FREE ENERGY PREDICTED BY IDOCK:   -5.62 KCAL/MOL
REMARK 924 INTRA-LIGAND FREE ENERGY PREDICTED BY IDOCK:   -0.49 KCAL/MOL
REMARK 927      BINDING AFFINITY PREDICTED BY RF-SCORE:    0.00 PKD
ROOT
HETATM    1  C   UNL     1      -9.471   6.334  71.187  1.00  0.00    -0.183 C  
HETATM    2  C   UNL     1     -10.958   6.153  71.538  1.00  0.00    -0.328 C  
HETATM    3  C   UNL     1     -11.113   5.710  72.971  1.00  0.00    -0.282 C  
HETATM    4  C   UNL     1     -10.474   6.595  74.002  1.00  0.00    -0.309 C  
HETATM    5  O   UNL     1     -11.777   4.724  73.287  1.00  0.00    -0.312 OA 
HETATM    6  C   UNL     1      -8.996   6.744  73.679  1.00  0.00    -0.163 C  
HETATM    7  C   UNL     1      -8.774   7.241  72.240  1.00  0.00    -0.136 C  
HETATM    8  C   UNL     1      -7.285   7.423  71.843  1.00  0.00    -0.067 C  
HETATM    9  C   UNL     1      -6.480   6.119  71.698  1.00  0.00    -0.050 C  
HETATM   10  C   UNL     1      -6.543   8.313  72.857  1.00  0.00    -0.107 C  
HETATM   11  O   UNL     1      -7.223   8.143  70.595  1.00  0.00    -0.050 OA 
HETATM   12  C   UNL     1      -8.114   7.782  69.617  1.00  0.00    -0.122 A  
HETATM   13  C   UNL     1      -7.866   8.383  68.373  1.00  0.00    -0.113 A  
HETATM   14  C   UNL     1      -8.661   8.110  67.252  1.00  0.00    -0.124 A  
HETATM   15  H   UNL     1     -11.107   5.248  69.590  1.00  0.00     0.000 HD 
HETATM   16  C   UNL     1      -9.696   7.179  67.425  1.00  0.00    -0.186 A  
HETATM   17  C   UNL     1      -9.945   6.584  68.667  1.00  0.00    -0.146 A  
HETATM   18  O   UNL     1     -10.938   5.652  68.746  1.00  0.00    -0.216 OA 
HETATM   19  C   UNL     1      -9.194   6.905  69.803  1.00  0.00    -0.147 A  
ENDROOT
BRANCH  14  20
HETATM   20  C   UNL     1      -8.435   8.773  65.881  1.00  0.00    -0.154 C  
HETATM   21  C   UNL     1      -7.313   9.838  65.886  1.00  0.00    -0.103 C  
HETATM   22  C   UNL     1      -7.999   7.683  64.870  1.00  0.00    -0.135 C  
BRANCH  20  23
HETATM   23  C   UNL     1      -9.754   9.424  65.351  1.00  0.00    -0.248 C  
BRANCH  23  24
HETATM   24  C   UNL     1      -9.587  10.826  64.756  1.00  0.00    -0.314 C  
BRANCH  24  25
HETATM   25  C   UNL     1     -10.927  11.554  64.623  1.00  0.00    -0.353 C  
BRANCH  25  26
HETATM   26  C   UNL     1     -10.806  12.721  63.641  1.00  0.00    -0.361 C  
BRANCH  26  27
HETATM   27  C   UNL     1     -12.084  13.552  63.581  1.00  0.00    -0.459 C  
HETATM   28  C   UNL     1     -12.012  14.732  64.538  1.00  0.00    -0.451 C  
ENDBRANCH  26  27
ENDBRANCH  25  26
ENDBRANCH  24  25
ENDBRANCH  23  24
ENDBRANCH  20  23
ENDBRANCH  14  20
TORSDOF 6
ENDMDL
MODEL      157
REMARK 921   NORMALIZED FREE ENERGY PREDICTED BY IDOCK:   -3.01 KCAL/MOL
REMARK 922        TOTAL FREE ENERGY PREDICTED BY IDOCK:   -6.09 KCAL/MOL
REMARK 923 INTER-LIGAND FREE ENERGY PREDICTED BY IDOCK:   -4.60 KCAL/MOL
REMARK 924 INTRA-LIGAND FREE ENERGY PREDICTED BY IDOCK:   -1.48 KCAL/MOL
REMARK 927      BINDING AFFINITY PREDICTED BY RF-SCORE:    0.00 PKD
ROOT
HETATM    1  C   UNL     1      -8.893   5.546  65.284  1.00  0.00    -0.112 C  
HETATM    2  C   UNL     1      -9.443   4.163  65.672  1.00  0.00    -0.177 C  
HETATM    3  C   UNL     1      -9.095   3.141  64.620  1.00  0.00    -0.137 C  
HETATM    4  C   UNL     1      -7.635   3.009  64.294  1.00  0.00    -0.076 C  
HETATM    5  O   UNL     1      -9.941   2.410  64.108  1.00  0.00    -0.137 OA 
HETATM    6  C   UNL     1      -7.098   4.368  63.871  1.00  0.00    -0.046 C  
HETATM    7  C   UNL     1      -7.383   5.447  64.930  1.00  0.00    -0.068 C  
HETATM    8  C   UNL     1      -6.855   6.860  64.567  1.00  0.00    -0.046 C  
HETATM    9  C   UNL     1      -7.592   7.560  63.411  1.00  0.00    -0.118 C  
HETATM   10  C   UNL     1      -5.359   6.820  64.204  1.00  0.00    -0.027 C  
HETATM   11  O   UNL     1      -6.935   7.700  65.738  1.00  0.00    -0.058 OA 
HETATM   12  C   UNL     1      -8.073   7.609  66.498  1.00  0.00    -0.119 A  
HETATM   13  C   UNL     1      -8.166   8.588  67.500  1.00  0.00    -0.117 A  
HETATM   14  C   UNL     1      -9.274   8.663  68.355  1.00  0.00    -0.138 A  
HETATM   15  H   UNL     1     -11.198   5.249  66.286  1.00  0.00     0.000 HD 
HETATM   16  C   UNL     1     -10.301   7.733  68.139  1.00  0.00    -0.248 A  
HETATM   17  C   UNL     1     -10.204   6.754  67.144  1.00  0.00    -0.225 A  
HETATM   18  O   UNL     1     -11.264   5.914  66.963  1.00  0.00    -0.173 OA 
HETATM   19  C   UNL     1      -9.070   6.635  66.332  1.00  0.00    -0.172 A  
ENDROOT
BRANCH  14  20
HETATM   20  C   UNL     1      -9.395   9.705  69.481  1.00  0.00    -0.211 C  
HETATM   21  C   UNL     1     -10.202   9.205  70.703  1.00  0.00    -0.306 C  
HETATM   22  C   UNL     1      -7.975  10.038  70.003  1.00  0.00    -0.166 C  
BRANCH  20  23
HETATM   23  C   UNL     1     -10.038  11.028  68.952  1.00  0.00    -0.212 C  
BRANCH  23  24
HETATM   24  C   UNL     1     -11.333  10.841  68.153  1.00  0.00    -0.377 C  
BRANCH  24  25
HETATM   25  C   UNL     1     -11.343  11.685  66.876  1.00  0.00    -0.364 C  
BRANCH  25  26
HETATM   26  C   UNL     1      -9.920  12.103  66.500  1.00  0.00    -0.230 C  
BRANCH  26  27
HETATM   27  C   UNL     1      -9.540  11.641  65.096  1.00  0.00    -0.206 C  
HETATM   28  C   UNL     1     -10.152  10.283  64.786  1.00  0.00    -0.336 C  
ENDBRANCH  26  27
ENDBRANCH  25  26
ENDBRANCH  24  25
ENDBRANCH  23  24
ENDBRANCH  20  23
ENDBRANCH  14  20
TORSDOF 6
ENDMDL
MODEL      158
REMARK 921   NORMALIZED FREE ENERGY PREDICTED BY IDOCK:   -3.01 KCAL/MOL
REMARK 922        TOTAL FREE ENERGY PREDICTED BY IDOCK:   -6.08 KCAL/MOL
REMARK 923 INTER-LIGAND FREE ENERGY PREDICTED BY IDOCK:   -4.48 KCAL/MOL
REMARK 924 INTRA-LIGAND FREE ENERGY PREDICTED BY IDOCK:   -1.60 KCAL/MOL
REMARK 927      BINDING AFFINITY PREDICTED BY RF-SCORE:    0.00 PKD
ROOT
HETATM    1  C   UNL     1      -9.024   5.273  65.801  1.00  0.00    -0.154 C  
HETATM    2  C   UNL     1     -10.034   4.134  65.577  1.00  0.00    -0.209 C  
HETATM    3  C   UNL     1      -9.609   3.271  64.416  1.00  0.00    -0.153 C  
HETATM    4  C   UNL     1      -8.229   2.686  64.506  1.00  0.00    -0.086 C  
HETATM    5  O   UNL     1     -10.366   3.004  63.484  1.00  0.00    -0.166 OA 
HETATM    6  C   UNL     1      -7.225   3.814  64.687  1.00  0.00    -0.066 C  
HETATM    7  C   UNL     1      -7.579   4.704  65.890  1.00  0.00    -0.090 C  
HETATM    8  C   UNL     1      -6.591   5.873  66.140  1.00  0.00    -0.047 C  
HETATM    9  C   UNL     1      -6.620   6.995  65.086  1.00  0.00    -0.047 C  
HETATM   10  C   UNL     1      -5.140   5.366  66.235  1.00  0.00    -0.005 C  
HETATM   11  O   UNL     1      -6.872   6.451  67.432  1.00  0.00    -0.064 OA 
HETATM   12  C   UNL     1      -8.190   6.635  67.764  1.00  0.00    -0.119 A  
HETATM   13  C   UNL     1      -8.381   7.376  68.941  1.00  0.00    -0.129 A  
HETATM   14  C   UNL     1      -9.663   7.683  69.417  1.00  0.00    -0.165 A  
HETATM   15  H   UNL     1     -11.523   5.644  65.950  1.00  0.00     0.000 HD 
HETATM   16  C   UNL     1     -10.746   7.243  68.641  1.00  0.00    -0.172 A  
HETATM   17  C   UNL     1     -10.554   6.500  67.472  1.00  0.00    -0.280 A  
HETATM   18  O   UNL     1     -11.654   6.148  66.744  1.00  0.00     0.138 OA 
HETATM   19  C   UNL     1      -9.277   6.135  67.029  1.00  0.00    -0.127 A  
ENDROOT
BRANCH  14  20
HETATM   20  C   UNL     1      -9.909   8.468  70.718  1.00  0.00    -0.220 C  
HETATM   21  C   UNL     1      -8.620   8.745  71.527  1.00  0.00    -0.253 C  
HETATM   22  C   UNL     1     -10.502   9.853  70.355  1.00  0.00    -0.347 C  
BRANCH  20  23
HETATM   23  C   UNL     1     -10.936   7.726  71.633  1.00  0.00    -0.272 C  
BRANCH  23  24
HETATM   24  C   UNL     1     -10.499   7.563  73.093  1.00  0.00    -0.419 C  
BRANCH  24  25
HETATM   25  C   UNL     1     -10.539   6.100  73.541  1.00  0.00    -0.283 C  
BRANCH  25  26
HETATM   26  C   UNL     1     -10.924   5.192  72.371  1.00  0.00    -0.244 C  
BRANCH  26  27
HETATM   27  C   UNL     1      -9.758   4.319  71.917  1.00  0.00    -0.231 C  
HETATM   28  C   UNL     1      -9.732   4.189  70.402  1.00  0.00    -0.271 C  
ENDBRANCH  26  27
ENDBRANCH  25  26
ENDBRANCH  24  25
ENDBRANCH  23  24
ENDBRANCH  20  23
ENDBRANCH  14  20
TORSDOF 6
ENDMDL
MODEL      159
REMARK 921   NORMALIZED FREE ENERGY PREDICTED BY IDOCK:   -3.01 KCAL/MOL
REMARK 922        TOTAL FREE ENERGY PREDICTED BY IDOCK:   -6.08 KCAL/MOL
REMARK 923 INTER-LIGAND FREE ENERGY PREDICTED BY IDOCK:   -5.36 KCAL/MOL
REMARK 924 INTRA-LIGAND FREE ENERGY PREDICTED BY IDOCK:   -0.72 KCAL/MOL
REMARK 927      BINDING AFFINITY PREDICTED BY RF-SCORE:    0.00 PKD
ROOT
HETATM    1  C   UNL     1      -9.112   6.086  70.316  1.00  0.00    -0.159 C  
HETATM    2  C   UNL     1      -9.979   4.901  69.856  1.00  0.00    -0.317 C  
HETATM    3  C   UNL     1      -9.842   3.744  70.813  1.00  0.00    -0.103 C  
HETATM    4  C   UNL     1     -10.152   4.044  72.251  1.00  0.00    -0.240 C  
HETATM    5  O   UNL     1      -9.561   2.607  70.435  1.00  0.00    -0.134 OA 
HETATM    6  C   UNL     1      -9.268   5.190  72.719  1.00  0.00    -0.146 C  
HETATM    7  C   UNL     1      -9.400   6.421  71.806  1.00  0.00    -0.152 C  
HETATM    8  C   UNL     1      -8.530   7.634  72.229  1.00  0.00    -0.123 C  
HETATM    9  C   UNL     1      -7.013   7.449  72.045  1.00  0.00    -0.062 C  
HETATM   10  C   UNL     1      -8.774   8.007  73.703  1.00  0.00    -0.332 C  
HETATM   11  O   UNL     1      -8.947   8.790  71.474  1.00  0.00    -0.205 OA 
HETATM   12  C   UNL     1      -9.200   8.609  70.138  1.00  0.00    -0.159 A  
HETATM   13  C   UNL     1      -9.407   9.805  69.433  1.00  0.00    -0.212 A  
HETATM   14  C   UNL     1      -9.653   9.812  68.053  1.00  0.00    -0.160 A  
HETATM   15  H   UNL     1      -9.272   5.400  67.884  1.00  0.00     0.000 HD 
HETATM   16  C   UNL     1      -9.648   8.568  67.405  1.00  0.00    -0.204 A  
HETATM   17  C   UNL     1      -9.448   7.377  68.111  1.00  0.00    -0.138 A  
HETATM   18  O   UNL     1      -9.408   6.209  67.405  1.00  0.00    -0.116 OA 
HETATM   19  C   UNL     1      -9.267   7.361  69.499  1.00  0.00    -0.146 A  
ENDROOT
BRANCH  14  20
HETATM   20  C   UNL     1      -9.912  11.102  67.254  1.00  0.00    -0.211 C  
HETATM   21  C   UNL     1     -11.412  11.456  67.119  1.00  0.00    -0.268 C  
HETATM   22  C   UNL     1      -9.249  12.288  67.999  1.00  0.00    -0.195 C  
BRANCH  20  23
HETATM   23  C   UNL     1      -9.279  11.012  65.827  1.00  0.00    -0.226 C  
BRANCH  23  24
HETATM   24  C   UNL     1     -10.288  10.891  64.680  1.00  0.00    -0.407 C  
BRANCH  24  25
HETATM   25  C   UNL     1      -9.722  11.424  63.362  1.00  0.00    -0.385 C  
BRANCH  25  26
HETATM   26  C   UNL     1      -9.503  10.278  62.372  1.00  0.00    -0.252 C  
BRANCH  26  27
HETATM   27  C   UNL     1      -8.334   9.386  62.781  1.00  0.00    -0.181 C  
HETATM   28  C   UNL     1      -7.037  10.180  62.839  1.00  0.00    -0.130 C  
ENDBRANCH  26  27
ENDBRANCH  25  26
ENDBRANCH  24  25
ENDBRANCH  23  24
ENDBRANCH  20  23
ENDBRANCH  14  20
TORSDOF 6
ENDMDL
MODEL      160
REMARK 921   NORMALIZED FREE ENERGY PREDICTED BY IDOCK:   -2.98 KCAL/MOL
REMARK 922        TOTAL FREE ENERGY PREDICTED BY IDOCK:   -6.03 KCAL/MOL
REMARK 923 INTER-LIGAND FREE ENERGY PREDICTED BY IDOCK:   -5.32 KCAL/MOL
REMARK 924 INTRA-LIGAND FREE ENERGY PREDICTED BY IDOCK:   -0.71 KCAL/MOL
REMARK 927      BINDING AFFINITY PREDICTED BY RF-SCORE:    0.00 PKD
ROOT
HETATM    1  C   UNL     1      -9.225  16.198  68.062  1.00  0.00    -0.195 C  
HETATM    2  C   UNL     1     -10.277  17.004  67.280  1.00  0.00    -0.310 C  
HETATM    3  C   UNL     1      -9.769  18.394  66.989  1.00  0.00    -0.310 C  
HETATM    4  C   UNL     1      -8.457  18.472  66.263  1.00  0.00    -0.227 C  
HETATM    5  O   UNL     1     -10.417  19.402  67.266  1.00  0.00    -0.406 OA 
HETATM    6  C   UNL     1      -7.407  17.709  67.054  1.00  0.00    -0.219 C  
HETATM    7  C   UNL     1      -7.849  16.264  67.342  1.00  0.00    -0.184 C  
HETATM    8  C   UNL     1      -6.820  15.422  68.141  1.00  0.00    -0.127 C  
HETATM    9  C   UNL     1      -6.633  15.837  69.612  1.00  0.00    -0.182 C  
HETATM   10  C   UNL     1      -5.433  15.455  67.473  1.00  0.00     0.020 C  
HETATM   11  O   UNL     1      -7.223  14.038  68.103  1.00  0.00    -0.102 OA 
HETATM   12  C   UNL     1      -8.556  13.767  68.278  1.00  0.00    -0.175 A  
HETATM   13  C   UNL     1      -8.844  12.401  68.425  1.00  0.00    -0.129 A  
HETATM   14  C   UNL     1     -10.150  11.943  68.639  1.00  0.00    -0.186 A  
HETATM   15  H   UNL     1     -11.690  16.098  68.629  1.00  0.00     0.000 HD 
HETATM   16  C   UNL     1     -11.154  12.919  68.732  1.00  0.00    -0.305 A  
HETATM   17  C   UNL     1     -10.866  14.280  68.580  1.00  0.00    -0.253 A  
HETATM   18  O   UNL     1     -11.886  15.174  68.732  1.00  0.00    -0.330 OA 
HETATM   19  C   UNL     1      -9.572  14.735  68.301  1.00  0.00    -0.215 A  
ENDROOT
BRANCH  14  20
HETATM   20  C   UNL     1     -10.505  10.451  68.776  1.00  0.00    -0.219 C  
HETATM   21  C   UNL     1     -11.724  10.186  69.691  1.00  0.00    -0.165 C  
HETATM   22  C   UNL     1     -10.882   9.902  67.377  1.00  0.00    -0.293 C  
BRANCH  20  23
HETATM   23  C   UNL     1      -9.283   9.632  69.304  1.00  0.00    -0.186 C  
BRANCH  23  24
HETATM   24  C   UNL     1      -9.237   9.452  70.826  1.00  0.00    -0.278 C  
BRANCH  24  25
HETATM   25  C   UNL     1      -8.792   8.042  71.222  1.00  0.00    -0.163 C  
BRANCH  25  26
HETATM   26  C   UNL     1      -7.441   7.709  70.584  1.00  0.00    -0.072 C  
BRANCH  26  27
HETATM   27  C   UNL     1      -6.574   6.849  71.498  1.00  0.00    -0.049 C  
HETATM   28  C   UNL     1      -6.656   7.332  72.938  1.00  0.00    -0.063 C  
ENDBRANCH  26  27
ENDBRANCH  25  26
ENDBRANCH  24  25
ENDBRANCH  23  24
ENDBRANCH  20  23
ENDBRANCH  14  20
TORSDOF 6
ENDMDL
MODEL      161
REMARK 921   NORMALIZED FREE ENERGY PREDICTED BY IDOCK:   -2.94 KCAL/MOL
REMARK 922        TOTAL FREE ENERGY PREDICTED BY IDOCK:   -5.99 KCAL/MOL
REMARK 923 INTER-LIGAND FREE ENERGY PREDICTED BY IDOCK:   -5.05 KCAL/MOL
REMARK 924 INTRA-LIGAND FREE ENERGY PREDICTED BY IDOCK:   -0.93 KCAL/MOL
REMARK 927      BINDING AFFINITY PREDICTED BY RF-SCORE:    0.00 PKD
ROOT
HETATM    1  C   UNL     1      -8.472  10.283  65.661  1.00  0.00    -0.165 C  
HETATM    2  C   UNL     1      -9.860  10.447  65.019  1.00  0.00    -0.384 C  
HETATM    3  C   UNL     1      -9.730  10.809  63.561  1.00  0.00    -0.341 C  
HETATM    4  C   UNL     1      -8.915   9.866  62.724  1.00  0.00    -0.272 C  
HETATM    5  O   UNL     1     -10.308  11.777  63.069  1.00  0.00    -0.342 OA 
HETATM    6  C   UNL     1      -7.529   9.733  63.334  1.00  0.00    -0.124 C  
HETATM    7  C   UNL     1      -7.595   9.318  64.814  1.00  0.00    -0.109 C  
HETATM    8  C   UNL     1      -6.214   9.155  65.501  1.00  0.00    -0.063 C  
HETATM    9  C   UNL     1      -5.436  10.464  65.728  1.00  0.00    -0.086 C  
HETATM   10  C   UNL     1      -5.302   8.208  64.700  1.00  0.00    -0.036 C  
HETATM   11  O   UNL     1      -6.403   8.506  66.775  1.00  0.00    -0.054 OA 
HETATM   12  C   UNL     1      -7.462   8.923  67.541  1.00  0.00    -0.085 A  
HETATM   13  C   UNL     1      -7.467   8.392  68.840  1.00  0.00    -0.091 A  
HETATM   14  C   UNL     1      -8.460   8.730  69.770  1.00  0.00    -0.129 A  
HETATM   15  H   UNL     1     -10.371  11.460  66.849  1.00  0.00     0.000 HD 
HETATM   16  C   UNL     1      -9.430   9.652  69.349  1.00  0.00    -0.201 A  
HETATM   17  C   UNL     1      -9.427  10.176  68.051  1.00  0.00    -0.145 A  
HETATM   18  O   UNL     1     -10.374  11.104  67.730  1.00  0.00    -0.178 OA 
HETATM   19  C   UNL     1      -8.474   9.790  67.101  1.00  0.00    -0.125 A  
ENDROOT
BRANCH  14  20
HETATM   20  C   UNL     1      -8.512   8.144  71.192  1.00  0.00    -0.146 C  
HETATM   21  C   UNL     1      -7.282   8.509  72.057  1.00  0.00    -0.108 C  
HETATM   22  C   UNL     1      -9.747   8.729  71.923  1.00  0.00    -0.386 C  
BRANCH  20  23
HETATM   23  C   UNL     1      -8.665   6.589  71.152  1.00  0.00    -0.138 C  
BRANCH  23  24
HETATM   24  C   UNL     1     -10.076   6.088  70.824  1.00  0.00    -0.248 C  
BRANCH  24  25
HETATM   25  C   UNL     1     -10.175   4.564  70.912  1.00  0.00    -0.170 C  
BRANCH  25  26
HETATM   26  C   UNL     1     -10.150   4.109  72.372  1.00  0.00    -0.243 C  
BRANCH  26  27
HETATM   27  C   UNL     1     -11.059   4.962  73.252  1.00  0.00    -0.410 C  
HETATM   28  C   UNL     1     -10.339   5.395  74.520  1.00  0.00    -0.272 C  
ENDBRANCH  26  27
ENDBRANCH  25  26
ENDBRANCH  24  25
ENDBRANCH  23  24
ENDBRANCH  20  23
ENDBRANCH  14  20
TORSDOF 6
ENDMDL
MODEL      162
REMARK 921   NORMALIZED FREE ENERGY PREDICTED BY IDOCK:   -2.94 KCAL/MOL
REMARK 922        TOTAL FREE ENERGY PREDICTED BY IDOCK:   -5.98 KCAL/MOL
REMARK 923 INTER-LIGAND FREE ENERGY PREDICTED BY IDOCK:   -4.48 KCAL/MOL
REMARK 924 INTRA-LIGAND FREE ENERGY PREDICTED BY IDOCK:   -1.50 KCAL/MOL
REMARK 927      BINDING AFFINITY PREDICTED BY RF-SCORE:    0.00 PKD
ROOT
HETATM    1  C   UNL     1      -7.847   8.687  67.541  1.00  0.00    -0.102 C  
HETATM    2  C   UNL     1      -7.779  10.195  67.247  1.00  0.00    -0.095 C  
HETATM    3  C   UNL     1      -6.955  10.456  66.011  1.00  0.00    -0.129 C  
HETATM    4  C   UNL     1      -7.395   9.738  64.768  1.00  0.00    -0.130 C  
HETATM    5  O   UNL     1      -6.023  11.259  65.999  1.00  0.00    -0.116 OA 
HETATM    6  C   UNL     1      -7.425   8.243  65.044  1.00  0.00    -0.090 C  
HETATM    7  C   UNL     1      -8.292   7.908  66.270  1.00  0.00    -0.126 C  
HETATM    8  C   UNL     1      -8.374   6.396  66.608  1.00  0.00    -0.113 C  
HETATM    9  C   UNL     1      -7.073   5.772  67.145  1.00  0.00    -0.070 C  
HETATM   10  C   UNL     1      -8.808   5.574  65.381  1.00  0.00    -0.131 C  
HETATM   11  O   UNL     1      -9.417   6.194  67.584  1.00  0.00    -0.113 OA 
HETATM   12  C   UNL     1      -9.492   7.093  68.617  1.00  0.00    -0.140 A  
HETATM   13  C   UNL     1     -10.397   6.725  69.625  1.00  0.00    -0.223 A  
HETATM   14  C   UNL     1     -10.583   7.512  70.770  1.00  0.00    -0.227 A  
HETATM   15  H   UNL     1      -7.526  10.401  69.375  1.00  0.00     0.000 HD 
HETATM   16  C   UNL     1      -9.798   8.669  70.874  1.00  0.00    -0.256 A  
HETATM   17  C   UNL     1      -8.901   9.038  69.865  1.00  0.00    -0.158 A  
HETATM   18  O   UNL     1      -8.135  10.151  70.060  1.00  0.00    -0.166 OA 
HETATM   19  C   UNL     1      -8.760   8.288  68.692  1.00  0.00    -0.133 A  
ENDROOT
BRANCH  14  20
HETATM   20  C   UNL     1     -11.587   7.153  71.881  1.00  0.00    -0.314 C  
HETATM   21  C   UNL     1     -11.344   7.917  73.204  1.00  0.00    -0.136 C  
HETATM   22  C   UNL     1     -13.010   7.542  71.407  1.00  0.00    -0.379 C  
BRANCH  20  23
HETATM   23  C   UNL     1     -11.576   5.617  72.169  1.00  0.00    -0.202 C  
BRANCH  23  24
HETATM   24  C   UNL     1     -10.887   5.211  73.477  1.00  0.00    -0.360 C  
BRANCH  24  25
HETATM   25  C   UNL     1      -9.753   4.211  73.239  1.00  0.00    -0.151 C  
BRANCH  25  26
HETATM   26  C   UNL     1      -8.669   4.831  72.355  1.00  0.00    -0.124 C  
BRANCH  26  27
HETATM   27  C   UNL     1      -8.209   3.874  71.259  1.00  0.00    -0.074 C  
HETATM   28  C   UNL     1      -9.396   3.317  70.488  1.00  0.00    -0.228 C  
ENDBRANCH  26  27
ENDBRANCH  25  26
ENDBRANCH  24  25
ENDBRANCH  23  24
ENDBRANCH  20  23
ENDBRANCH  14  20
TORSDOF 6
ENDMDL
MODEL      163
REMARK 921   NORMALIZED FREE ENERGY PREDICTED BY IDOCK:   -2.94 KCAL/MOL
REMARK 922        TOTAL FREE ENERGY PREDICTED BY IDOCK:   -5.98 KCAL/MOL
REMARK 923 INTER-LIGAND FREE ENERGY PREDICTED BY IDOCK:   -5.50 KCAL/MOL
REMARK 924 INTRA-LIGAND FREE ENERGY PREDICTED BY IDOCK:   -0.48 KCAL/MOL
REMARK 927      BINDING AFFINITY PREDICTED BY RF-SCORE:    0.00 PKD
ROOT
HETATM    1  C   UNL     1     -12.271  12.498  70.101  1.00  0.00    -0.307 C  
HETATM    2  C   UNL     1     -12.113  14.006  70.359  1.00  0.00    -0.426 C  
HETATM    3  C   UNL     1     -13.222  14.509  71.247  1.00  0.00    -0.357 C  
HETATM    4  C   UNL     1     -13.376  13.804  72.564  1.00  0.00    -0.656 C  
HETATM    5  O   UNL     1     -13.915  15.480  70.948  1.00  0.00    -0.489 OA 
HETATM    6  C   UNL     1     -13.572  12.318  72.310  1.00  0.00    -0.299 C  
HETATM    7  C   UNL     1     -12.442  11.734  71.444  1.00  0.00    -0.281 C  
HETATM    8  C   UNL     1     -12.573  10.217  71.150  1.00  0.00    -0.386 C  
HETATM    9  C   UNL     1     -13.726   9.829  70.207  1.00  0.00     0.795 C  
HETATM   10  C   UNL     1     -12.749   9.411  72.450  1.00  0.00    -0.350 C  
HETATM   11  O   UNL     1     -11.335   9.746  70.580  1.00  0.00    -0.279 OA 
HETATM   12  C   UNL     1     -10.737  10.539  69.634  1.00  0.00    -0.259 A  
HETATM   13  C   UNL     1      -9.651   9.931  68.986  1.00  0.00    -0.188 A  
HETATM   14  C   UNL     1      -8.938  10.584  67.973  1.00  0.00    -0.135 A  
HETATM   15  H   UNL     1     -11.603  14.112  68.269  1.00  0.00     0.000 HD 
HETATM   16  C   UNL     1      -9.384  11.865  67.614  1.00  0.00    -0.183 A  
HETATM   17  C   UNL     1     -10.463  12.473  68.265  1.00  0.00    -0.234 A  
HETATM   18  O   UNL     1     -10.870  13.700  67.827  1.00  0.00    -0.247 OA 
HETATM   19  C   UNL     1     -11.136  11.848  69.321  1.00  0.00    -0.264 A  
ENDROOT
BRANCH  14  20
HETATM   20  C   UNL     1      -7.725   9.958  67.262  1.00  0.00    -0.095 C  
HETATM   21  C   UNL     1      -6.601  10.973  66.945  1.00  0.00    -0.112 C  
HETATM   22  C   UNL     1      -7.099   8.893  68.197  1.00  0.00    -0.078 C  
BRANCH  20  23
HETATM   23  C   UNL     1      -8.158   9.247  65.939  1.00  0.00    -0.111 C  
BRANCH  23  24
HETATM   24  C   UNL     1      -7.918  10.059  64.662  1.00  0.00    -0.145 C  
BRANCH  24  25
HETATM   25  C   UNL     1      -8.578   9.413  63.441  1.00  0.00    -0.218 C  
BRANCH  25  26
HETATM   26  C   UNL     1      -8.063   7.986  63.248  1.00  0.00    -0.107 C  
BRANCH  26  27
HETATM   27  C   UNL     1      -6.579   7.863  63.580  1.00  0.00    -0.063 C  
HETATM   28  C   UNL     1      -6.201   6.416  63.859  1.00  0.00    -0.026 C  
ENDBRANCH  26  27
ENDBRANCH  25  26
ENDBRANCH  24  25
ENDBRANCH  23  24
ENDBRANCH  20  23
ENDBRANCH  14  20
TORSDOF 6
ENDMDL
MODEL      164
REMARK 921   NORMALIZED FREE ENERGY PREDICTED BY IDOCK:   -2.90 KCAL/MOL
REMARK 922        TOTAL FREE ENERGY PREDICTED BY IDOCK:   -5.94 KCAL/MOL
REMARK 923 INTER-LIGAND FREE ENERGY PREDICTED BY IDOCK:   -5.03 KCAL/MOL
REMARK 924 INTRA-LIGAND FREE ENERGY PREDICTED BY IDOCK:   -0.90 KCAL/MOL
REMARK 927      BINDING AFFINITY PREDICTED BY RF-SCORE:    0.00 PKD
ROOT
HETATM    1  C   UNL     1      -9.294   7.073  69.136  1.00  0.00    -0.140 C  
HETATM    2  C   UNL     1      -9.260   5.787  68.293  1.00  0.00    -0.119 C  
HETATM    3  C   UNL     1      -9.076   4.580  69.178  1.00  0.00    -0.121 C  
HETATM    4  C   UNL     1     -10.086   4.415  70.277  1.00  0.00    -0.173 C  
HETATM    5  O   UNL     1      -8.197   3.744  68.975  1.00  0.00    -0.064 OA 
HETATM    6  C   UNL     1     -10.093   5.670  71.135  1.00  0.00    -0.262 C  
HETATM    7  C   UNL     1     -10.325   6.935  70.292  1.00  0.00    -0.218 C  
HETATM    8  C   UNL     1     -10.353   8.256  71.105  1.00  0.00    -0.202 C  
HETATM    9  C   UNL     1      -8.999   8.692  71.694  1.00  0.00    -0.305 C  
HETATM   10  C   UNL     1     -11.357   8.174  72.268  1.00  0.00    -0.429 C  
HETATM   11  O   UNL     1     -10.846   9.313  70.256  1.00  0.00    -0.223 OA 
HETATM   12  C   UNL     1     -10.376   9.356  68.969  1.00  0.00    -0.210 A  
HETATM   13  C   UNL     1     -10.742  10.515  68.267  1.00  0.00    -0.270 A  
HETATM   14  C   UNL     1     -10.328  10.739  66.948  1.00  0.00    -0.290 A  
HETATM   15  H   UNL     1      -8.048   6.940  66.937  1.00  0.00     0.000 HD 
HETATM   16  C   UNL     1      -9.501   9.764  66.372  1.00  0.00    -0.237 A  
HETATM   17  C   UNL     1      -9.140   8.606  67.070  1.00  0.00    -0.138 A  
HETATM   18  O   UNL     1      -8.293   7.726  66.462  1.00  0.00    -0.119 OA 
HETATM   19  C   UNL     1      -9.606   8.349  68.365  1.00  0.00    -0.157 A  
ENDROOT
BRANCH  14  20
HETATM   20  C   UNL     1     -10.736  11.985  66.141  1.00  0.00    -0.312 C  
HETATM   21  C   UNL     1     -10.962  11.702  64.637  1.00  0.00    -0.363 C  
HETATM   22  C   UNL     1     -12.084  12.513  66.692  1.00  0.00    -0.212 C  
BRANCH  20  23
HETATM   23  C   UNL     1      -9.673  13.121  66.291  1.00  0.00    -0.269 C  
BRANCH  23  24
HETATM   24  C   UNL     1      -8.886  13.098  67.607  1.00  0.00    -0.191 C  
BRANCH  24  25
HETATM   25  C   UNL     1      -8.770  14.492  68.228  1.00  0.00    -0.173 C  
BRANCH  25  26
HETATM   26  C   UNL     1     -10.102  15.238  68.122  1.00  0.00    -0.229 C  
BRANCH  26  27
HETATM   27  C   UNL     1     -10.929  15.116  69.398  1.00  0.00    -0.268 C  
HETATM   28  C   UNL     1     -10.031  15.082  70.627  1.00  0.00     0.657 C  
ENDBRANCH  26  27
ENDBRANCH  25  26
ENDBRANCH  24  25
ENDBRANCH  23  24
ENDBRANCH  20  23
ENDBRANCH  14  20
TORSDOF 6
ENDMDL
MODEL      165
REMARK 921   NORMALIZED FREE ENERGY PREDICTED BY IDOCK:   -2.90 KCAL/MOL
REMARK 922        TOTAL FREE ENERGY PREDICTED BY IDOCK:   -5.93 KCAL/MOL
REMARK 923 INTER-LIGAND FREE ENERGY PREDICTED BY IDOCK:   -4.49 KCAL/MOL
REMARK 924 INTRA-LIGAND FREE ENERGY PREDICTED BY IDOCK:   -1.44 KCAL/MOL
REMARK 927      BINDING AFFINITY PREDICTED BY RF-SCORE:    0.00 PKD
ROOT
HETATM    1  C   UNL     1     -10.762  10.385  69.005  1.00  0.00    -0.260 C  
HETATM    2  C   UNL     1      -9.771  11.155  68.115  1.00  0.00    -0.186 C  
HETATM    3  C   UNL     1     -10.462  12.305  67.426  1.00  0.00    -0.210 C  
HETATM    4  C   UNL     1     -11.165  13.279  68.327  1.00  0.00    -0.309 C  
HETATM    5  O   UNL     1     -10.399  12.477  66.210  1.00  0.00    -0.242 OA 
HETATM    6  C   UNL     1     -12.174  12.526  69.180  1.00  0.00    -0.051 C  
HETATM    7  C   UNL     1     -11.517  11.366  69.947  1.00  0.00    -0.353 C  
HETATM    8  C   UNL     1     -12.488  10.556  70.846  1.00  0.00    -0.390 C  
HETATM    9  C   UNL     1     -13.519   9.697  70.092  1.00  0.00     0.883 C  
HETATM   10  C   UNL     1     -13.266  11.481  71.800  1.00  0.00    -0.456 C  
HETATM   11  O   UNL     1     -11.714   9.694  71.706  1.00  0.00    -0.388 OA 
HETATM   12  C   UNL     1     -10.652   9.035  71.143  1.00  0.00    -0.290 A  
HETATM   13  C   UNL     1     -10.071   8.071  71.982  1.00  0.00    -0.280 A  
HETATM   14  C   UNL     1      -8.991   7.283  71.562  1.00  0.00    -0.133 A  
HETATM   15  H   UNL     1      -9.048   9.202  67.568  1.00  0.00     0.000 HD 
HETATM   16  C   UNL     1      -8.540   7.481  70.248  1.00  0.00    -0.144 A  
HETATM   17  C   UNL     1      -9.116   8.446  69.414  1.00  0.00    -0.154 A  
HETATM   18  O   UNL     1      -8.656   8.547  68.134  1.00  0.00    -0.136 OA 
HETATM   19  C   UNL     1     -10.151   9.279  69.854  1.00  0.00    -0.230 A  
ENDROOT
BRANCH  14  20
HETATM   20  C   UNL     1      -8.313   6.238  72.466  1.00  0.00    -0.113 C  
HETATM   21  C   UNL     1      -6.868   5.893  72.035  1.00  0.00    -0.076 C  
HETATM   22  C   UNL     1      -8.214   6.814  73.900  1.00  0.00    -0.140 C  
BRANCH  20  23
HETATM   23  C   UNL     1      -9.155   4.923  72.529  1.00  0.00    -0.145 C  
BRANCH  23  24
HETATM   24  C   UNL     1      -8.594   3.758  71.706  1.00  0.00    -0.115 C  
BRANCH  24  25
HETATM   25  C   UNL     1      -9.286   3.634  70.346  1.00  0.00    -0.216 C  
BRANCH  25  26
HETATM   26  C   UNL     1      -8.269   3.782  69.213  1.00  0.00    -0.069 C  
BRANCH  26  27
HETATM   27  C   UNL     1      -8.929   4.210  67.905  1.00  0.00    -0.146 C  
HETATM   28  C   UNL     1     -10.208   4.990  68.170  1.00  0.00    -0.141 C  
ENDBRANCH  26  27
ENDBRANCH  25  26
ENDBRANCH  24  25
ENDBRANCH  23  24
ENDBRANCH  20  23
ENDBRANCH  14  20
TORSDOF 6
ENDMDL
MODEL      166
REMARK 921   NORMALIZED FREE ENERGY PREDICTED BY IDOCK:   -2.90 KCAL/MOL
REMARK 922        TOTAL FREE ENERGY PREDICTED BY IDOCK:   -5.93 KCAL/MOL
REMARK 923 INTER-LIGAND FREE ENERGY PREDICTED BY IDOCK:   -5.30 KCAL/MOL
REMARK 924 INTRA-LIGAND FREE ENERGY PREDICTED BY IDOCK:   -0.63 KCAL/MOL
REMARK 927      BINDING AFFINITY PREDICTED BY RF-SCORE:    0.00 PKD
ROOT
HETATM    1  C   UNL     1      -9.489  15.270  67.798  1.00  0.00    -0.197 C  
HETATM    2  C   UNL     1     -10.454  15.881  66.767  1.00  0.00    -0.309 C  
HETATM    3  C   UNL     1      -9.994  17.259  66.363  1.00  0.00    -0.311 C  
HETATM    4  C   UNL     1      -8.593  17.351  65.831  1.00  0.00     0.031 C  
HETATM    5  O   UNL     1     -10.738  18.238  66.400  1.00  0.00    -0.321 OA 
HETATM    6  C   UNL     1      -7.633  16.784  66.865  1.00  0.00    -0.252 C  
HETATM    7  C   UNL     1      -8.024  15.356  67.284  1.00  0.00    -0.231 C  
HETATM    8  C   UNL     1      -7.081  14.711  68.333  1.00  0.00    -0.116 C  
HETATM    9  C   UNL     1      -7.151  15.325  69.743  1.00  0.00    -0.154 C  
HETATM   10  C   UNL     1      -5.613  14.771  67.875  1.00  0.00    -0.117 C  
HETATM   11  O   UNL     1      -7.387  13.304  68.429  1.00  0.00    -0.097 OA 
HETATM   12  C   UNL     1      -8.712  12.950  68.444  1.00  0.00    -0.119 A  
HETATM   13  C   UNL     1      -8.935  11.595  68.737  1.00  0.00    -0.016 A  
HETATM   14  C   UNL     1     -10.228  11.063  68.820  1.00  0.00    -0.211 A  
HETATM   15  H   UNL     1     -12.000  15.042  68.009  1.00  0.00     0.000 HD 
HETATM   16  C   UNL     1     -11.292  11.957  68.630  1.00  0.00    -0.331 A  
HETATM   17  C   UNL     1     -11.068  13.307  68.333  1.00  0.00    -0.270 A  
HETATM   18  O   UNL     1     -12.153  14.126  68.210  1.00  0.00    -0.340 OA 
HETATM   19  C   UNL     1      -9.777  13.827  68.185  1.00  0.00    -0.227 A  
ENDROOT
BRANCH  14  20
HETATM   20  C   UNL     1     -10.507   9.577  69.110  1.00  0.00    -0.224 C  
HETATM   21  C   UNL     1      -9.284   8.816  69.673  1.00  0.00    -0.150 C  
HETATM   22  C   UNL     1     -11.614   9.483  70.190  1.00  0.00    -0.156 C  
BRANCH  20  23
HETATM   23  C   UNL     1     -11.018   8.844  67.828  1.00  0.00     0.036 C  
BRANCH  23  24
HETATM   24  C   UNL     1     -10.147   7.670  67.365  1.00  0.00    -0.287 C  
BRANCH  24  25
HETATM   25  C   UNL     1     -10.874   6.330  67.501  1.00  0.00    -0.436 C  
BRANCH  25  26
HETATM   26  C   UNL     1      -9.940   5.175  67.135  1.00  0.00    -0.221 C  
BRANCH  26  27
HETATM   27  C   UNL     1      -9.900   4.927  65.630  1.00  0.00    -0.153 C  
HETATM   28  C   UNL     1      -8.562   4.338  65.210  1.00  0.00    -0.121 C  
ENDBRANCH  26  27
ENDBRANCH  25  26
ENDBRANCH  24  25
ENDBRANCH  23  24
ENDBRANCH  20  23
ENDBRANCH  14  20
TORSDOF 6
ENDMDL
MODEL      167
REMARK 921   NORMALIZED FREE ENERGY PREDICTED BY IDOCK:   -2.88 KCAL/MOL
REMARK 922        TOTAL FREE ENERGY PREDICTED BY IDOCK:   -5.91 KCAL/MOL
REMARK 923 INTER-LIGAND FREE ENERGY PREDICTED BY IDOCK:   -5.11 KCAL/MOL
REMARK 924 INTRA-LIGAND FREE ENERGY PREDICTED BY IDOCK:   -0.80 KCAL/MOL
REMARK 927      BINDING AFFINITY PREDICTED BY RF-SCORE:    0.00 PKD
ROOT
HETATM    1  C   UNL     1     -10.738  11.500  69.001  1.00  0.00    -0.233 C  
HETATM    2  C   UNL     1     -11.905  11.689  69.986  1.00  0.00    -0.435 C  
HETATM    3  C   UNL     1     -12.182  13.155  70.202  1.00  0.00    -0.290 C  
HETATM    4  C   UNL     1     -12.456  13.959  68.964  1.00  0.00     0.088 C  
HETATM    5  O   UNL     1     -12.248  13.653  71.325  1.00  0.00    -0.318 OA 
HETATM    6  C   UNL     1     -11.286  13.806  68.005  1.00  0.00    -0.293 C  
HETATM    7  C   UNL     1     -10.984  12.327  67.707  1.00  0.00    -0.274 C  
HETATM    8  C   UNL     1      -9.803  12.095  66.727  1.00  0.00    -0.206 C  
HETATM    9  C   UNL     1      -8.411  12.443  67.284  1.00  0.00    -0.184 C  
HETATM   10  C   UNL     1      -9.994  12.895  65.426  1.00  0.00    -0.208 C  
HETATM   11  O   UNL     1      -9.803  10.711  66.321  1.00  0.00    -0.198 OA 
HETATM   12  C   UNL     1     -10.031   9.771  67.294  1.00  0.00    -0.191 A  
HETATM   13  C   UNL     1      -9.821   8.450  66.868  1.00  0.00    -0.313 A  
HETATM   14  C   UNL     1      -9.982   7.362  67.736  1.00  0.00    -0.208 A  
HETATM   15  H   UNL     1     -10.979  10.087  71.086  1.00  0.00     0.000 HD 
HETATM   16  C   UNL     1     -10.330   7.660  69.062  1.00  0.00    -0.220 A  
HETATM   17  C   UNL     1     -10.545   8.977  69.484  1.00  0.00    -0.225 A  
HETATM   18  O   UNL     1     -10.833   9.192  70.800  1.00  0.00    -0.229 OA 
HETATM   19  C   UNL     1     -10.449  10.060  68.602  1.00  0.00    -0.228 A  
ENDROOT
BRANCH  14  20
HETATM   20  C   UNL     1      -9.788   5.900  67.295  1.00  0.00    -0.155 C  
HETATM   21  C   UNL     1     -10.891   5.392  66.337  1.00  0.00    -0.202 C  
HETATM   22  C   UNL     1      -8.451   5.791  66.519  1.00  0.00    -0.116 C  
BRANCH  20  23
HETATM   23  C   UNL     1      -9.708   4.949  68.533  1.00  0.00    -0.218 C  
BRANCH  23  24
HETATM   24  C   UNL     1      -8.705   3.798  68.398  1.00  0.00    -0.132 C  
BRANCH  24  25
HETATM   25  C   UNL     1      -7.874   3.612  69.669  1.00  0.00    -0.052 C  
BRANCH  25  26
HETATM   26  C   UNL     1      -6.535   2.948  69.341  1.00  0.00    -0.029 C  
BRANCH  26  27
HETATM   27  C   UNL     1      -6.509   2.387  67.922  1.00  0.00    -0.029 C  
HETATM   28  C   UNL     1      -5.227   2.783  67.204  1.00  0.00    -0.009 C  
ENDBRANCH  26  27
ENDBRANCH  25  26
ENDBRANCH  24  25
ENDBRANCH  23  24
ENDBRANCH  20  23
ENDBRANCH  14  20
TORSDOF 6
ENDMDL
MODEL      168
REMARK 921   NORMALIZED FREE ENERGY PREDICTED BY IDOCK:   -2.82 KCAL/MOL
REMARK 922        TOTAL FREE ENERGY PREDICTED BY IDOCK:   -5.83 KCAL/MOL
REMARK 923 INTER-LIGAND FREE ENERGY PREDICTED BY IDOCK:   -5.01 KCAL/MOL
REMARK 924 INTRA-LIGAND FREE ENERGY PREDICTED BY IDOCK:   -0.81 KCAL/MOL
REMARK 927      BINDING AFFINITY PREDICTED BY RF-SCORE:    0.00 PKD
ROOT
HETATM    1  C   UNL     1      -8.031  18.746  67.057  1.00  0.00    -0.254 C  
HETATM    2  C   UNL     1      -6.509  18.659  66.851  1.00  0.00    -0.203 C  
HETATM    3  C   UNL     1      -5.889  20.032  66.901  1.00  0.00    -0.170 C  
HETATM    4  C   UNL     1      -6.166  20.830  68.143  1.00  0.00    -0.370 C  
HETATM    5  O   UNL     1      -5.146  20.451  66.015  1.00  0.00    -0.165 OA 
HETATM    6  C   UNL     1      -7.670  20.952  68.327  1.00  0.00     0.403 C  
HETATM    7  C   UNL     1      -8.357  19.575  68.332  1.00  0.00    -0.384 C  
HETATM    8  C   UNL     1      -9.895  19.622  68.524  1.00  0.00    -0.424 C  
HETATM    9  C   UNL     1     -10.688  20.201  67.338  1.00  0.00    -0.239 C  
HETATM   10  C   UNL     1     -10.276  20.436  69.774  1.00  0.00     0.330 C  
HETATM   11  O   UNL     1     -10.372  18.286  68.785  1.00  0.00    -0.354 OA 
HETATM   12  C   UNL     1      -9.845  17.272  68.026  1.00  0.00    -0.284 A  
HETATM   13  C   UNL     1     -10.493  16.039  68.198  1.00  0.00    -0.269 A  
HETATM   14  C   UNL     1     -10.105  14.898  67.483  1.00  0.00    -0.228 A  
HETATM   15  H   UNL     1      -6.994  17.209  65.334  1.00  0.00     0.000 HD 
HETATM   16  C   UNL     1      -9.059  15.056  66.561  1.00  0.00    -0.319 A  
HETATM   17  C   UNL     1      -8.410  16.285  66.396  1.00  0.00    -0.330 A  
HETATM   18  O   UNL     1      -7.434  16.375  65.446  1.00  0.00     1.408 OA 
HETATM   19  C   UNL     1      -8.752  17.410  67.156  1.00  0.00    -0.239 A  
ENDROOT
BRANCH  14  20
HETATM   20  C   UNL     1     -10.775  13.524  67.667  1.00  0.00    -0.257 C  
HETATM   21  C   UNL     1     -11.132  12.826  66.333  1.00  0.00    -0.320 C  
HETATM   22  C   UNL     1      -9.783  12.585  68.399  1.00  0.00    -0.189 C  
BRANCH  20  23
HETATM   23  C   UNL     1     -12.064  13.643  68.541  1.00  0.00    -0.321 C  
BRANCH  23  24
HETATM   24  C   UNL     1     -11.994  12.926  69.894  1.00  0.00    -0.377 C  
BRANCH  24  25
HETATM   25  C   UNL     1     -11.617  13.882  71.029  1.00  0.00     0.227 C  
BRANCH  25  26
HETATM   26  C   UNL     1     -12.765  14.852  71.314  1.00  0.00    -0.412 C  
BRANCH  26  27
HETATM   27  C   UNL     1     -13.248  14.756  72.758  1.00  0.00    -0.581 C  
HETATM   28  C   UNL     1     -12.915  16.025  73.530  1.00  0.00    -0.694 C  
ENDBRANCH  26  27
ENDBRANCH  25  26
ENDBRANCH  24  25
ENDBRANCH  23  24
ENDBRANCH  20  23
ENDBRANCH  14  20
TORSDOF 6
ENDMDL
MODEL      169
REMARK 921   NORMALIZED FREE ENERGY PREDICTED BY IDOCK:   -2.82 KCAL/MOL
REMARK 922        TOTAL FREE ENERGY PREDICTED BY IDOCK:   -5.82 KCAL/MOL
REMARK 923 INTER-LIGAND FREE ENERGY PREDICTED BY IDOCK:   -5.25 KCAL/MOL
REMARK 924 INTRA-LIGAND FREE ENERGY PREDICTED BY IDOCK:   -0.57 KCAL/MOL
REMARK 927      BINDING AFFINITY PREDICTED BY RF-SCORE:    0.00 PKD
ROOT
HETATM    1  C   UNL     1     -10.251   6.441  70.513  1.00  0.00    -0.230 C  
HETATM    2  C   UNL     1     -10.432   6.465  72.040  1.00  0.00    -0.236 C  
HETATM    3  C   UNL     1     -10.752   5.085  72.556  1.00  0.00    -0.212 C  
HETATM    4  C   UNL     1      -9.767   4.009  72.200  1.00  0.00    -0.221 C  
HETATM    5  O   UNL     1     -11.720   4.862  73.281  1.00  0.00    -0.312 OA 
HETATM    6  C   UNL     1      -9.616   3.957  70.688  1.00  0.00    -0.259 C  
HETATM    7  C   UNL     1      -9.242   5.330  70.105  1.00  0.00    -0.181 C  
HETATM    8  C   UNL     1      -9.064   5.350  68.564  1.00  0.00    -0.108 C  
HETATM    9  C   UNL     1     -10.359   5.169  67.752  1.00  0.00    -0.157 C  
HETATM   10  C   UNL     1      -8.075   4.265  68.104  1.00  0.00    -0.089 C  
HETATM   11  O   UNL     1      -8.455   6.601  68.183  1.00  0.00    -0.116 OA 
HETATM   12  C   UNL     1      -8.918   7.737  68.796  1.00  0.00    -0.141 A  
HETATM   13  C   UNL     1      -8.422   8.926  68.238  1.00  0.00    -0.130 A  
HETATM   14  C   UNL     1      -8.808  10.183  68.721  1.00  0.00    -0.146 A  
HETATM   15  H   UNL     1     -11.506   8.298  71.689  1.00  0.00     0.000 HD 
HETATM   16  C   UNL     1      -9.742  10.197  69.768  1.00  0.00    -0.232 A  
HETATM   17  C   UNL     1     -10.231   9.011  70.327  1.00  0.00    -0.201 A  
HETATM   18  O   UNL     1     -11.174   9.104  71.310  1.00  0.00    -0.280 OA 
HETATM   19  C   UNL     1      -9.797   7.754  69.890  1.00  0.00    -0.177 A  
ENDROOT
BRANCH  14  20
HETATM   20  C   UNL     1      -8.262  11.505  68.152  1.00  0.00    -0.149 C  
HETATM   21  C   UNL     1      -7.122  12.119  68.998  1.00  0.00    -0.062 C  
HETATM   22  C   UNL     1      -7.665  11.230  66.749  1.00  0.00    -0.155 C  
BRANCH  20  23
HETATM   23  C   UNL     1      -9.405  12.560  67.994  1.00  0.00    -0.205 C  
BRANCH  23  24
HETATM   24  C   UNL     1      -8.937  14.019  67.977  1.00  0.00    -0.182 C  
BRANCH  24  25
HETATM   25  C   UNL     1      -9.881  14.931  68.765  1.00  0.00    -0.225 C  
BRANCH  25  26
HETATM   26  C   UNL     1      -9.176  16.237  69.137  1.00  0.00    -0.235 C  
BRANCH  26  27
HETATM   27  C   UNL     1     -10.029  17.459  68.811  1.00  0.00    -0.329 C  
HETATM   28  C   UNL     1      -9.366  18.318  67.744  1.00  0.00    -0.276 C  
ENDBRANCH  26  27
ENDBRANCH  25  26
ENDBRANCH  24  25
ENDBRANCH  23  24
ENDBRANCH  20  23
ENDBRANCH  14  20
TORSDOF 6
ENDMDL
MODEL      170
REMARK 921   NORMALIZED FREE ENERGY PREDICTED BY IDOCK:   -2.82 KCAL/MOL
REMARK 922        TOTAL FREE ENERGY PREDICTED BY IDOCK:   -5.82 KCAL/MOL
REMARK 923 INTER-LIGAND FREE ENERGY PREDICTED BY IDOCK:   -5.12 KCAL/MOL
REMARK 924 INTRA-LIGAND FREE ENERGY PREDICTED BY IDOCK:   -0.70 KCAL/MOL
REMARK 927      BINDING AFFINITY PREDICTED BY RF-SCORE:    0.00 PKD
ROOT
HETATM    1  C   UNL     1      -7.289  10.790  69.013  1.00  0.00    -0.109 C  
HETATM    2  C   UNL     1      -6.141   9.934  69.575  1.00  0.00    -0.044 C  
HETATM    3  C   UNL     1      -6.485   8.468  69.492  1.00  0.00    -0.040 C  
HETATM    4  C   UNL     1      -6.850   7.957  68.128  1.00  0.00    -0.068 C  
HETATM    5  O   UNL     1      -6.407   7.718  70.464  1.00  0.00    -0.037 OA 
HETATM    6  C   UNL     1      -8.011   8.777  67.587  1.00  0.00    -0.106 C  
HETATM    7  C   UNL     1      -7.701  10.283  67.602  1.00  0.00    -0.090 C  
HETATM    8  C   UNL     1      -8.841  11.182  67.055  1.00  0.00    -0.149 C  
HETATM    9  C   UNL     1     -10.097  11.260  67.942  1.00  0.00    -0.195 C  
HETATM   10  C   UNL     1      -9.291  10.722  65.657  1.00  0.00    -0.241 C  
HETATM   11  O   UNL     1      -8.329  12.517  66.866  1.00  0.00    -0.170 OA 
HETATM   12  C   UNL     1      -7.520  13.025  67.850  1.00  0.00    -0.137 A  
HETATM   13  C   UNL     1      -7.224  14.388  67.694  1.00  0.00    -0.201 A  
HETATM   14  C   UNL     1      -6.432  15.080  68.620  1.00  0.00    -0.087 A  
HETATM   15  H   UNL     1      -6.032  11.437  71.112  1.00  0.00     0.000 HD 
HETATM   16  C   UNL     1      -5.977  14.351  69.730  1.00  0.00    -0.119 A  
HETATM   17  C   UNL     1      -6.269  12.991  69.881  1.00  0.00    -0.089 A  
HETATM   18  O   UNL     1      -5.833  12.361  71.010  1.00  0.00    -0.344 OA 
HETATM   19  C   UNL     1      -7.005  12.282  68.924  1.00  0.00    -0.098 A  
ENDROOT
BRANCH  14  20
HETATM   20  C   UNL     1      -6.063  16.566  68.465  1.00  0.00    -0.129 C  
HETATM   21  C   UNL     1      -5.150  17.098  69.594  1.00  0.00    -0.159 C  
HETATM   22  C   UNL     1      -5.274  16.745  67.144  1.00  0.00    -0.168 C  
BRANCH  20  23
HETATM   23  C   UNL     1      -7.347  17.455  68.386  1.00  0.00    -0.227 C  
BRANCH  23  24
HETATM   24  C   UNL     1      -7.652  18.024  66.996  1.00  0.00    -0.237 C  
BRANCH  24  25
HETATM   25  C   UNL     1      -8.074  19.494  67.061  1.00  0.00    -0.302 C  
BRANCH  25  26
HETATM   26  C   UNL     1      -9.236  19.675  68.040  1.00  0.00    -0.409 C  
BRANCH  26  27
HETATM   27  C   UNL     1     -10.585  19.700  67.328  1.00  0.00    -0.598 C  
HETATM   28  C   UNL     1     -10.409  19.948  65.837  1.00  0.00    -0.567 C  
ENDBRANCH  26  27
ENDBRANCH  25  26
ENDBRANCH  24  25
ENDBRANCH  23  24
ENDBRANCH  20  23
ENDBRANCH  14  20
TORSDOF 6
ENDMDL
MODEL      171
REMARK 921   NORMALIZED FREE ENERGY PREDICTED BY IDOCK:   -2.76 KCAL/MOL
REMARK 922        TOTAL FREE ENERGY PREDICTED BY IDOCK:   -5.74 KCAL/MOL
REMARK 923 INTER-LIGAND FREE ENERGY PREDICTED BY IDOCK:   -4.79 KCAL/MOL
REMARK 924 INTRA-LIGAND FREE ENERGY PREDICTED BY IDOCK:   -0.96 KCAL/MOL
REMARK 927      BINDING AFFINITY PREDICTED BY RF-SCORE:    0.00 PKD
ROOT
HETATM    1  C   UNL     1     -10.265   9.943  66.838  1.00  0.00    -0.302 C  
HETATM    2  C   UNL     1      -9.475   9.222  65.732  1.00  0.00    -0.329 C  
HETATM    3  C   UNL     1      -9.248  10.142  64.559  1.00  0.00    -0.257 C  
HETATM    4  C   UNL     1      -8.568  11.444  64.872  1.00  0.00     0.374 C  
HETATM    5  O   UNL     1      -9.536   9.823  63.407  1.00  0.00    -0.211 OA 
HETATM    6  C   UNL     1      -9.369  12.177  65.937  1.00  0.00    -0.135 C  
HETATM    7  C   UNL     1      -9.594  11.303  67.182  1.00  0.00    -0.194 C  
HETATM    8  C   UNL     1     -10.399  11.991  68.316  1.00  0.00    -0.204 C  
HETATM    9  C   UNL     1     -11.888  12.234  68.009  1.00  0.00    -0.368 C  
HETATM   10  C   UNL     1      -9.779  13.348  68.696  1.00  0.00    -0.084 C  
HETATM   11  O   UNL     1     -10.302  11.186  69.509  1.00  0.00    -0.129 OA 
HETATM   12  C   UNL     1     -10.423   9.828  69.361  1.00  0.00    -0.223 A  
HETATM   13  C   UNL     1     -10.516   9.130  70.576  1.00  0.00    -0.289 A  
HETATM   14  C   UNL     1     -10.671   7.739  70.615  1.00  0.00    -0.233 A  
HETATM   15  H   UNL     1     -10.746   7.545  66.189  1.00  0.00     0.000 HD 
HETATM   16  C   UNL     1     -10.763   7.079  69.381  1.00  0.00    -0.259 A  
HETATM   17  C   UNL     1     -10.665   7.775  68.171  1.00  0.00    -0.051 A  
HETATM   18  O   UNL     1     -10.813   7.072  67.010  1.00  0.00    -0.348 OA 
HETATM   19  C   UNL     1     -10.444   9.156  68.129  1.00  0.00    -0.260 A  
ENDROOT
BRANCH  14  20
HETATM   20  C   UNL     1     -10.748   6.939  71.929  1.00  0.00    -0.245 C  
HETATM   21  C   UNL     1     -10.768   7.829  73.194  1.00  0.00    -0.414 C  
HETATM   22  C   UNL     1     -12.070   6.133  71.941  1.00  0.00    -0.225 C  
BRANCH  20  23
HETATM   23  C   UNL     1      -9.562   5.926  72.036  1.00  0.00    -0.167 C  
BRANCH  23  24
HETATM   24  C   UNL     1      -8.242   6.528  72.531  1.00  0.00    -0.104 C  
BRANCH  24  25
HETATM   25  C   UNL     1      -7.298   6.864  71.374  1.00  0.00    -0.081 C  
BRANCH  25  26
HETATM   26  C   UNL     1      -5.906   6.286  71.636  1.00  0.00    -0.032 C  
BRANCH  26  27
HETATM   27  C   UNL     1      -5.842   4.791  71.335  1.00  0.00    -0.016 C  
HETATM   28  C   UNL     1      -5.459   4.002  72.578  1.00  0.00     0.000 C  
ENDBRANCH  26  27
ENDBRANCH  25  26
ENDBRANCH  24  25
ENDBRANCH  23  24
ENDBRANCH  20  23
ENDBRANCH  14  20
TORSDOF 6
ENDMDL
MODEL      172
REMARK 921   NORMALIZED FREE ENERGY PREDICTED BY IDOCK:   -2.72 KCAL/MOL
REMARK 922        TOTAL FREE ENERGY PREDICTED BY IDOCK:   -5.69 KCAL/MOL
REMARK 923 INTER-LIGAND FREE ENERGY PREDICTED BY IDOCK:   -4.12 KCAL/MOL
REMARK 924 INTRA-LIGAND FREE ENERGY PREDICTED BY IDOCK:   -1.57 KCAL/MOL
REMARK 927      BINDING AFFINITY PREDICTED BY RF-SCORE:    0.00 PKD
ROOT
HETATM    1  C   UNL     1      -9.913   8.786  68.358  1.00  0.00    -0.200 C  
HETATM    2  C   UNL     1     -10.527   9.322  67.053  1.00  0.00    -0.303 C  
HETATM    3  C   UNL     1     -10.779  10.805  67.157  1.00  0.00    -0.272 C  
HETATM    4  C   UNL     1      -9.588  11.647  67.516  1.00  0.00    -0.176 C  
HETATM    5  O   UNL     1     -11.872  11.306  66.899  1.00  0.00    -0.423 OA 
HETATM    6  C   UNL     1      -9.003  11.144  68.826  1.00  0.00    -0.136 C  
HETATM    7  C   UNL     1      -8.680   9.641  68.766  1.00  0.00    -0.126 C  
HETATM    8  C   UNL     1      -8.071   9.059  70.069  1.00  0.00    -0.124 C  
HETATM    9  C   UNL     1      -9.037   8.976  71.264  1.00  0.00    -0.302 C  
HETATM   10  C   UNL     1      -6.845   9.872  70.522  1.00  0.00    -0.122 C  
HETATM   11  O   UNL     1      -7.565   7.736  69.794  1.00  0.00    -0.087 OA 
HETATM   12  C   UNL     1      -8.344   6.914  69.021  1.00  0.00    -0.125 A  
HETATM   13  C   UNL     1      -7.886   5.589  68.961  1.00  0.00    -0.091 A  
HETATM   14  C   UNL     1      -8.573   4.605  68.238  1.00  0.00    -0.105 A  
HETATM   15  H   UNL     1     -11.708   7.522  67.098  1.00  0.00     0.000 HD 
HETATM   16  C   UNL     1      -9.760   5.001  67.604  1.00  0.00    -0.188 A  
HETATM   17  C   UNL     1     -10.212   6.324  67.660  1.00  0.00    -0.169 A  
HETATM   18  O   UNL     1     -11.401   6.623  67.059  1.00  0.00    -0.348 OA 
HETATM   19  C   UNL     1      -9.494   7.323  68.327  1.00  0.00    -0.141 A  
ENDROOT
BRANCH  14  20
HETATM   20  C   UNL     1      -8.083   3.149  68.127  1.00  0.00    -0.080 C  
HETATM   21  C   UNL     1      -7.439   2.613  69.427  1.00  0.00    -0.044 C  
HETATM   22  C   UNL     1      -9.302   2.238  67.836  1.00  0.00    -0.232 C  
BRANCH  20  23
HETATM   23  C   UNL     1      -7.067   2.989  66.950  1.00  0.00    -0.054 C  
BRANCH  23  24
HETATM   24  C   UNL     1      -7.420   3.775  65.683  1.00  0.00    -0.077 C  
BRANCH  24  25
HETATM   25  C   UNL     1      -6.173   4.159  64.882  1.00  0.00    -0.027 C  
BRANCH  25  26
HETATM   26  C   UNL     1      -6.324   5.563  64.296  1.00  0.00    -0.022 C  
BRANCH  26  27
HETATM   27  C   UNL     1      -7.468   6.334  64.948  1.00  0.00    -0.084 C  
HETATM   28  C   UNL     1      -6.946   7.549  65.701  1.00  0.00    -0.060 C  
ENDBRANCH  26  27
ENDBRANCH  25  26
ENDBRANCH  24  25
ENDBRANCH  23  24
ENDBRANCH  20  23
ENDBRANCH  14  20
TORSDOF 6
ENDMDL
MODEL      173
REMARK 921   NORMALIZED FREE ENERGY PREDICTED BY IDOCK:   -2.70 KCAL/MOL
REMARK 922        TOTAL FREE ENERGY PREDICTED BY IDOCK:   -5.67 KCAL/MOL
REMARK 923 INTER-LIGAND FREE ENERGY PREDICTED BY IDOCK:   -4.90 KCAL/MOL
REMARK 924 INTRA-LIGAND FREE ENERGY PREDICTED BY IDOCK:   -0.77 KCAL/MOL
REMARK 927      BINDING AFFINITY PREDICTED BY RF-SCORE:    0.00 PKD
ROOT
HETATM    1  C   UNL     1      -8.625   4.392  67.159  1.00  0.00    -0.104 C  
HETATM    2  C   UNL     1      -9.512   4.084  65.940  1.00  0.00    -0.180 C  
HETATM    3  C   UNL     1      -8.922   2.958  65.129  1.00  0.00    -0.134 C  
HETATM    4  C   UNL     1      -8.659   1.681  65.875  1.00  0.00    -0.111 C  
HETATM    5  O   UNL     1      -8.730   3.051  63.918  1.00  0.00    -0.089 OA 
HETATM    6  C   UNL     1      -7.750   1.977  67.057  1.00  0.00    -0.065 C  
HETATM    7  C   UNL     1      -8.324   3.089  67.953  1.00  0.00    -0.094 C  
HETATM    8  C   UNL     1      -7.451   3.439  69.186  1.00  0.00    -0.049 C  
HETATM    9  C   UNL     1      -6.121   4.147  68.869  1.00  0.00    -0.030 C  
HETATM   10  C   UNL     1      -7.119   2.181  70.009  1.00  0.00    -0.033 C  
HETATM   11  O   UNL     1      -8.217   4.278  70.075  1.00  0.00    -0.061 OA 
HETATM   12  C   UNL     1      -8.963   5.278  69.506  1.00  0.00    -0.103 A  
HETATM   13  C   UNL     1      -9.521   6.170  70.435  1.00  0.00    -0.179 A  
HETATM   14  C   UNL     1     -10.292   7.267  70.031  1.00  0.00    -0.222 A  
HETATM   15  H   UNL     1      -9.682   6.223  65.768  1.00  0.00     0.000 HD 
HETATM   16  C   UNL     1     -10.452   7.452  68.649  1.00  0.00    -0.211 A  
HETATM   17  C   UNL     1      -9.900   6.558  67.724  1.00  0.00    -0.123 A  
HETATM   18  O   UNL     1     -10.057   6.830  66.396  1.00  0.00    -0.109 OA 
HETATM   19  C   UNL     1      -9.185   5.425  68.127  1.00  0.00    -0.122 A  
ENDROOT
BRANCH  14  20
HETATM   20  C   UNL     1     -10.942   8.248  71.024  1.00  0.00    -0.280 C  
HETATM   21  C   UNL     1     -12.471   8.066  71.162  1.00  0.00    -0.206 C  
HETATM   22  C   UNL     1     -10.343   7.996  72.431  1.00  0.00    -0.355 C  
BRANCH  20  23
HETATM   23  C   UNL     1     -10.638   9.729  70.627  1.00  0.00    -0.382 C  
BRANCH  23  24
HETATM   24  C   UNL     1     -11.876  10.592  70.358  1.00  0.00    -0.431 C  
BRANCH  24  25
HETATM   25  C   UNL     1     -11.776  11.337  69.025  1.00  0.00    -0.410 C  
BRANCH  25  26
HETATM   26  C   UNL     1     -11.803  12.849  69.254  1.00  0.00    -0.363 C  
BRANCH  26  27
HETATM   27  C   UNL     1     -10.540  13.529  68.734  1.00  0.00    -0.237 C  
HETATM   28  C   UNL     1      -9.976  12.785  67.534  1.00  0.00    -0.210 C  
ENDBRANCH  26  27
ENDBRANCH  25  26
ENDBRANCH  24  25
ENDBRANCH  23  24
ENDBRANCH  20  23
ENDBRANCH  14  20
TORSDOF 6
ENDMDL
MODEL      174
REMARK 921   NORMALIZED FREE ENERGY PREDICTED BY IDOCK:   -2.69 KCAL/MOL
REMARK 922        TOTAL FREE ENERGY PREDICTED BY IDOCK:   -5.65 KCAL/MOL
REMARK 923 INTER-LIGAND FREE ENERGY PREDICTED BY IDOCK:   -4.61 KCAL/MOL
REMARK 924 INTRA-LIGAND FREE ENERGY PREDICTED BY IDOCK:   -1.04 KCAL/MOL
REMARK 927      BINDING AFFINITY PREDICTED BY RF-SCORE:    0.00 PKD
ROOT
HETATM    1  C   UNL     1      -7.972  11.013  67.228  1.00  0.00    -0.126 C  
HETATM    2  C   UNL     1      -6.530  10.489  67.340  1.00  0.00    -0.062 C  
HETATM    3  C   UNL     1      -6.447   9.061  66.861  1.00  0.00    -0.064 C  
HETATM    4  C   UNL     1      -6.950   8.809  65.469  1.00  0.00    -0.076 C  
HETATM    5  O   UNL     1      -5.939   8.169  67.537  1.00  0.00    -0.044 OA 
HETATM    6  C   UNL     1      -8.388   9.290  65.367  1.00  0.00    -0.143 C  
HETATM    7  C   UNL     1      -8.530  10.760  65.799  1.00  0.00    -0.174 C  
HETATM    8  C   UNL     1      -9.973  11.321  65.713  1.00  0.00    -0.237 C  
HETATM    9  C   UNL     1     -10.963  10.747  66.743  1.00  0.00    -0.214 C  
HETATM   10  C   UNL     1     -10.577  11.094  64.315  1.00  0.00    -0.425 C  
HETATM   11  O   UNL     1      -9.924  12.754  65.873  1.00  0.00    -0.267 OA 
HETATM   12  C   UNL     1      -9.094  13.249  66.846  1.00  0.00    -0.232 A  
HETATM   13  C   UNL     1      -9.245  14.625  67.076  1.00  0.00    -0.252 A  
HETATM   14  C   UNL     1      -8.497  15.295  68.053  1.00  0.00    -0.147 A  
HETATM   15  H   UNL     1      -6.512  11.513  69.234  1.00  0.00     0.000 HD 
HETATM   16  C   UNL     1      -7.613  14.516  68.815  1.00  0.00    -0.131 A  
HETATM   17  C   UNL     1      -7.459  13.145  68.581  1.00  0.00    -0.092 A  
HETATM   18  O   UNL     1      -6.616  12.444  69.393  1.00  0.00    -0.108 OA 
HETATM   19  C   UNL     1      -8.157  12.486  67.562  1.00  0.00    -0.176 A  
ENDROOT
BRANCH  14  20
HETATM   20  C   UNL     1      -8.617  16.808  68.312  1.00  0.00    -0.226 C  
HETATM   21  C   UNL     1      -9.822  17.190  69.203  1.00  0.00    -0.187 C  
HETATM   22  C   UNL     1      -7.349  17.283  69.066  1.00  0.00    -0.209 C  
BRANCH  20  23
HETATM   23  C   UNL     1      -8.705  17.599  66.967  1.00  0.00    -0.254 C  
BRANCH  23  24
HETATM   24  C   UNL     1     -10.008  18.380  66.763  1.00  0.00    -0.374 C  
BRANCH  24  25
HETATM   25  C   UNL     1     -10.723  17.974  65.472  1.00  0.00     0.035 C  
BRANCH  25  26
HETATM   26  C   UNL     1     -11.274  16.552  65.592  1.00  0.00     0.248 C  
BRANCH  26  27
HETATM   27  C   UNL     1     -11.423  15.880  64.230  1.00  0.00    -0.197 C  
HETATM   28  C   UNL     1     -12.246  14.605  64.337  1.00  0.00    -0.473 C  
ENDBRANCH  26  27
ENDBRANCH  25  26
ENDBRANCH  24  25
ENDBRANCH  23  24
ENDBRANCH  20  23
ENDBRANCH  14  20
TORSDOF 6
ENDMDL
MODEL      175
REMARK 921   NORMALIZED FREE ENERGY PREDICTED BY IDOCK:   -2.67 KCAL/MOL
REMARK 922        TOTAL FREE ENERGY PREDICTED BY IDOCK:   -5.63 KCAL/MOL
REMARK 923 INTER-LIGAND FREE ENERGY PREDICTED BY IDOCK:   -4.94 KCAL/MOL
REMARK 924 INTRA-LIGAND FREE ENERGY PREDICTED BY IDOCK:   -0.69 KCAL/MOL
REMARK 927      BINDING AFFINITY PREDICTED BY RF-SCORE:    0.00 PKD
ROOT
HETATM    1  C   UNL     1      -9.270  13.984  67.255  1.00  0.00    -0.231 C  
HETATM    2  C   UNL     1      -8.945  14.683  68.587  1.00  0.00    -0.184 C  
HETATM    3  C   UNL     1      -9.673  15.999  68.684  1.00  0.00    -0.217 C  
HETATM    4  C   UNL     1     -11.165  15.936  68.520  1.00  0.00    -0.362 C  
HETATM    5  O   UNL     1      -9.096  17.053  68.950  1.00  0.00    -0.262 OA 
HETATM    6  C   UNL     1     -11.488  15.281  67.186  1.00  0.00    -0.202 C  
HETATM    7  C   UNL     1     -10.809  13.907  67.046  1.00  0.00    -0.288 C  
HETATM    8  C   UNL     1     -11.102  13.176  65.710  1.00  0.00    -0.273 C  
HETATM    9  C   UNL     1     -10.460  13.809  64.462  1.00  0.00    -0.378 C  
HETATM   10  C   UNL     1     -12.616  13.075  65.450  1.00  0.00    -0.481 C  
HETATM   11  O   UNL     1     -10.646  11.811  65.818  1.00  0.00    -0.251 OA 
HETATM   12  C   UNL     1      -9.431  11.601  66.419  1.00  0.00    -0.217 A  
HETATM   13  C   UNL     1      -8.966  10.281  66.312  1.00  0.00    -0.172 A  
HETATM   14  C   UNL     1      -7.730   9.890  66.844  1.00  0.00    -0.098 A  
HETATM   15  H   UNL     1      -6.928  14.028  68.214  1.00  0.00     0.000 HD 
HETATM   16  C   UNL     1      -6.964  10.892  67.460  1.00  0.00    -0.084 A  
HETATM   17  C   UNL     1      -7.432  12.206  67.571  1.00  0.00    -0.148 A  
HETATM   18  O   UNL     1      -6.610  13.135  68.139  1.00  0.00    -0.082 OA 
HETATM   19  C   UNL     1      -8.694  12.584  67.098  1.00  0.00    -0.200 A  
ENDROOT
BRANCH  14  20
HETATM   20  C   UNL     1      -7.203   8.446  66.771  1.00  0.00    -0.078 C  
HETATM   21  C   UNL     1      -7.257   7.839  65.349  1.00  0.00    -0.068 C  
HETATM   22  C   UNL     1      -5.712   8.442  67.191  1.00  0.00    -0.039 C  
BRANCH  20  23
HETATM   23  C   UNL     1      -7.985   7.515  67.753  1.00  0.00    -0.118 C  
BRANCH  23  24
HETATM   24  C   UNL     1      -7.361   6.130  67.963  1.00  0.00    -0.088 C  
BRANCH  24  25
HETATM   25  C   UNL     1      -8.417   5.022  67.965  1.00  0.00    -0.103 C  
BRANCH  25  26
HETATM   26  C   UNL     1      -7.793   3.688  67.550  1.00  0.00    -0.078 C  
BRANCH  26  27
HETATM   27  C   UNL     1      -8.577   3.015  66.427  1.00  0.00    -0.118 C  
HETATM   28  C   UNL     1      -8.778   3.967  65.257  1.00  0.00    -0.116 C  
ENDBRANCH  26  27
ENDBRANCH  25  26
ENDBRANCH  24  25
ENDBRANCH  23  24
ENDBRANCH  20  23
ENDBRANCH  14  20
TORSDOF 6
ENDMDL
MODEL      176
REMARK 921   NORMALIZED FREE ENERGY PREDICTED BY IDOCK:   -2.67 KCAL/MOL
REMARK 922        TOTAL FREE ENERGY PREDICTED BY IDOCK:   -5.62 KCAL/MOL
REMARK 923 INTER-LIGAND FREE ENERGY PREDICTED BY IDOCK:   -5.10 KCAL/MOL
REMARK 924 INTRA-LIGAND FREE ENERGY PREDICTED BY IDOCK:   -0.52 KCAL/MOL
REMARK 927      BINDING AFFINITY PREDICTED BY RF-SCORE:    0.00 PKD
ROOT
HETATM    1  C   UNL     1     -10.351  11.047  66.353  1.00  0.00    -0.302 C  
HETATM    2  C   UNL     1      -9.920  10.829  64.892  1.00  0.00    -0.374 C  
HETATM    3  C   UNL     1     -10.497  11.903  64.005  1.00  0.00    -0.373 C  
HETATM    4  C   UNL     1     -10.181  13.317  64.399  1.00  0.00    -0.300 C  
HETATM    5  O   UNL     1     -11.129  11.642  62.983  1.00  0.00    -0.194 OA 
HETATM    6  C   UNL     1     -10.643  13.547  65.830  1.00  0.00    -0.283 C  
HETATM    7  C   UNL     1     -10.047  12.507  66.795  1.00  0.00    -0.233 C  
HETATM    8  C   UNL     1     -10.470  12.685  68.276  1.00  0.00    -0.239 C  
HETATM    9  C   UNL     1     -11.947  12.370  68.580  1.00  0.00    -0.273 C  
HETATM   10  C   UNL     1     -10.194  14.118  68.766  1.00  0.00    -0.216 C  
HETATM   11  O   UNL     1      -9.642  11.839  69.100  1.00  0.00     0.080 OA 
HETATM   12  C   UNL     1      -9.394  10.569  68.646  1.00  0.00    -0.172 A  
HETATM   13  C   UNL     1      -8.752   9.745  69.584  1.00  0.00    -0.211 A  
HETATM   14  C   UNL     1      -8.444   8.408  69.301  1.00  0.00    -0.125 A  
HETATM   15  H   UNL     1     -10.305   8.749  65.294  1.00  0.00     0.000 HD 
HETATM   16  C   UNL     1      -8.840   7.922  68.046  1.00  0.00    -0.124 A  
HETATM   17  C   UNL     1      -9.475   8.746  67.110  1.00  0.00    -0.162 A  
HETATM   18  O   UNL     1      -9.873   8.189  65.929  1.00  0.00    -0.015 OA 
HETATM   19  C   UNL     1      -9.724  10.099  67.365  1.00  0.00    -0.192 A  
ENDROOT
BRANCH  14  20
HETATM   20  C   UNL     1      -7.715   7.486  70.295  1.00  0.00    -0.092 C  
HETATM   21  C   UNL     1      -6.622   6.610  69.639  1.00  0.00    -0.048 C  
HETATM   22  C   UNL     1      -6.996   8.364  71.349  1.00  0.00    -0.072 C  
BRANCH  20  23
HETATM   23  C   UNL     1      -8.728   6.561  71.045  1.00  0.00    -0.138 C  
BRANCH  23  24
HETATM   24  C   UNL     1      -8.121   5.281  71.630  1.00  0.00    -0.116 C  
BRANCH  24  25
HETATM   25  C   UNL     1      -9.045   4.074  71.446  1.00  0.00    -0.174 C  
BRANCH  25  26
HETATM   26  C   UNL     1      -9.549   3.576  72.802  1.00  0.00    -0.182 C  
BRANCH  26  27
HETATM   27  C   UNL     1     -10.946   4.101  73.120  1.00  0.00    -0.278 C  
HETATM   28  C   UNL     1     -10.884   5.523  73.657  1.00  0.00    -0.294 C  
ENDBRANCH  26  27
ENDBRANCH  25  26
ENDBRANCH  24  25
ENDBRANCH  23  24
ENDBRANCH  20  23
ENDBRANCH  14  20
TORSDOF 6
ENDMDL
MODEL      177
REMARK 921   NORMALIZED FREE ENERGY PREDICTED BY IDOCK:   -2.67 KCAL/MOL
REMARK 922        TOTAL FREE ENERGY PREDICTED BY IDOCK:   -5.62 KCAL/MOL
REMARK 923 INTER-LIGAND FREE ENERGY PREDICTED BY IDOCK:   -5.06 KCAL/MOL
REMARK 924 INTRA-LIGAND FREE ENERGY PREDICTED BY IDOCK:   -0.56 KCAL/MOL
REMARK 927      BINDING AFFINITY PREDICTED BY RF-SCORE:    0.00 PKD
ROOT
HETATM    1  C   UNL     1      -9.859   7.264  68.907  1.00  0.00    -0.158 C  
HETATM    2  C   UNL     1     -10.122   5.856  68.346  1.00  0.00    -0.206 C  
HETATM    3  C   UNL     1     -10.098   4.833  69.453  1.00  0.00    -0.171 C  
HETATM    4  C   UNL     1     -11.039   5.085  70.596  1.00  0.00     0.593 C  
HETATM    5  O   UNL     1      -9.405   3.819  69.397  1.00  0.00    -0.146 OA 
HETATM    6  C   UNL     1     -10.754   6.461  71.178  1.00  0.00    -0.293 C  
HETATM    7  C   UNL     1     -10.811   7.557  70.101  1.00  0.00    -0.259 C  
HETATM    8  C   UNL     1     -10.537   8.991  70.625  1.00  0.00    -0.236 C  
HETATM    9  C   UNL     1      -9.087   9.263  71.066  1.00  0.00    -0.253 C  
HETATM   10  C   UNL     1     -11.453   9.334  71.814  1.00  0.00    -0.448 C  
HETATM   11  O   UNL     1     -10.888   9.938  69.594  1.00  0.00    -0.227 OA 
HETATM   12  C   UNL     1     -10.512   9.635  68.311  1.00  0.00    -0.219 A  
HETATM   13  C   UNL     1     -10.710  10.684  67.399  1.00  0.00    -0.326 A  
HETATM   14  C   UNL     1     -10.359  10.562  66.048  1.00  0.00    -0.279 A  
HETATM   15  H   UNL     1      -8.821   6.464  66.741  1.00  0.00     0.000 HD 
HETATM   16  C   UNL     1      -9.767   9.351  65.658  1.00  0.00    -0.336 A  
HETATM   17  C   UNL     1      -9.576   8.304  66.566  1.00  0.00    -0.244 A  
HETATM   18  O   UNL     1      -8.951   7.174  66.124  1.00  0.00    -0.159 OA 
HETATM   19  C   UNL     1      -9.986   8.400  67.901  1.00  0.00    -0.228 A  
ENDROOT
BRANCH  14  20
HETATM   20  C   UNL     1     -10.588  11.681  65.016  1.00  0.00    -0.342 C  
HETATM   21  C   UNL     1     -11.972  12.362  65.139  1.00  0.00    -0.454 C  
HETATM   22  C   UNL     1      -9.533  12.791  65.248  1.00  0.00     0.217 C  
BRANCH  20  23
HETATM   23  C   UNL     1     -10.412  11.142  63.559  1.00  0.00    -0.422 C  
BRANCH  23  24
HETATM   24  C   UNL     1      -9.040  11.417  62.932  1.00  0.00    -0.257 C  
BRANCH  24  25
HETATM   25  C   UNL     1      -8.098  10.219  63.070  1.00  0.00    -0.157 C  
BRANCH  25  26
HETATM   26  C   UNL     1      -6.681  10.689  63.405  1.00  0.00     0.136 C  
BRANCH  26  27
HETATM   27  C   UNL     1      -5.620   9.869  62.677  1.00  0.00    -0.094 C  
HETATM   28  C   UNL     1      -6.076   8.429  62.495  1.00  0.00    -0.087 C  
ENDBRANCH  26  27
ENDBRANCH  25  26
ENDBRANCH  24  25
ENDBRANCH  23  24
ENDBRANCH  20  23
ENDBRANCH  14  20
TORSDOF 6
ENDMDL
MODEL      178
REMARK 921   NORMALIZED FREE ENERGY PREDICTED BY IDOCK:   -2.65 KCAL/MOL
REMARK 922        TOTAL FREE ENERGY PREDICTED BY IDOCK:   -5.59 KCAL/MOL
REMARK 923 INTER-LIGAND FREE ENERGY PREDICTED BY IDOCK:   -4.78 KCAL/MOL
REMARK 924 INTRA-LIGAND FREE ENERGY PREDICTED BY IDOCK:   -0.81 KCAL/MOL
REMARK 927      BINDING AFFINITY PREDICTED BY RF-SCORE:    0.00 PKD
ROOT
HETATM    1  C   UNL     1      -9.798  13.861  68.065  1.00  0.00    -0.234 C  
HETATM    2  C   UNL     1     -11.191  14.426  67.736  1.00  0.00    -0.316 C  
HETATM    3  C   UNL     1     -11.375  15.781  68.372  1.00  0.00    -0.372 C  
HETATM    4  C   UNL     1     -10.338  16.812  68.030  1.00  0.00    -0.317 C  
HETATM    5  O   UNL     1     -12.349  16.051  69.074  1.00  0.00    -0.092 OA 
HETATM    6  C   UNL     1      -8.964  16.270  68.391  1.00  0.00    -0.203 C  
HETATM    7  C   UNL     1      -8.697  14.907  67.731  1.00  0.00    -0.168 C  
HETATM    8  C   UNL     1      -7.307  14.297  68.050  1.00  0.00    -0.142 C  
HETATM    9  C   UNL     1      -7.117  13.821  69.502  1.00  0.00     0.121 C  
HETATM   10  C   UNL     1      -6.176  15.294  67.740  1.00  0.00    -0.178 C  
HETATM   11  O   UNL     1      -7.076  13.180  67.167  1.00  0.00    -0.083 OA 
HETATM   12  C   UNL     1      -8.125  12.323  66.951  1.00  0.00    -0.090 A  
HETATM   13  C   UNL     1      -7.774  11.161  66.246  1.00  0.00    -0.097 A  
HETATM   14  C   UNL     1      -8.713  10.162  65.959  1.00  0.00    -0.153 A  
HETATM   15  H   UNL     1     -11.876  12.417  68.092  1.00  0.00     0.000 HD 
HETATM   16  C   UNL     1     -10.016  10.363  66.441  1.00  0.00    -0.277 A  
HETATM   17  C   UNL     1     -10.366  11.525  67.139  1.00  0.00    -0.216 A  
HETATM   18  O   UNL     1     -11.639  11.628  67.618  1.00  0.00    -0.428 OA 
HETATM   19  C   UNL     1      -9.445  12.554  67.370  1.00  0.00    -0.184 A  
ENDROOT
BRANCH  14  20
HETATM   20  C   UNL     1      -8.369   8.890  65.164  1.00  0.00    -0.170 C  
HETATM   21  C   UNL     1      -8.659   9.010  63.649  1.00  0.00    -0.145 C  
HETATM   22  C   UNL     1      -6.850   8.618  65.298  1.00  0.00    -0.071 C  
BRANCH  20  23
HETATM   23  C   UNL     1      -9.134   7.651  65.732  1.00  0.00    -0.042 C  
BRANCH  23  24
HETATM   24  C   UNL     1      -8.550   7.069  67.025  1.00  0.00    -0.122 C  
BRANCH  24  25
HETATM   25  C   UNL     1      -9.387   5.905  67.557  1.00  0.00    -0.110 C  
BRANCH  25  26
HETATM   26  C   UNL     1     -10.528   5.580  66.591  1.00  0.00    -0.355 C  
BRANCH  26  27
HETATM   27  C   UNL     1     -10.310   4.250  65.876  1.00  0.00    -0.152 C  
HETATM   28  C   UNL     1      -9.305   3.387  66.625  1.00  0.00    -0.179 C  
ENDBRANCH  26  27
ENDBRANCH  25  26
ENDBRANCH  24  25
ENDBRANCH  23  24
ENDBRANCH  20  23
ENDBRANCH  14  20
TORSDOF 6
ENDMDL
MODEL      179
REMARK 921   NORMALIZED FREE ENERGY PREDICTED BY IDOCK:   -2.59 KCAL/MOL
REMARK 922        TOTAL FREE ENERGY PREDICTED BY IDOCK:   -5.51 KCAL/MOL
REMARK 923 INTER-LIGAND FREE ENERGY PREDICTED BY IDOCK:   -4.39 KCAL/MOL
REMARK 924 INTRA-LIGAND FREE ENERGY PREDICTED BY IDOCK:   -1.12 KCAL/MOL
REMARK 927      BINDING AFFINITY PREDICTED BY RF-SCORE:    0.00 PKD
ROOT
HETATM    1  C   UNL     1      -8.861   5.341  65.313  1.00  0.00    -0.144 C  
HETATM    2  C   UNL     1      -9.559   4.044  65.756  1.00  0.00    -0.191 C  
HETATM    3  C   UNL     1      -9.179   2.902  64.848  1.00  0.00    -0.148 C  
HETATM    4  C   UNL     1      -7.707   2.638  64.711  1.00  0.00    -0.077 C  
HETATM    5  O   UNL     1     -10.018   2.184  64.307  1.00  0.00    -0.104 OA 
HETATM    6  C   UNL     1      -7.019   3.908  64.234  1.00  0.00    -0.046 C  
HETATM    7  C   UNL     1      -7.333   5.104  65.151  1.00  0.00    -0.068 C  
HETATM    8  C   UNL     1      -6.657   6.435  64.729  1.00  0.00    -0.038 C  
HETATM    9  C   UNL     1      -7.203   7.066  63.435  1.00  0.00    -0.074 C  
HETATM   10  C   UNL     1      -5.138   6.256  64.550  1.00  0.00    -0.017 C  
HETATM   11  O   UNL     1      -6.800   7.389  65.801  1.00  0.00    -0.054 OA 
HETATM   12  C   UNL     1      -8.019   7.451  66.427  1.00  0.00    -0.108 A  
HETATM   13  C   UNL     1      -8.145   8.528  67.319  1.00  0.00    -0.105 A  
HETATM   14  C   UNL     1      -9.331   8.763  68.026  1.00  0.00    -0.153 A  
HETATM   15  H   UNL     1     -11.279   5.303  66.058  1.00  0.00     0.000 HD 
HETATM   16  C   UNL     1     -10.399   7.889  67.775  1.00  0.00    -0.289 A  
HETATM   17  C   UNL     1     -10.270   6.813  66.890  1.00  0.00    -0.231 A  
HETATM   18  O   UNL     1     -11.367   6.034  66.660  1.00  0.00    -0.106 OA 
HETATM   19  C   UNL     1      -9.066   6.537  66.232  1.00  0.00    -0.168 A  
ENDROOT
BRANCH  14  20
HETATM   20  C   UNL     1      -9.494   9.917  69.033  1.00  0.00    -0.185 C  
HETATM   21  C   UNL     1      -8.597  11.139  68.724  1.00  0.00    -0.133 C  
HETATM   22  C   UNL     1     -10.957  10.423  68.973  1.00  0.00    -0.282 C  
BRANCH  20  23
HETATM   23  C   UNL     1      -9.209   9.431  70.491  1.00  0.00    -0.314 C  
BRANCH  23  24
HETATM   24  C   UNL     1      -8.496   8.078  70.592  1.00  0.00    -0.125 C  
BRANCH  24  25
HETATM   25  C   UNL     1      -9.335   7.044  71.345  1.00  0.00    -0.155 C  
BRANCH  25  26
HETATM   26  C   UNL     1     -10.719   7.611  71.668  1.00  0.00    -0.243 C  
BRANCH  26  27
HETATM   27  C   UNL     1     -11.834   6.817  70.992  1.00  0.00    -0.427 C  
HETATM   28  C   UNL     1     -13.202   7.329  71.417  1.00  0.00    -0.404 C  
ENDBRANCH  26  27
ENDBRANCH  25  26
ENDBRANCH  24  25
ENDBRANCH  23  24
ENDBRANCH  20  23
ENDBRANCH  14  20
TORSDOF 6
ENDMDL
MODEL      180
REMARK 921   NORMALIZED FREE ENERGY PREDICTED BY IDOCK:   -2.56 KCAL/MOL
REMARK 922        TOTAL FREE ENERGY PREDICTED BY IDOCK:   -5.47 KCAL/MOL
REMARK 923 INTER-LIGAND FREE ENERGY PREDICTED BY IDOCK:   -4.18 KCAL/MOL
REMARK 924 INTRA-LIGAND FREE ENERGY PREDICTED BY IDOCK:   -1.29 KCAL/MOL
REMARK 927      BINDING AFFINITY PREDICTED BY RF-SCORE:    0.00 PKD
ROOT
HETATM    1  C   UNL     1      -9.813   8.829  69.046  1.00  0.00    -0.183 C  
HETATM    2  C   UNL     1     -11.118   9.115  68.283  1.00  0.00     0.109 C  
HETATM    3  C   UNL     1     -11.206  10.575  67.915  1.00  0.00    -0.289 C  
HETATM    4  C   UNL     1     -10.052  11.121  67.125  1.00  0.00    -0.223 C  
HETATM    5  O   UNL     1     -12.191  11.262  68.182  1.00  0.00    -0.622 OA 
HETATM    6  C   UNL     1      -8.765  10.875  67.896  1.00  0.00    -0.131 C  
HETATM    7  C   UNL     1      -8.594   9.390  68.261  1.00  0.00    -0.120 C  
HETATM    8  C   UNL     1      -7.295   9.064  69.043  1.00  0.00    -0.073 C  
HETATM    9  C   UNL     1      -7.246   9.598  70.486  1.00  0.00    -0.143 C  
HETATM   10  C   UNL     1      -6.052   9.601  68.310  1.00  0.00    -0.051 C  
HETATM   11  O   UNL     1      -7.121   7.632  69.078  1.00  0.00    -0.074 OA 
HETATM   12  C   UNL     1      -8.235   6.871  69.325  1.00  0.00    -0.125 A  
HETATM   13  C   UNL     1      -7.957   5.512  69.539  1.00  0.00    -0.094 A  
HETATM   14  C   UNL     1      -8.972   4.590  69.832  1.00  0.00    -0.145 A  
HETATM   15  H   UNL     1     -12.022   7.803  69.731  1.00  0.00     0.000 HD 
HETATM   16  C   UNL     1     -10.275   5.099  69.934  1.00  0.00    -0.361 A  
HETATM   17  C   UNL     1     -10.551   6.453  69.715  1.00  0.00    -0.254 A  
HETATM   18  O   UNL     1     -11.836   6.883  69.880  1.00  0.00    -0.212 OA 
HETATM   19  C   UNL     1      -9.549   7.363  69.358  1.00  0.00    -0.155 A  
ENDROOT
BRANCH  14  20
HETATM   20  C   UNL     1      -8.707   3.089  70.044  1.00  0.00    -0.129 C  
HETATM   21  C   UNL     1      -7.204   2.723  70.067  1.00  0.00    -0.040 C  
HETATM   22  C   UNL     1      -9.278   2.676  71.423  1.00  0.00    -0.189 C  
BRANCH  20  23
HETATM   23  C   UNL     1      -9.423   2.235  68.948  1.00  0.00    -0.169 C  
BRANCH  23  24
HETATM   24  C   UNL     1      -8.765   2.278  67.564  1.00  0.00    -0.139 C  
BRANCH  24  25
HETATM   25  C   UNL     1      -9.334   3.401  66.695  1.00  0.00    -0.179 C  
BRANCH  25  26
HETATM   26  C   UNL     1      -8.258   3.950  65.757  1.00  0.00    -0.105 C  
BRANCH  26  27
HETATM   27  C   UNL     1      -7.032   4.442  66.520  1.00  0.00    -0.059 C  
HETATM   28  C   UNL     1      -5.755   4.150  65.747  1.00  0.00    -0.022 C  
ENDBRANCH  26  27
ENDBRANCH  25  26
ENDBRANCH  24  25
ENDBRANCH  23  24
ENDBRANCH  20  23
ENDBRANCH  14  20
TORSDOF 6
ENDMDL
MODEL      181
REMARK 921   NORMALIZED FREE ENERGY PREDICTED BY IDOCK:   -2.50 KCAL/MOL
REMARK 922        TOTAL FREE ENERGY PREDICTED BY IDOCK:   -5.39 KCAL/MOL
REMARK 923 INTER-LIGAND FREE ENERGY PREDICTED BY IDOCK:   -4.30 KCAL/MOL
REMARK 924 INTRA-LIGAND FREE ENERGY PREDICTED BY IDOCK:   -1.10 KCAL/MOL
REMARK 927      BINDING AFFINITY PREDICTED BY RF-SCORE:    0.00 PKD
ROOT
HETATM    1  C   UNL     1     -10.388  11.194  66.197  1.00  0.00    -0.302 C  
HETATM    2  C   UNL     1     -10.025  11.290  64.705  1.00  0.00    -0.331 C  
HETATM    3  C   UNL     1     -10.961  12.233  63.992  1.00  0.00    -0.383 C  
HETATM    4  C   UNL     1     -11.051  13.620  64.561  1.00  0.00    -0.396 C  
HETATM    5  O   UNL     1     -11.563  11.914  62.969  1.00  0.00    -0.198 OA 
HETATM    6  C   UNL     1     -11.449  13.529  66.026  1.00  0.00    -0.345 C  
HETATM    7  C   UNL     1     -10.499  12.615  66.819  1.00  0.00    -0.254 C  
HETATM    8  C   UNL     1     -10.841  12.481  68.326  1.00  0.00    -0.234 C  
HETATM    9  C   UNL     1     -12.130  11.698  68.639  1.00  0.00    -0.184 C  
HETATM   10  C   UNL     1     -10.966  13.862  68.994  1.00  0.00    -0.281 C  
HETATM   11  O   UNL     1      -9.738  11.837  68.997  1.00  0.00    -0.042 OA 
HETATM   12  C   UNL     1      -9.160  10.765  68.367  1.00  0.00    -0.164 A  
HETATM   13  C   UNL     1      -8.232  10.073  69.161  1.00  0.00    -0.137 A  
HETATM   14  C   UNL     1      -7.563   8.936  68.689  1.00  0.00    -0.096 A  
HETATM   15  H   UNL     1      -9.742   9.160  64.837  1.00  0.00     0.000 HD 
HETATM   16  C   UNL     1      -7.891   8.502  67.396  1.00  0.00    -0.098 A  
HETATM   17  C   UNL     1      -8.812   9.197  66.603  1.00  0.00    -0.128 A  
HETATM   18  O   UNL     1      -9.116   8.688  65.374  1.00  0.00    -0.179 OA 
HETATM   19  C   UNL     1      -9.432  10.370  67.048  1.00  0.00    -0.189 A  
ENDROOT
BRANCH  14  20
HETATM   20  C   UNL     1      -6.519   8.170  69.522  1.00  0.00    -0.034 C  
HETATM   21  C   UNL     1      -5.185   7.935  68.776  1.00  0.00    -0.026 C  
HETATM   22  C   UNL     1      -6.176   9.009  70.778  1.00  0.00    -0.048 C  
BRANCH  20  23
HETATM   23  C   UNL     1      -7.086   6.793  70.000  1.00  0.00    -0.071 C  
BRANCH  23  24
HETATM   24  C   UNL     1      -6.025   5.768  70.414  1.00  0.00    -0.025 C  
BRANCH  24  25
HETATM   25  C   UNL     1      -6.219   4.426  69.704  1.00  0.00    -0.027 C  
BRANCH  25  26
HETATM   26  C   UNL     1      -7.195   4.575  68.536  1.00  0.00    -0.060 C  
BRANCH  26  27
HETATM   27  C   UNL     1      -6.540   4.247  67.198  1.00  0.00    -0.046 C  
HETATM   28  C   UNL     1      -5.733   5.430  66.683  1.00  0.00    -0.018 C  
ENDBRANCH  26  27
ENDBRANCH  25  26
ENDBRANCH  24  25
ENDBRANCH  23  24
ENDBRANCH  20  23
ENDBRANCH  14  20
TORSDOF 6
ENDMDL
MODEL      182
REMARK 921   NORMALIZED FREE ENERGY PREDICTED BY IDOCK:   -2.48 KCAL/MOL
REMARK 922        TOTAL FREE ENERGY PREDICTED BY IDOCK:   -5.37 KCAL/MOL
REMARK 923 INTER-LIGAND FREE ENERGY PREDICTED BY IDOCK:   -3.53 KCAL/MOL
REMARK 924 INTRA-LIGAND FREE ENERGY PREDICTED BY IDOCK:   -1.83 KCAL/MOL
REMARK 927      BINDING AFFINITY PREDICTED BY RF-SCORE:    0.00 PKD
ROOT
HETATM    1  C   UNL     1      -8.724   5.481  65.434  1.00  0.00    -0.148 C  
HETATM    2  C   UNL     1      -9.210   4.072  65.053  1.00  0.00    -0.151 C  
HETATM    3  C   UNL     1      -9.138   3.875  63.559  1.00  0.00    -0.119 C  
HETATM    4  C   UNL     1      -7.795   4.112  62.932  1.00  0.00    -0.066 C  
HETATM    5  O   UNL     1     -10.098   3.478  62.902  1.00  0.00    -0.128 OA 
HETATM    6  C   UNL     1      -7.330   5.519  63.275  1.00  0.00    -0.052 C  
HETATM    7  C   UNL     1      -7.336   5.766  64.793  1.00  0.00    -0.069 C  
HETATM    8  C   UNL     1      -6.865   7.182  65.218  1.00  0.00    -0.051 C  
HETATM    9  C   UNL     1      -7.826   8.329  64.857  1.00  0.00    -0.126 C  
HETATM   10  C   UNL     1      -5.493   7.519  64.607  1.00  0.00    -0.033 C  
HETATM   11  O   UNL     1      -6.654   7.192  66.645  1.00  0.00    -0.052 OA 
HETATM   12  C   UNL     1      -7.591   6.562  67.423  1.00  0.00    -0.100 A  
HETATM   13  C   UNL     1      -7.427   6.780  68.800  1.00  0.00    -0.096 A  
HETATM   14  C   UNL     1      -8.309   6.235  69.742  1.00  0.00    -0.125 A  
HETATM   15  H   UNL     1     -10.748   4.417  66.519  1.00  0.00     0.000 HD 
HETATM   16  C   UNL     1      -9.384   5.486  69.240  1.00  0.00    -0.153 A  
HETATM   17  C   UNL     1      -9.543   5.264  67.868  1.00  0.00    -0.134 A  
HETATM   18  O   UNL     1     -10.640   4.567  67.451  1.00  0.00     0.110 OA 
HETATM   19  C   UNL     1      -8.627   5.753  66.929  1.00  0.00    -0.111 A  
ENDROOT
BRANCH  14  20
HETATM   20  C   UNL     1      -8.142   6.430  71.260  1.00  0.00    -0.117 C  
HETATM   21  C   UNL     1      -7.661   5.159  71.998  1.00  0.00    -0.097 C  
HETATM   22  C   UNL     1      -7.060   7.512  71.503  1.00  0.00    -0.062 C  
BRANCH  20  23
HETATM   23  C   UNL     1      -9.475   6.924  71.909  1.00  0.00    -0.146 C  
BRANCH  23  24
HETATM   24  C   UNL     1      -9.457   8.379  72.392  1.00  0.00    -0.365 C  
BRANCH  24  25
HETATM   25  C   UNL     1     -10.627   9.185  71.822  1.00  0.00    -0.383 C  
BRANCH  25  26
HETATM   26  C   UNL     1     -10.924   8.753  70.385  1.00  0.00    -0.262 C  
BRANCH  26  27
HETATM   27  C   UNL     1     -10.050   9.490  69.375  1.00  0.00    -0.206 C  
HETATM   28  C   UNL     1     -10.468   9.159  67.950  1.00  0.00    -0.293 C  
ENDBRANCH  26  27
ENDBRANCH  25  26
ENDBRANCH  24  25
ENDBRANCH  23  24
ENDBRANCH  20  23
ENDBRANCH  14  20
TORSDOF 6
ENDMDL
MODEL      183
REMARK 921   NORMALIZED FREE ENERGY PREDICTED BY IDOCK:   -2.43 KCAL/MOL
REMARK 922        TOTAL FREE ENERGY PREDICTED BY IDOCK:   -5.29 KCAL/MOL
REMARK 923 INTER-LIGAND FREE ENERGY PREDICTED BY IDOCK:   -4.55 KCAL/MOL
REMARK 924 INTRA-LIGAND FREE ENERGY PREDICTED BY IDOCK:   -0.74 KCAL/MOL
REMARK 927      BINDING AFFINITY PREDICTED BY RF-SCORE:    0.00 PKD
ROOT
HETATM    1  C   UNL     1      -6.987  17.169  68.464  1.00  0.00    -0.201 C  
HETATM    2  C   UNL     1      -6.528  17.361  69.920  1.00  0.00     0.053 C  
HETATM    3  C   UNL     1      -6.221  18.813  70.190  1.00  0.00    -0.051 C  
HETATM    4  C   UNL     1      -7.330  19.782  69.898  1.00  0.00     0.144 C  
HETATM    5  O   UNL     1      -5.156  19.179  70.684  1.00  0.00    -0.192 OA 
HETATM    6  C   UNL     1      -7.758  19.621  68.448  1.00  0.00    -0.366 C  
HETATM    7  C   UNL     1      -8.132  18.164  68.122  1.00  0.00    -0.289 C  
HETATM    8  C   UNL     1      -8.586  17.927  66.658  1.00  0.00    -0.262 C  
HETATM    9  C   UNL     1      -7.478  18.059  65.597  1.00  0.00     0.028 C  
HETATM   10  C   UNL     1      -9.720  18.891  66.264  1.00  0.00    -0.374 C  
HETATM   11  O   UNL     1      -9.162  16.608  66.559  1.00  0.00    -0.237 OA 
HETATM   12  C   UNL     1      -8.514  15.589  67.208  1.00  0.00    -0.193 A  
HETATM   13  C   UNL     1      -9.015  14.313  66.907  1.00  0.00    -0.255 A  
HETATM   14  C   UNL     1      -8.456  13.153  67.460  1.00  0.00    -0.198 A  
HETATM   15  H   UNL     1      -5.406  15.552  69.601  1.00  0.00     0.000 HD 
HETATM   16  C   UNL     1      -7.348  13.327  68.303  1.00  0.00    -0.113 A  
HETATM   17  C   UNL     1      -6.853  14.600  68.606  1.00  0.00    -0.094 A  
HETATM   18  O   UNL     1      -5.742  14.687  69.395  1.00  0.00    -0.093 OA 
HETATM   19  C   UNL     1      -7.450  15.764  68.108  1.00  0.00    -0.129 A  
ENDROOT
BRANCH  14  20
HETATM   20  C   UNL     1      -8.999  11.742  67.174  1.00  0.00    -0.177 C  
HETATM   21  C   UNL     1     -10.135  11.716  66.124  1.00  0.00    -0.259 C  
HETATM   22  C   UNL     1      -7.850  10.878  66.596  1.00  0.00    -0.145 C  
BRANCH  20  23
HETATM   23  C   UNL     1      -9.503  11.060  68.487  1.00  0.00    -0.188 C  
BRANCH  23  24
HETATM   24  C   UNL     1     -10.186   9.702  68.288  1.00  0.00    -0.216 C  
BRANCH  24  25
HETATM   25  C   UNL     1      -9.797   8.701  69.378  1.00  0.00    -0.184 C  
BRANCH  25  26
HETATM   26  C   UNL     1      -9.633   7.301  68.784  1.00  0.00    -0.142 C  
BRANCH  26  27
HETATM   27  C   UNL     1      -9.748   7.309  67.262  1.00  0.00    -0.204 C  
HETATM   28  C   UNL     1     -10.006   5.908  66.728  1.00  0.00    -0.212 C  
ENDBRANCH  26  27
ENDBRANCH  25  26
ENDBRANCH  24  25
ENDBRANCH  23  24
ENDBRANCH  20  23
ENDBRANCH  14  20
TORSDOF 6
ENDMDL
MODEL      184
REMARK 921   NORMALIZED FREE ENERGY PREDICTED BY IDOCK:   -2.42 KCAL/MOL
REMARK 922        TOTAL FREE ENERGY PREDICTED BY IDOCK:   -5.28 KCAL/MOL
REMARK 923 INTER-LIGAND FREE ENERGY PREDICTED BY IDOCK:   -3.89 KCAL/MOL
REMARK 924 INTRA-LIGAND FREE ENERGY PREDICTED BY IDOCK:   -1.40 KCAL/MOL
REMARK 927      BINDING AFFINITY PREDICTED BY RF-SCORE:    0.00 PKD
ROOT
HETATM    1  C   UNL     1     -10.941  12.489  65.824  1.00  0.00    -0.327 C  
HETATM    2  C   UNL     1     -11.575  13.367  64.731  1.00  0.00    -0.367 C  
HETATM    3  C   UNL     1     -12.439  14.438  65.349  1.00  0.00    -0.350 C  
HETATM    4  C   UNL     1     -11.763  15.325  66.354  1.00  0.00     0.096 C  
HETATM    5  O   UNL     1     -13.605  14.622  65.005  1.00  0.00     0.132 OA 
HETATM    6  C   UNL     1     -11.169  14.462  67.456  1.00  0.00    -0.329 C  
HETATM    7  C   UNL     1     -10.237  13.376  66.890  1.00  0.00    -0.252 C  
HETATM    8  C   UNL     1      -9.588  12.460  67.960  1.00  0.00    -0.211 C  
HETATM    9  C   UNL     1     -10.555  11.497  68.673  1.00  0.00    -0.236 C  
HETATM   10  C   UNL     1      -8.878  13.289  69.046  1.00  0.00     0.444 C  
HETATM   11  O   UNL     1      -8.544  11.684  67.336  1.00  0.00    -0.140 OA 
HETATM   12  C   UNL     1      -8.813  11.149  66.103  1.00  0.00    -0.190 A  
HETATM   13  C   UNL     1      -7.834  10.250  65.649  1.00  0.00    -0.151 A  
HETATM   14  C   UNL     1      -7.957   9.587  64.421  1.00  0.00    -0.135 A  
HETATM   15  H   UNL     1     -11.882  11.509  63.689  1.00  0.00     0.000 HD 
HETATM   16  C   UNL     1      -9.122   9.840  63.681  1.00  0.00    -0.269 A  
HETATM   17  C   UNL     1     -10.093  10.740  64.132  1.00  0.00    -0.353 A  
HETATM   18  O   UNL     1     -11.223  10.897  63.382  1.00  0.00     0.094 OA 
HETATM   19  C   UNL     1      -9.943  11.453  65.327  1.00  0.00    -0.303 A  
ENDROOT
BRANCH  14  20
HETATM   20  C   UNL     1      -6.890   8.618  63.879  1.00  0.00    -0.086 C  
HETATM   21  C   UNL     1      -7.000   8.364  62.358  1.00  0.00    -0.094 C  
HETATM   22  C   UNL     1      -5.491   9.240  64.118  1.00  0.00    -0.061 C  
BRANCH  20  23
HETATM   23  C   UNL     1      -6.945   7.249  64.631  1.00  0.00    -0.051 C  
BRANCH  23  24
HETATM   24  C   UNL     1      -6.461   7.292  66.085  1.00  0.00    -0.045 C  
BRANCH  24  25
HETATM   25  C   UNL     1      -7.552   6.849  67.064  1.00  0.00    -0.102 C  
BRANCH  25  26
HETATM   26  C   UNL     1      -8.814   6.433  66.306  1.00  0.00    -0.152 C  
BRANCH  26  27
HETATM   27  C   UNL     1      -9.951   7.431  66.497  1.00  0.00    -0.194 C  
HETATM   28  C   UNL     1     -10.300   7.584  67.970  1.00  0.00    -0.254 C  
ENDBRANCH  26  27
ENDBRANCH  25  26
ENDBRANCH  24  25
ENDBRANCH  23  24
ENDBRANCH  20  23
ENDBRANCH  14  20
TORSDOF 6
ENDMDL
MODEL      185
REMARK 921   NORMALIZED FREE ENERGY PREDICTED BY IDOCK:   -2.41 KCAL/MOL
REMARK 922        TOTAL FREE ENERGY PREDICTED BY IDOCK:   -5.27 KCAL/MOL
REMARK 923 INTER-LIGAND FREE ENERGY PREDICTED BY IDOCK:   -4.62 KCAL/MOL
REMARK 924 INTRA-LIGAND FREE ENERGY PREDICTED BY IDOCK:   -0.66 KCAL/MOL
REMARK 927      BINDING AFFINITY PREDICTED BY RF-SCORE:    0.00 PKD
ROOT
HETATM    1  C   UNL     1      -8.690  15.866  67.686  1.00  0.00    -0.174 C  
HETATM    2  C   UNL     1      -7.762  16.957  68.248  1.00  0.00    -0.205 C  
HETATM    3  C   UNL     1      -8.449  18.298  68.227  1.00  0.00    -0.295 C  
HETATM    4  C   UNL     1      -9.769  18.369  68.939  1.00  0.00    -0.318 C  
HETATM    5  O   UNL     1      -7.934  19.293  67.719  1.00  0.00    -0.266 OA 
HETATM    6  C   UNL     1     -10.702  17.318  68.358  1.00  0.00    -0.332 C  
HETATM    7  C   UNL     1     -10.073  15.914  68.395  1.00  0.00    -0.223 C  
HETATM    8  C   UNL     1     -10.974  14.789  67.823  1.00  0.00    -0.291 C  
HETATM    9  C   UNL     1     -11.194  14.834  66.300  1.00  0.00    -0.343 C  
HETATM   10  C   UNL     1     -12.361  14.792  68.491  1.00  0.00     0.023 C  
HETATM   11  O   UNL     1     -10.395  13.512  68.166  1.00  0.00    -0.233 OA 
HETATM   12  C   UNL     1      -9.036  13.384  68.034  1.00  0.00    -0.190 A  
HETATM   13  C   UNL     1      -8.572  12.068  68.193  1.00  0.00    -0.173 A  
HETATM   14  C   UNL     1      -7.214  11.747  68.065  1.00  0.00    -0.084 A  
HETATM   15  H   UNL     1      -6.226  15.960  67.114  1.00  0.00     0.000 HD 
HETATM   16  C   UNL     1      -6.345  12.798  67.737  1.00  0.00    -0.137 A  
HETATM   17  C   UNL     1      -6.808  14.109  67.585  1.00  0.00    -0.179 A  
HETATM   18  O   UNL     1      -5.911  15.070  67.218  1.00  0.00    -0.318 OA 
HETATM   19  C   UNL     1      -8.154  14.445  67.776  1.00  0.00    -0.174 A  
ENDROOT
BRANCH  14  20
HETATM   20  C   UNL     1      -6.667  10.321  68.261  1.00  0.00    -0.057 C  
HETATM   21  C   UNL     1      -5.274  10.100  67.627  1.00  0.00    -0.037 C  
HETATM   22  C   UNL     1      -6.502  10.059  69.779  1.00  0.00    -0.064 C  
BRANCH  20  23
HETATM   23  C   UNL     1      -7.661   9.258  67.692  1.00  0.00    -0.092 C  
BRANCH  23  24
HETATM   24  C   UNL     1      -7.187   8.547  66.420  1.00  0.00    -0.079 C  
BRANCH  24  25
HETATM   25  C   UNL     1      -8.235   7.568  65.887  1.00  0.00    -0.134 C  
BRANCH  25  26
HETATM   26  C   UNL     1      -7.576   6.249  65.477  1.00  0.00    -0.087 C  
BRANCH  26  27
HETATM   27  C   UNL     1      -7.952   5.107  66.416  1.00  0.00    -0.104 C  
HETATM   28  C   UNL     1      -6.764   4.691  67.271  1.00  0.00    -0.051 C  
ENDBRANCH  26  27
ENDBRANCH  25  26
ENDBRANCH  24  25
ENDBRANCH  23  24
ENDBRANCH  20  23
ENDBRANCH  14  20
TORSDOF 6
ENDMDL
MODEL      186
REMARK 921   NORMALIZED FREE ENERGY PREDICTED BY IDOCK:   -2.39 KCAL/MOL
REMARK 922        TOTAL FREE ENERGY PREDICTED BY IDOCK:   -5.25 KCAL/MOL
REMARK 923 INTER-LIGAND FREE ENERGY PREDICTED BY IDOCK:   -4.42 KCAL/MOL
REMARK 924 INTRA-LIGAND FREE ENERGY PREDICTED BY IDOCK:   -0.83 KCAL/MOL
REMARK 927      BINDING AFFINITY PREDICTED BY RF-SCORE:    0.00 PKD
ROOT
HETATM    1  C   UNL     1     -10.013  10.021  66.820  1.00  0.00    -0.267 C  
HETATM    2  C   UNL     1      -9.223   9.719  65.534  1.00  0.00    -0.270 C  
HETATM    3  C   UNL     1      -9.644  10.649  64.425  1.00  0.00    -0.295 C  
HETATM    4  C   UNL     1      -9.539  12.116  64.726  1.00  0.00     0.026 C  
HETATM    5  O   UNL     1      -9.987  10.239  63.317  1.00  0.00    -0.186 OA 
HETATM    6  C   UNL     1     -10.351  12.424  65.974  1.00  0.00    -0.275 C  
HETATM    7  C   UNL     1      -9.934  11.536  67.159  1.00  0.00    -0.222 C  
HETATM    8  C   UNL     1     -10.717  11.802  68.471  1.00  0.00    -0.220 C  
HETATM    9  C   UNL     1     -12.196  11.373  68.451  1.00  0.00     0.099 C  
HETATM   10  C   UNL     1     -10.674  13.293  68.854  1.00  0.00    -0.215 C  
HETATM   11  O   UNL     1     -10.055  11.117  69.554  1.00  0.00    -0.054 OA 
HETATM   12  C   UNL     1      -9.611   9.842  69.312  1.00  0.00    -0.197 A  
HETATM   13  C   UNL     1      -9.158   9.171  70.459  1.00  0.00    -0.284 A  
HETATM   14  C   UNL     1      -8.693   7.850  70.403  1.00  0.00    -0.137 A  
HETATM   15  H   UNL     1      -9.540   7.654  66.058  1.00  0.00     0.000 HD 
HETATM   16  C   UNL     1      -8.734   7.219  69.151  1.00  0.00    -0.136 A  
HETATM   17  C   UNL     1      -9.180   7.892  68.008  1.00  0.00    -0.131 A  
HETATM   18  O   UNL     1      -9.237   7.197  66.834  1.00  0.00    -0.136 OA 
HETATM   19  C   UNL     1      -9.583   9.231  68.048  1.00  0.00    -0.161 A  
ENDROOT
BRANCH  14  20
HETATM   20  C   UNL     1      -8.163   7.094  71.635  1.00  0.00    -0.103 C  
HETATM   21  C   UNL     1      -6.683   6.662  71.506  1.00  0.00    -0.061 C  
HETATM   22  C   UNL     1      -8.238   8.036  72.863  1.00  0.00    -0.221 C  
BRANCH  20  23
HETATM   23  C   UNL     1      -9.038   5.834  71.937  1.00  0.00    -0.145 C  
BRANCH  23  24
HETATM   24  C   UNL     1      -8.431   4.503  71.479  1.00  0.00    -0.116 C  
BRANCH  24  25
HETATM   25  C   UNL     1      -9.469   3.606  70.801  1.00  0.00    -0.238 C  
BRANCH  25  26
HETATM   26  C   UNL     1      -9.264   3.603  69.285  1.00  0.00    -0.231 C  
BRANCH  26  27
HETATM   27  C   UNL     1      -9.081   2.191  68.736  1.00  0.00    -0.193 C  
HETATM   28  C   UNL     1      -7.831   1.541  69.310  1.00  0.00    -0.047 C  
ENDBRANCH  26  27
ENDBRANCH  25  26
ENDBRANCH  24  25
ENDBRANCH  23  24
ENDBRANCH  20  23
ENDBRANCH  14  20
TORSDOF 6
ENDMDL
MODEL      187
REMARK 921   NORMALIZED FREE ENERGY PREDICTED BY IDOCK:   -2.32 KCAL/MOL
REMARK 922        TOTAL FREE ENERGY PREDICTED BY IDOCK:   -5.15 KCAL/MOL
REMARK 923 INTER-LIGAND FREE ENERGY PREDICTED BY IDOCK:   -4.38 KCAL/MOL
REMARK 924 INTRA-LIGAND FREE ENERGY PREDICTED BY IDOCK:   -0.76 KCAL/MOL
REMARK 927      BINDING AFFINITY PREDICTED BY RF-SCORE:    0.00 PKD
ROOT
HETATM    1  C   UNL     1     -11.238  13.225  67.896  1.00  0.00    -0.302 C  
HETATM    2  C   UNL     1     -10.343  13.327  66.649  1.00  0.00    -0.274 C  
HETATM    3  C   UNL     1     -10.340  14.737  66.115  1.00  0.00    -0.304 C  
HETATM    4  C   UNL     1      -9.939  15.805  67.090  1.00  0.00    -0.242 C  
HETATM    5  O   UNL     1     -10.583  14.995  64.937  1.00  0.00    -0.409 OA 
HETATM    6  C   UNL     1     -10.848  15.732  68.307  1.00  0.00    -0.305 C  
HETATM    7  C   UNL     1     -10.857  14.324  68.927  1.00  0.00    -0.272 C  
HETATM    8  C   UNL     1     -11.760  14.177  70.180  1.00  0.00    -0.280 C  
HETATM    9  C   UNL     1     -13.273  14.251  69.910  1.00  0.00     0.698 C  
HETATM   10  C   UNL     1     -11.426  15.246  71.236  1.00  0.00    -0.431 C  
HETATM   11  O   UNL     1     -11.468  12.915  70.816  1.00  0.00     0.416 OA 
HETATM   12  C   UNL     1     -11.308  11.824  70.002  1.00  0.00    -0.045 A  
HETATM   13  C   UNL     1     -11.224  10.605  70.695  1.00  0.00    -0.182 A  
HETATM   14  C   UNL     1     -11.085   9.384  70.022  1.00  0.00    -0.248 A  
HETATM   15  H   UNL     1     -11.225  11.441  66.100  1.00  0.00     0.000 HD 
HETATM   16  C   UNL     1     -11.068   9.434  68.620  1.00  0.00     0.015 A  
HETATM   17  C   UNL     1     -11.146  10.650  67.931  1.00  0.00    -0.308 A  
HETATM   18  O   UNL     1     -11.172  10.616  66.567  1.00  0.00    -0.076 OA 
HETATM   19  C   UNL     1     -11.219  11.876  68.602  1.00  0.00    -0.311 A  
ENDROOT
BRANCH  14  20
HETATM   20  C   UNL     1     -10.962   8.034  70.751  1.00  0.00    -0.259 C  
HETATM   21  C   UNL     1     -11.171   8.135  72.280  1.00  0.00    -0.425 C  
HETATM   22  C   UNL     1     -12.064   7.083  70.222  1.00  0.00    -0.135 C  
BRANCH  20  23
HETATM   23  C   UNL     1      -9.575   7.371  70.469  1.00  0.00    -0.172 C  
BRANCH  23  24
HETATM   24  C   UNL     1      -8.374   8.319  70.569  1.00  0.00    -0.124 C  
BRANCH  24  25
HETATM   25  C   UNL     1      -7.823   8.394  71.995  1.00  0.00    -0.171 C  
BRANCH  25  26
HETATM   26  C   UNL     1      -7.264   7.036  72.424  1.00  0.00    -0.073 C  
BRANCH  26  27
HETATM   27  C   UNL     1      -7.621   6.703  73.870  1.00  0.00    -0.083 C  
HETATM   28  C   UNL     1      -7.173   5.295  74.230  1.00  0.00    -0.082 C  
ENDBRANCH  26  27
ENDBRANCH  25  26
ENDBRANCH  24  25
ENDBRANCH  23  24
ENDBRANCH  20  23
ENDBRANCH  14  20
TORSDOF 6
ENDMDL
MODEL      188
REMARK 921   NORMALIZED FREE ENERGY PREDICTED BY IDOCK:   -2.30 KCAL/MOL
REMARK 922        TOTAL FREE ENERGY PREDICTED BY IDOCK:   -5.12 KCAL/MOL
REMARK 923 INTER-LIGAND FREE ENERGY PREDICTED BY IDOCK:   -3.89 KCAL/MOL
REMARK 924 INTRA-LIGAND FREE ENERGY PREDICTED BY IDOCK:   -1.23 KCAL/MOL
REMARK 927      BINDING AFFINITY PREDICTED BY RF-SCORE:    0.00 PKD
ROOT
HETATM    1  C   UNL     1      -7.689  18.916  66.811  1.00  0.00    -0.252 C  
HETATM    2  C   UNL     1      -7.550  19.231  65.311  1.00  0.00     0.493 C  
HETATM    3  C   UNL     1      -6.485  20.274  65.087  1.00  0.00    -0.286 C  
HETATM    4  C   UNL     1      -5.128  19.954  65.644  1.00  0.00    -0.177 C  
HETATM    5  O   UNL     1      -6.691  21.293  64.429  1.00  0.00    -0.070 OA 
HETATM    6  C   UNL     1      -5.257  19.682  67.135  1.00  0.00    -0.161 C  
HETATM    7  C   UNL     1      -6.299  18.588  67.426  1.00  0.00    -0.197 C  
HETATM    8  C   UNL     1      -6.479  18.252  68.930  1.00  0.00    -0.229 C  
HETATM    9  C   UNL     1      -7.149  19.353  69.772  1.00  0.00    -0.059 C  
HETATM   10  C   UNL     1      -5.129  17.922  69.592  1.00  0.00    -0.186 C  
HETATM   11  O   UNL     1      -7.260  17.045  69.045  1.00  0.00    -0.227 OA 
HETATM   12  C   UNL     1      -8.348  16.920  68.220  1.00  0.00    -0.224 A  
HETATM   13  C   UNL     1      -9.167  15.821  68.523  1.00  0.00    -0.198 A  
HETATM   14  C   UNL     1     -10.337  15.554  67.800  1.00  0.00    -0.263 A  
HETATM   15  H   UNL     1      -9.702  19.154  65.295  1.00  0.00     0.000 HD 
HETATM   16  C   UNL     1     -10.668  16.458  66.779  1.00  0.00    -0.180 A  
HETATM   17  C   UNL     1      -9.847  17.550  66.475  1.00  0.00    -0.310 A  
HETATM   18  O   UNL     1     -10.260  18.413  65.501  1.00  0.00    -0.522 OA 
HETATM   19  C   UNL     1      -8.645  17.781  67.152  1.00  0.00    -0.242 A  
ENDROOT
BRANCH  14  20
HETATM   20  C   UNL     1     -11.243  14.343  68.086  1.00  0.00    -0.300 C  
HETATM   21  C   UNL     1     -10.935  13.644  69.432  1.00  0.00    -0.117 C  
HETATM   22  C   UNL     1     -12.710  14.832  68.174  1.00  0.00     0.975 C  
BRANCH  20  23
HETATM   23  C   UNL     1     -11.152  13.291  66.933  1.00  0.00    -0.310 C  
BRANCH  23  24
HETATM   24  C   UNL     1      -9.727  12.888  66.539  1.00  0.00    -0.257 C  
BRANCH  24  25
HETATM   25  C   UNL     1      -9.464  11.401  66.789  1.00  0.00    -0.197 C  
BRANCH  25  26
HETATM   26  C   UNL     1      -8.048  11.192  67.331  1.00  0.00    -0.132 C  
BRANCH  26  27
HETATM   27  C   UNL     1      -7.509  12.442  68.018  1.00  0.00    -0.114 C  
HETATM   28  C   UNL     1      -6.044  12.665  67.673  1.00  0.00    -0.147 C  
ENDBRANCH  26  27
ENDBRANCH  25  26
ENDBRANCH  24  25
ENDBRANCH  23  24
ENDBRANCH  20  23
ENDBRANCH  14  20
TORSDOF 6
ENDMDL
MODEL      189
REMARK 921   NORMALIZED FREE ENERGY PREDICTED BY IDOCK:   -2.29 KCAL/MOL
REMARK 922        TOTAL FREE ENERGY PREDICTED BY IDOCK:   -5.11 KCAL/MOL
REMARK 923 INTER-LIGAND FREE ENERGY PREDICTED BY IDOCK:   -4.57 KCAL/MOL
REMARK 924 INTRA-LIGAND FREE ENERGY PREDICTED BY IDOCK:   -0.53 KCAL/MOL
REMARK 927      BINDING AFFINITY PREDICTED BY RF-SCORE:    0.00 PKD
ROOT
HETATM    1  C   UNL     1      -8.017  18.745  66.920  1.00  0.00    -0.262 C  
HETATM    2  C   UNL     1      -6.507  18.925  66.682  1.00  0.00    -0.206 C  
HETATM    3  C   UNL     1      -6.156  20.389  66.604  1.00  0.00    -0.185 C  
HETATM    4  C   UNL     1      -6.565  21.225  67.783  1.00  0.00    -0.237 C  
HETATM    5  O   UNL     1      -5.513  20.862  65.668  1.00  0.00    -0.197 OA 
HETATM    6  C   UNL     1      -8.063  21.080  67.995  1.00  0.00     0.365 C  
HETATM    7  C   UNL     1      -8.480  19.605  68.131  1.00  0.00    -0.357 C  
HETATM    8  C   UNL     1      -9.998  19.381  68.358  1.00  0.00    -0.437 C  
HETATM    9  C   UNL     1     -10.896  19.699  67.149  1.00  0.00    -0.526 C  
HETATM   10  C   UNL     1     -10.511  20.213  69.547  1.00  0.00     0.222 C  
HETATM   11  O   UNL     1     -10.212  18.007  68.741  1.00  0.00    -0.377 OA 
HETATM   12  C   UNL     1      -9.512  17.048  68.054  1.00  0.00    -0.256 A  
HETATM   13  C   UNL     1      -9.916  15.734  68.343  1.00  0.00    -0.217 A  
HETATM   14  C   UNL     1      -9.328  14.629  67.714  1.00  0.00    -0.197 A  
HETATM   15  H   UNL     1      -6.727  17.287  65.303  1.00  0.00     0.000 HD 
HETATM   16  C   UNL     1      -8.339  14.900  66.756  1.00  0.00    -0.158 A  
HETATM   17  C   UNL     1      -7.934  16.209  66.474  1.00  0.00    -0.259 A  
HETATM   18  O   UNL     1      -7.002  16.397  65.495  1.00  0.00     1.451 OA 
HETATM   19  C   UNL     1      -8.474  17.311  67.148  1.00  0.00    -0.223 A  
ENDROOT
BRANCH  14  20
HETATM   20  C   UNL     1      -9.726  13.175  68.027  1.00  0.00    -0.224 C  
HETATM   21  C   UNL     1     -10.048  12.337  66.768  1.00  0.00    -0.224 C  
HETATM   22  C   UNL     1      -8.532  12.475  68.724  1.00  0.00     0.153 C  
BRANCH  20  23
HETATM   23  C   UNL     1     -10.949  13.127  68.999  1.00  0.00    -0.241 C  
BRANCH  23  24
HETATM   24  C   UNL     1     -11.934  11.982  68.740  1.00  0.00    -0.299 C  
BRANCH  24  25
HETATM   25  C   UNL     1     -11.552  10.715  69.508  1.00  0.00    -0.360 C  
BRANCH  25  26
HETATM   26  C   UNL     1     -11.968  10.833  70.976  1.00  0.00    -0.409 C  
BRANCH  26  27
HETATM   27  C   UNL     1     -12.860   9.675  71.412  1.00  0.00    -0.471 C  
HETATM   28  C   UNL     1     -12.096   8.702  72.297  1.00  0.00    -0.443 C  
ENDBRANCH  26  27
ENDBRANCH  25  26
ENDBRANCH  24  25
ENDBRANCH  23  24
ENDBRANCH  20  23
ENDBRANCH  14  20
TORSDOF 6
ENDMDL
MODEL      190
REMARK 921   NORMALIZED FREE ENERGY PREDICTED BY IDOCK:   -2.21 KCAL/MOL
REMARK 922        TOTAL FREE ENERGY PREDICTED BY IDOCK:   -5.00 KCAL/MOL
REMARK 923 INTER-LIGAND FREE ENERGY PREDICTED BY IDOCK:   -4.31 KCAL/MOL
REMARK 924 INTRA-LIGAND FREE ENERGY PREDICTED BY IDOCK:   -0.69 KCAL/MOL
REMARK 927      BINDING AFFINITY PREDICTED BY RF-SCORE:    0.00 PKD
ROOT
HETATM    1  C   UNL     1     -10.352  11.813  65.686  1.00  0.00    -0.293 C  
HETATM    2  C   UNL     1     -11.717  12.364  66.134  1.00  0.00    -0.460 C  
HETATM    3  C   UNL     1     -12.454  12.965  64.963  1.00  0.00    -0.492 C  
HETATM    4  C   UNL     1     -12.659  12.058  63.784  1.00  0.00    -0.567 C  
HETATM    5  O   UNL     1     -12.920  14.103  64.993  1.00  0.00    -0.721 OA 
HETATM    6  C   UNL     1     -11.308  11.543  63.315  1.00  0.00    -0.208 C  
HETATM    7  C   UNL     1     -10.525  10.874  64.458  1.00  0.00    -0.393 C  
HETATM    8  C   UNL     1      -9.136  10.317  64.049  1.00  0.00    -0.251 C  
HETATM    9  C   UNL     1      -8.074  11.381  63.717  1.00  0.00     0.968 C  
HETATM   10  C   UNL     1      -9.247   9.381  62.832  1.00  0.00     0.050 C  
HETATM   11  O   UNL     1      -8.636   9.487  65.118  1.00  0.00    -0.142 OA 
HETATM   12  C   UNL     1      -8.796   9.949  66.399  1.00  0.00    -0.142 A  
HETATM   13  C   UNL     1      -8.116   9.191  67.365  1.00  0.00    -0.107 A  
HETATM   14  C   UNL     1      -8.146   9.533  68.724  1.00  0.00    -0.096 A  
HETATM   15  H   UNL     1     -10.642  13.090  67.852  1.00  0.00     0.000 HD 
HETATM   16  C   UNL     1      -8.862  10.689  69.068  1.00  0.00    -0.154 A  
HETATM   17  C   UNL     1      -9.544  11.440  68.104  1.00  0.00    -0.190 A  
HETATM   18  O   UNL     1     -10.179  12.580  68.507  1.00  0.00    -0.228 OA 
HETATM   19  C   UNL     1      -9.570  11.064  66.756  1.00  0.00    -0.216 A  
ENDROOT
BRANCH  14  20
HETATM   20  C   UNL     1      -7.436   8.709  69.813  1.00  0.00    -0.060 C  
HETATM   21  C   UNL     1      -6.191   9.409  70.406  1.00  0.00    -0.061 C  
HETATM   22  C   UNL     1      -8.419   8.495  70.991  1.00  0.00    -0.185 C  
BRANCH  20  23
HETATM   23  C   UNL     1      -7.021   7.303  69.269  1.00  0.00    -0.069 C  
BRANCH  23  24
HETATM   24  C   UNL     1      -8.188   6.355  68.973  1.00  0.00    -0.115 C  
BRANCH  24  25
HETATM   25  C   UNL     1      -7.783   5.230  68.019  1.00  0.00    -0.084 C  
BRANCH  25  26
HETATM   26  C   UNL     1      -6.264   5.049  68.019  1.00  0.00    -0.035 C  
BRANCH  26  27
HETATM   27  C   UNL     1      -5.783   4.252  66.809  1.00  0.00    -0.022 C  
HETATM   28  C   UNL     1      -6.454   4.741  65.534  1.00  0.00    -0.040 C  
ENDBRANCH  26  27
ENDBRANCH  25  26
ENDBRANCH  24  25
ENDBRANCH  23  24
ENDBRANCH  20  23
ENDBRANCH  14  20
TORSDOF 6
ENDMDL
MODEL      191
REMARK 921   NORMALIZED FREE ENERGY PREDICTED BY IDOCK:   -2.17 KCAL/MOL
REMARK 922        TOTAL FREE ENERGY PREDICTED BY IDOCK:   -4.95 KCAL/MOL
REMARK 923 INTER-LIGAND FREE ENERGY PREDICTED BY IDOCK:   -3.82 KCAL/MOL
REMARK 924 INTRA-LIGAND FREE ENERGY PREDICTED BY IDOCK:   -1.13 KCAL/MOL
REMARK 927      BINDING AFFINITY PREDICTED BY RF-SCORE:    0.00 PKD
ROOT
HETATM    1  C   UNL     1      -9.525   9.420  70.825  1.00  0.00    -0.307 C  
HETATM    2  C   UNL     1      -8.603   8.409  71.528  1.00  0.00    -0.215 C  
HETATM    3  C   UNL     1      -8.974   8.278  72.983  1.00  0.00    -0.241 C  
HETATM    4  C   UNL     1     -10.402   7.910  73.264  1.00  0.00    -0.280 C  
HETATM    5  O   UNL     1      -8.146   8.396  73.886  1.00  0.00    -0.317 OA 
HETATM    6  C   UNL     1     -11.315   8.932  72.604  1.00  0.00     0.206 C  
HETATM    7  C   UNL     1     -11.016   9.076  71.102  1.00  0.00    -0.371 C  
HETATM    8  C   UNL     1     -11.917  10.098  70.360  1.00  0.00    -0.267 C  
HETATM    9  C   UNL     1     -11.671  11.574  70.723  1.00  0.00     0.008 C  
HETATM   10  C   UNL     1     -13.408   9.805  70.602  1.00  0.00    -0.025 C  
HETATM   11  O   UNL     1     -11.728   9.937  68.939  1.00  0.00     0.073 OA 
HETATM   12  C   UNL     1     -10.443   9.763  68.492  1.00  0.00    -0.210 A  
HETATM   13  C   UNL     1     -10.316   9.812  67.095  1.00  0.00    -0.311 A  
HETATM   14  C   UNL     1      -9.072   9.679  66.464  1.00  0.00    -0.185 A  
HETATM   15  H   UNL     1      -7.034   9.340  70.384  1.00  0.00     0.000 HD 
HETATM   16  C   UNL     1      -7.955   9.529  67.298  1.00  0.00    -0.106 A  
HETATM   17  C   UNL     1      -8.083   9.475  68.691  1.00  0.00    -0.097 A  
HETATM   18  O   UNL     1      -6.946   9.376  69.438  1.00  0.00    -0.047 OA 
HETATM   19  C   UNL     1      -9.332   9.541  69.320  1.00  0.00    -0.171 A  
ENDROOT
BRANCH  14  20
HETATM   20  C   UNL     1      -8.901   9.699  64.934  1.00  0.00    -0.234 C  
HETATM   21  C   UNL     1     -10.028  10.457  64.195  1.00  0.00    -0.337 C  
HETATM   22  C   UNL     1      -7.582  10.438  64.594  1.00  0.00    -0.047 C  
BRANCH  20  23
HETATM   23  C   UNL     1      -8.803   8.247  64.364  1.00  0.00     0.309 C  
BRANCH  23  24
HETATM   24  C   UNL     1      -7.388   7.659  64.337  1.00  0.00    -0.088 C  
BRANCH  24  25
HETATM   25  C   UNL     1      -7.351   6.233  64.891  1.00  0.00    -0.075 C  
BRANCH  25  26
HETATM   26  C   UNL     1      -8.422   6.050  65.968  1.00  0.00    -0.139 C  
BRANCH  26  27
HETATM   27  C   UNL     1      -9.324   4.853  65.679  1.00  0.00    -0.167 C  
HETATM   28  C   UNL     1     -10.431   4.743  66.717  1.00  0.00    -0.180 C  
ENDBRANCH  26  27
ENDBRANCH  25  26
ENDBRANCH  24  25
ENDBRANCH  23  24
ENDBRANCH  20  23
ENDBRANCH  14  20
TORSDOF 6
ENDMDL
MODEL      192
REMARK 921   NORMALIZED FREE ENERGY PREDICTED BY IDOCK:   -2.17 KCAL/MOL
REMARK 922        TOTAL FREE ENERGY PREDICTED BY IDOCK:   -4.95 KCAL/MOL
REMARK 923 INTER-LIGAND FREE ENERGY PREDICTED BY IDOCK:   -3.87 KCAL/MOL
REMARK 924 INTRA-LIGAND FREE ENERGY PREDICTED BY IDOCK:   -1.08 KCAL/MOL
REMARK 927      BINDING AFFINITY PREDICTED BY RF-SCORE:    0.00 PKD
ROOT
HETATM    1  C   UNL     1      -9.472  15.851  67.957  1.00  0.00    -0.206 C  
HETATM    2  C   UNL     1     -10.647  16.716  67.469  1.00  0.00    -0.311 C  
HETATM    3  C   UNL     1     -10.352  18.179  67.685  1.00  0.00    -0.397 C  
HETATM    4  C   UNL     1      -9.084  18.689  67.064  1.00  0.00    -0.295 C  
HETATM    5  O   UNL     1     -11.132  18.927  68.272  1.00  0.00     0.154 OA 
HETATM    6  C   UNL     1      -7.915  17.861  67.575  1.00  0.00    -0.217 C  
HETATM    7  C   UNL     1      -8.137  16.357  67.340  1.00  0.00    -0.175 C  
HETATM    8  C   UNL     1      -6.978  15.450  67.831  1.00  0.00    -0.145 C  
HETATM    9  C   UNL     1      -6.818  15.360  69.360  1.00  0.00    -0.174 C  
HETATM   10  C   UNL     1      -5.627  15.908  67.252  1.00  0.00     0.019 C  
HETATM   11  O   UNL     1      -7.178  14.119  67.311  1.00  0.00    -0.148 OA 
HETATM   12  C   UNL     1      -8.453  13.616  67.347  1.00  0.00    -0.201 A  
HETATM   13  C   UNL     1      -8.537  12.256  67.011  1.00  0.00    -0.191 A  
HETATM   14  C   UNL     1      -9.759  11.570  67.020  1.00  0.00    -0.202 A  
HETATM   15  H   UNL     1     -11.882  15.211  68.389  1.00  0.00     0.000 HD 
HETATM   16  C   UNL     1     -10.890  12.300  67.415  1.00  0.00    -0.277 A  
HETATM   17  C   UNL     1     -10.805  13.657  67.744  1.00  0.00    -0.253 A  
HETATM   18  O   UNL     1     -11.939  14.289  68.166  1.00  0.00    -0.339 OA 
HETATM   19  C   UNL     1      -9.598  14.361  67.672  1.00  0.00    -0.214 A  
ENDROOT
BRANCH  14  20
HETATM   20  C   UNL     1      -9.891  10.086  66.630  1.00  0.00    -0.259 C  
HETATM   21  C   UNL     1     -11.201   9.430  67.127  1.00  0.00     0.517 C  
HETATM   22  C   UNL     1      -9.910   9.981  65.084  1.00  0.00    -0.388 C  
BRANCH  20  23
HETATM   23  C   UNL     1      -8.674   9.259  67.157  1.00  0.00    -0.134 C  
BRANCH  23  24
HETATM   24  C   UNL     1      -8.458   9.323  68.673  1.00  0.00    -0.123 C  
BRANCH  24  25
HETATM   25  C   UNL     1      -7.103   8.742  69.082  1.00  0.00    -0.063 C  
BRANCH  25  26
HETATM   26  C   UNL     1      -6.172   9.851  69.576  1.00  0.00    -0.045 C  
BRANCH  26  27
HETATM   27  C   UNL     1      -6.944  11.009  70.201  1.00  0.00     0.162 C  
HETATM   28  C   UNL     1      -6.003  12.126  70.625  1.00  0.00     0.039 C  
ENDBRANCH  26  27
ENDBRANCH  25  26
ENDBRANCH  24  25
ENDBRANCH  23  24
ENDBRANCH  20  23
ENDBRANCH  14  20
TORSDOF 6
ENDMDL
MODEL      193
REMARK 921   NORMALIZED FREE ENERGY PREDICTED BY IDOCK:   -2.13 KCAL/MOL
REMARK 922        TOTAL FREE ENERGY PREDICTED BY IDOCK:   -4.90 KCAL/MOL
REMARK 923 INTER-LIGAND FREE ENERGY PREDICTED BY IDOCK:   -5.62 KCAL/MOL
REMARK 924 INTRA-LIGAND FREE ENERGY PREDICTED BY IDOCK:    0.72 KCAL/MOL
REMARK 927      BINDING AFFINITY PREDICTED BY RF-SCORE:    0.00 PKD
ROOT
HETATM    1  C   UNL     1     -10.400  13.094  68.391  1.00  0.00    -0.257 C  
HETATM    2  C   UNL     1     -11.442  14.177  68.061  1.00  0.00    -0.342 C  
HETATM    3  C   UNL     1     -10.844  15.227  67.159  1.00  0.00    -0.322 C  
HETATM    4  C   UNL     1     -10.242  14.725  65.878  1.00  0.00    -0.331 C  
HETATM    5  O   UNL     1     -10.905  16.428  67.418  1.00  0.00    -0.302 OA 
HETATM    6  C   UNL     1      -9.184  13.683  66.204  1.00  0.00    -0.009 C  
HETATM    7  C   UNL     1      -9.747  12.555  67.086  1.00  0.00    -0.205 C  
HETATM    8  C   UNL     1      -8.722  11.450  67.453  1.00  0.00    -0.145 C  
HETATM    9  C   UNL     1      -7.609  11.884  68.424  1.00  0.00    -0.120 C  
HETATM   10  C   UNL     1      -8.041  10.882  66.195  1.00  0.00    -0.160 C  
HETATM   11  O   UNL     1      -9.429  10.335  68.034  1.00  0.00    -0.144 OA 
HETATM   12  C   UNL     1     -10.422  10.623  68.936  1.00  0.00    -0.210 A  
HETATM   13  C   UNL     1     -10.927   9.496  69.602  1.00  0.00    -0.233 A  
HETATM   14  C   UNL     1     -11.928   9.604  70.577  1.00  0.00    -0.241 A  
HETATM   15  H   UNL     1     -11.983  14.013  70.138  1.00  0.00     0.000 HD 
HETATM   16  C   UNL     1     -12.376  10.899  70.880  1.00  0.00    -0.501 A  
HETATM   17  C   UNL     1     -11.875  12.021  70.210  1.00  0.00    -0.270 A  
HETATM   18  O   UNL     1     -12.324  13.252  70.593  1.00  0.00    -0.356 OA 
HETATM   19  C   UNL     1     -10.923  11.909  69.190  1.00  0.00    -0.251 A  
ENDROOT
BRANCH  14  20
HETATM   20  C   UNL     1     -12.525   8.387  71.307  1.00  0.00    -0.264 C  
HETATM   21  C   UNL     1     -12.355   8.442  72.843  1.00  0.00     0.079 C  
HETATM   22  C   UNL     1     -14.050   8.348  71.037  1.00  0.00    -0.026 C  
BRANCH  20  23
HETATM   23  C   UNL     1     -11.905   7.056  70.772  1.00  0.00    -0.401 C  
BRANCH  23  24
HETATM   24  C   UNL     1     -11.157   7.181  69.440  1.00  0.00    -0.141 C  
BRANCH  24  25
HETATM   25  C   UNL     1     -11.061   5.840  68.709  1.00  0.00    -0.094 C  
BRANCH  25  26
HETATM   26  C   UNL     1      -9.621   5.575  68.266  1.00  0.00    -0.148 C  
BRANCH  26  27
HETATM   27  C   UNL     1      -8.606   6.075  69.289  1.00  0.00    -0.118 C  
HETATM   28  C   UNL     1      -7.539   6.931  68.625  1.00  0.00    -0.105 C  
ENDBRANCH  26  27
ENDBRANCH  25  26
ENDBRANCH  24  25
ENDBRANCH  23  24
ENDBRANCH  20  23
ENDBRANCH  14  20
TORSDOF 6
ENDMDL
MODEL      194
REMARK 921   NORMALIZED FREE ENERGY PREDICTED BY IDOCK:   -2.00 KCAL/MOL
REMARK 922        TOTAL FREE ENERGY PREDICTED BY IDOCK:   -4.71 KCAL/MOL
REMARK 923 INTER-LIGAND FREE ENERGY PREDICTED BY IDOCK:   -4.87 KCAL/MOL
REMARK 924 INTRA-LIGAND FREE ENERGY PREDICTED BY IDOCK:    0.16 KCAL/MOL
REMARK 927      BINDING AFFINITY PREDICTED BY RF-SCORE:    0.00 PKD
ROOT
HETATM    1  C   UNL     1      -7.591  16.678  68.363  1.00  0.00    -0.197 C  
HETATM    2  C   UNL     1      -6.680  17.004  69.559  1.00  0.00    -0.156 C  
HETATM    3  C   UNL     1      -6.299  18.463  69.551  1.00  0.00    -0.230 C  
HETATM    4  C   UNL     1      -7.441  19.437  69.530  1.00  0.00    -0.099 C  
HETATM    5  O   UNL     1      -5.130  18.838  69.626  1.00  0.00    -0.176 OA 
HETATM    6  C   UNL     1      -8.322  19.142  68.326  1.00  0.00    -0.370 C  
HETATM    7  C   UNL     1      -8.783  17.675  68.303  1.00  0.00    -0.276 C  
HETATM    8  C   UNL     1      -9.694  17.303  67.104  1.00  0.00    -0.259 C  
HETATM    9  C   UNL     1      -8.995  17.281  65.732  1.00  0.00     0.190 C  
HETATM   10  C   UNL     1     -10.892  18.263  66.995  1.00  0.00    -0.196 C  
HETATM   11  O   UNL     1     -10.273  16.004  67.345  1.00  0.00    -0.261 OA 
HETATM   12  C   UNL     1      -9.448  15.035  67.857  1.00  0.00    -0.195 A  
HETATM   13  C   UNL     1     -10.023  13.754  67.880  1.00  0.00    -0.240 A  
HETATM   14  C   UNL     1      -9.316  12.638  68.346  1.00  0.00    -0.148 A  
HETATM   15  H   UNL     1      -5.728  15.129  69.095  1.00  0.00     0.000 HD 
HETATM   16  C   UNL     1      -7.992  12.857  68.757  1.00  0.00     0.065 A  
HETATM   17  C   UNL     1      -7.423  14.135  68.739  1.00  0.00    -0.129 A  
HETATM   18  O   UNL     1      -6.115  14.261  69.108  1.00  0.00    -0.088 OA 
HETATM   19  C   UNL     1      -8.148  15.262  68.336  1.00  0.00    -0.137 A  
ENDROOT
BRANCH  14  20
HETATM   20  C   UNL     1      -9.925  11.226  68.411  1.00  0.00    -0.201 C  
HETATM   21  C   UNL     1      -9.714  10.524  69.774  1.00  0.00    -0.010 C  
HETATM   22  C   UNL     1     -11.457  11.338  68.210  1.00  0.00    -0.378 C  
BRANCH  20  23
HETATM   23  C   UNL     1      -9.353  10.317  67.276  1.00  0.00    -0.169 C  
BRANCH  23  24
HETATM   24  C   UNL     1     -10.076  10.435  65.929  1.00  0.00    -0.326 C  
BRANCH  24  25
HETATM   25  C   UNL     1     -10.090  11.875  65.412  1.00  0.00    -0.285 C  
BRANCH  25  26
HETATM   26  C   UNL     1     -11.190  12.056  64.364  1.00  0.00    -0.406 C  
BRANCH  26  27
HETATM   27  C   UNL     1     -10.617  12.233  62.960  1.00  0.00     0.126 C  
HETATM   28  C   UNL     1      -9.353  11.407  62.780  1.00  0.00    -0.320 C  
ENDBRANCH  26  27
ENDBRANCH  25  26
ENDBRANCH  24  25
ENDBRANCH  23  24
ENDBRANCH  20  23
ENDBRANCH  14  20
TORSDOF 6
ENDMDL
MODEL      195
REMARK 921   NORMALIZED FREE ENERGY PREDICTED BY IDOCK:   -1.99 KCAL/MOL
REMARK 922        TOTAL FREE ENERGY PREDICTED BY IDOCK:   -4.70 KCAL/MOL
REMARK 923 INTER-LIGAND FREE ENERGY PREDICTED BY IDOCK:   -4.31 KCAL/MOL
REMARK 924 INTRA-LIGAND FREE ENERGY PREDICTED BY IDOCK:   -0.39 KCAL/MOL
REMARK 927      BINDING AFFINITY PREDICTED BY RF-SCORE:    0.00 PKD
ROOT
HETATM    1  C   UNL     1     -11.493  14.395  69.178  1.00  0.00    -0.328 C  
HETATM    2  C   UNL     1     -10.434  15.310  68.541  1.00  0.00    -0.235 C  
HETATM    3  C   UNL     1     -10.720  16.755  68.864  1.00  0.00    -0.333 C  
HETATM    4  C   UNL     1     -10.835  17.088  70.323  1.00  0.00     0.382 C  
HETATM    5  O   UNL     1     -10.787  17.623  67.995  1.00  0.00    -0.369 OA 
HETATM    6  C   UNL     1     -11.910  16.212  70.948  1.00  0.00    -0.318 C  
HETATM    7  C   UNL     1     -11.647  14.718  70.692  1.00  0.00    -0.324 C  
HETATM    8  C   UNL     1     -12.702  13.763  71.308  1.00  0.00    -0.371 C  
HETATM    9  C   UNL     1     -14.091  13.805  70.646  1.00  0.00     1.355 C  
HETATM   10  C   UNL     1     -12.897  14.042  72.809  1.00  0.00    -0.399 C  
HETATM   11  O   UNL     1     -12.201  12.412  71.238  1.00  0.00    -0.163 OA 
HETATM   12  C   UNL     1     -11.584  12.030  70.075  1.00  0.00    -0.195 A  
HETATM   13  C   UNL     1     -11.301  10.657  70.005  1.00  0.00    -0.400 A  
HETATM   14  C   UNL     1     -10.696  10.086  68.878  1.00  0.00    -0.243 A  
HETATM   15  H   UNL     1     -10.626  14.016  66.831  1.00  0.00     0.000 HD 
HETATM   16  C   UNL     1     -10.416  10.948  67.808  1.00  0.00    -0.238 A  
HETATM   17  C   UNL     1     -10.693  12.318  67.880  1.00  0.00    -0.215 A  
HETATM   18  O   UNL     1     -10.438  13.086  66.781  1.00  0.00    -0.256 OA 
HETATM   19  C   UNL     1     -11.237  12.902  69.030  1.00  0.00    -0.320 A  
ENDROOT
BRANCH  14  20
HETATM   20  C   UNL     1     -10.347   8.590  68.780  1.00  0.00    -0.233 C  
HETATM   21  C   UNL     1     -11.033   7.722  69.861  1.00  0.00    -0.194 C  
HETATM   22  C   UNL     1     -10.840   8.055  67.412  1.00  0.00    -0.146 C  
BRANCH  20  23
HETATM   23  C   UNL     1      -8.801   8.371  68.856  1.00  0.00    -0.143 C  
BRANCH  23  24
HETATM   24  C   UNL     1      -8.119   8.115  67.507  1.00  0.00    -0.123 C  
BRANCH  24  25
HETATM   25  C   UNL     1      -7.885   9.412  66.729  1.00  0.00    -0.105 C  
BRANCH  25  26
HETATM   26  C   UNL     1      -6.737   9.239  65.733  1.00  0.00    -0.076 C  
BRANCH  26  27
HETATM   27  C   UNL     1      -7.142   9.644  64.319  1.00  0.00    -0.119 C  
HETATM   28  C   UNL     1      -8.599  10.079  64.272  1.00  0.00    -0.197 C  
ENDBRANCH  26  27
ENDBRANCH  25  26
ENDBRANCH  24  25
ENDBRANCH  23  24
ENDBRANCH  20  23
ENDBRANCH  14  20
TORSDOF 6
ENDMDL
MODEL      196
REMARK 921   NORMALIZED FREE ENERGY PREDICTED BY IDOCK:   -1.94 KCAL/MOL
REMARK 922        TOTAL FREE ENERGY PREDICTED BY IDOCK:   -4.64 KCAL/MOL
REMARK 923 INTER-LIGAND FREE ENERGY PREDICTED BY IDOCK:   -3.78 KCAL/MOL
REMARK 924 INTRA-LIGAND FREE ENERGY PREDICTED BY IDOCK:   -0.85 KCAL/MOL
REMARK 927      BINDING AFFINITY PREDICTED BY RF-SCORE:    0.00 PKD
ROOT
HETATM    1  C   UNL     1     -10.213  14.957  66.733  1.00  0.00    -0.259 C  
HETATM    2  C   UNL     1     -10.663  15.090  65.268  1.00  0.00    -0.406 C  
HETATM    3  C   UNL     1     -11.638  13.996  64.913  1.00  0.00    -0.367 C  
HETATM    4  C   UNL     1     -12.854  13.896  65.788  1.00  0.00    -0.437 C  
HETATM    5  O   UNL     1     -11.487  13.274  63.929  1.00  0.00    -0.394 OA 
HETATM    6  C   UNL     1     -12.412  13.724  67.233  1.00  0.00    -0.022 C  
HETATM    7  C   UNL     1     -11.448  14.841  67.670  1.00  0.00    -0.363 C  
HETATM    8  C   UNL     1     -10.960  14.734  69.138  1.00  0.00    -0.267 C  
HETATM    9  C   UNL     1     -10.004  13.563  69.429  1.00  0.00     0.574 C  
HETATM   10  C   UNL     1     -12.147  14.614  70.112  1.00  0.00    -0.385 C  
HETATM   11  O   UNL     1     -10.301  15.966  69.499  1.00  0.00    -0.238 OA 
HETATM   12  C   UNL     1      -9.453  16.518  68.574  1.00  0.00    -0.235 A  
HETATM   13  C   UNL     1      -8.703  17.598  69.065  1.00  0.00    -0.008 A  
HETATM   14  C   UNL     1      -7.766  18.267  68.267  1.00  0.00    -0.303 A  
HETATM   15  H   UNL     1      -8.593  15.536  64.876  1.00  0.00     0.000 HD 
HETATM   16  C   UNL     1      -7.590  17.783  66.961  1.00  0.00    -0.228 A  
HETATM   17  C   UNL     1      -8.343  16.710  66.472  1.00  0.00    -0.287 A  
HETATM   18  O   UNL     1      -8.081  16.265  65.208  1.00  0.00     1.301 OA 
HETATM   19  C   UNL     1      -9.325  16.083  67.246  1.00  0.00    -0.218 A  
ENDROOT
BRANCH  14  20
HETATM   20  C   UNL     1      -6.947  19.472  68.764  1.00  0.00    -0.371 C  
HETATM   21  C   UNL     1      -6.830  20.612  67.724  1.00  0.00    -0.367 C  
HETATM   22  C   UNL     1      -7.660  20.079  69.998  1.00  0.00     0.537 C  
BRANCH  20  23
HETATM   23  C   UNL     1      -5.513  19.032  69.201  1.00  0.00    -0.210 C  
BRANCH  23  24
HETATM   24  C   UNL     1      -5.254  17.522  69.136  1.00  0.00    -0.174 C  
BRANCH  24  25
HETATM   25  C   UNL     1      -5.172  16.895  70.530  1.00  0.00    -0.228 C  
BRANCH  25  26
HETATM   26  C   UNL     1      -5.475  15.397  70.461  1.00  0.00    -0.137 C  
BRANCH  26  27
HETATM   27  C   UNL     1      -6.594  15.086  69.473  1.00  0.00    -0.155 C  
HETATM   28  C   UNL     1      -6.032  14.563  68.159  1.00  0.00    -0.139 C  
ENDBRANCH  26  27
ENDBRANCH  25  26
ENDBRANCH  24  25
ENDBRANCH  23  24
ENDBRANCH  20  23
ENDBRANCH  14  20
TORSDOF 6
ENDMDL
MODEL      197
REMARK 921   NORMALIZED FREE ENERGY PREDICTED BY IDOCK:   -1.91 KCAL/MOL
REMARK 922        TOTAL FREE ENERGY PREDICTED BY IDOCK:   -4.59 KCAL/MOL
REMARK 923 INTER-LIGAND FREE ENERGY PREDICTED BY IDOCK:   -3.47 KCAL/MOL
REMARK 924 INTRA-LIGAND FREE ENERGY PREDICTED BY IDOCK:   -1.13 KCAL/MOL
REMARK 927      BINDING AFFINITY PREDICTED BY RF-SCORE:    0.00 PKD
ROOT
HETATM    1  C   UNL     1      -8.287   8.832  67.266  1.00  0.00    -0.104 C  
HETATM    2  C   UNL     1      -7.219   7.974  66.564  1.00  0.00    -0.080 C  
HETATM    3  C   UNL     1      -6.731   8.658  65.312  1.00  0.00    -0.067 C  
HETATM    4  C   UNL     1      -6.195  10.049  65.493  1.00  0.00    -0.092 C  
HETATM    5  O   UNL     1      -6.707   8.092  64.221  1.00  0.00    -0.063 OA 
HETATM    6  C   UNL     1      -7.263  10.909  66.150  1.00  0.00    -0.101 C  
HETATM    7  C   UNL     1      -7.770  10.285  67.462  1.00  0.00    -0.094 C  
HETATM    8  C   UNL     1      -8.858  11.114  68.193  1.00  0.00    -0.148 C  
HETATM    9  C   UNL     1     -10.227  11.164  67.491  1.00  0.00    -0.216 C  
HETATM   10  C   UNL     1      -8.398  12.567  68.412  1.00  0.00    -0.132 C  
HETATM   11  O   UNL     1      -9.041  10.575  69.518  1.00  0.00    -0.152 OA 
HETATM   12  C   UNL     1      -9.077   9.209  69.640  1.00  0.00    -0.160 A  
HETATM   13  C   UNL     1      -9.453   8.763  70.917  1.00  0.00    -0.269 A  
HETATM   14  C   UNL     1      -9.568   7.399  71.215  1.00  0.00    -0.166 A  
HETATM   15  H   UNL     1      -8.510   6.320  67.049  1.00  0.00     0.000 HD 
HETATM   16  C   UNL     1      -9.323   6.500  70.166  1.00  0.00    -0.162 A  
HETATM   17  C   UNL     1      -8.943   6.947  68.895  1.00  0.00    -0.131 A  
HETATM   18  O   UNL     1      -8.768   6.017  67.912  1.00  0.00    -0.113 OA 
HETATM   19  C   UNL     1      -8.763   8.306  68.612  1.00  0.00    -0.133 A  
ENDROOT
BRANCH  14  20
HETATM   20  C   UNL     1      -9.950   6.874  72.611  1.00  0.00    -0.191 C  
HETATM   21  C   UNL     1     -11.327   7.376  73.106  1.00  0.00    -0.209 C  
HETATM   22  C   UNL     1     -10.045   5.329  72.550  1.00  0.00    -0.224 C  
BRANCH  20  23
HETATM   23  C   UNL     1      -8.861   7.250  73.667  1.00  0.00    -0.223 C  
BRANCH  23  24
HETATM   24  C   UNL     1      -7.837   6.147  73.958  1.00  0.00    -0.099 C  
BRANCH  24  25
HETATM   25  C   UNL     1      -6.787   6.035  72.850  1.00  0.00    -0.075 C  
BRANCH  25  26
HETATM   26  C   UNL     1      -6.161   4.638  72.846  1.00  0.00    -0.025 C  
BRANCH  26  27
HETATM   27  C   UNL     1      -6.544   3.845  71.600  1.00  0.00    -0.019 C  
HETATM   28  C   UNL     1      -6.018   4.519  70.342  1.00  0.00    -0.014 C  
ENDBRANCH  26  27
ENDBRANCH  25  26
ENDBRANCH  24  25
ENDBRANCH  23  24
ENDBRANCH  20  23
ENDBRANCH  14  20
TORSDOF 6
ENDMDL
MODEL      198
REMARK 921   NORMALIZED FREE ENERGY PREDICTED BY IDOCK:   -1.85 KCAL/MOL
REMARK 922        TOTAL FREE ENERGY PREDICTED BY IDOCK:   -4.52 KCAL/MOL
REMARK 923 INTER-LIGAND FREE ENERGY PREDICTED BY IDOCK:   -4.24 KCAL/MOL
REMARK 924 INTRA-LIGAND FREE ENERGY PREDICTED BY IDOCK:   -0.28 KCAL/MOL
REMARK 927      BINDING AFFINITY PREDICTED BY RF-SCORE:    0.00 PKD
ROOT
HETATM    1  C   UNL     1      -9.394  10.014  68.443  1.00  0.00    -0.139 C  
HETATM    2  C   UNL     1      -9.059   9.740  66.967  1.00  0.00    -0.157 C  
HETATM    3  C   UNL     1      -8.843   8.265  66.739  1.00  0.00    -0.140 C  
HETATM    4  C   UNL     1      -9.972   7.367  67.155  1.00  0.00    -0.281 C  
HETATM    5  O   UNL     1      -7.837   7.826  66.183  1.00  0.00    -0.089 OA 
HETATM    6  C   UNL     1     -10.279   7.607  68.625  1.00  0.00    -0.214 C  
HETATM    7  C   UNL     1     -10.555   9.093  68.914  1.00  0.00    -0.214 C  
HETATM    8  C   UNL     1     -10.885   9.412  70.396  1.00  0.00    -0.269 C  
HETATM    9  C   UNL     1      -9.706   9.266  71.376  1.00  0.00    -0.269 C  
HETATM   10  C   UNL     1     -12.029   8.523  70.916  1.00  0.00    -0.204 C  
HETATM   11  O   UNL     1     -11.388  10.761  70.480  1.00  0.00    -0.307 OA 
HETATM   12  C   UNL     1     -10.743  11.718  69.740  1.00  0.00     0.369 A  
HETATM   13  C   UNL     1     -11.158  13.030  70.021  1.00  0.00     0.373 A  
HETATM   14  C   UNL     1     -10.588  14.136  69.378  1.00  0.00    -0.061 A  
HETATM   15  H   UNL     1      -7.830  11.502  67.122  1.00  0.00     0.000 HD 
HETATM   16  C   UNL     1      -9.558  13.873  68.463  1.00  0.00    -0.185 A  
HETATM   17  C   UNL     1      -9.149  12.565  68.179  1.00  0.00    -0.204 A  
HETATM   18  O   UNL     1      -8.108  12.390  67.314  1.00  0.00    -0.169 OA 
HETATM   19  C   UNL     1      -9.761  11.454  68.771  1.00  0.00    -0.155 A  
ENDROOT
BRANCH  14  20
HETATM   20  C   UNL     1     -11.040  15.584  69.641  1.00  0.00    -0.280 C  
HETATM   21  C   UNL     1     -12.104  15.708  70.757  1.00  0.00    -0.454 C  
HETATM   22  C   UNL     1      -9.814  16.406  70.114  1.00  0.00     0.638 C  
BRANCH  20  23
HETATM   23  C   UNL     1     -11.590  16.244  68.336  1.00  0.00    -0.154 C  
BRANCH  23  24
HETATM   24  C   UNL     1     -10.985  15.704  67.035  1.00  0.00    -0.261 C  
BRANCH  24  25
HETATM   25  C   UNL     1     -10.416  16.824  66.161  1.00  0.00    -0.282 C  
BRANCH  25  26
HETATM   26  C   UNL     1      -9.050  17.269  66.685  1.00  0.00    -0.286 C  
BRANCH  26  27
HETATM   27  C   UNL     1      -8.970  18.783  66.857  1.00  0.00    -0.302 C  
HETATM   28  C   UNL     1     -10.359  19.403  66.880  1.00  0.00    -0.541 C  
ENDBRANCH  26  27
ENDBRANCH  25  26
ENDBRANCH  24  25
ENDBRANCH  23  24
ENDBRANCH  20  23
ENDBRANCH  14  20
TORSDOF 6
ENDMDL
MODEL      199
REMARK 921   NORMALIZED FREE ENERGY PREDICTED BY IDOCK:   -1.84 KCAL/MOL
REMARK 922        TOTAL FREE ENERGY PREDICTED BY IDOCK:   -4.49 KCAL/MOL
REMARK 923 INTER-LIGAND FREE ENERGY PREDICTED BY IDOCK:   -5.15 KCAL/MOL
REMARK 924 INTRA-LIGAND FREE ENERGY PREDICTED BY IDOCK:    0.65 KCAL/MOL
REMARK 927      BINDING AFFINITY PREDICTED BY RF-SCORE:    0.00 PKD
ROOT
HETATM    1  C   UNL     1      -7.665  18.875  66.855  1.00  0.00    -0.250 C  
HETATM    2  C   UNL     1      -7.500  19.168  65.354  1.00  0.00     0.211 C  
HETATM    3  C   UNL     1      -6.531  20.303  65.140  1.00  0.00    -0.286 C  
HETATM    4  C   UNL     1      -5.172  20.127  65.753  1.00  0.00    -0.182 C  
HETATM    5  O   UNL     1      -6.808  21.283  64.450  1.00  0.00     0.006 OA 
HETATM    6  C   UNL     1      -5.330  19.877  67.244  1.00  0.00    -0.161 C  
HETATM    7  C   UNL     1      -6.274  18.695  67.527  1.00  0.00    -0.179 C  
HETATM    8  C   UNL     1      -6.476  18.377  69.031  1.00  0.00    -0.245 C  
HETATM    9  C   UNL     1      -7.279  19.427  69.822  1.00  0.00     0.003 C  
HETATM   10  C   UNL     1      -5.127  18.192  69.748  1.00  0.00    -0.190 C  
HETATM   11  O   UNL     1      -7.144  17.104  69.151  1.00  0.00    -0.241 OA 
HETATM   12  C   UNL     1      -8.183  16.857  68.291  1.00  0.00    -0.222 A  
HETATM   13  C   UNL     1      -8.906  15.692  68.594  1.00  0.00    -0.201 A  
HETATM   14  C   UNL     1     -10.017  15.298  67.837  1.00  0.00    -0.228 A  
HETATM   15  H   UNL     1      -9.633  18.885  65.264  1.00  0.00     0.000 HD 
HETATM   16  C   UNL     1     -10.394  16.143  66.782  1.00  0.00    -0.291 A  
HETATM   17  C   UNL     1      -9.670  17.301  66.479  1.00  0.00    -0.288 A  
HETATM   18  O   UNL     1     -10.125  18.099  65.470  1.00  0.00    -0.488 OA 
HETATM   19  C   UNL     1      -8.520  17.662  67.192  1.00  0.00    -0.239 A  
ENDROOT
BRANCH  14  20
HETATM   20  C   UNL     1     -10.814  14.012  68.123  1.00  0.00    -0.260 C  
HETATM   21  C   UNL     1     -10.136  13.081  69.155  1.00  0.00     0.295 C  
HETATM   22  C   UNL     1     -12.187  14.404  68.724  1.00  0.00    -0.200 C  
BRANCH  20  23
HETATM   23  C   UNL     1     -11.074  13.211  66.806  1.00  0.00    -0.314 C  
BRANCH  23  24
HETATM   24  C   UNL     1     -10.871  11.696  66.922  1.00  0.00    -0.322 C  
BRANCH  24  25
HETATM   25  C   UNL     1     -11.889  11.054  67.867  1.00  0.00    -0.085 C  
BRANCH  25  26
HETATM   26  C   UNL     1     -11.184  10.461  69.089  1.00  0.00    -0.301 C  
BRANCH  26  27
HETATM   27  C   UNL     1     -12.177   9.954  70.131  1.00  0.00    -0.040 C  
HETATM   28  C   UNL     1     -11.454   9.428  71.361  1.00  0.00    -0.449 C  
ENDBRANCH  26  27
ENDBRANCH  25  26
ENDBRANCH  24  25
ENDBRANCH  23  24
ENDBRANCH  20  23
ENDBRANCH  14  20
TORSDOF 6
ENDMDL
MODEL      200
REMARK 921   NORMALIZED FREE ENERGY PREDICTED BY IDOCK:   -1.79 KCAL/MOL
REMARK 922        TOTAL FREE ENERGY PREDICTED BY IDOCK:   -4.43 KCAL/MOL
REMARK 923 INTER-LIGAND FREE ENERGY PREDICTED BY IDOCK:   -3.21 KCAL/MOL
REMARK 924 INTRA-LIGAND FREE ENERGY PREDICTED BY IDOCK:   -1.22 KCAL/MOL
REMARK 927      BINDING AFFINITY PREDICTED BY RF-SCORE:    0.00 PKD
ROOT
HETATM    1  C   UNL     1      -9.023   5.715  66.087  1.00  0.00    -0.153 C  
HETATM    2  C   UNL     1      -9.886   4.661  65.372  1.00  0.00    -0.172 C  
HETATM    3  C   UNL     1      -9.218   4.207  64.099  1.00  0.00    -0.149 C  
HETATM    4  C   UNL     1      -7.822   3.673  64.247  1.00  0.00    -0.085 C  
HETATM    5  O   UNL     1      -9.799   4.206  63.015  1.00  0.00    -0.154 OA 
HETATM    6  C   UNL     1      -6.958   4.729  64.918  1.00  0.00    -0.061 C  
HETATM    7  C   UNL     1      -7.565   5.200  66.251  1.00  0.00    -0.088 C  
HETATM    8  C   UNL     1      -6.730   6.274  66.996  1.00  0.00    -0.061 C  
HETATM    9  C   UNL     1      -6.697   7.660  66.327  1.00  0.00    -0.057 C  
HETATM   10  C   UNL     1      -5.273   5.816  67.183  1.00  0.00    -0.005 C  
HETATM   11  O   UNL     1      -7.252   6.422  68.333  1.00  0.00    -0.080 OA 
HETATM   12  C   UNL     1      -8.616   6.449  68.475  1.00  0.00    -0.122 A  
HETATM   13  C   UNL     1      -9.046   6.791  69.767  1.00  0.00    -0.143 A  
HETATM   14  C   UNL     1     -10.406   6.892  70.087  1.00  0.00    -0.218 A  
HETATM   15  H   UNL     1     -11.539   5.931  65.912  1.00  0.00     0.000 HD 
HETATM   16  C   UNL     1     -11.318   6.668  69.044  1.00  0.00    -0.235 A  
HETATM   17  C   UNL     1     -10.888   6.321  67.759  1.00  0.00    -0.338 A  
HETATM   18  O   UNL     1     -11.831   6.166  66.785  1.00  0.00     0.708 OA 
HETATM   19  C   UNL     1      -9.532   6.155  67.453  1.00  0.00    -0.118 A  
ENDROOT
BRANCH  14  20
HETATM   20  C   UNL     1     -10.913   7.237  71.499  1.00  0.00    -0.259 C  
HETATM   21  C   UNL     1     -11.253   8.734  71.686  1.00  0.00    -0.394 C  
HETATM   22  C   UNL     1     -12.226   6.456  71.758  1.00  0.00    -0.312 C  
BRANCH  20  23
HETATM   23  C   UNL     1      -9.873   6.810  72.585  1.00  0.00    -0.183 C  
BRANCH  23  24
HETATM   24  C   UNL     1      -9.845   7.698  73.835  1.00  0.00    -0.090 C  
BRANCH  24  25
HETATM   25  C   UNL     1      -8.415   7.984  74.300  1.00  0.00    -0.251 C  
BRANCH  25  26
HETATM   26  C   UNL     1      -7.408   7.532  73.242  1.00  0.00    -0.100 C  
BRANCH  26  27
HETATM   27  C   UNL     1      -6.587   8.699  72.700  1.00  0.00    -0.045 C  
HETATM   28  C   UNL     1      -6.271   8.504  71.224  1.00  0.00    -0.044 C  
ENDBRANCH  26  27
ENDBRANCH  25  26
ENDBRANCH  24  25
ENDBRANCH  23  24
ENDBRANCH  20  23
ENDBRANCH  14  20
TORSDOF 6
ENDMDL
MODEL      201
REMARK 921   NORMALIZED FREE ENERGY PREDICTED BY IDOCK:   -1.56 KCAL/MOL
REMARK 922        TOTAL FREE ENERGY PREDICTED BY IDOCK:   -4.13 KCAL/MOL
REMARK 923 INTER-LIGAND FREE ENERGY PREDICTED BY IDOCK:   -3.86 KCAL/MOL
REMARK 924 INTRA-LIGAND FREE ENERGY PREDICTED BY IDOCK:   -0.27 KCAL/MOL
REMARK 927      BINDING AFFINITY PREDICTED BY RF-SCORE:    0.00 PKD
ROOT
HETATM    1  C   UNL     1      -7.606  14.659  67.357  1.00  0.00    -0.218 C  
HETATM    2  C   UNL     1      -6.409  15.618  67.476  1.00  0.00    -0.181 C  
HETATM    3  C   UNL     1      -6.769  16.981  66.942  1.00  0.00    -0.217 C  
HETATM    4  C   UNL     1      -7.974  17.629  67.560  1.00  0.00    -0.210 C  
HETATM    5  O   UNL     1      -6.083  17.561  66.102  1.00  0.00    -0.206 OA 
HETATM    6  C   UNL     1      -9.168  16.699  67.409  1.00  0.00    -0.216 C  
HETATM    7  C   UNL     1      -8.877  15.301  67.980  1.00  0.00    -0.169 C  
HETATM    8  C   UNL     1     -10.056  14.300  67.867  1.00  0.00    -0.233 C  
HETATM    9  C   UNL     1     -10.385  13.832  66.437  1.00  0.00    -0.290 C  
HETATM   10  C   UNL     1     -11.346  14.887  68.468  1.00  0.00    -0.314 C  
HETATM   11  O   UNL     1      -9.760  13.140  68.672  1.00  0.00    -0.171 OA 
HETATM   12  C   UNL     1      -8.483  12.645  68.613  1.00  0.00     0.043 A  
HETATM   13  C   UNL     1      -8.321  11.411  69.262  1.00  0.00     0.243 A  
HETATM   14  C   UNL     1      -7.089  10.744  69.281  1.00  0.00    -0.116 A  
HETATM   15  H   UNL     1      -5.242  13.932  66.819  1.00  0.00     0.000 HD 
HETATM   16  C   UNL     1      -6.032  11.354  68.590  1.00  0.00    -0.042 A  
HETATM   17  C   UNL     1      -6.193  12.587  67.948  1.00  0.00    -0.100 A  
HETATM   18  O   UNL     1      -5.132  13.095  67.255  1.00  0.00    -0.331 OA 
HETATM   19  C   UNL     1      -7.405  13.286  67.983  1.00  0.00    -0.127 A  
ENDROOT
BRANCH  14  20
HETATM   20  C   UNL     1      -6.870   9.405  70.007  1.00  0.00    -0.067 C  
HETATM   21  C   UNL     1      -5.492   9.295  70.701  1.00  0.00    -0.033 C  
HETATM   22  C   UNL     1      -7.934   9.269  71.125  1.00  0.00    -0.041 C  
BRANCH  20  23
HETATM   23  C   UNL     1      -7.044   8.201  69.025  1.00  0.00    -0.062 C  
BRANCH  23  24
HETATM   24  C   UNL     1      -7.106   8.583  67.542  1.00  0.00    -0.080 C  
BRANCH  24  25
HETATM   25  C   UNL     1      -8.547   8.687  67.037  1.00  0.00    -0.120 C  
BRANCH  25  26
HETATM   26  C   UNL     1      -9.511   8.042  68.035  1.00  0.00    -0.157 C  
BRANCH  26  27
HETATM   27  C   UNL     1      -9.484   6.519  67.952  1.00  0.00    -0.120 C  
HETATM   28  C   UNL     1     -10.877   5.939  68.148  1.00  0.00    -0.323 C  
ENDBRANCH  26  27
ENDBRANCH  25  26
ENDBRANCH  24  25
ENDBRANCH  23  24
ENDBRANCH  20  23
ENDBRANCH  14  20
TORSDOF 6
ENDMDL
MODEL      202
REMARK 921   NORMALIZED FREE ENERGY PREDICTED BY IDOCK:   -1.52 KCAL/MOL
REMARK 922        TOTAL FREE ENERGY PREDICTED BY IDOCK:   -4.07 KCAL/MOL
REMARK 923 INTER-LIGAND FREE ENERGY PREDICTED BY IDOCK:   -3.36 KCAL/MOL
REMARK 924 INTRA-LIGAND FREE ENERGY PREDICTED BY IDOCK:   -0.72 KCAL/MOL
REMARK 927      BINDING AFFINITY PREDICTED BY RF-SCORE:    0.00 PKD
ROOT
HETATM    1  C   UNL     1      -7.588   9.418  64.709  1.00  0.00    -0.111 C  
HETATM    2  C   UNL     1      -8.587  10.579  64.564  1.00  0.00    -0.165 C  
HETATM    3  C   UNL     1      -8.896  10.832  63.110  1.00  0.00    -0.209 C  
HETATM    4  C   UNL     1      -9.407   9.651  62.335  1.00  0.00    -0.142 C  
HETATM    5  O   UNL     1      -8.804  11.948  62.603  1.00  0.00    -0.082 OA 
HETATM    6  C   UNL     1      -8.401   8.515  62.444  1.00  0.00    -0.192 C  
HETATM    7  C   UNL     1      -8.080   8.178  63.910  1.00  0.00    -0.114 C  
HETATM    8  C   UNL     1      -7.064   7.020  64.097  1.00  0.00    -0.063 C  
HETATM    9  C   UNL     1      -5.618   7.342  63.677  1.00  0.00    -0.037 C  
HETATM   10  C   UNL     1      -7.502   5.764  63.322  1.00  0.00    -0.067 C  
HETATM   11  O   UNL     1      -7.062   6.625  65.485  1.00  0.00    -0.061 OA 
HETATM   12  C   UNL     1      -7.084   7.625  66.422  1.00  0.00    -0.071 A  
HETATM   13  C   UNL     1      -6.882   7.176  67.737  1.00  0.00    -0.074 A  
HETATM   14  C   UNL     1      -6.846   8.063  68.821  1.00  0.00    -0.062 A  
HETATM   15  H   UNL     1      -7.418  11.520  66.108  1.00  0.00     0.000 HD 
HETATM   16  C   UNL     1      -6.989   9.427  68.524  1.00  0.00    -0.066 A  
HETATM   17  C   UNL     1      -7.196   9.873  67.214  1.00  0.00    -0.086 A  
HETATM   18  O   UNL     1      -7.278  11.218  66.998  1.00  0.00    -0.113 OA 
HETATM   19  C   UNL     1      -7.297   8.983  66.138  1.00  0.00    -0.091 A  
ENDROOT
BRANCH  14  20
HETATM   20  C   UNL     1      -6.656   7.602  70.277  1.00  0.00    -0.038 C  
HETATM   21  C   UNL     1      -5.271   6.968  70.549  1.00  0.00    -0.023 C  
HETATM   22  C   UNL     1      -6.759   8.838  71.205  1.00  0.00    -0.075 C  
BRANCH  20  23
HETATM   23  C   UNL     1      -7.772   6.590  70.694  1.00  0.00    -0.105 C  
BRANCH  23  24
HETATM   24  C   UNL     1      -9.186   7.178  70.754  1.00  0.00    -0.157 C  
BRANCH  24  25
HETATM   25  C   UNL     1      -9.494   7.785  72.125  1.00  0.00    -0.216 C  
BRANCH  25  26
HETATM   26  C   UNL     1     -10.635   8.799  72.016  1.00  0.00    -0.414 C  
BRANCH  26  27
HETATM   27  C   UNL     1     -10.393   9.815  70.903  1.00  0.00    -0.245 C  
HETATM   28  C   UNL     1     -11.641  10.001  70.054  1.00  0.00    -0.279 C  
ENDBRANCH  26  27
ENDBRANCH  25  26
ENDBRANCH  24  25
ENDBRANCH  23  24
ENDBRANCH  20  23
ENDBRANCH  14  20
TORSDOF 6
ENDMDL
MODEL      203
REMARK 921   NORMALIZED FREE ENERGY PREDICTED BY IDOCK:   -1.49 KCAL/MOL
REMARK 922        TOTAL FREE ENERGY PREDICTED BY IDOCK:   -4.03 KCAL/MOL
REMARK 923 INTER-LIGAND FREE ENERGY PREDICTED BY IDOCK:   -3.34 KCAL/MOL
REMARK 924 INTRA-LIGAND FREE ENERGY PREDICTED BY IDOCK:   -0.69 KCAL/MOL
REMARK 927      BINDING AFFINITY PREDICTED BY RF-SCORE:    0.00 PKD
ROOT
HETATM    1  C   UNL     1      -7.409   8.865  68.535  1.00  0.00    -0.081 C  
HETATM    2  C   UNL     1      -7.259   7.975  67.289  1.00  0.00    -0.087 C  
HETATM    3  C   UNL     1      -6.681   6.634  67.663  1.00  0.00    -0.070 C  
HETATM    4  C   UNL     1      -7.429   5.871  68.718  1.00  0.00    -0.086 C  
HETATM    5  O   UNL     1      -5.699   6.159  67.095  1.00  0.00    -0.015 OA 
HETATM    6  C   UNL     1      -7.544   6.733  69.965  1.00  0.00    -0.100 C  
HETATM    7  C   UNL     1      -8.173   8.103  69.655  1.00  0.00    -0.120 C  
HETATM    8  C   UNL     1      -8.328   9.035  70.885  1.00  0.00    -0.197 C  
HETATM    9  C   UNL     1      -7.011   9.582  71.464  1.00  0.00     0.266 C  
HETATM   10  C   UNL     1      -9.078   8.328  72.028  1.00  0.00    -0.267 C  
HETATM   11  O   UNL     1      -9.167  10.150  70.519  1.00  0.00     0.144 OA 
HETATM   12  C   UNL     1      -8.946  10.726  69.294  1.00  0.00    -0.030 A  
HETATM   13  C   UNL     1      -9.658  11.919  69.090  1.00  0.00     0.338 A  
HETATM   14  C   UNL     1      -9.534  12.657  67.906  1.00  0.00    -0.204 A  
HETATM   15  H   UNL     1      -6.563   9.773  66.329  1.00  0.00     0.000 HD 
HETATM   16  C   UNL     1      -8.637  12.164  66.947  1.00  0.00    -0.191 A  
HETATM   17  C   UNL     1      -7.932  10.973  67.149  1.00  0.00    -0.135 A  
HETATM   18  O   UNL     1      -7.041  10.582  66.192  1.00  0.00    -0.122 OA 
HETATM   19  C   UNL     1      -8.104  10.199  68.303  1.00  0.00    -0.102 A  
ENDROOT
BRANCH  14  20
HETATM   20  C   UNL     1     -10.322  13.952  67.638  1.00  0.00    -0.242 C  
HETATM   21  C   UNL     1      -9.934  14.649  66.313  1.00  0.00    -0.306 C  
HETATM   22  C   UNL     1     -11.827  13.602  67.523  1.00  0.00    -0.416 C  
BRANCH  20  23
HETATM   23  C   UNL     1     -10.150  14.965  68.816  1.00  0.00    -0.241 C  
BRANCH  23  24
HETATM   24  C   UNL     1      -8.752  15.584  68.936  1.00  0.00    -0.206 C  
BRANCH  24  25
HETATM   25  C   UNL     1      -8.808  17.112  69.008  1.00  0.00    -0.105 C  
BRANCH  25  26
HETATM   26  C   UNL     1      -7.587  17.725  68.319  1.00  0.00    -0.256 C  
BRANCH  26  27
HETATM   27  C   UNL     1      -6.770  18.593  69.271  1.00  0.00    -0.266 C  
HETATM   28  C   UNL     1      -7.073  20.069  69.058  1.00  0.00    -0.246 C  
ENDBRANCH  26  27
ENDBRANCH  25  26
ENDBRANCH  24  25
ENDBRANCH  23  24
ENDBRANCH  20  23
ENDBRANCH  14  20
TORSDOF 6
ENDMDL
MODEL      204
REMARK 921   NORMALIZED FREE ENERGY PREDICTED BY IDOCK:   -1.46 KCAL/MOL
REMARK 922        TOTAL FREE ENERGY PREDICTED BY IDOCK:   -3.98 KCAL/MOL
REMARK 923 INTER-LIGAND FREE ENERGY PREDICTED BY IDOCK:   -4.55 KCAL/MOL
REMARK 924 INTRA-LIGAND FREE ENERGY PREDICTED BY IDOCK:    0.57 KCAL/MOL
REMARK 927      BINDING AFFINITY PREDICTED BY RF-SCORE:    0.00 PKD
ROOT
HETATM    1  C   UNL     1     -10.901  12.494  67.527  1.00  0.00    -0.264 C  
HETATM    2  C   UNL     1     -12.085  12.297  66.564  1.00  0.00    -0.094 C  
HETATM    3  C   UNL     1     -12.047  13.325  65.462  1.00  0.00    -0.435 C  
HETATM    4  C   UNL     1     -10.776  13.382  64.664  1.00  0.00    -0.425 C  
HETATM    5  O   UNL     1     -13.017  14.028  65.185  1.00  0.00    -0.744 OA 
HETATM    6  C   UNL     1      -9.608  13.616  65.610  1.00  0.00    -0.026 C  
HETATM    7  C   UNL     1      -9.565  12.566  66.734  1.00  0.00    -0.231 C  
HETATM    8  C   UNL     1      -8.392  12.739  67.734  1.00  0.00    -0.177 C  
HETATM    9  C   UNL     1      -8.492  13.969  68.655  1.00  0.00    -0.103 C  
HETATM   10  C   UNL     1      -7.042  12.821  67.000  1.00  0.00     0.128 C  
HETATM   11  O   UNL     1      -8.304  11.556  68.554  1.00  0.00    -0.148 OA 
HETATM   12  C   UNL     1      -9.479  11.027  69.021  1.00  0.00    -0.108 A  
HETATM   13  C   UNL     1      -9.306  10.004  69.966  1.00  0.00    -0.165 A  
HETATM   14  C   UNL     1     -10.398   9.366  70.570  1.00  0.00    -0.341 A  
HETATM   15  H   UNL     1     -13.231  11.955  68.355  1.00  0.00     0.000 HD 
HETATM   16  C   UNL     1     -11.674   9.823  70.208  1.00  0.00    -0.253 A  
HETATM   17  C   UNL     1     -11.846  10.840  69.262  1.00  0.00    -0.288 A  
HETATM   18  O   UNL     1     -13.115  11.265  68.997  1.00  0.00     0.557 OA 
HETATM   19  C   UNL     1     -10.759  11.433  68.609  1.00  0.00    -0.241 A  
ENDROOT
BRANCH  14  20
HETATM   20  C   UNL     1     -10.244   8.221  71.588  1.00  0.00    -0.286 C  
HETATM   21  C   UNL     1      -9.973   8.709  73.031  1.00  0.00     0.255 C  
HETATM   22  C   UNL     1     -11.571   7.423  71.639  1.00  0.00    -0.302 C  
BRANCH  20  23
HETATM   23  C   UNL     1      -9.106   7.240  71.158  1.00  0.00    -0.152 C  
BRANCH  23  24
HETATM   24  C   UNL     1      -8.165   7.779  70.074  1.00  0.00    -0.121 C  
BRANCH  24  25
HETATM   25  C   UNL     1      -7.634   6.662  69.172  1.00  0.00    -0.100 C  
BRANCH  25  26
HETATM   26  C   UNL     1      -8.545   6.476  67.958  1.00  0.00    -0.118 C  
BRANCH  26  27
HETATM   27  C   UNL     1      -9.345   5.179  68.037  1.00  0.00    -0.144 C  
HETATM   28  C   UNL     1     -10.420   5.267  69.110  1.00  0.00    -0.227 C  
ENDBRANCH  26  27
ENDBRANCH  25  26
ENDBRANCH  24  25
ENDBRANCH  23  24
ENDBRANCH  20  23
ENDBRANCH  14  20
TORSDOF 6
ENDMDL
MODEL      205
REMARK 921   NORMALIZED FREE ENERGY PREDICTED BY IDOCK:   -1.45 KCAL/MOL
REMARK 922        TOTAL FREE ENERGY PREDICTED BY IDOCK:   -3.98 KCAL/MOL
REMARK 923 INTER-LIGAND FREE ENERGY PREDICTED BY IDOCK:   -2.17 KCAL/MOL
REMARK 924 INTRA-LIGAND FREE ENERGY PREDICTED BY IDOCK:   -1.80 KCAL/MOL
REMARK 927      BINDING AFFINITY PREDICTED BY RF-SCORE:    0.00 PKD
ROOT
HETATM    1  C   UNL     1      -8.732   5.548  65.392  1.00  0.00    -0.148 C  
HETATM    2  C   UNL     1      -9.429   4.291  64.842  1.00  0.00    -0.169 C  
HETATM    3  C   UNL     1      -9.270   4.212  63.345  1.00  0.00    -0.137 C  
HETATM    4  C   UNL     1      -7.859   4.249  62.833  1.00  0.00    -0.066 C  
HETATM    5  O   UNL     1     -10.228   4.057  62.589  1.00  0.00    -0.168 OA 
HETATM    6  C   UNL     1      -7.180   5.510  63.344  1.00  0.00    -0.049 C  
HETATM    7  C   UNL     1      -7.267   5.625  64.875  1.00  0.00    -0.065 C  
HETATM    8  C   UNL     1      -6.588   6.887  65.468  1.00  0.00    -0.051 C  
HETATM    9  C   UNL     1      -7.295   8.219  65.159  1.00  0.00    -0.081 C  
HETATM   10  C   UNL     1      -5.132   7.015  64.985  1.00  0.00    -0.027 C  
HETATM   11  O   UNL     1      -6.497   6.737  66.900  1.00  0.00    -0.040 OA 
HETATM   12  C   UNL     1      -7.593   6.227  67.548  1.00  0.00    -0.097 A  
HETATM   13  C   UNL     1      -7.507   6.294  68.947  1.00  0.00    -0.087 A  
HETATM   14  C   UNL     1      -8.547   5.843  69.771  1.00  0.00    -0.129 A  
HETATM   15  H   UNL     1     -10.996   4.790  66.231  1.00  0.00     0.000 HD 
HETATM   16  C   UNL     1      -9.693   5.352  69.128  1.00  0.00    -0.217 A  
HETATM   17  C   UNL     1      -9.775   5.281  67.733  1.00  0.00    -0.140 A  
HETATM   18  O   UNL     1     -10.941   4.838  67.179  1.00  0.00     0.312 OA 
HETATM   19  C   UNL     1      -8.712   5.670  66.910  1.00  0.00    -0.113 A  
ENDROOT
BRANCH  14  20
HETATM   20  C   UNL     1      -8.474   5.874  71.308  1.00  0.00    -0.128 C  
HETATM   21  C   UNL     1      -8.855   7.244  71.918  1.00  0.00    -0.133 C  
HETATM   22  C   UNL     1      -9.489   4.849  71.873  1.00  0.00    -0.194 C  
BRANCH  20  23
HETATM   23  C   UNL     1      -7.049   5.472  71.809  1.00  0.00    -0.077 C  
BRANCH  23  24
HETATM   24  C   UNL     1      -6.929   4.032  72.322  1.00  0.00    -0.050 C  
BRANCH  24  25
HETATM   25  C   UNL     1      -6.757   3.030  71.177  1.00  0.00    -0.031 C  
BRANCH  25  26
HETATM   26  C   UNL     1      -5.614   3.461  70.256  1.00  0.00    -0.016 C  
BRANCH  26  27
HETATM   27  C   UNL     1      -5.872   3.069  68.804  1.00  0.00    -0.023 C  
HETATM   28  C   UNL     1      -7.287   2.541  68.625  1.00  0.00    -0.047 C  
ENDBRANCH  26  27
ENDBRANCH  25  26
ENDBRANCH  24  25
ENDBRANCH  23  24
ENDBRANCH  20  23
ENDBRANCH  14  20
TORSDOF 6
ENDMDL
MODEL      206
REMARK 921   NORMALIZED FREE ENERGY PREDICTED BY IDOCK:   -1.07 KCAL/MOL
REMARK 922        TOTAL FREE ENERGY PREDICTED BY IDOCK:   -3.46 KCAL/MOL
REMARK 923 INTER-LIGAND FREE ENERGY PREDICTED BY IDOCK:   -2.57 KCAL/MOL
REMARK 924 INTRA-LIGAND FREE ENERGY PREDICTED BY IDOCK:   -0.90 KCAL/MOL
REMARK 927      BINDING AFFINITY PREDICTED BY RF-SCORE:    0.00 PKD
ROOT
HETATM    1  C   UNL     1      -9.510  11.294  67.676  1.00  0.00    -0.173 C  
HETATM    2  C   UNL     1      -8.671  10.024  67.897  1.00  0.00    -0.125 C  
HETATM    3  C   UNL     1      -9.408   8.809  67.392  1.00  0.00    -0.137 C  
HETATM    4  C   UNL     1      -9.845   8.859  65.957  1.00  0.00    -0.277 C  
HETATM    5  O   UNL     1      -9.582   7.810  68.087  1.00  0.00    -0.147 OA 
HETATM    6  C   UNL     1     -10.707  10.093  65.745  1.00  0.00     0.115 C  
HETATM    7  C   UNL     1      -9.988  11.376  66.199  1.00  0.00    -0.265 C  
HETATM    8  C   UNL     1     -10.808  12.678  66.004  1.00  0.00    -0.277 C  
HETATM    9  C   UNL     1     -12.027  12.831  66.932  1.00  0.00    -0.380 C  
HETATM   10  C   UNL     1     -11.312  12.808  64.555  1.00  0.00    -0.378 C  
HETATM   11  O   UNL     1      -9.936  13.810  66.203  1.00  0.00    -0.293 OA 
HETATM   12  C   UNL     1      -9.058  13.749  67.254  1.00  0.00    -0.232 A  
HETATM   13  C   UNL     1      -8.385  14.955  67.504  1.00  0.00    -0.195 A  
HETATM   14  C   UNL     1      -7.470  15.084  68.557  1.00  0.00    -0.119 A  
HETATM   15  H   UNL     1      -8.208  10.898  69.810  1.00  0.00     0.000 HD 
HETATM   16  C   UNL     1      -7.283  13.957  69.371  1.00  0.00     0.077 A  
HETATM   17  C   UNL     1      -7.950  12.753  69.118  1.00  0.00     0.459 A  
HETATM   18  O   UNL     1      -7.755  11.715  69.982  1.00  0.00     0.753 OA 
HETATM   19  C   UNL     1      -8.815  12.602  68.028  1.00  0.00    -0.195 A  
ENDROOT
BRANCH  14  20
HETATM   20  C   UNL     1      -6.694  16.383  68.841  1.00  0.00    -0.174 C  
HETATM   21  C   UNL     1      -6.791  16.852  70.312  1.00  0.00     1.052 C  
HETATM   22  C   UNL     1      -5.191  16.132  68.561  1.00  0.00    -0.096 C  
BRANCH  20  23
HETATM   23  C   UNL     1      -7.175  17.537  67.904  1.00  0.00    -0.194 C  
BRANCH  23  24
HETATM   24  C   UNL     1      -7.432  18.875  68.608  1.00  0.00    -0.355 C  
BRANCH  24  25
HETATM   25  C   UNL     1      -8.099  19.891  67.678  1.00  0.00    -0.339 C  
BRANCH  25  26
HETATM   26  C   UNL     1      -8.675  19.191  66.445  1.00  0.00    -0.336 C  
BRANCH  26  27
HETATM   27  C   UNL     1     -10.088  19.668  66.126  1.00  0.00    -0.574 C  
HETATM   28  C   UNL     1     -11.123  18.654  66.591  1.00  0.00     0.240 C  
ENDBRANCH  26  27
ENDBRANCH  25  26
ENDBRANCH  24  25
ENDBRANCH  23  24
ENDBRANCH  20  23
ENDBRANCH  14  20
TORSDOF 6
ENDMDL
MODEL      207
REMARK 921   NORMALIZED FREE ENERGY PREDICTED BY IDOCK:   -0.80 KCAL/MOL
REMARK 922        TOTAL FREE ENERGY PREDICTED BY IDOCK:   -3.10 KCAL/MOL
REMARK 923 INTER-LIGAND FREE ENERGY PREDICTED BY IDOCK:   -2.27 KCAL/MOL
REMARK 924 INTRA-LIGAND FREE ENERGY PREDICTED BY IDOCK:   -0.82 KCAL/MOL
REMARK 927      BINDING AFFINITY PREDICTED BY RF-SCORE:    0.00 PKD
ROOT
HETATM    1  C   UNL     1     -10.315  13.817  69.555  1.00  0.00     0.345 C  
HETATM    2  C   UNL     1      -9.847  12.669  68.643  1.00  0.00    -0.077 C  
HETATM    3  C   UNL     1     -10.630  11.413  68.930  1.00  0.00    -0.202 C  
HETATM    4  C   UNL     1     -12.123  11.536  68.830  1.00  0.00    -0.234 C  
HETATM    5  O   UNL     1     -10.083  10.337  69.164  1.00  0.00    -0.195 OA 
HETATM    6  C   UNL     1     -12.592  12.644  69.760  1.00  0.00     0.238 C  
HETATM    7  C   UNL     1     -11.860  13.968  69.483  1.00  0.00    -0.378 C  
HETATM    8  C   UNL     1     -12.295  15.147  70.393  1.00  0.00    -0.363 C  
HETATM    9  C   UNL     1     -11.874  15.028  71.869  1.00  0.00    -0.455 C  
HETATM   10  C   UNL     1     -13.822  15.341  70.363  1.00  0.00     0.411 C  
HETATM   11  O   UNL     1     -11.750  16.371  69.858  1.00  0.00    -0.134 OA 
HETATM   12  C   UNL     1     -10.453  16.340  69.415  1.00  0.00    -0.292 A  
HETATM   13  C   UNL     1      -9.931  17.603  69.095  1.00  0.00    -0.192 A  
HETATM   14  C   UNL     1      -8.612  17.764  68.650  1.00  0.00    -0.264 A  
HETATM   15  H   UNL     1      -7.868  13.414  69.049  1.00  0.00     0.000 HD 
HETATM   16  C   UNL     1      -7.827  16.604  68.573  1.00  0.00    -0.218 A  
HETATM   17  C   UNL     1      -8.350  15.345  68.887  1.00  0.00    -0.203 A  
HETATM   18  O   UNL     1      -7.512  14.269  68.835  1.00  0.00    -0.123 OA 
HETATM   19  C   UNL     1      -9.686  15.173  69.268  1.00  0.00    -0.225 A  
ENDROOT
BRANCH  14  20
HETATM   20  C   UNL     1      -8.017  19.130  68.263  1.00  0.00    -0.361 C  
HETATM   21  C   UNL     1      -8.102  20.184  69.392  1.00  0.00     0.469 C  
HETATM   22  C   UNL     1      -6.511  18.943  67.953  1.00  0.00    -0.227 C  
BRANCH  20  23
HETATM   23  C   UNL     1      -8.708  19.698  66.982  1.00  0.00    -0.369 C  
BRANCH  23  24
HETATM   24  C   UNL     1      -9.765  18.779  66.358  1.00  0.00    -0.378 C  
BRANCH  24  25
HETATM   25  C   UNL     1      -9.151  17.802  65.353  1.00  0.00     1.352 C  
BRANCH  25  26
HETATM   26  C   UNL     1      -9.608  16.373  65.649  1.00  0.00    -0.111 C  
BRANCH  26  27
HETATM   27  C   UNL     1     -11.013  16.333  66.242  1.00  0.00     0.008 C  
HETATM   28  C   UNL     1     -11.699  15.012  65.931  1.00  0.00    -0.098 C  
ENDBRANCH  26  27
ENDBRANCH  25  26
ENDBRANCH  24  25
ENDBRANCH  23  24
ENDBRANCH  20  23
ENDBRANCH  14  20
TORSDOF 6
ENDMDL
MODEL      208
REMARK 921   NORMALIZED FREE ENERGY PREDICTED BY IDOCK:   -0.78 KCAL/MOL
REMARK 922        TOTAL FREE ENERGY PREDICTED BY IDOCK:   -3.07 KCAL/MOL
REMARK 923 INTER-LIGAND FREE ENERGY PREDICTED BY IDOCK:   -2.20 KCAL/MOL
REMARK 924 INTRA-LIGAND FREE ENERGY PREDICTED BY IDOCK:   -0.87 KCAL/MOL
REMARK 927      BINDING AFFINITY PREDICTED BY RF-SCORE:    0.00 PKD
ROOT
HETATM    1  C   UNL     1      -7.584   9.414  64.707  1.00  0.00    -0.111 C  
HETATM    2  C   UNL     1      -8.657  10.512  64.601  1.00  0.00    -0.167 C  
HETATM    3  C   UNL     1      -9.004  10.773  63.157  1.00  0.00    -0.237 C  
HETATM    4  C   UNL     1      -9.451   9.578  62.365  1.00  0.00     0.139 C  
HETATM    5  O   UNL     1      -8.991  11.903  62.672  1.00  0.00    -0.127 OA 
HETATM    6  C   UNL     1      -8.374   8.507  62.436  1.00  0.00    -0.192 C  
HETATM    7  C   UNL     1      -8.009   8.162  63.890  1.00  0.00    -0.138 C  
HETATM    8  C   UNL     1      -6.919   7.068  64.039  1.00  0.00    -0.056 C  
HETATM    9  C   UNL     1      -5.504   7.488  63.605  1.00  0.00    -0.041 C  
HETATM   10  C   UNL     1      -7.289   5.802  63.245  1.00  0.00    -0.061 C  
HETATM   11  O   UNL     1      -6.870   6.646  65.418  1.00  0.00    -0.052 OA 
HETATM   12  C   UNL     1      -6.940   7.624  66.376  1.00  0.00    -0.066 A  
HETATM   13  C   UNL     1      -6.690   7.163  67.678  1.00  0.00    -0.064 A  
HETATM   14  C   UNL     1      -6.693   8.029  68.779  1.00  0.00    -0.057 A  
HETATM   15  H   UNL     1      -7.525  11.495  66.147  1.00  0.00     0.000 HD 
HETATM   16  C   UNL     1      -6.927   9.386  68.514  1.00  0.00    -0.066 A  
HETATM   17  C   UNL     1      -7.182   9.844  67.216  1.00  0.00    -0.086 A  
HETATM   18  O   UNL     1      -7.352  11.185  67.028  1.00  0.00    -0.113 OA 
HETATM   19  C   UNL     1      -7.244   8.971  66.123  1.00  0.00    -0.090 A  
ENDROOT
BRANCH  14  20
HETATM   20  C   UNL     1      -6.451   7.552  70.223  1.00  0.00    -0.038 C  
HETATM   21  C   UNL     1      -5.163   8.128  70.857  1.00  0.00    -0.025 C  
HETATM   22  C   UNL     1      -7.627   8.037  71.108  1.00  0.00    -0.082 C  
BRANCH  20  23
HETATM   23  C   UNL     1      -6.402   5.991  70.296  1.00  0.00    -0.032 C  
BRANCH  23  24
HETATM   24  C   UNL     1      -7.760   5.296  70.147  1.00  0.00    -0.072 C  
BRANCH  24  25
HETATM   25  C   UNL     1      -7.635   3.773  70.229  1.00  0.00    -0.044 C  
BRANCH  25  26
HETATM   26  C   UNL     1      -8.487   3.107  69.148  1.00  0.00    -0.097 C  
BRANCH  26  27
HETATM   27  C   UNL     1      -8.826   4.070  68.014  1.00  0.00    -0.132 C  
HETATM   28  C   UNL     1      -7.896   3.863  66.828  1.00  0.00    -0.089 C  
ENDBRANCH  26  27
ENDBRANCH  25  26
ENDBRANCH  24  25
ENDBRANCH  23  24
ENDBRANCH  20  23
ENDBRANCH  14  20
TORSDOF 6
ENDMDL
MODEL      209
REMARK 921   NORMALIZED FREE ENERGY PREDICTED BY IDOCK:   -0.61 KCAL/MOL
REMARK 922        TOTAL FREE ENERGY PREDICTED BY IDOCK:   -2.84 KCAL/MOL
REMARK 923 INTER-LIGAND FREE ENERGY PREDICTED BY IDOCK:   -2.67 KCAL/MOL
REMARK 924 INTRA-LIGAND FREE ENERGY PREDICTED BY IDOCK:   -0.18 KCAL/MOL
REMARK 927      BINDING AFFINITY PREDICTED BY RF-SCORE:    0.00 PKD
ROOT
HETATM    1  C   UNL     1      -8.883   5.859  70.875  1.00  0.00    -0.141 C  
HETATM    2  C   UNL     1      -9.429   4.671  71.685  1.00  0.00    -0.210 C  
HETATM    3  C   UNL     1     -10.182   5.159  72.897  1.00  0.00    -0.180 C  
HETATM    4  C   UNL     1     -11.304   6.120  72.626  1.00  0.00    -0.298 C  
HETATM    5  O   UNL     1      -9.943   4.747  74.030  1.00  0.00    -0.146 OA 
HETATM    6  C   UNL     1     -10.759   7.314  71.860  1.00  0.00    -0.243 C  
HETATM    7  C   UNL     1     -10.018   6.882  70.583  1.00  0.00    -0.198 C  
HETATM    8  C   UNL     1      -9.440   8.052  69.745  1.00  0.00    -0.159 C  
HETATM    9  C   UNL     1      -8.253   8.795  70.386  1.00  0.00    -0.127 C  
HETATM   10  C   UNL     1     -10.523   9.099  69.429  1.00  0.00    -0.226 C  
HETATM   11  O   UNL     1      -9.023   7.542  68.461  1.00  0.00    -0.130 OA 
HETATM   12  C   UNL     1      -8.355   6.345  68.448  1.00  0.00    -0.116 A  
HETATM   13  C   UNL     1      -7.811   6.012  67.197  1.00  0.00    -0.102 A  
HETATM   14  C   UNL     1      -7.073   4.836  67.006  1.00  0.00    -0.072 A  
HETATM   15  H   UNL     1      -7.516   3.769  71.284  1.00  0.00     0.000 HD 
HETATM   16  C   UNL     1      -6.874   4.025  68.133  1.00  0.00    -0.047 A  
HETATM   17  C   UNL     1      -7.421   4.356  69.378  1.00  0.00    -0.055 A  
HETATM   18  O   UNL     1      -7.144   3.544  70.439  1.00  0.00    -0.037 OA 
HETATM   19  C   UNL     1      -8.214   5.496  69.557  1.00  0.00    -0.101 A  
ENDROOT
BRANCH  14  20
HETATM   20  C   UNL     1      -6.488   4.426  65.642  1.00  0.00    -0.040 C  
HETATM   21  C   UNL     1      -6.175   5.625  64.716  1.00  0.00    -0.025 C  
HETATM   22  C   UNL     1      -5.142   3.696  65.881  1.00  0.00    -0.008 C  
BRANCH  20  23
HETATM   23  C   UNL     1      -7.446   3.442  64.896  1.00  0.00    -0.073 C  
BRANCH  23  24
HETATM   24  C   UNL     1      -8.266   4.073  63.765  1.00  0.00    -0.092 C  
BRANCH  24  25
HETATM   25  C   UNL     1      -9.382   3.144  63.281  1.00  0.00    -0.094 C  
BRANCH  25  26
HETATM   26  C   UNL     1     -10.731   3.866  63.316  1.00  0.00    -0.144 C  
BRANCH  26  27
HETATM   27  C   UNL     1     -10.899   4.702  64.581  1.00  0.00     0.237 C  
HETATM   28  C   UNL     1     -10.396   3.949  65.803  1.00  0.00     0.159 C  
ENDBRANCH  26  27
ENDBRANCH  25  26
ENDBRANCH  24  25
ENDBRANCH  23  24
ENDBRANCH  20  23
ENDBRANCH  14  20
TORSDOF 6
ENDMDL
MODEL      210
REMARK 921   NORMALIZED FREE ENERGY PREDICTED BY IDOCK:   -0.47 KCAL/MOL
REMARK 922        TOTAL FREE ENERGY PREDICTED BY IDOCK:   -2.64 KCAL/MOL
REMARK 923 INTER-LIGAND FREE ENERGY PREDICTED BY IDOCK:   -1.86 KCAL/MOL
REMARK 924 INTRA-LIGAND FREE ENERGY PREDICTED BY IDOCK:   -0.78 KCAL/MOL
REMARK 927      BINDING AFFINITY PREDICTED BY RF-SCORE:    0.00 PKD
ROOT
HETATM    1  C   UNL     1      -6.269  17.685  69.335  1.00  0.00    -0.249 C  
HETATM    2  C   UNL     1      -6.327  17.999  70.840  1.00  0.00     1.350 C  
HETATM    3  C   UNL     1      -6.151  19.478  71.078  1.00  0.00     0.010 C  
HETATM    4  C   UNL     1      -7.115  20.376  70.356  1.00  0.00     0.680 C  
HETATM    5  O   UNL     1      -5.318  19.923  71.865  1.00  0.00    -0.379 OA 
HETATM    6  C   UNL     1      -7.030  20.094  68.864  1.00  0.00    -0.230 C  
HETATM    7  C   UNL     1      -7.249  18.604  68.552  1.00  0.00    -0.314 C  
HETATM    8  C   UNL     1      -7.184  18.244  67.044  1.00  0.00    -0.202 C  
HETATM    9  C   UNL     1      -5.787  18.346  66.405  1.00  0.00    -0.193 C  
HETATM   10  C   UNL     1      -8.136  19.128  66.219  1.00  0.00    -0.308 C  
HETATM   11  O   UNL     1      -7.672  16.898  66.867  1.00  0.00    -0.175 OA 
HETATM   12  C   UNL     1      -7.262  15.956  67.775  1.00  0.00    -0.147 A  
HETATM   13  C   UNL     1      -7.613  14.642  67.429  1.00  0.00    -0.218 A  
HETATM   14  C   UNL     1      -7.252  13.549  68.228  1.00  0.00    -0.111 A  
HETATM   15  H   UNL     1      -5.133  16.221  71.059  1.00  0.00     0.000 HD 
HETATM   16  C   UNL     1      -6.493  13.829  69.375  1.00  0.00    -0.111 A  
HETATM   17  C   UNL     1      -6.148  15.140  69.721  1.00  0.00    -0.139 A  
HETATM   18  O   UNL     1      -5.367  15.330  70.824  1.00  0.00    -0.134 OA 
HETATM   19  C   UNL     1      -6.563  16.239  68.960  1.00  0.00    -0.169 A  
ENDROOT
BRANCH  14  20
HETATM   20  C   UNL     1      -7.645  12.099  67.894  1.00  0.00    -0.123 C  
HETATM   21  C   UNL     1      -7.879  11.217  69.144  1.00  0.00    -0.020 C  
HETATM   22  C   UNL     1      -8.985  12.116  67.116  1.00  0.00    -0.189 C  
BRANCH  20  23
HETATM   23  C   UNL     1      -6.567  11.422  66.987  1.00  0.00    -0.125 C  
BRANCH  23  24
HETATM   24  C   UNL     1      -7.112  10.783  65.704  1.00  0.00    -0.017 C  
BRANCH  24  25
HETATM   25  C   UNL     1      -6.119   9.792  65.093  1.00  0.00    -0.086 C  
BRANCH  25  26
HETATM   26  C   UNL     1      -6.606   8.356  65.292  1.00  0.00    -0.056 C  
BRANCH  26  27
HETATM   27  C   UNL     1      -7.943   8.302  66.025  1.00  0.00    -0.098 C  
HETATM   28  C   UNL     1      -7.743   7.993  67.501  1.00  0.00    -0.106 C  
ENDBRANCH  26  27
ENDBRANCH  25  26
ENDBRANCH  24  25
ENDBRANCH  23  24
ENDBRANCH  20  23
ENDBRANCH  14  20
TORSDOF 6
ENDMDL
MODEL      211
REMARK 921   NORMALIZED FREE ENERGY PREDICTED BY IDOCK:   -0.37 KCAL/MOL
REMARK 922        TOTAL FREE ENERGY PREDICTED BY IDOCK:   -2.52 KCAL/MOL
REMARK 923 INTER-LIGAND FREE ENERGY PREDICTED BY IDOCK:   -3.10 KCAL/MOL
REMARK 924 INTRA-LIGAND FREE ENERGY PREDICTED BY IDOCK:    0.58 KCAL/MOL
REMARK 927      BINDING AFFINITY PREDICTED BY RF-SCORE:    0.00 PKD
ROOT
HETATM    1  C   UNL     1      -7.987  15.891  68.859  1.00  0.00    -0.204 C  
HETATM    2  C   UNL     1      -8.742  17.182  68.496  1.00  0.00    -0.261 C  
HETATM    3  C   UNL     1      -7.772  18.294  68.191  1.00  0.00    -0.279 C  
HETATM    4  C   UNL     1      -6.761  18.004  67.118  1.00  0.00    -0.203 C  
HETATM    5  O   UNL     1      -7.841  19.396  68.733  1.00  0.00    -0.348 OA 
HETATM    6  C   UNL     1      -5.986  16.751  67.494  1.00  0.00    -0.177 C  
HETATM    7  C   UNL     1      -6.924  15.564  67.773  1.00  0.00    -0.185 C  
HETATM    8  C   UNL     1      -6.200  14.247  68.156  1.00  0.00    -0.136 C  
HETATM    9  C   UNL     1      -5.517  14.250  69.536  1.00  0.00    -0.091 C  
HETATM   10  C   UNL     1      -5.130  13.875  67.114  1.00  0.00     0.808 C  
HETATM   11  O   UNL     1      -7.153  13.165  68.119  1.00  0.00    -0.085 OA 
HETATM   12  C   UNL     1      -8.393  13.402  68.656  1.00  0.00    -0.010 A  
HETATM   13  C   UNL     1      -9.194  12.254  68.762  1.00  0.00     0.106 A  
HETATM   14  C   UNL     1     -10.482  12.305  69.313  1.00  0.00     0.149 A  
HETATM   15  H   UNL     1     -10.051  16.641  70.119  1.00  0.00     0.000 HD 
HETATM   16  C   UNL     1     -10.919  13.552  69.783  1.00  0.00     0.150 A  
HETATM   17  C   UNL     1     -10.120  14.696  69.671  1.00  0.00     0.092 A  
HETATM   18  O   UNL     1     -10.593  15.864  70.195  1.00  0.00    -0.308 OA 
HETATM   19  C   UNL     1      -8.860  14.661  69.062  1.00  0.00    -0.090 A  
ENDROOT
BRANCH  14  20
HETATM   20  C   UNL     1     -11.398  11.072  69.418  1.00  0.00    -0.352 C  
HETATM   21  C   UNL     1     -10.725   9.857  70.098  1.00  0.00    -0.361 C  
HETATM   22  C   UNL     1     -12.622  11.439  70.295  1.00  0.00    -0.225 C  
BRANCH  20  23
HETATM   23  C   UNL     1     -11.923  10.644  68.010  1.00  0.00     0.438 C  
BRANCH  23  24
HETATM   24  C   UNL     1     -10.903   9.902  67.140  1.00  0.00    -0.227 C  
BRANCH  24  25
HETATM   25  C   UNL     1     -10.371   8.643  67.829  1.00  0.00    -0.303 C  
BRANCH  25  26
HETATM   26  C   UNL     1     -10.217   7.504  66.819  1.00  0.00    -0.324 C  
BRANCH  26  27
HETATM   27  C   UNL     1     -10.835   6.205  67.326  1.00  0.00    -0.438 C  
HETATM   28  C   UNL     1      -9.956   5.012  66.978  1.00  0.00    -0.231 C  
ENDBRANCH  26  27
ENDBRANCH  25  26
ENDBRANCH  24  25
ENDBRANCH  23  24
ENDBRANCH  20  23
ENDBRANCH  14  20
TORSDOF 6
ENDMDL
MODEL      212
REMARK 921   NORMALIZED FREE ENERGY PREDICTED BY IDOCK:   -0.34 KCAL/MOL
REMARK 922        TOTAL FREE ENERGY PREDICTED BY IDOCK:   -2.48 KCAL/MOL
REMARK 923 INTER-LIGAND FREE ENERGY PREDICTED BY IDOCK:   -3.17 KCAL/MOL
REMARK 924 INTRA-LIGAND FREE ENERGY PREDICTED BY IDOCK:    0.69 KCAL/MOL
REMARK 927      BINDING AFFINITY PREDICTED BY RF-SCORE:    0.00 PKD
ROOT
HETATM    1  C   UNL     1      -8.783  13.149  68.877  1.00  0.00     0.293 C  
HETATM    2  C   UNL     1      -7.723  12.063  68.622  1.00  0.00    -0.099 C  
HETATM    3  C   UNL     1      -8.374  10.709  68.492  1.00  0.00    -0.130 C  
HETATM    4  C   UNL     1      -9.446  10.596  67.447  1.00  0.00    -0.172 C  
HETATM    5  O   UNL     1      -8.006   9.737  69.150  1.00  0.00    -0.091 OA 
HETATM    6  C   UNL     1     -10.515  11.643  67.721  1.00  0.00    -0.213 C  
HETATM    7  C   UNL     1      -9.917  13.057  67.817  1.00  0.00    -0.227 C  
HETATM    8  C   UNL     1     -10.953  14.179  68.087  1.00  0.00    -0.249 C  
HETATM    9  C   UNL     1     -11.583  14.166  69.492  1.00  0.00    -0.349 C  
HETATM   10  C   UNL     1     -12.104  14.132  67.065  1.00  0.00    -0.449 C  
HETATM   11  O   UNL     1     -10.318  15.457  67.881  1.00  0.00    -0.241 OA 
HETATM   12  C   UNL     1      -9.049  15.615  68.376  1.00  0.00    -0.190 A  
HETATM   13  C   UNL     1      -8.575  16.935  68.313  1.00  0.00    -0.230 A  
HETATM   14  C   UNL     1      -7.308  17.286  68.799  1.00  0.00    -0.250 A  
HETATM   15  H   UNL     1      -6.570  13.116  70.105  1.00  0.00     0.000 HD 
HETATM   16  C   UNL     1      -6.550  16.260  69.383  1.00  0.00    -0.202 A  
HETATM   17  C   UNL     1      -7.022  14.944  69.440  1.00  0.00    -0.170 A  
HETATM   18  O   UNL     1      -6.249  14.009  70.066  1.00  0.00    -0.136 OA 
HETATM   19  C   UNL     1      -8.259  14.578  68.897  1.00  0.00    -0.114 A  
ENDROOT
BRANCH  14  20
HETATM   20  C   UNL     1      -6.746  18.716  68.720  1.00  0.00    -0.288 C  
HETATM   21  C   UNL     1      -7.360  19.682  69.761  1.00  0.00     0.029 C  
HETATM   22  C   UNL     1      -5.225  18.667  69.014  1.00  0.00    -0.189 C  
BRANCH  20  23
HETATM   23  C   UNL     1      -6.942  19.316  67.290  1.00  0.00    -0.216 C  
BRANCH  23  24
HETATM   24  C   UNL     1      -8.049  20.371  67.180  1.00  0.00    -0.378 C  
BRANCH  24  25
HETATM   25  C   UNL     1      -9.225  20.066  68.110  1.00  0.00    -0.325 C  
BRANCH  25  26
HETATM   26  C   UNL     1     -10.493  19.795  67.298  1.00  0.00    -0.579 C  
BRANCH  26  27
HETATM   27  C   UNL     1     -10.537  20.621  66.016  1.00  0.00     0.514 C  
HETATM   28  C   UNL     1     -11.309  19.892  64.926  1.00  0.00     1.481 C  
ENDBRANCH  26  27
ENDBRANCH  25  26
ENDBRANCH  24  25
ENDBRANCH  23  24
ENDBRANCH  20  23
ENDBRANCH  14  20
TORSDOF 6
ENDMDL
MODEL      213
REMARK 921   NORMALIZED FREE ENERGY PREDICTED BY IDOCK:   -0.20 KCAL/MOL
REMARK 922        TOTAL FREE ENERGY PREDICTED BY IDOCK:   -2.29 KCAL/MOL
REMARK 923 INTER-LIGAND FREE ENERGY PREDICTED BY IDOCK:   -4.52 KCAL/MOL
REMARK 924 INTRA-LIGAND FREE ENERGY PREDICTED BY IDOCK:    2.23 KCAL/MOL
REMARK 927      BINDING AFFINITY PREDICTED BY RF-SCORE:    0.00 PKD
ROOT
HETATM    1  C   UNL     1      -7.333  17.054  67.831  1.00  0.00    -0.177 C  
HETATM    2  C   UNL     1      -6.100  17.569  68.594  1.00  0.00    -0.174 C  
HETATM    3  C   UNL     1      -6.141  19.071  68.712  1.00  0.00    -0.223 C  
HETATM    4  C   UNL     1      -7.378  19.644  69.343  1.00  0.00    -0.229 C  
HETATM    5  O   UNL     1      -5.196  19.784  68.378  1.00  0.00    -0.187 OA 
HETATM    6  C   UNL     1      -8.595  19.168  68.566  1.00  0.00    -0.398 C  
HETATM    7  C   UNL     1      -8.634  17.635  68.452  1.00  0.00    -0.284 C  
HETATM    8  C   UNL     1      -9.857  17.076  67.677  1.00  0.00    -0.257 C  
HETATM    9  C   UNL     1      -9.858  17.358  66.163  1.00  0.00    -0.260 C  
HETATM   10  C   UNL     1     -11.177  17.624  68.249  1.00  0.00     0.336 C  
HETATM   11  O   UNL     1      -9.922  15.649  67.878  1.00  0.00    -0.221 OA 
HETATM   12  C   UNL     1      -8.743  14.952  67.816  1.00  0.00    -0.167 A  
HETATM   13  C   UNL     1      -8.906  13.558  67.824  1.00  0.00    -0.198 A  
HETATM   14  C   UNL     1      -7.811  12.688  67.740  1.00  0.00    -0.154 A  
HETATM   15  H   UNL     1      -5.016  16.114  67.435  1.00  0.00     0.000 HD 
HETATM   16  C   UNL     1      -6.545  13.279  67.614  1.00  0.00    -0.172 A  
HETATM   17  C   UNL     1      -6.383  14.669  67.612  1.00  0.00    -0.111 A  
HETATM   18  O   UNL     1      -5.125  15.170  67.436  1.00  0.00    -0.333 OA 
HETATM   19  C   UNL     1      -7.469  15.539  67.761  1.00  0.00    -0.168 A  
ENDROOT
BRANCH  14  20
HETATM   20  C   UNL     1      -7.952  11.156  67.774  1.00  0.00    -0.116 C  
HETATM   21  C   UNL     1      -7.874  10.559  69.200  1.00  0.00    -0.138 C  
HETATM   22  C   UNL     1      -9.346  10.774  67.217  1.00  0.00    -0.165 C  
BRANCH  20  23
HETATM   23  C   UNL     1      -6.869  10.474  66.876  1.00  0.00    -0.091 C  
BRANCH  23  24
HETATM   24  C   UNL     1      -7.227   9.065  66.392  1.00  0.00    -0.087 C  
BRANCH  24  25
HETATM   25  C   UNL     1      -8.315   8.423  67.255  1.00  0.00    -0.123 C  
BRANCH  25  26
HETATM   26  C   UNL     1      -7.688   7.612  68.391  1.00  0.00    -0.119 C  
BRANCH  26  27
HETATM   27  C   UNL     1      -8.715   7.222  69.450  1.00  0.00    -0.137 C  
HETATM   28  C   UNL     1      -9.643   8.387  69.764  1.00  0.00    -0.170 C  
ENDBRANCH  26  27
ENDBRANCH  25  26
ENDBRANCH  24  25
ENDBRANCH  23  24
ENDBRANCH  20  23
ENDBRANCH  14  20
TORSDOF 6
ENDMDL
MODEL      214
REMARK 921   NORMALIZED FREE ENERGY PREDICTED BY IDOCK:    0.04 KCAL/MOL
REMARK 922        TOTAL FREE ENERGY PREDICTED BY IDOCK:   -1.96 KCAL/MOL
REMARK 923 INTER-LIGAND FREE ENERGY PREDICTED BY IDOCK:   -1.69 KCAL/MOL
REMARK 924 INTRA-LIGAND FREE ENERGY PREDICTED BY IDOCK:   -0.28 KCAL/MOL
REMARK 927      BINDING AFFINITY PREDICTED BY RF-SCORE:    0.00 PKD
ROOT
HETATM    1  C   UNL     1      -7.559   9.586  64.771  1.00  0.00    -0.112 C  
HETATM    2  C   UNL     1      -8.325  10.896  64.516  1.00  0.00     0.140 C  
HETATM    3  C   UNL     1      -8.675  11.028  63.056  1.00  0.00    -0.139 C  
HETATM    4  C   UNL     1      -9.453   9.887  62.465  1.00  0.00    -0.166 C  
HETATM    5  O   UNL     1      -8.405  12.034  62.403  1.00  0.00     0.315 OA 
HETATM    6  C   UNL     1      -8.679   8.596  62.680  1.00  0.00    -0.051 C  
HETATM    7  C   UNL     1      -8.332   8.381  64.163  1.00  0.00    -0.081 C  
HETATM    8  C   UNL     1      -7.547   7.077  64.459  1.00  0.00    -0.107 C  
HETATM    9  C   UNL     1      -6.097   7.051  63.941  1.00  0.00    -0.040 C  
HETATM   10  C   UNL     1      -8.267   5.848  63.875  1.00  0.00    -0.056 C  
HETATM   11  O   UNL     1      -7.528   6.859  65.885  1.00  0.00    -0.079 OA 
HETATM   12  C   UNL     1      -7.296   7.950  66.683  1.00  0.00    -0.088 A  
HETATM   13  C   UNL     1      -7.097   7.632  68.036  1.00  0.00    -0.085 A  
HETATM   14  C   UNL     1      -6.820   8.618  68.992  1.00  0.00    -0.056 A  
HETATM   15  H   UNL     1      -6.897  11.766  65.873  1.00  0.00     0.000 HD 
HETATM   16  C   UNL     1      -6.718   9.937  68.525  1.00  0.00    -0.055 A  
HETATM   17  C   UNL     1      -6.922  10.254  67.177  1.00  0.00    -0.088 A  
HETATM   18  O   UNL     1      -6.759  11.552  66.789  1.00  0.00    -0.140 OA 
HETATM   19  C   UNL     1      -7.263   9.279  66.232  1.00  0.00    -0.088 A  
ENDROOT
BRANCH  14  20
HETATM   20  C   UNL     1      -6.625   8.308  70.487  1.00  0.00    -0.036 C  
HETATM   21  C   UNL     1      -5.398   7.413  70.778  1.00  0.00    -0.024 C  
HETATM   22  C   UNL     1      -6.383   9.640  71.241  1.00  0.00     0.019 C  
BRANCH  20  23
HETATM   23  C   UNL     1      -7.901   7.636  71.089  1.00  0.00    -0.090 C  
BRANCH  23  24
HETATM   24  C   UNL     1      -7.844   6.107  71.178  1.00  0.00    -0.111 C  
BRANCH  24  25
HETATM   25  C   UNL     1      -7.251   5.633  72.506  1.00  0.00    -0.090 C  
BRANCH  25  26
HETATM   26  C   UNL     1      -7.619   4.170  72.765  1.00  0.00    -0.075 C  
BRANCH  26  27
HETATM   27  C   UNL     1      -9.113   3.917  72.587  1.00  0.00    -0.132 C  
HETATM   28  C   UNL     1      -9.907   4.506  73.743  1.00  0.00    -0.172 C  
ENDBRANCH  26  27
ENDBRANCH  25  26
ENDBRANCH  24  25
ENDBRANCH  23  24
ENDBRANCH  20  23
ENDBRANCH  14  20
TORSDOF 6
ENDMDL
MODEL      215
REMARK 921   NORMALIZED FREE ENERGY PREDICTED BY IDOCK:    1.11 KCAL/MOL
REMARK 922        TOTAL FREE ENERGY PREDICTED BY IDOCK:   -0.51 KCAL/MOL
REMARK 923 INTER-LIGAND FREE ENERGY PREDICTED BY IDOCK:   -0.87 KCAL/MOL
REMARK 924 INTRA-LIGAND FREE ENERGY PREDICTED BY IDOCK:    0.36 KCAL/MOL
REMARK 927      BINDING AFFINITY PREDICTED BY RF-SCORE:    0.00 PKD
ROOT
HETATM    1  C   UNL     1      -9.926  16.258  66.759  1.00  0.00    -0.268 C  
HETATM    2  C   UNL     1      -9.032  17.085  65.818  1.00  0.00     0.132 C  
HETATM    3  C   UNL     1      -9.010  18.531  66.246  1.00  0.00    -0.207 C  
HETATM    4  C   UNL     1      -8.590  18.786  67.665  1.00  0.00    -0.293 C  
HETATM    5  O   UNL     1      -9.252  19.451  65.467  1.00  0.00    -0.181 OA 
HETATM    6  C   UNL     1      -9.497  18.001  68.599  1.00  0.00    -0.317 C  
HETATM    7  C   UNL     1      -9.525  16.505  68.241  1.00  0.00    -0.220 C  
HETATM    8  C   UNL     1     -10.427  15.639  69.159  1.00  0.00    -0.236 C  
HETATM    9  C   UNL     1     -11.940  15.877  69.006  1.00  0.00    -0.243 C  
HETATM   10  C   UNL     1     -10.075  15.847  70.643  1.00  0.00     0.636 C  
HETATM   11  O   UNL     1     -10.153  14.246  68.899  1.00  0.00    -0.226 OA 
HETATM   12  C   UNL     1     -10.011  13.869  67.588  1.00  0.00    -0.237 A  
HETATM   13  C   UNL     1      -9.944  12.479  67.401  1.00  0.00    -0.207 A  
HETATM   14  C   UNL     1      -9.826  11.913  66.125  1.00  0.00    -0.254 A  
HETATM   15  H   UNL     1      -9.944  15.926  64.250  1.00  0.00     0.000 HD 
HETATM   16  C   UNL     1      -9.811  12.801  65.040  1.00  0.00    -0.077 A  
HETATM   17  C   UNL     1      -9.872  14.186  65.228  1.00  0.00    -0.164 A  
HETATM   18  O   UNL     1      -9.903  14.985  64.122  1.00  0.00     0.994 OA 
HETATM   19  C   UNL     1      -9.925  14.757  66.505  1.00  0.00    -0.283 A  
ENDROOT
BRANCH  14  20
HETATM   20  C   UNL     1      -9.721  10.395  65.887  1.00  0.00    -0.272 C  
HETATM   21  C   UNL     1     -10.989   9.779  65.252  1.00  0.00     1.891 C  
HETATM   22  C   UNL     1      -8.562  10.130  64.893  1.00  0.00    -0.188 C  
BRANCH  20  23
HETATM   23  C   UNL     1      -9.399   9.641  67.218  1.00  0.00    -0.163 C  
BRANCH  23  24
HETATM   24  C   UNL     1      -8.381  10.341  68.126  1.00  0.00    -0.118 C  
BRANCH  24  25
HETATM   25  C   UNL     1      -8.697  10.130  69.608  1.00  0.00    -0.176 C  
BRANCH  25  26
HETATM   26  C   UNL     1      -7.778   9.062  70.204  1.00  0.00    -0.089 C  
BRANCH  26  27
HETATM   27  C   UNL     1      -7.212   8.133  69.134  1.00  0.00    -0.073 C  
HETATM   28  C   UNL     1      -5.700   8.022  69.253  1.00  0.00    -0.033 C  
ENDBRANCH  26  27
ENDBRANCH  25  26
ENDBRANCH  24  25
ENDBRANCH  23  24
ENDBRANCH  20  23
ENDBRANCH  14  20
TORSDOF 6
ENDMDL
MODEL      216
REMARK 921   NORMALIZED FREE ENERGY PREDICTED BY IDOCK:    1.77 KCAL/MOL
REMARK 922        TOTAL FREE ENERGY PREDICTED BY IDOCK:    0.38 KCAL/MOL
REMARK 923 INTER-LIGAND FREE ENERGY PREDICTED BY IDOCK:    0.85 KCAL/MOL
REMARK 924 INTRA-LIGAND FREE ENERGY PREDICTED BY IDOCK:   -0.48 KCAL/MOL
REMARK 927      BINDING AFFINITY PREDICTED BY RF-SCORE:    0.00 PKD
ROOT
HETATM    1  C   UNL     1     -11.817  13.655  69.683  1.00  0.00    -0.396 C  
HETATM    2  C   UNL     1     -12.167  14.604  70.842  1.00  0.00    -0.391 C  
HETATM    3  C   UNL     1     -13.592  14.393  71.286  1.00  0.00    -0.323 C  
HETATM    4  C   UNL     1     -13.953  12.990  71.680  1.00  0.00     0.333 C  
HETATM    5  O   UNL     1     -14.394  15.320  71.386  1.00  0.00    -0.510 OA 
HETATM    6  C   UNL     1     -13.645  12.055  70.521  1.00  0.00     1.806 C  
HETATM    7  C   UNL     1     -12.186  12.191  70.052  1.00  0.00    -0.270 C  
HETATM    8  C   UNL     1     -11.798  11.259  68.875  1.00  0.00    -0.345 C  
HETATM    9  C   UNL     1     -12.443  11.609  67.521  1.00  0.00     1.519 C  
HETATM   10  C   UNL     1     -12.145   9.792  69.187  1.00  0.00     0.777 C  
HETATM   11  O   UNL     1     -10.364  11.281  68.719  1.00  0.00    -0.195 OA 
HETATM   12  C   UNL     1      -9.740  12.499  68.813  1.00  0.00     0.057 A  
HETATM   13  C   UNL     1      -8.383  12.471  68.458  1.00  0.00    -0.069 A  
HETATM   14  C   UNL     1      -7.595  13.630  68.470  1.00  0.00    -0.130 A  
HETATM   15  H   UNL     1     -11.076  16.075  69.709  1.00  0.00     0.000 HD 
HETATM   16  C   UNL     1      -8.238  14.826  68.822  1.00  0.00    -0.163 A  
HETATM   17  C   UNL     1      -9.590  14.851  69.182  1.00  0.00    -0.172 A  
HETATM   18  O   UNL     1     -10.158  16.059  69.465  1.00  0.00    -0.251 OA 
HETATM   19  C   UNL     1     -10.362  13.685  69.234  1.00  0.00     0.145 A  
ENDROOT
BRANCH  14  20
HETATM   20  C   UNL     1      -6.097  13.630  68.114  1.00  0.00    -0.118 C  
HETATM   21  C   UNL     1      -5.171  13.412  69.334  1.00  0.00    -0.079 C  
HETATM   22  C   UNL     1      -5.820  12.458  67.140  1.00  0.00    -0.072 C  
BRANCH  20  23
HETATM   23  C   UNL     1      -5.693  14.960  67.398  1.00  0.00     0.259 C  
BRANCH  23  24
HETATM   24  C   UNL     1      -5.557  16.175  68.323  1.00  0.00    -0.107 C  
BRANCH  24  25
HETATM   25  C   UNL     1      -6.102  17.450  67.676  1.00  0.00    -0.159 C  
BRANCH  25  26
HETATM   26  C   UNL     1      -6.244  18.560  68.719  1.00  0.00    -0.225 C  
BRANCH  26  27
HETATM   27  C   UNL     1      -7.536  18.429  69.520  1.00  0.00     0.297 C  
HETATM   28  C   UNL     1      -8.696  19.096  68.795  1.00  0.00    -0.365 C  
ENDBRANCH  26  27
ENDBRANCH  25  26
ENDBRANCH  24  25
ENDBRANCH  23  24
ENDBRANCH  20  23
ENDBRANCH  14  20
TORSDOF 6
ENDMDL
MODEL      217
REMARK 921   NORMALIZED FREE ENERGY PREDICTED BY IDOCK:    2.02 KCAL/MOL
REMARK 922        TOTAL FREE ENERGY PREDICTED BY IDOCK:    0.71 KCAL/MOL
REMARK 923 INTER-LIGAND FREE ENERGY PREDICTED BY IDOCK:    1.59 KCAL/MOL
REMARK 924 INTRA-LIGAND FREE ENERGY PREDICTED BY IDOCK:   -0.88 KCAL/MOL
REMARK 927      BINDING AFFINITY PREDICTED BY RF-SCORE:    0.00 PKD
ROOT
HETATM    1  C   UNL     1     -11.797  13.654  69.698  1.00  0.00    -0.396 C  
HETATM    2  C   UNL     1     -12.155  14.681  70.786  1.00  0.00    -0.387 C  
HETATM    3  C   UNL     1     -13.590  14.514  71.218  1.00  0.00    -0.357 C  
HETATM    4  C   UNL     1     -13.974  13.143  71.697  1.00  0.00     0.231 C  
HETATM    5  O   UNL     1     -14.383  15.453  71.244  1.00  0.00    -0.501 OA 
HETATM    6  C   UNL     1     -13.656  12.131  70.607  1.00  0.00     1.591 C  
HETATM    7  C   UNL     1     -12.188  12.221  70.156  1.00  0.00    -0.302 C  
HETATM    8  C   UNL     1     -11.791  11.210  69.049  1.00  0.00    -0.348 C  
HETATM    9  C   UNL     1     -12.409  11.477  67.664  1.00  0.00     0.972 C  
HETATM   10  C   UNL     1     -12.160   9.771  69.450  1.00  0.00     0.529 C  
HETATM   11  O   UNL     1     -10.354  11.207  68.917  1.00  0.00    -0.195 OA 
HETATM   12  C   UNL     1      -9.719  12.422  68.942  1.00  0.00     0.166 A  
HETATM   13  C   UNL     1      -8.356  12.358  68.613  1.00  0.00     0.006 A  
HETATM   14  C   UNL     1      -7.556  13.507  68.563  1.00  0.00    -0.129 A  
HETATM   15  H   UNL     1     -11.030  16.064  69.578  1.00  0.00     0.000 HD 
HETATM   16  C   UNL     1      -8.191  14.730  68.825  1.00  0.00    -0.163 A  
HETATM   17  C   UNL     1      -9.549  14.792  69.158  1.00  0.00    -0.131 A  
HETATM   18  O   UNL     1     -10.108  16.022  69.352  1.00  0.00    -0.241 OA 
HETATM   19  C   UNL     1     -10.335  13.640  69.273  1.00  0.00     0.145 A  
ENDROOT
BRANCH  14  20
HETATM   20  C   UNL     1      -6.053  13.469  68.233  1.00  0.00    -0.102 C  
HETATM   21  C   UNL     1      -5.584  14.643  67.342  1.00  0.00     0.338 C  
HETATM   22  C   UNL     1      -5.254  13.580  69.556  1.00  0.00    -0.084 C  
BRANCH  20  23
HETATM   23  C   UNL     1      -5.665  12.120  67.546  1.00  0.00    -0.117 C  
BRANCH  23  24
HETATM   24  C   UNL     1      -6.092  11.998  66.078  1.00  0.00     1.368 C  
BRANCH  24  25
HETATM   25  C   UNL     1      -6.586  10.589  65.742  1.00  0.00    -0.123 C  
BRANCH  25  26
HETATM   26  C   UNL     1      -7.297  10.581  64.387  1.00  0.00     0.094 C  
BRANCH  26  27
HETATM   27  C   UNL     1      -8.745  11.049  64.499  1.00  0.00     0.060 C  
HETATM   28  C   UNL     1      -9.662   9.895  64.879  1.00  0.00    -0.332 C  
ENDBRANCH  26  27
ENDBRANCH  25  26
ENDBRANCH  24  25
ENDBRANCH  23  24
ENDBRANCH  20  23
ENDBRANCH  14  20
TORSDOF 6
ENDMDL
MODEL      218
REMARK 921   NORMALIZED FREE ENERGY PREDICTED BY IDOCK:    2.10 KCAL/MOL
REMARK 922        TOTAL FREE ENERGY PREDICTED BY IDOCK:    0.82 KCAL/MOL
REMARK 923 INTER-LIGAND FREE ENERGY PREDICTED BY IDOCK:    1.57 KCAL/MOL
REMARK 924 INTRA-LIGAND FREE ENERGY PREDICTED BY IDOCK:   -0.75 KCAL/MOL
REMARK 927      BINDING AFFINITY PREDICTED BY RF-SCORE:    0.00 PKD
ROOT
HETATM    1  C   UNL     1     -11.854  14.358  70.206  1.00  0.00    -0.382 C  
HETATM    2  C   UNL     1     -12.098  15.201  71.470  1.00  0.00    -0.407 C  
HETATM    3  C   UNL     1     -13.536  15.088  71.911  1.00  0.00    -0.402 C  
HETATM    4  C   UNL     1     -14.038  13.693  72.152  1.00  0.00    -0.553 C  
HETATM    5  O   UNL     1     -14.237  16.075  72.128  1.00  0.00    -0.234 OA 
HETATM    6  C   UNL     1     -13.834  12.869  70.891  1.00  0.00     1.462 C  
HETATM    7  C   UNL     1     -12.371  12.907  70.416  1.00  0.00    -0.333 C  
HETATM    8  C   UNL     1     -12.087  12.079  69.135  1.00  0.00    -0.183 C  
HETATM    9  C   UNL     1     -12.699  12.643  67.840  1.00  0.00     1.656 C  
HETATM   10  C   UNL     1     -12.583  10.630  69.287  1.00  0.00     0.375 C  
HETATM   11  O   UNL     1     -10.659  11.972  68.959  1.00  0.00    -0.190 OA 
HETATM   12  C   UNL     1      -9.913  13.101  69.179  1.00  0.00     0.373 A  
HETATM   13  C   UNL     1      -8.567  12.975  68.800  1.00  0.00     0.159 A  
HETATM   14  C   UNL     1      -7.664  14.038  68.928  1.00  0.00    -0.069 A  
HETATM   15  H   UNL     1     -10.867  16.671  70.491  1.00  0.00     0.000 HD 
HETATM   16  C   UNL     1      -8.178  15.246  69.423  1.00  0.00    -0.233 A  
HETATM   17  C   UNL     1      -9.518  15.369  69.805  1.00  0.00    -0.149 A  
HETATM   18  O   UNL     1      -9.957  16.589  70.231  1.00  0.00     0.390 OA 
HETATM   19  C   UNL     1     -10.407  14.289  69.739  1.00  0.00     0.285 A  
ENDROOT
BRANCH  14  20
HETATM   20  C   UNL     1      -6.176  13.926  68.550  1.00  0.00    -0.093 C  
HETATM   21  C   UNL     1      -5.940  13.363  67.128  1.00  0.00     0.543 C  
HETATM   22  C   UNL     1      -5.553  15.344  68.566  1.00  0.00    -0.099 C  
BRANCH  20  23
HETATM   23  C   UNL     1      -5.401  13.045  69.583  1.00  0.00    -0.086 C  
BRANCH  23  24
HETATM   24  C   UNL     1      -5.574  11.533  69.399  1.00  0.00    -0.056 C  
BRANCH  24  25
HETATM   25  C   UNL     1      -5.632  10.798  70.740  1.00  0.00    -0.110 C  
BRANCH  25  26
HETATM   26  C   UNL     1      -6.027   9.335  70.531  1.00  0.00    -0.047 C  
BRANCH  26  27
HETATM   27  C   UNL     1      -7.539   9.160  70.428  1.00  0.00    -0.118 C  
HETATM   28  C   UNL     1      -8.162   8.982  71.804  1.00  0.00     0.073 C  
ENDBRANCH  26  27
ENDBRANCH  25  26
ENDBRANCH  24  25
ENDBRANCH  23  24
ENDBRANCH  20  23
ENDBRANCH  14  20
TORSDOF 6
ENDMDL
MODEL      219
REMARK 921   NORMALIZED FREE ENERGY PREDICTED BY IDOCK:    3.48 KCAL/MOL
REMARK 922        TOTAL FREE ENERGY PREDICTED BY IDOCK:    2.68 KCAL/MOL
REMARK 923 INTER-LIGAND FREE ENERGY PREDICTED BY IDOCK:    1.66 KCAL/MOL
REMARK 924 INTRA-LIGAND FREE ENERGY PREDICTED BY IDOCK:    1.02 KCAL/MOL
REMARK 927      BINDING AFFINITY PREDICTED BY RF-SCORE:    0.00 PKD
ROOT
HETATM    1  C   UNL     1      -9.342  10.088  65.365  1.00  0.00    -0.284 C  
HETATM    2  C   UNL     1     -10.831  10.067  65.752  1.00  0.00     0.408 C  
HETATM    3  C   UNL     1     -11.398  11.464  65.748  1.00  0.00    -0.008 C  
HETATM    4  C   UNL     1     -11.239  12.231  64.467  1.00  0.00    -0.378 C  
HETATM    5  O   UNL     1     -12.014  11.926  66.707  1.00  0.00    -0.613 OA 
HETATM    6  C   UNL     1      -9.764  12.287  64.104  1.00  0.00    -0.057 C  
HETATM    7  C   UNL     1      -9.137  10.883  64.045  1.00  0.00    -0.163 C  
HETATM    8  C   UNL     1      -7.632  10.864  63.672  1.00  0.00     0.448 C  
HETATM    9  C   UNL     1      -6.682  11.427  64.745  1.00  0.00     1.644 C  
HETATM   10  C   UNL     1      -7.371  11.642  62.370  1.00  0.00     0.784 C  
HETATM   11  O   UNL     1      -7.243   9.505  63.382  1.00  0.00    -0.101 OA 
HETATM   12  C   UNL     1      -7.716   8.525  64.218  1.00  0.00    -0.130 A  
HETATM   13  C   UNL     1      -7.142   7.264  63.995  1.00  0.00    -0.071 A  
HETATM   14  C   UNL     1      -7.486   6.151  64.773  1.00  0.00    -0.084 A  
HETATM   15  H   UNL     1     -10.227   8.621  67.228  1.00  0.00     0.000 HD 
HETATM   16  C   UNL     1      -8.409   6.366  65.808  1.00  0.00    -0.146 A  
HETATM   17  C   UNL     1      -8.984   7.623  66.025  1.00  0.00    -0.139 A  
HETATM   18  O   UNL     1      -9.837   7.767  67.081  1.00  0.00    -0.169 OA 
HETATM   19  C   UNL     1      -8.691   8.721  65.208  1.00  0.00    -0.216 A  
ENDROOT
BRANCH  14  20
HETATM   20  C   UNL     1      -6.899   4.748  64.539  1.00  0.00    -0.049 C  
HETATM   21  C   UNL     1      -7.175   4.190  63.123  1.00  0.00    -0.049 C  
HETATM   22  C   UNL     1      -5.358   4.826  64.684  1.00  0.00    -0.013 C  
BRANCH  20  23
HETATM   23  C   UNL     1      -7.433   3.733  65.600  1.00  0.00    -0.077 C  
BRANCH  23  24
HETATM   24  C   UNL     1      -8.720   4.163  66.313  1.00  0.00    -0.115 C  
BRANCH  24  25
HETATM   25  C   UNL     1      -9.923   3.322  65.878  1.00  0.00     0.314 C  
BRANCH  25  26
HETATM   26  C   UNL     1      -9.488   2.236  64.892  1.00  0.00    -0.046 C  
BRANCH  26  27
HETATM   27  C   UNL     1     -10.653   1.732  64.047  1.00  0.00     0.195 C  
HETATM   28  C   UNL     1     -11.445   2.892  63.463  1.00  0.00     0.775 C  
ENDBRANCH  26  27
ENDBRANCH  25  26
ENDBRANCH  24  25
ENDBRANCH  23  24
ENDBRANCH  20  23
ENDBRANCH  14  20
TORSDOF 6
ENDMDL
MODEL      220
REMARK 921   NORMALIZED FREE ENERGY PREDICTED BY IDOCK:    3.48 KCAL/MOL
REMARK 922        TOTAL FREE ENERGY PREDICTED BY IDOCK:    2.69 KCAL/MOL
REMARK 923 INTER-LIGAND FREE ENERGY PREDICTED BY IDOCK:    1.34 KCAL/MOL
REMARK 924 INTRA-LIGAND FREE ENERGY PREDICTED BY IDOCK:    1.35 KCAL/MOL
REMARK 927      BINDING AFFINITY PREDICTED BY RF-SCORE:    0.00 PKD
ROOT
HETATM    1  C   UNL     1      -9.410  10.338  65.427  1.00  0.00    -0.258 C  
HETATM    2  C   UNL     1     -10.854  10.420  65.951  1.00  0.00     0.079 C  
HETATM    3  C   UNL     1     -11.294  11.858  66.066  1.00  0.00    -0.316 C  
HETATM    4  C   UNL     1     -11.185  12.678  64.813  1.00  0.00    -0.337 C  
HETATM    5  O   UNL     1     -11.777  12.317  67.100  1.00  0.00    -0.419 OA 
HETATM    6  C   UNL     1      -9.749  12.631  64.314  1.00  0.00     0.070 C  
HETATM    7  C   UNL     1      -9.256  11.184  64.131  1.00  0.00    -0.121 C  
HETATM    8  C   UNL     1      -7.799  11.060  63.616  1.00  0.00     0.517 C  
HETATM    9  C   UNL     1      -6.710  11.483  64.619  1.00  0.00     2.234 C  
HETATM   10  C   UNL     1      -7.589  11.883  62.333  1.00  0.00     1.424 C  
HETATM   11  O   UNL     1      -7.559   9.691  63.228  1.00  0.00    -0.111 OA 
HETATM   12  C   UNL     1      -8.038   8.711  64.058  1.00  0.00    -0.163 A  
HETATM   13  C   UNL     1      -7.600   7.419  63.724  1.00  0.00    -0.118 A  
HETATM   14  C   UNL     1      -7.969   6.298  64.479  1.00  0.00    -0.121 A  
HETATM   15  H   UNL     1     -10.248   8.851  67.295  1.00  0.00     0.000 HD 
HETATM   16  C   UNL     1      -8.772   6.533  65.606  1.00  0.00    -0.102 A  
HETATM   17  C   UNL     1      -9.212   7.820  65.934  1.00  0.00    -0.019 A  
HETATM   18  O   UNL     1      -9.949   7.977  67.072  1.00  0.00    -0.202 OA 
HETATM   19  C   UNL     1      -8.899   8.932  65.145  1.00  0.00    -0.209 A  
ENDROOT
BRANCH  14  20
HETATM   20  C   UNL     1      -7.531   4.866  64.125  1.00  0.00    -0.064 C  
HETATM   21  C   UNL     1      -8.281   4.272  62.909  1.00  0.00    -0.085 C  
HETATM   22  C   UNL     1      -6.030   4.888  63.743  1.00  0.00    -0.018 C  
BRANCH  20  23
HETATM   23  C   UNL     1      -7.704   3.909  65.348  1.00  0.00    -0.082 C  
BRANCH  23  24
HETATM   24  C   UNL     1      -8.363   4.546  66.577  1.00  0.00    -0.106 C  
BRANCH  24  25
HETATM   25  C   UNL     1      -7.363   4.759  67.716  1.00  0.00    -0.070 C  
BRANCH  25  26
HETATM   26  C   UNL     1      -5.986   4.217  67.327  1.00  0.00    -0.024 C  
BRANCH  26  27
HETATM   27  C   UNL     1      -5.312   3.486  68.483  1.00  0.00    -0.013 C  
HETATM   28  C   UNL     1      -6.296   2.572  69.197  1.00  0.00    -0.029 C  
ENDBRANCH  26  27
ENDBRANCH  25  26
ENDBRANCH  24  25
ENDBRANCH  23  24
ENDBRANCH  20  23
ENDBRANCH  14  20
TORSDOF 6
ENDMDL
MODEL      221
REMARK 921   NORMALIZED FREE ENERGY PREDICTED BY IDOCK:    8.44 KCAL/MOL
REMARK 922        TOTAL FREE ENERGY PREDICTED BY IDOCK:    9.39 KCAL/MOL
REMARK 923 INTER-LIGAND FREE ENERGY PREDICTED BY IDOCK:   10.38 KCAL/MOL
REMARK 924 INTRA-LIGAND FREE ENERGY PREDICTED BY IDOCK:   -0.99 KCAL/MOL
REMARK 927      BINDING AFFINITY PREDICTED BY RF-SCORE:    0.00 PKD
ROOT
HETATM    1  C   UNL     1      -7.015  11.705  71.019  1.00  0.00     3.057 C  
HETATM    2  C   UNL     1      -5.753  11.422  71.851  1.00  0.00     0.857 C  
HETATM    3  C   UNL     1      -5.647   9.952  72.168  1.00  0.00     0.150 C  
HETATM    4  C   UNL     1      -5.669   9.025  70.986  1.00  0.00    -0.043 C  
HETATM    5  O   UNL     1      -5.484   9.536  73.313  1.00  0.00    -0.245 OA 
HETATM    6  C   UNL     1      -6.937   9.275  70.184  1.00  0.00    -0.067 C  
HETATM    7  C   UNL     1      -7.077  10.756  69.789  1.00  0.00    -0.126 C  
HETATM    8  C   UNL     1      -8.346  11.084  68.960  1.00  0.00    -0.085 C  
HETATM    9  C   UNL     1      -9.676  10.988  69.730  1.00  0.00     0.518 C  
HETATM   10  C   UNL     1      -8.460  10.168  67.728  1.00  0.00    -0.114 C  
HETATM   11  O   UNL     1      -8.220  12.419  68.427  1.00  0.00    -0.164 OA 
HETATM   12  C   UNL     1      -7.726  13.385  69.264  1.00  0.00     0.388 A  
HETATM   13  C   UNL     1      -7.816  14.687  68.746  1.00  0.00    -0.146 A  
HETATM   14  C   UNL     1      -7.384  15.801  69.476  1.00  0.00    -0.186 A  
HETATM   15  H   UNL     1      -6.281  13.222  72.907  1.00  0.00     0.000 HD 
HETATM   16  C   UNL     1      -6.887  15.557  70.765  1.00  0.00     0.878 A  
HETATM   17  C   UNL     1      -6.793  14.259  71.279  1.00  0.00     1.274 A  
HETATM   18  O   UNL     1      -6.345  14.104  72.559  1.00  0.00     0.100 OA 
HETATM   19  C   UNL     1      -7.163  13.138  70.526  1.00  0.00     2.220 A  
ENDROOT
BRANCH  14  20
HETATM   20  C   UNL     1      -7.441  17.238  68.927  1.00  0.00    -0.240 C  
HETATM   21  C   UNL     1      -6.349  18.167  69.508  1.00  0.00    -0.222 C  
HETATM   22  C   UNL     1      -7.205  17.193  67.396  1.00  0.00    -0.178 C  
BRANCH  20  23
HETATM   23  C   UNL     1      -8.844  17.879  69.182  1.00  0.00     0.121 C  
BRANCH  23  24
HETATM   24  C   UNL     1      -9.623  18.250  67.915  1.00  0.00    -0.297 C  
BRANCH  24  25
HETATM   25  C   UNL     1     -10.881  17.395  67.746  1.00  0.00    -0.257 C  
BRANCH  25  26
HETATM   26  C   UNL     1     -10.721  16.432  66.568  1.00  0.00    -0.163 C  
BRANCH  26  27
HETATM   27  C   UNL     1     -11.679  16.761  65.427  1.00  0.00     1.311 C  
HETATM   28  C   UNL     1     -10.926  17.295  64.219  1.00  0.00     2.038 C  
ENDBRANCH  26  27
ENDBRANCH  25  26
ENDBRANCH  24  25
ENDBRANCH  23  24
ENDBRANCH  20  23
ENDBRANCH  14  20
TORSDOF 6
ENDMDL
MODEL      222
REMARK 921   NORMALIZED FREE ENERGY PREDICTED BY IDOCK:   12.09 KCAL/MOL
REMARK 922        TOTAL FREE ENERGY PREDICTED BY IDOCK:   14.32 KCAL/MOL
REMARK 923 INTER-LIGAND FREE ENERGY PREDICTED BY IDOCK:   15.02 KCAL/MOL
REMARK 924 INTRA-LIGAND FREE ENERGY PREDICTED BY IDOCK:   -0.69 KCAL/MOL
REMARK 927      BINDING AFFINITY PREDICTED BY RF-SCORE:    0.00 PKD
ROOT
HETATM    1  C   UNL     1     -10.791  14.905  67.711  1.00  0.00    -0.286 C  
HETATM    2  C   UNL     1     -11.942  14.718  68.714  1.00  0.00    -0.292 C  
HETATM    3  C   UNL     1     -13.142  15.532  68.301  1.00  0.00     2.734 C  
HETATM    4  C   UNL     1     -13.660  15.277  66.914  1.00  0.00     5.434 C  
HETATM    5  O   UNL     1     -13.708  16.308  69.070  1.00  0.00     2.832 OA 
HETATM    6  C   UNL     1     -12.534  15.500  65.917  1.00  0.00     1.239 C  
HETATM    7  C   UNL     1     -11.293  14.657  66.260  1.00  0.00    -0.347 C  
HETATM    8  C   UNL     1     -10.105  14.830  65.278  1.00  0.00    -0.354 C  
HETATM    9  C   UNL     1      -9.400  16.197  65.334  1.00  0.00     0.340 C  
HETATM   10  C   UNL     1     -10.547  14.598  63.822  1.00  0.00     2.201 C  
HETATM   11  O   UNL     1      -9.130  13.800  65.544  1.00  0.00     0.401 OA 
HETATM   12  C   UNL     1      -8.849  13.525  66.858  1.00  0.00    -0.182 A  
HETATM   13  C   UNL     1      -7.759  12.660  67.037  1.00  0.00    -0.021 A  
HETATM   14  C   UNL     1      -7.314  12.291  68.313  1.00  0.00    -0.108 A  
HETATM   15  H   UNL     1     -10.399  14.844  70.210  1.00  0.00     0.000 HD 
HETATM   16  C   UNL     1      -7.990  12.855  69.405  1.00  0.00     0.826 A  
HETATM   17  C   UNL     1      -9.081  13.713  69.225  1.00  0.00     0.683 A  
HETATM   18  O   UNL     1      -9.658  14.261  70.333  1.00  0.00     1.391 OA 
HETATM   19  C   UNL     1      -9.569  14.031  67.952  1.00  0.00    -0.221 A  
ENDROOT
BRANCH  14  20
HETATM   20  C   UNL     1      -6.140  11.323  68.545  1.00  0.00    -0.042 C  
HETATM   21  C   UNL     1      -5.300  11.052  67.275  1.00  0.00    -0.047 C  
HETATM   22  C   UNL     1      -5.175  11.954  69.580  1.00  0.00    -0.068 C  
BRANCH  20  23
HETATM   23  C   UNL     1      -6.644   9.961  69.122  1.00  0.00    -0.052 C  
BRANCH  23  24
HETATM   24  C   UNL     1      -7.883   9.384  68.426  1.00  0.00    -0.090 C  
BRANCH  24  25
HETATM   25  C   UNL     1      -7.600   9.019  66.967  1.00  0.00    -0.091 C  
BRANCH  25  26
HETATM   26  C   UNL     1      -8.833   8.378  66.328  1.00  0.00    -0.190 C  
BRANCH  26  27
HETATM   27  C   UNL     1     -10.080   9.241  66.499  1.00  0.00    -0.343 C  
HETATM   28  C   UNL     1      -9.994  10.496  65.643  1.00  0.00    -0.332 C  
ENDBRANCH  26  27
ENDBRANCH  25  26
ENDBRANCH  24  25
ENDBRANCH  23  24
ENDBRANCH  20  23
ENDBRANCH  14  20
TORSDOF 6
ENDMDL
MODEL      223
REMARK 921   NORMALIZED FREE ENERGY PREDICTED BY IDOCK:   12.38 KCAL/MOL
REMARK 922        TOTAL FREE ENERGY PREDICTED BY IDOCK:   14.71 KCAL/MOL
REMARK 923 INTER-LIGAND FREE ENERGY PREDICTED BY IDOCK:   15.44 KCAL/MOL
REMARK 924 INTRA-LIGAND FREE ENERGY PREDICTED BY IDOCK:   -0.72 KCAL/MOL
REMARK 927      BINDING AFFINITY PREDICTED BY RF-SCORE:    0.00 PKD
ROOT
HETATM    1  C   UNL     1     -10.910  15.206  71.151  1.00  0.00    -0.075 C  
HETATM    2  C   UNL     1     -10.275  16.090  72.239  1.00  0.00     3.778 C  
HETATM    3  C   UNL     1     -11.283  16.413  73.312  1.00  0.00     1.469 C  
HETATM    4  C   UNL     1     -11.942  15.234  73.968  1.00  0.00    -0.504 C  
HETATM    5  O   UNL     1     -11.506  17.565  73.680  1.00  0.00     0.288 OA 
HETATM    6  C   UNL     1     -12.605  14.380  72.898  1.00  0.00    -0.359 C  
HETATM    7  C   UNL     1     -11.611  13.976  71.795  1.00  0.00     0.900 C  
HETATM    8  C   UNL     1     -12.218  13.096  70.671  1.00  0.00    -0.321 C  
HETATM    9  C   UNL     1     -13.218  13.810  69.745  1.00  0.00     1.154 C  
HETATM   10  C   UNL     1     -12.930  11.861  71.254  1.00  0.00    -0.334 C  
HETATM   11  O   UNL     1     -11.144  12.566  69.866  1.00  0.00     0.053 OA 
HETATM   12  C   UNL     1     -10.125  13.421  69.538  1.00  0.00     0.772 A  
HETATM   13  C   UNL     1      -9.224  12.898  68.598  1.00  0.00     0.036 A  
HETATM   14  C   UNL     1      -8.135  13.643  68.127  1.00  0.00    -0.156 A  
HETATM   15  H   UNL     1      -9.353  17.120  70.589  1.00  0.00     0.000 HD 
HETATM   16  C   UNL     1      -8.008  14.952  68.615  1.00  0.00    -0.144 A  
HETATM   17  C   UNL     1      -8.904  15.471  69.557  1.00  0.00    -0.229 A  
HETATM   18  O   UNL     1      -8.745  16.768  69.949  1.00  0.00     0.708 OA 
HETATM   19  C   UNL     1      -9.953  14.706  70.078  1.00  0.00     0.406 A  
ENDROOT
BRANCH  14  20
HETATM   20  C   UNL     1      -7.112  13.090  67.118  1.00  0.00     0.067 C  
HETATM   21  C   UNL     1      -7.734  12.148  66.060  1.00  0.00     0.949 C  
HETATM   22  C   UNL     1      -6.495  14.277  66.337  1.00  0.00     3.784 C  
BRANCH  20  23
HETATM   23  C   UNL     1      -5.954  12.339  67.852  1.00  0.00    -0.083 C  
BRANCH  23  24
HETATM   24  C   UNL     1      -6.308  11.813  69.247  1.00  0.00    -0.103 C  
BRANCH  24  25
HETATM   25  C   UNL     1      -5.147  11.976  70.231  1.00  0.00    -0.094 C  
BRANCH  25  26
HETATM   26  C   UNL     1      -5.609  11.673  71.658  1.00  0.00     0.440 C  
BRANCH  26  27
HETATM   27  C   UNL     1      -6.299  12.871  72.302  1.00  0.00     3.159 C  
HETATM   28  C   UNL     1      -5.286  13.784  72.978  1.00  0.00    -0.125 C  
ENDBRANCH  26  27
ENDBRANCH  25  26
ENDBRANCH  24  25
ENDBRANCH  23  24
ENDBRANCH  20  23
ENDBRANCH  14  20
TORSDOF 6
ENDMDL
MODEL      224
REMARK 921   NORMALIZED FREE ENERGY PREDICTED BY IDOCK:   15.32 KCAL/MOL
REMARK 922        TOTAL FREE ENERGY PREDICTED BY IDOCK:   18.68 KCAL/MOL
REMARK 923 INTER-LIGAND FREE ENERGY PREDICTED BY IDOCK:   19.44 KCAL/MOL
REMARK 924 INTRA-LIGAND FREE ENERGY PREDICTED BY IDOCK:   -0.76 KCAL/MOL
REMARK 927      BINDING AFFINITY PREDICTED BY RF-SCORE:    0.00 PKD
ROOT
HETATM    1  C   UNL     1     -10.833  15.517  68.566  1.00  0.00    -0.272 C  
HETATM    2  C   UNL     1     -11.962  15.354  69.599  1.00  0.00    -0.366 C  
HETATM    3  C   UNL     1     -13.168  16.163  69.196  1.00  0.00     2.746 C  
HETATM    4  C   UNL     1     -13.717  15.881  67.827  1.00  0.00     6.843 C  
HETATM    5  O   UNL     1     -13.714  16.956  69.962  1.00  0.00     5.308 OA 
HETATM    6  C   UNL     1     -12.614  16.081  66.800  1.00  0.00     2.734 C  
HETATM    7  C   UNL     1     -11.368  15.241  67.133  1.00  0.00    -0.247 C  
HETATM    8  C   UNL     1     -10.202  15.389  66.121  1.00  0.00    -0.308 C  
HETATM    9  C   UNL     1      -9.492  16.755  66.133  1.00  0.00    -0.295 C  
HETATM   10  C   UNL     1     -10.677  15.129  64.680  1.00  0.00    -0.234 C  
HETATM   11  O   UNL     1      -9.224  14.361  66.386  1.00  0.00    -0.267 OA 
HETATM   12  C   UNL     1      -8.915  14.113  67.698  1.00  0.00    -0.192 A  
HETATM   13  C   UNL     1      -7.823  13.248  67.870  1.00  0.00    -0.152 A  
HETATM   14  C   UNL     1      -7.350  12.904  69.144  1.00  0.00     0.147 A  
HETATM   15  H   UNL     1     -10.385  15.505  71.057  1.00  0.00     0.000 HD 
HETATM   16  C   UNL     1      -8.000  13.492  70.238  1.00  0.00     2.691 A  
HETATM   17  C   UNL     1      -9.093  14.350  70.065  1.00  0.00     1.186 A  
HETATM   18  O   UNL     1      -9.643  14.923  71.175  1.00  0.00     1.462 OA 
HETATM   19  C   UNL     1      -9.608  14.644  68.798  1.00  0.00    -0.210 A  
ENDROOT
BRANCH  14  20
HETATM   20  C   UNL     1      -6.174  11.936  69.369  1.00  0.00    -0.108 C  
HETATM   21  C   UNL     1      -5.364  11.637  68.086  1.00  0.00    -0.043 C  
HETATM   22  C   UNL     1      -5.184  12.585  70.369  1.00  0.00    -0.119 C  
BRANCH  20  23
HETATM   23  C   UNL     1      -6.670  10.588  69.985  1.00  0.00    -0.151 C  
BRANCH  23  24
HETATM   24  C   UNL     1      -6.354   9.342  69.150  1.00  0.00    -0.042 C  
BRANCH  24  25
HETATM   25  C   UNL     1      -6.821   8.058  69.839  1.00  0.00    -0.041 C  
BRANCH  25  26
HETATM   26  C   UNL     1      -8.341   8.068  70.016  1.00  0.00    -0.123 C  
BRANCH  26  27
HETATM   27  C   UNL     1      -8.750   7.776  71.456  1.00  0.00    -0.140 C  
HETATM   28  C   UNL     1      -9.724   8.826  71.970  1.00  0.00    -0.370 C  
ENDBRANCH  26  27
ENDBRANCH  25  26
ENDBRANCH  24  25
ENDBRANCH  23  24
ENDBRANCH  20  23
ENDBRANCH  14  20
TORSDOF 6
ENDMDL
MODEL      225
REMARK 921   NORMALIZED FREE ENERGY PREDICTED BY IDOCK:   19.20 KCAL/MOL
REMARK 922        TOTAL FREE ENERGY PREDICTED BY IDOCK:   23.92 KCAL/MOL
REMARK 923 INTER-LIGAND FREE ENERGY PREDICTED BY IDOCK:   21.52 KCAL/MOL
REMARK 924 INTRA-LIGAND FREE ENERGY PREDICTED BY IDOCK:    2.40 KCAL/MOL
REMARK 927      BINDING AFFINITY PREDICTED BY RF-SCORE:    0.00 PKD
ROOT
HETATM    1  C   UNL     1     -10.074  15.531  67.192  1.00  0.00    -0.254 C  
HETATM    2  C   UNL     1      -9.751  16.029  65.772  1.00  0.00    -0.340 C  
HETATM    3  C   UNL     1     -10.840  15.625  64.810  1.00  0.00    -0.355 C  
HETATM    4  C   UNL     1     -12.230  16.061  65.174  1.00  0.00     1.069 C  
HETATM    5  O   UNL     1     -10.602  15.034  63.758  1.00  0.00     1.211 OA 
HETATM    6  C   UNL     1     -12.566  15.537  66.561  1.00  0.00     1.719 C  
HETATM    7  C   UNL     1     -11.512  15.958  67.600  1.00  0.00    -0.070 C  
HETATM    8  C   UNL     1     -11.796  15.463  69.043  1.00  0.00    -0.335 C  
HETATM    9  C   UNL     1     -11.647  13.946  69.257  1.00  0.00    -0.358 C  
HETATM   10  C   UNL     1     -13.212  15.857  69.499  1.00  0.00     1.570 C  
HETATM   11  O   UNL     1     -10.905  16.145  69.951  1.00  0.00    -0.313 OA 
HETATM   12  C   UNL     1      -9.599  16.286  69.560  1.00  0.00    -0.102 A  
HETATM   13  C   UNL     1      -8.754  16.778  70.568  1.00  0.00     3.483 A  
HETATM   14  C   UNL     1      -7.382  16.961  70.354  1.00  0.00     2.188 A  
HETATM   15  H   UNL     1      -7.740  15.403  66.221  1.00  0.00     0.000 HD 
HETATM   16  C   UNL     1      -6.886  16.597  69.093  1.00  0.00    -0.224 A  
HETATM   17  C   UNL     1      -7.729  16.112  68.088  1.00  0.00    -0.141 A  
HETATM   18  O   UNL     1      -7.167  15.733  66.903  1.00  0.00    -0.196 OA 
HETATM   19  C   UNL     1      -9.111  15.990  68.277  1.00  0.00    -0.191 A  
ENDROOT
BRANCH  14  20
HETATM   20  C   UNL     1      -6.433  17.525  71.427  1.00  0.00     2.986 C  
HETATM   21  C   UNL     1      -5.331  18.448  70.856  1.00  0.00    -0.246 C  
HETATM   22  C   UNL     1      -7.258  18.389  72.413  1.00  0.00     6.955 C  
BRANCH  20  23
HETATM   23  C   UNL     1      -5.761  16.371  72.241  1.00  0.00     1.461 C  
BRANCH  23  24
HETATM   24  C   UNL     1      -5.642  15.039  71.493  1.00  0.00     0.106 C  
BRANCH  24  25
HETATM   25  C   UNL     1      -7.002  14.358  71.319  1.00  0.00     1.422 C  
BRANCH  25  26
HETATM   26  C   UNL     1      -7.150  13.817  69.895  1.00  0.00     0.361 C  
BRANCH  26  27
HETATM   27  C   UNL     1      -6.458  12.468  69.722  1.00  0.00    -0.018 C  
HETATM   28  C   UNL     1      -7.477  11.351  69.549  1.00  0.00     0.133 C  
ENDBRANCH  26  27
ENDBRANCH  25  26
ENDBRANCH  24  25
ENDBRANCH  23  24
ENDBRANCH  20  23
ENDBRANCH  14  20
TORSDOF 6
ENDMDL
MODEL      226
REMARK 921   NORMALIZED FREE ENERGY PREDICTED BY IDOCK:   22.82 KCAL/MOL
REMARK 922        TOTAL FREE ENERGY PREDICTED BY IDOCK:   28.80 KCAL/MOL
REMARK 923 INTER-LIGAND FREE ENERGY PREDICTED BY IDOCK:   27.27 KCAL/MOL
REMARK 924 INTRA-LIGAND FREE ENERGY PREDICTED BY IDOCK:    1.54 KCAL/MOL
REMARK 927      BINDING AFFINITY PREDICTED BY RF-SCORE:    0.00 PKD
ROOT
HETATM    1  C   UNL     1      -8.961  18.430  70.371  1.00  0.00     3.123 C  
HETATM    2  C   UNL     1     -10.494  18.293  70.384  1.00  0.00     1.742 C  
HETATM    3  C   UNL     1     -10.991  18.051  71.787  1.00  0.00     2.885 C  
HETATM    4  C   UNL     1     -10.586  19.073  72.810  1.00  0.00     3.417 C  
HETATM    5  O   UNL     1     -11.739  17.116  72.068  1.00  0.00     0.267 OA 
HETATM    6  C   UNL     1      -9.069  19.181  72.827  1.00  0.00     6.599 C  
HETATM    7  C   UNL     1      -8.503  19.475  71.427  1.00  0.00     3.702 C  
HETATM    8  C   UNL     1      -6.959  19.607  71.370  1.00  0.00     1.158 C  
HETATM    9  C   UNL     1      -6.180  18.298  71.595  1.00  0.00     1.893 C  
HETATM   10  C   UNL     1      -6.448  20.630  72.401  1.00  0.00     1.567 C  
HETATM   11  O   UNL     1      -6.586  20.148  70.086  1.00  0.00    -0.338 OA 
HETATM   12  C   UNL     1      -7.234  19.652  68.984  1.00  0.00    -0.344 A  
HETATM   13  C   UNL     1      -6.686  20.077  67.763  1.00  0.00    -0.286 A  
HETATM   14  C   UNL     1      -7.204  19.648  66.535  1.00  0.00    -0.239 A  
HETATM   15  H   UNL     1     -10.210  17.127  68.596  1.00  0.00     0.000 HD 
HETATM   16  C   UNL     1      -8.278  18.746  66.583  1.00  0.00    -0.298 A  
HETATM   17  C   UNL     1      -8.826  18.328  67.800  1.00  0.00    -0.263 A  
HETATM   18  O   UNL     1      -9.837  17.411  67.769  1.00  0.00    -0.267 OA 
HETATM   19  C   UNL     1      -8.353  18.805  69.028  1.00  0.00    -0.146 A  
ENDROOT
BRANCH  14  20
HETATM   20  C   UNL     1      -6.646  20.117  65.178  1.00  0.00    -0.336 C  
HETATM   21  C   UNL     1      -7.741  20.560  64.179  1.00  0.00     1.758 C  
HETATM   22  C   UNL     1      -5.745  21.355  65.416  1.00  0.00    -0.104 C  
BRANCH  20  23
HETATM   23  C   UNL     1      -5.773  19.002  64.518  1.00  0.00    -0.313 C  
BRANCH  23  24
HETATM   24  C   UNL     1      -6.203  17.568  64.844  1.00  0.00     1.690 C  
BRANCH  24  25
HETATM   25  C   UNL     1      -6.070  17.256  66.337  1.00  0.00    -0.241 C  
BRANCH  25  26
HETATM   26  C   UNL     1      -6.410  15.790  66.610  1.00  0.00     0.899 C  
BRANCH  26  27
HETATM   27  C   UNL     1      -6.339  15.454  68.096  1.00  0.00    -0.132 C  
HETATM   28  C   UNL     1      -7.648  14.851  68.582  1.00  0.00    -0.124 C  
ENDBRANCH  26  27
ENDBRANCH  25  26
ENDBRANCH  24  25
ENDBRANCH  23  24
ENDBRANCH  20  23
ENDBRANCH  14  20
TORSDOF 6
ENDMDL
MODEL      227
REMARK 921   NORMALIZED FREE ENERGY PREDICTED BY IDOCK:   23.49 KCAL/MOL
REMARK 922        TOTAL FREE ENERGY PREDICTED BY IDOCK:   29.71 KCAL/MOL
REMARK 923 INTER-LIGAND FREE ENERGY PREDICTED BY IDOCK:   30.55 KCAL/MOL
REMARK 924 INTRA-LIGAND FREE ENERGY PREDICTED BY IDOCK:   -0.84 KCAL/MOL
REMARK 927      BINDING AFFINITY PREDICTED BY RF-SCORE:    0.00 PKD
ROOT
HETATM    1  C   UNL     1     -10.851  15.209  71.204  1.00  0.00    -0.075 C  
HETATM    2  C   UNL     1      -9.471  15.219  71.886  1.00  0.00     4.302 C  
HETATM    3  C   UNL     1      -9.583  15.739  73.297  1.00  0.00     9.724 C  
HETATM    4  C   UNL     1     -10.558  15.019  74.184  1.00  0.00     4.844 C  
HETATM    5  O   UNL     1      -8.873  16.650  73.720  1.00  0.00    15.621 OA 
HETATM    6  C   UNL     1     -11.931  15.042  73.531  1.00  0.00    -0.443 C  
HETATM    7  C   UNL     1     -11.891  14.478  72.100  1.00  0.00    -0.071 C  
HETATM    8  C   UNL     1     -13.261  14.463  71.374  1.00  0.00    -0.348 C  
HETATM    9  C   UNL     1     -13.818  15.847  70.994  1.00  0.00     0.708 C  
HETATM   10  C   UNL     1     -14.333  13.751  72.220  1.00  0.00    -0.462 C  
HETATM   11  O   UNL     1     -13.143  13.671  70.174  1.00  0.00     0.081 OA 
HETATM   12  C   UNL     1     -12.012  13.842  69.418  1.00  0.00    -0.354 A  
HETATM   13  C   UNL     1     -12.055  13.192  68.175  1.00  0.00    -0.224 A  
HETATM   14  C   UNL     1     -10.997  13.280  67.261  1.00  0.00    -0.284 A  
HETATM   15  H   UNL     1      -8.759  15.957  69.992  1.00  0.00     0.000 HD 
HETATM   16  C   UNL     1      -9.905  14.078  67.634  1.00  0.00    -0.233 A  
HETATM   17  C   UNL     1      -9.861  14.721  68.876  1.00  0.00    -0.222 A  
HETATM   18  O   UNL     1      -8.788  15.520  69.149  1.00  0.00    -0.217 OA 
HETATM   19  C   UNL     1     -10.887  14.582  69.818  1.00  0.00    -0.132 A  
ENDROOT
BRANCH  14  20
HETATM   20  C   UNL     1     -10.999  12.556  65.902  1.00  0.00    -0.314 C  
HETATM   21  C   UNL     1     -12.152  12.995  64.969  1.00  0.00    -0.470 C  
HETATM   22  C   UNL     1      -9.683  12.896  65.159  1.00  0.00     0.021 C  
BRANCH  20  23
HETATM   23  C   UNL     1     -11.060  11.006  66.094  1.00  0.00    -0.082 C  
BRANCH  23  24
HETATM   24  C   UNL     1      -9.856  10.398  66.823  1.00  0.00    -0.242 C  
BRANCH  24  25
HETATM   25  C   UNL     1      -9.535   8.989  66.320  1.00  0.00    -0.306 C  
BRANCH  25  26
HETATM   26  C   UNL     1      -8.291   8.442  67.021  1.00  0.00    -0.114 C  
BRANCH  26  27
HETATM   27  C   UNL     1      -7.209   9.506  67.179  1.00  0.00    -0.087 C  
HETATM   28  C   UNL     1      -6.315   9.560  65.949  1.00  0.00    -0.075 C  
ENDBRANCH  26  27
ENDBRANCH  25  26
ENDBRANCH  24  25
ENDBRANCH  23  24
ENDBRANCH  20  23
ENDBRANCH  14  20
TORSDOF 6
ENDMDL
MODEL      228
REMARK 921   NORMALIZED FREE ENERGY PREDICTED BY IDOCK:   27.42 KCAL/MOL
REMARK 922        TOTAL FREE ENERGY PREDICTED BY IDOCK:   35.02 KCAL/MOL
REMARK 923 INTER-LIGAND FREE ENERGY PREDICTED BY IDOCK:   35.72 KCAL/MOL
REMARK 924 INTRA-LIGAND FREE ENERGY PREDICTED BY IDOCK:   -0.71 KCAL/MOL
REMARK 927      BINDING AFFINITY PREDICTED BY RF-SCORE:    0.00 PKD
ROOT
HETATM    1  C   UNL     1     -10.219  15.381  71.725  1.00  0.00     1.710 C  
HETATM    2  C   UNL     1      -9.154  14.375  72.194  1.00  0.00     7.458 C  
HETATM    3  C   UNL     1      -9.338  14.052  73.655  1.00  0.00    10.758 C  
HETATM    4  C   UNL     1     -10.695  13.542  74.046  1.00  0.00     9.022 C  
HETATM    5  O   UNL     1      -8.419  14.134  74.468  1.00  0.00     5.877 OA 
HETATM    6  C   UNL     1     -11.747  14.554  73.619  1.00  0.00     0.305 C  
HETATM    7  C   UNL     1     -11.639  14.889  72.121  1.00  0.00    -0.288 C  
HETATM    8  C   UNL     1     -12.688  15.913  71.613  1.00  0.00    -0.392 C  
HETATM    9  C   UNL     1     -12.500  17.353  72.122  1.00  0.00     4.177 C  
HETATM   10  C   UNL     1     -14.118  15.475  71.982  1.00  0.00    -0.598 C  
HETATM   11  O   UNL     1     -12.660  15.928  70.171  1.00  0.00    -0.297 OA 
HETATM   12  C   UNL     1     -11.429  15.909  69.567  1.00  0.00    -0.342 A  
HETATM   13  C   UNL     1     -11.474  16.124  68.180  1.00  0.00    -0.220 A  
HETATM   14  C   UNL     1     -10.308  16.164  67.404  1.00  0.00    -0.294 A  
HETATM   15  H   UNL     1      -7.798  15.551  71.004  1.00  0.00     0.000 HD 
HETATM   16  C   UNL     1      -9.091  16.011  68.085  1.00  0.00    -0.187 A  
HETATM   17  C   UNL     1      -9.049  15.791  69.466  1.00  0.00    -0.202 A  
HETATM   18  O   UNL     1      -7.826  15.701  70.066  1.00  0.00     0.043 OA 
HETATM   19  C   UNL     1     -10.215  15.686  70.234  1.00  0.00    -0.121 A  
ENDROOT
BRANCH  14  20
HETATM   20  C   UNL     1     -10.322  16.369  65.878  1.00  0.00    -0.378 C  
HETATM   21  C   UNL     1     -10.946  17.715  65.441  1.00  0.00     0.244 C  
HETATM   22  C   UNL     1      -8.859  16.379  65.367  1.00  0.00     1.044 C  
BRANCH  20  23
HETATM   23  C   UNL     1     -11.076  15.201  65.164  1.00  0.00    -0.410 C  
BRANCH  23  24
HETATM   24  C   UNL     1     -10.823  13.811  65.759  1.00  0.00    -0.277 C  
BRANCH  24  25
HETATM   25  C   UNL     1      -9.950  12.948  64.845  1.00  0.00    -0.151 C  
BRANCH  25  26
HETATM   26  C   UNL     1     -10.779  12.386  63.688  1.00  0.00    -0.497 C  
BRANCH  26  27
HETATM   27  C   UNL     1     -11.004  10.883  63.824  1.00  0.00     0.123 C  
HETATM   28  C   UNL     1      -9.836  10.219  64.536  1.00  0.00    -0.384 C  
ENDBRANCH  26  27
ENDBRANCH  25  26
ENDBRANCH  24  25
ENDBRANCH  23  24
ENDBRANCH  20  23
ENDBRANCH  14  20
TORSDOF 6
ENDMDL
MODEL      229
REMARK 921   NORMALIZED FREE ENERGY PREDICTED BY IDOCK:   35.13 KCAL/MOL
REMARK 922        TOTAL FREE ENERGY PREDICTED BY IDOCK:   45.44 KCAL/MOL
REMARK 923 INTER-LIGAND FREE ENERGY PREDICTED BY IDOCK:   43.89 KCAL/MOL
REMARK 924 INTRA-LIGAND FREE ENERGY PREDICTED BY IDOCK:    1.55 KCAL/MOL
REMARK 927      BINDING AFFINITY PREDICTED BY RF-SCORE:    0.00 PKD
ROOT
HETATM    1  C   UNL     1     -10.310  14.114  70.096  1.00  0.00     0.850 C  
HETATM    2  C   UNL     1      -9.244  13.074  70.481  1.00  0.00     6.243 C  
HETATM    3  C   UNL     1      -9.726  11.681  70.165  1.00  0.00     2.535 C  
HETATM    4  C   UNL     1     -10.148  11.441  68.743  1.00  0.00    -0.199 C  
HETATM    5  O   UNL     1      -9.712  10.775  70.997  1.00  0.00     2.016 OA 
HETATM    6  C   UNL     1     -11.230  12.443  68.373  1.00  0.00    -0.316 C  
HETATM    7  C   UNL     1     -10.778  13.891  68.630  1.00  0.00    -0.272 C  
HETATM    8  C   UNL     1     -11.832  14.970  68.266  1.00  0.00    -0.268 C  
HETATM    9  C   UNL     1     -13.069  15.014  69.182  1.00  0.00     1.178 C  
HETATM   10  C   UNL     1     -12.334  14.794  66.822  1.00  0.00     0.146 C  
HETATM   11  O   UNL     1     -11.198  16.265  68.289  1.00  0.00    -0.352 OA 
HETATM   12  C   UNL     1     -10.337  16.524  69.325  1.00  0.00    -0.318 A  
HETATM   13  C   UNL     1      -9.914  17.861  69.391  1.00  0.00     0.026 A  
HETATM   14  C   UNL     1      -9.053  18.312  70.400  1.00  0.00     3.142 A  
HETATM   15  H   UNL     1      -8.982  14.283  72.244  1.00  0.00     0.000 HD 
HETATM   16  C   UNL     1      -8.662  17.369  71.363  1.00  0.00     9.458 A  
HETATM   17  C   UNL     1      -9.080  16.036  71.293  1.00  0.00     4.510 A  
HETATM   18  O   UNL     1      -8.698  15.188  72.292  1.00  0.00     4.967 OA 
HETATM   19  C   UNL     1      -9.886  15.568  70.249  1.00  0.00     0.159 A  
ENDROOT
BRANCH  14  20
HETATM   20  C   UNL     1      -8.547  19.763  70.486  1.00  0.00     1.700 C  
HETATM   21  C   UNL     1      -9.583  20.746  71.079  1.00  0.00     2.240 C  
HETATM   22  C   UNL     1      -7.318  19.803  71.428  1.00  0.00     1.521 C  
BRANCH  20  23
HETATM   23  C   UNL     1      -8.097  20.282  69.081  1.00  0.00     0.480 C  
BRANCH  23  24
HETATM   24  C   UNL     1      -9.241  20.553  68.098  1.00  0.00    -0.010 C  
BRANCH  24  25
HETATM   25  C   UNL     1      -9.749  19.267  67.442  1.00  0.00    -0.405 C  
BRANCH  25  26
HETATM   26  C   UNL     1      -9.625  19.358  65.920  1.00  0.00    -0.149 C  
BRANCH  26  27
HETATM   27  C   UNL     1     -10.403  20.542  65.353  1.00  0.00     0.359 C  
HETATM   28  C   UNL     1     -10.928  20.232  63.959  1.00  0.00     4.648 C  
ENDBRANCH  26  27
ENDBRANCH  25  26
ENDBRANCH  24  25
ENDBRANCH  23  24
ENDBRANCH  20  23
ENDBRANCH  14  20
TORSDOF 6
ENDMDL
MODEL      230
REMARK 921   NORMALIZED FREE ENERGY PREDICTED BY IDOCK:   38.07 KCAL/MOL
REMARK 922        TOTAL FREE ENERGY PREDICTED BY IDOCK:   49.40 KCAL/MOL
REMARK 923 INTER-LIGAND FREE ENERGY PREDICTED BY IDOCK:    6.93 KCAL/MOL
REMARK 924 INTRA-LIGAND FREE ENERGY PREDICTED BY IDOCK:   42.48 KCAL/MOL
REMARK 927      BINDING AFFINITY PREDICTED BY RF-SCORE:    0.00 PKD
ROOT
HETATM    1  C   UNL     1     -11.367  11.754  70.629  1.00  0.00     0.717 C  
HETATM    2  C   UNL     1     -10.949  13.167  71.071  1.00  0.00     3.018 C  
HETATM    3  C   UNL     1     -12.164  14.014  71.353  1.00  0.00    -0.264 C  
HETATM    4  C   UNL     1     -13.131  13.456  72.358  1.00  0.00    -0.469 C  
HETATM    5  O   UNL     1     -12.324  15.123  70.847  1.00  0.00    -0.300 OA 
HETATM    6  C   UNL     1     -13.577  12.075  71.902  1.00  0.00    -0.145 C  
HETATM    7  C   UNL     1     -12.378  11.147  71.643  1.00  0.00    -0.153 C  
HETATM    8  C   UNL     1     -12.759   9.715  71.182  1.00  0.00    -0.320 C  
HETATM    9  C   UNL     1     -13.356   9.619  69.766  1.00  0.00     1.793 C  
HETATM   10  C   UNL     1     -13.763   9.066  72.151  1.00  0.00    -0.536 C  
HETATM   11  O   UNL     1     -11.584   8.880  71.242  1.00  0.00    -0.270 OA 
HETATM   12  C   UNL     1     -10.408   9.417  70.783  1.00  0.00    -0.298 A  
HETATM   13  C   UNL     1      -9.359   8.489  70.690  1.00  0.00    -0.202 A  
HETATM   14  C   UNL     1      -8.093   8.855  70.215  1.00  0.00    -0.125 A  
HETATM   15  H   UNL     1      -9.474  13.007  69.511  1.00  0.00     0.000 HD 
HETATM   16  C   UNL     1      -7.933  10.188  69.806  1.00  0.00    -0.172 A  
HETATM   17  C   UNL     1      -8.979  11.113  69.906  1.00  0.00     1.274 A  
HETATM   18  O   UNL     1      -8.764  12.379  69.443  1.00  0.00     0.768 OA 
HETATM   19  C   UNL     1     -10.225  10.766  70.440  1.00  0.00     0.781 A  
ENDROOT
BRANCH  14  20
HETATM   20  C   UNL     1      -6.912   7.871  70.126  1.00  0.00    -0.049 C  
HETATM   21  C   UNL     1      -7.233   6.468  70.693  1.00  0.00    -0.074 C  
HETATM   22  C   UNL     1      -6.550   7.667  68.634  1.00  0.00    -0.053 C  
BRANCH  20  23
HETATM   23  C   UNL     1      -5.653   8.441  70.856  1.00  0.00    -0.032 C  
BRANCH  23  24
HETATM   24  C   UNL     1      -5.956   9.407  72.006  1.00  0.00     0.051 C  
BRANCH  24  25
HETATM   25  C   UNL     1      -6.399  10.781  71.497  1.00  0.00     1.155 C  
BRANCH  25  26
HETATM   26  C   UNL     1      -6.940  10.674  70.070  1.00  0.00    -0.131 C  
BRANCH  26  27
HETATM   27  C   UNL     1      -8.035  11.700  69.795  1.00  0.00     1.122 C  
HETATM   28  C   UNL     1      -8.305  11.821  68.303  1.00  0.00    -0.159 C  
ENDBRANCH  26  27
ENDBRANCH  25  26
ENDBRANCH  24  25
ENDBRANCH  23  24
ENDBRANCH  20  23
ENDBRANCH  14  20
TORSDOF 6
ENDMDL
MODEL      231
REMARK 921   NORMALIZED FREE ENERGY PREDICTED BY IDOCK:   44.26 KCAL/MOL
REMARK 922        TOTAL FREE ENERGY PREDICTED BY IDOCK:   57.77 KCAL/MOL
REMARK 923 INTER-LIGAND FREE ENERGY PREDICTED BY IDOCK:   55.46 KCAL/MOL
REMARK 924 INTRA-LIGAND FREE ENERGY PREDICTED BY IDOCK:    2.31 KCAL/MOL
REMARK 927      BINDING AFFINITY PREDICTED BY RF-SCORE:    0.00 PKD
ROOT
HETATM    1  C   UNL     1     -10.838  11.907  71.399  1.00  0.00     5.102 C  
HETATM    2  C   UNL     1      -9.829  13.022  71.075  1.00  0.00     8.228 C  
HETATM    3  C   UNL     1     -10.459  14.378  71.271  1.00  0.00     2.158 C  
HETATM    4  C   UNL     1     -11.050  14.636  72.627  1.00  0.00     1.205 C  
HETATM    5  O   UNL     1     -10.433  15.247  70.401  1.00  0.00    -0.258 OA 
HETATM    6  C   UNL     1     -12.077  13.556  72.933  1.00  0.00     1.459 C  
HETATM    7  C   UNL     1     -11.478  12.146  72.796  1.00  0.00     8.309 C  
HETATM    8  C   UNL     1     -12.470  10.992  73.101  1.00  0.00     5.731 C  
HETATM    9  C   UNL     1     -13.592  10.800  72.065  1.00  0.00    -0.167 C  
HETATM   10  C   UNL     1     -13.137  11.180  74.476  1.00  0.00    18.200 C  
HETATM   11  O   UNL     1     -11.728   9.759  73.209  1.00  0.00     2.910 OA 
HETATM   12  C   UNL     1     -10.742   9.537  72.282  1.00  0.00     1.058 A  
HETATM   13  C   UNL     1     -10.202   8.242  72.327  1.00  0.00    -0.375 A  
HETATM   14  C   UNL     1      -9.203   7.830  71.436  1.00  0.00    -0.156 A  
HETATM   15  H   UNL     1      -9.277  11.772  69.412  1.00  0.00     0.000 HD 
HETATM   16  C   UNL     1      -8.791   8.765  70.474  1.00  0.00    -0.200 A  
HETATM   17  C   UNL     1      -9.327  10.057  70.434  1.00  0.00     0.151 A  
HETATM   18  O   UNL     1      -8.913  10.894  69.439  1.00  0.00    -0.049 OA 
HETATM   19  C   UNL     1     -10.278  10.492  71.364  1.00  0.00     2.846 A  
ENDROOT
BRANCH  14  20
HETATM   20  C   UNL     1      -8.568   6.428  71.476  1.00  0.00    -0.130 C  
HETATM   21  C   UNL     1      -8.965   5.604  72.723  1.00  0.00    -0.124 C  
HETATM   22  C   UNL     1      -9.064   5.626  70.247  1.00  0.00    -0.163 C  
BRANCH  20  23
HETATM   23  C   UNL     1      -7.010   6.517  71.398  1.00  0.00    -0.075 C  
BRANCH  23  24
HETATM   24  C   UNL     1      -6.411   6.171  70.030  1.00  0.00    -0.039 C  
BRANCH  24  25
HETATM   25  C   UNL     1      -6.332   4.658  69.807  1.00  0.00    -0.027 C  
BRANCH  25  26
HETATM   26  C   UNL     1      -7.271   3.927  70.769  1.00  0.00    -0.037 C  
BRANCH  26  27
HETATM   27  C   UNL     1      -7.752   2.597  70.195  1.00  0.00    -0.045 C  
HETATM   28  C   UNL     1      -8.275   1.687  71.296  1.00  0.00    -0.055 C  
ENDBRANCH  26  27
ENDBRANCH  25  26
ENDBRANCH  24  25
ENDBRANCH  23  24
ENDBRANCH  20  23
ENDBRANCH  14  20
TORSDOF 6
ENDMDL
