MODEL        1
REMARK 921   NORMALIZED FREE ENERGY PREDICTED BY IDOCK:   -6.05 KCAL/MOL
REMARK 922        TOTAL FREE ENERGY PREDICTED BY IDOCK:   -7.85 KCAL/MOL
REMARK 923 INTER-LIGAND FREE ENERGY PREDICTED BY IDOCK:   -7.47 KCAL/MOL
REMARK 924 INTRA-LIGAND FREE ENERGY PREDICTED BY IDOCK:   -0.38 KCAL/MOL
REMARK 927      BINDING AFFINITY PREDICTED BY RF-SCORE:    0.00 PKD
ROOT
HETATM    1  C   UNL     1     -12.503  15.535  74.059  1.00  0.00    -0.653 C  
HETATM    2  O   UNL     1     -13.448  15.337  73.013  1.00  0.00    -0.480 OA 
ENDROOT
BRANCH   2   3
HETATM    3  C   UNL     1     -12.965  14.834  71.836  1.00  0.00    -0.327 A  
HETATM    4  C   UNL     1     -12.506  15.588  70.757  1.00  0.00    -0.491 A  
HETATM    5  C   UNL     1     -12.009  14.964  69.599  1.00  0.00    -0.360 A  
HETATM    6  C   UNL     1     -11.984  13.555  69.517  1.00  0.00    -0.390 A  
HETATM    7  C   UNL     1     -12.461  12.805  70.603  1.00  0.00    -0.328 A  
HETATM    8  C   UNL     1     -11.483  12.948  68.348  1.00  0.00    -0.347 A  
HETATM    9  C   UNL     1     -12.941  13.441  71.752  1.00  0.00    -0.435 A  
HETATM   10  C   UNL     1     -10.989  13.710  67.275  1.00  0.00    -0.299 A  
HETATM   11  C   UNL     1     -11.538  15.722  68.522  1.00  0.00    -0.367 A  
HETATM   12  C   UNL     1     -11.040  15.105  67.373  1.00  0.00    -0.325 A  
BRANCH  10  13
HETATM   13  C   UNL     1     -10.492  13.007  66.029  1.00  0.00    -0.289 C  
BRANCH  13  14
HETATM   14  C   UNL     1     -10.577  13.834  64.744  1.00  0.00    -0.444 C  
BRANCH  14  15
HETATM   15  C   UNL     1     -11.928  13.714  64.068  1.00  0.00    -0.431 C  
HETATM   16  O   UNL     1     -12.652  14.684  63.847  1.00  0.00    -0.834 OA 
HETATM   17  C   UNL     1     -12.357  12.327  63.660  1.00  0.00    -0.664 C  
ENDBRANCH  14  15
ENDBRANCH  13  14
ENDBRANCH  10  13
ENDBRANCH   2   3
TORSDOF 4
ENDMDL
MODEL        2
REMARK 921   NORMALIZED FREE ENERGY PREDICTED BY IDOCK:   -6.05 KCAL/MOL
REMARK 922        TOTAL FREE ENERGY PREDICTED BY IDOCK:   -7.85 KCAL/MOL
REMARK 923 INTER-LIGAND FREE ENERGY PREDICTED BY IDOCK:   -7.47 KCAL/MOL
REMARK 924 INTRA-LIGAND FREE ENERGY PREDICTED BY IDOCK:   -0.38 KCAL/MOL
REMARK 927      BINDING AFFINITY PREDICTED BY RF-SCORE:    0.00 PKD
ROOT
HETATM    1  C   UNL     1     -12.699  15.568  73.961  1.00  0.00    -0.543 C  
HETATM    2  O   UNL     1     -13.486  14.686  73.169  1.00  0.00    -0.581 OA 
ENDROOT
BRANCH   2   3
HETATM    3  C   UNL     1     -13.014  14.397  71.918  1.00  0.00    -0.349 A  
HETATM    4  C   UNL     1     -12.711  13.123  71.437  1.00  0.00    -0.390 A  
HETATM    5  C   UNL     1     -12.250  12.939  70.121  1.00  0.00    -0.336 A  
HETATM    6  C   UNL     1     -12.076  14.055  69.275  1.00  0.00    -0.380 A  
HETATM    7  C   UNL     1     -12.369  15.334  69.774  1.00  0.00    -0.288 A  
HETATM    8  C   UNL     1     -11.612  13.851  67.960  1.00  0.00    -0.368 A  
HETATM    9  C   UNL     1     -12.838  15.499  71.081  1.00  0.00    -0.551 A  
HETATM   10  C   UNL     1     -11.340  12.563  67.467  1.00  0.00    -0.368 A  
HETATM   11  C   UNL     1     -11.958  11.659  69.636  1.00  0.00    -0.390 A  
HETATM   12  C   UNL     1     -11.504  11.474  68.329  1.00  0.00    -0.368 A  
BRANCH  10  13
HETATM   13  C   UNL     1     -10.812  12.403  66.056  1.00  0.00    -0.308 C  
BRANCH  13  14
HETATM   14  C   UNL     1     -10.951  13.643  65.171  1.00  0.00    -0.334 C  
BRANCH  14  15
HETATM   15  C   UNL     1     -12.026  13.480  64.114  1.00  0.00    -0.448 C  
HETATM   16  O   UNL     1     -12.607  14.436  63.601  1.00  0.00    -0.817 OA 
HETATM   17  C   UNL     1     -12.356  12.069  63.700  1.00  0.00    -0.648 C  
ENDBRANCH  14  15
ENDBRANCH  13  14
ENDBRANCH  10  13
ENDBRANCH   2   3
TORSDOF 4
ENDMDL
MODEL        3
REMARK 921   NORMALIZED FREE ENERGY PREDICTED BY IDOCK:   -5.93 KCAL/MOL
REMARK 922        TOTAL FREE ENERGY PREDICTED BY IDOCK:   -7.70 KCAL/MOL
REMARK 923 INTER-LIGAND FREE ENERGY PREDICTED BY IDOCK:   -7.30 KCAL/MOL
REMARK 924 INTRA-LIGAND FREE ENERGY PREDICTED BY IDOCK:   -0.40 KCAL/MOL
REMARK 927      BINDING AFFINITY PREDICTED BY RF-SCORE:    0.00 PKD
ROOT
HETATM    1  C   UNL     1     -12.487   8.841  72.165  1.00  0.00    -0.393 C  
HETATM    2  O   UNL     1     -13.253  10.039  72.229  1.00  0.00    -0.427 OA 
ENDROOT
BRANCH   2   3
HETATM    3  C   UNL     1     -12.857  11.065  71.417  1.00  0.00    -0.443 A  
HETATM    4  C   UNL     1     -12.239  10.927  70.173  1.00  0.00    -0.423 A  
HETATM    5  C   UNL     1     -11.893  12.056  69.411  1.00  0.00    -0.384 A  
HETATM    6  C   UNL     1     -12.158  13.349  69.909  1.00  0.00    -0.389 A  
HETATM    7  C   UNL     1     -12.767  13.478  71.168  1.00  0.00    -0.425 A  
HETATM    8  C   UNL     1     -11.803  14.469  69.130  1.00  0.00    -0.354 A  
HETATM    9  C   UNL     1     -13.116  12.345  71.909  1.00  0.00    -0.471 A  
HETATM   10  C   UNL     1     -11.212  14.327  67.863  1.00  0.00    -0.305 A  
HETATM   11  C   UNL     1     -11.285  11.916  68.158  1.00  0.00    -0.316 A  
HETATM   12  C   UNL     1     -10.944  13.035  67.397  1.00  0.00    -0.284 A  
BRANCH  10  13
HETATM   13  C   UNL     1     -10.820  15.564  67.081  1.00  0.00    -0.316 C  
BRANCH  13  14
HETATM   14  C   UNL     1     -10.262  15.293  65.683  1.00  0.00    -0.398 C  
BRANCH  14  15
HETATM   15  C   UNL     1     -11.266  15.600  64.590  1.00  0.00    -0.369 C  
HETATM   16  O   UNL     1     -11.401  16.723  64.105  1.00  0.00    -1.194 OA 
HETATM   17  C   UNL     1     -12.109  14.449  64.104  1.00  0.00    -0.405 C  
ENDBRANCH  14  15
ENDBRANCH  13  14
ENDBRANCH  10  13
ENDBRANCH   2   3
TORSDOF 4
ENDMDL
MODEL        4
REMARK 921   NORMALIZED FREE ENERGY PREDICTED BY IDOCK:   -5.84 KCAL/MOL
REMARK 922        TOTAL FREE ENERGY PREDICTED BY IDOCK:   -7.60 KCAL/MOL
REMARK 923 INTER-LIGAND FREE ENERGY PREDICTED BY IDOCK:   -7.17 KCAL/MOL
REMARK 924 INTRA-LIGAND FREE ENERGY PREDICTED BY IDOCK:   -0.43 KCAL/MOL
REMARK 927      BINDING AFFINITY PREDICTED BY RF-SCORE:    0.00 PKD
ROOT
HETATM    1  C   UNL     1     -12.485   9.378  71.981  1.00  0.00    -0.365 C  
HETATM    2  O   UNL     1     -13.018  10.697  72.039  1.00  0.00    -0.461 OA 
ENDROOT
BRANCH   2   3
HETATM    3  C   UNL     1     -12.571  11.582  71.096  1.00  0.00    -0.359 A  
HETATM    4  C   UNL     1     -12.575  12.971  71.218  1.00  0.00    -0.373 A  
HETATM    5  C   UNL     1     -12.069  13.787  70.190  1.00  0.00    -0.429 A  
HETATM    6  C   UNL     1     -11.563  13.199  69.011  1.00  0.00    -0.360 A  
HETATM    7  C   UNL     1     -11.578  11.801  68.893  1.00  0.00    -0.370 A  
HETATM    8  C   UNL     1     -11.062  14.033  67.992  1.00  0.00    -0.282 A  
HETATM    9  C   UNL     1     -12.072  11.003  69.928  1.00  0.00    -0.435 A  
HETATM   10  C   UNL     1     -11.034  15.432  68.131  1.00  0.00    -0.297 A  
HETATM   11  C   UNL     1     -12.062  15.180  70.319  1.00  0.00    -0.385 A  
HETATM   12  C   UNL     1     -11.557  15.992  69.302  1.00  0.00    -0.331 A  
BRANCH  10  13
HETATM   13  C   UNL     1     -10.515  16.284  66.991  1.00  0.00    -0.306 C  
BRANCH  13  14
HETATM   14  C   UNL     1     -10.188  15.515  65.709  1.00  0.00    -0.390 C  
BRANCH  14  15
HETATM   15  C   UNL     1     -11.253  15.689  64.645  1.00  0.00    -0.369 C  
HETATM   16  O   UNL     1     -11.461  16.761  64.078  1.00  0.00    -1.198 OA 
HETATM   17  C   UNL     1     -12.062  14.466  64.294  1.00  0.00    -0.461 C  
ENDBRANCH  14  15
ENDBRANCH  13  14
ENDBRANCH  10  13
ENDBRANCH   2   3
TORSDOF 4
ENDMDL
MODEL        5
REMARK 921   NORMALIZED FREE ENERGY PREDICTED BY IDOCK:   -5.84 KCAL/MOL
REMARK 922        TOTAL FREE ENERGY PREDICTED BY IDOCK:   -7.59 KCAL/MOL
REMARK 923 INTER-LIGAND FREE ENERGY PREDICTED BY IDOCK:   -7.27 KCAL/MOL
REMARK 924 INTRA-LIGAND FREE ENERGY PREDICTED BY IDOCK:   -0.32 KCAL/MOL
REMARK 927      BINDING AFFINITY PREDICTED BY RF-SCORE:    0.00 PKD
ROOT
HETATM    1  C   UNL     1     -11.151  11.874  64.054  1.00  0.00    -0.391 C  
HETATM    2  O   UNL     1     -10.389  12.707  64.920  1.00  0.00    -0.296 OA 
ENDROOT
BRANCH   2   3
HETATM    3  C   UNL     1     -10.897  12.918  66.172  1.00  0.00    -0.279 A  
HETATM    4  C   UNL     1     -11.070  11.944  67.156  1.00  0.00    -0.347 A  
HETATM    5  C   UNL     1     -11.584  12.279  68.421  1.00  0.00    -0.377 A  
HETATM    6  C   UNL     1     -11.943  13.614  68.702  1.00  0.00    -0.395 A  
HETATM    7  C   UNL     1     -11.779  14.584  67.701  1.00  0.00    -0.410 A  
HETATM    8  C   UNL     1     -12.457  13.930  69.976  1.00  0.00    -0.325 A  
HETATM    9  C   UNL     1     -11.256  14.238  66.452  1.00  0.00    -0.337 A  
HETATM   10  C   UNL     1     -12.598  12.953  70.976  1.00  0.00    -0.376 A  
HETATM   11  C   UNL     1     -11.745  11.302  69.410  1.00  0.00    -0.409 A  
HETATM   12  C   UNL     1     -12.250  11.633  70.668  1.00  0.00    -0.461 A  
BRANCH  10  13
HETATM   13  C   UNL     1     -13.187  13.340  72.318  1.00  0.00    -0.567 C  
BRANCH  13  14
HETATM   14  C   UNL     1     -13.667  14.789  72.416  1.00  0.00    -0.576 C  
BRANCH  14  15
HETATM   15  C   UNL     1     -12.631  15.700  73.044  1.00  0.00    -0.459 C  
HETATM   16  O   UNL     1     -12.016  16.552  72.403  1.00  0.00    -0.513 OA 
HETATM   17  C   UNL     1     -12.382  15.523  74.520  1.00  0.00    -0.756 C  
ENDBRANCH  14  15
ENDBRANCH  13  14
ENDBRANCH  10  13
ENDBRANCH   2   3
TORSDOF 4
ENDMDL
MODEL        6
REMARK 921   NORMALIZED FREE ENERGY PREDICTED BY IDOCK:   -5.73 KCAL/MOL
REMARK 922        TOTAL FREE ENERGY PREDICTED BY IDOCK:   -7.46 KCAL/MOL
REMARK 923 INTER-LIGAND FREE ENERGY PREDICTED BY IDOCK:   -7.09 KCAL/MOL
REMARK 924 INTRA-LIGAND FREE ENERGY PREDICTED BY IDOCK:   -0.37 KCAL/MOL
REMARK 927      BINDING AFFINITY PREDICTED BY RF-SCORE:    0.00 PKD
ROOT
HETATM    1  C   UNL     1     -13.494  15.501  73.051  1.00  0.00    -0.536 C  
HETATM    2  O   UNL     1     -12.144  15.454  72.602  1.00  0.00    -0.363 OA 
ENDROOT
BRANCH   2   3
HETATM    3  C   UNL     1     -11.948  15.186  71.275  1.00  0.00    -0.344 A  
HETATM    4  C   UNL     1     -11.423  16.073  70.335  1.00  0.00    -0.392 A  
HETATM    5  C   UNL     1     -11.245  15.683  68.996  1.00  0.00    -0.306 A  
HETATM    6  C   UNL     1     -11.611  14.383  68.588  1.00  0.00    -0.347 A  
HETATM    7  C   UNL     1     -12.152  13.503  69.538  1.00  0.00    -0.352 A  
HETATM    8  C   UNL     1     -11.425  14.010  67.241  1.00  0.00    -0.372 A  
HETATM    9  C   UNL     1     -12.313  13.902  70.869  1.00  0.00    -0.451 A  
HETATM   10  C   UNL     1     -10.864  14.894  66.303  1.00  0.00    -0.331 A  
HETATM   11  C   UNL     1     -10.707  16.570  68.057  1.00  0.00    -0.343 A  
HETATM   12  C   UNL     1     -10.524  16.183  66.728  1.00  0.00    -0.294 A  
BRANCH  10  13
HETATM   13  C   UNL     1     -10.717  14.454  64.861  1.00  0.00    -0.444 C  
BRANCH  13  14
HETATM   14  C   UNL     1     -12.030  14.113  64.154  1.00  0.00    -0.421 C  
BRANCH  14  15
HETATM   15  C   UNL     1     -12.095  12.661  63.727  1.00  0.00    -0.522 C  
HETATM   16  O   UNL     1     -13.156  12.082  63.490  1.00  0.00    -0.764 OA 
HETATM   17  C   UNL     1     -10.780  11.937  63.593  1.00  0.00    -0.502 C  
ENDBRANCH  14  15
ENDBRANCH  13  14
ENDBRANCH  10  13
ENDBRANCH   2   3
TORSDOF 4
ENDMDL
MODEL        7
REMARK 921   NORMALIZED FREE ENERGY PREDICTED BY IDOCK:   -5.73 KCAL/MOL
REMARK 922        TOTAL FREE ENERGY PREDICTED BY IDOCK:   -7.45 KCAL/MOL
REMARK 923 INTER-LIGAND FREE ENERGY PREDICTED BY IDOCK:   -7.11 KCAL/MOL
REMARK 924 INTRA-LIGAND FREE ENERGY PREDICTED BY IDOCK:   -0.34 KCAL/MOL
REMARK 927      BINDING AFFINITY PREDICTED BY RF-SCORE:    0.00 PKD
ROOT
HETATM    1  C   UNL     1     -10.767   5.779  69.620  1.00  0.00    -0.346 C  
HETATM    2  O   UNL     1     -11.418   6.127  70.837  1.00  0.00    -0.315 OA 
ENDROOT
BRANCH   2   3
HETATM    3  C   UNL     1     -11.775   7.438  70.990  1.00  0.00    -0.297 A  
HETATM    4  C   UNL     1     -11.265   8.511  70.259  1.00  0.00    -0.185 A  
HETATM    5  C   UNL     1     -11.722   9.821  70.486  1.00  0.00    -0.343 A  
HETATM    6  C   UNL     1     -12.698  10.063  71.475  1.00  0.00    -0.532 A  
HETATM    7  C   UNL     1     -13.194   8.979  72.216  1.00  0.00    -0.519 A  
HETATM    8  C   UNL     1     -13.143  11.383  71.690  1.00  0.00    -0.498 A  
HETATM    9  C   UNL     1     -12.739   7.680  71.970  1.00  0.00    -0.261 A  
HETATM   10  C   UNL     1     -12.653  12.458  70.927  1.00  0.00    -0.337 A  
HETATM   11  C   UNL     1     -11.218  10.894  69.743  1.00  0.00    -0.351 A  
HETATM   12  C   UNL     1     -11.673  12.196  69.963  1.00  0.00    -0.330 A  
BRANCH  10  13
HETATM   13  C   UNL     1     -13.140  13.862  71.221  1.00  0.00    -0.385 C  
BRANCH  13  14
HETATM   14  C   UNL     1     -13.421  14.152  72.696  1.00  0.00    -0.634 C  
BRANCH  14  15
HETATM   15  C   UNL     1     -12.562  15.277  73.238  1.00  0.00    -0.499 C  
HETATM   16  O   UNL     1     -12.383  15.459  74.442  1.00  0.00    -0.641 OA 
HETATM   17  C   UNL     1     -11.912  16.179  72.220  1.00  0.00    -0.637 C  
ENDBRANCH  14  15
ENDBRANCH  13  14
ENDBRANCH  10  13
ENDBRANCH   2   3
TORSDOF 4
ENDMDL
MODEL        8
REMARK 921   NORMALIZED FREE ENERGY PREDICTED BY IDOCK:   -5.69 KCAL/MOL
REMARK 922        TOTAL FREE ENERGY PREDICTED BY IDOCK:   -7.40 KCAL/MOL
REMARK 923 INTER-LIGAND FREE ENERGY PREDICTED BY IDOCK:   -7.11 KCAL/MOL
REMARK 924 INTRA-LIGAND FREE ENERGY PREDICTED BY IDOCK:   -0.29 KCAL/MOL
REMARK 927      BINDING AFFINITY PREDICTED BY RF-SCORE:    0.00 PKD
ROOT
HETATM    1  C   UNL     1     -10.227  11.134  63.518  1.00  0.00    -0.390 C  
HETATM    2  O   UNL     1     -10.403  12.541  63.643  1.00  0.00    -0.422 OA 
ENDROOT
BRANCH   2   3
HETATM    3  C   UNL     1     -10.748  13.009  64.882  1.00  0.00    -0.332 A  
HETATM    4  C   UNL     1     -10.545  14.308  65.346  1.00  0.00    -0.367 A  
HETATM    5  C   UNL     1     -10.960  14.687  66.635  1.00  0.00    -0.323 A  
HETATM    6  C   UNL     1     -11.578  13.741  67.480  1.00  0.00    -0.387 A  
HETATM    7  C   UNL     1     -11.764  12.432  67.009  1.00  0.00    -0.423 A  
HETATM    8  C   UNL     1     -11.986  14.139  68.769  1.00  0.00    -0.367 A  
HETATM    9  C   UNL     1     -11.356  12.074  65.721  1.00  0.00    -0.384 A  
HETATM   10  C   UNL     1     -11.812  15.459  69.222  1.00  0.00    -0.365 A  
HETATM   11  C   UNL     1     -10.767  15.994  67.094  1.00  0.00    -0.283 A  
HETATM   12  C   UNL     1     -11.182  16.374  68.372  1.00  0.00    -0.324 A  
BRANCH  10  13
HETATM   13  C   UNL     1     -12.239  15.825  70.628  1.00  0.00    -0.422 C  
BRANCH  13  14
HETATM   14  C   UNL     1     -13.599  15.267  71.055  1.00  0.00    -0.486 C  
BRANCH  14  15
HETATM   15  C   UNL     1     -13.583  14.732  72.473  1.00  0.00    -0.468 C  
HETATM   16  O   UNL     1     -13.897  13.576  72.753  1.00  0.00    -0.730 OA 
HETATM   17  C   UNL     1     -13.150  15.692  73.552  1.00  0.00    -0.638 C  
ENDBRANCH  14  15
ENDBRANCH  13  14
ENDBRANCH  10  13
ENDBRANCH   2   3
TORSDOF 4
ENDMDL
MODEL        9
REMARK 921   NORMALIZED FREE ENERGY PREDICTED BY IDOCK:   -5.66 KCAL/MOL
REMARK 922        TOTAL FREE ENERGY PREDICTED BY IDOCK:   -7.36 KCAL/MOL
REMARK 923 INTER-LIGAND FREE ENERGY PREDICTED BY IDOCK:   -7.13 KCAL/MOL
REMARK 924 INTRA-LIGAND FREE ENERGY PREDICTED BY IDOCK:   -0.24 KCAL/MOL
REMARK 927      BINDING AFFINITY PREDICTED BY RF-SCORE:    0.00 PKD
ROOT
HETATM    1  C   UNL     1      -9.838  10.405  64.149  1.00  0.00    -0.313 C  
HETATM    2  O   UNL     1     -10.947  11.289  64.029  1.00  0.00    -0.377 OA 
ENDROOT
BRANCH   2   3
HETATM    3  C   UNL     1     -11.192  12.114  65.092  1.00  0.00    -0.329 A  
HETATM    4  C   UNL     1     -11.328  11.711  66.421  1.00  0.00    -0.312 A  
HETATM    5  C   UNL     1     -11.559  12.651  67.440  1.00  0.00    -0.421 A  
HETATM    6  C   UNL     1     -11.671  14.021  67.121  1.00  0.00    -0.421 A  
HETATM    7  C   UNL     1     -11.547  14.415  65.779  1.00  0.00    -0.353 A  
HETATM    8  C   UNL     1     -11.904  14.948  68.156  1.00  0.00    -0.307 A  
HETATM    9  C   UNL     1     -11.306  13.469  64.778  1.00  0.00    -0.362 A  
HETATM   10  C   UNL     1     -12.005  14.543  69.498  1.00  0.00    -0.363 A  
HETATM   11  C   UNL     1     -11.683  12.246  68.774  1.00  0.00    -0.390 A  
HETATM   12  C   UNL     1     -11.908  13.178  69.789  1.00  0.00    -0.386 A  
BRANCH  10  13
HETATM   13  C   UNL     1     -12.289  15.578  70.568  1.00  0.00    -0.461 C  
BRANCH  13  14
HETATM   14  C   UNL     1     -11.915  15.153  71.990  1.00  0.00    -0.479 C  
BRANCH  14  15
HETATM   15  C   UNL     1     -12.910  15.648  73.020  1.00  0.00    -0.490 C  
HETATM   16  O   UNL     1     -14.085  15.894  72.749  1.00  0.00    -0.567 OA 
HETATM   17  C   UNL     1     -12.395  15.822  74.426  1.00  0.00    -0.796 C  
ENDBRANCH  14  15
ENDBRANCH  13  14
ENDBRANCH  10  13
ENDBRANCH   2   3
TORSDOF 4
ENDMDL
MODEL       10
REMARK 921   NORMALIZED FREE ENERGY PREDICTED BY IDOCK:   -5.63 KCAL/MOL
REMARK 922        TOTAL FREE ENERGY PREDICTED BY IDOCK:   -7.33 KCAL/MOL
REMARK 923 INTER-LIGAND FREE ENERGY PREDICTED BY IDOCK:   -6.92 KCAL/MOL
REMARK 924 INTRA-LIGAND FREE ENERGY PREDICTED BY IDOCK:   -0.41 KCAL/MOL
REMARK 927      BINDING AFFINITY PREDICTED BY RF-SCORE:    0.00 PKD
ROOT
HETATM    1  C   UNL     1     -11.806   6.642  70.768  1.00  0.00    -0.383 C  
HETATM    2  O   UNL     1     -10.919   7.680  70.366  1.00  0.00    -0.243 OA 
ENDROOT
BRANCH   2   3
HETATM    3  C   UNL     1     -11.362   8.964  70.530  1.00  0.00    -0.234 A  
HETATM    4  C   UNL     1     -11.001  10.056  69.741  1.00  0.00    -0.317 A  
HETATM    5  C   UNL     1     -11.536  11.332  69.989  1.00  0.00    -0.359 A  
HETATM    6  C   UNL     1     -12.439  11.521  71.056  1.00  0.00    -0.458 A  
HETATM    7  C   UNL     1     -12.784  10.418  71.853  1.00  0.00    -0.459 A  
HETATM    8  C   UNL     1     -12.964  12.808  71.289  1.00  0.00    -0.310 A  
HETATM    9  C   UNL     1     -12.253   9.153  71.587  1.00  0.00    -0.433 A  
HETATM   10  C   UNL     1     -12.625  13.900  70.471  1.00  0.00    -0.382 A  
HETATM   11  C   UNL     1     -11.182  12.425  69.189  1.00  0.00    -0.295 A  
HETATM   12  C   UNL     1     -11.715  13.692  69.429  1.00  0.00    -0.379 A  
BRANCH  10  13
HETATM   13  C   UNL     1     -13.192  15.270  70.786  1.00  0.00    -0.442 C  
BRANCH  13  14
HETATM   14  C   UNL     1     -13.613  15.474  72.243  1.00  0.00    -0.618 C  
BRANCH  14  15
HETATM   15  C   UNL     1     -12.505  16.077  73.084  1.00  0.00    -0.526 C  
HETATM   16  O   UNL     1     -11.738  16.940  72.657  1.00  0.00    -0.329 OA 
HETATM   17  C   UNL     1     -12.383  15.573  74.499  1.00  0.00    -0.756 C  
ENDBRANCH  14  15
ENDBRANCH  13  14
ENDBRANCH  10  13
ENDBRANCH   2   3
TORSDOF 4
ENDMDL
MODEL       11
REMARK 921   NORMALIZED FREE ENERGY PREDICTED BY IDOCK:   -5.60 KCAL/MOL
REMARK 922        TOTAL FREE ENERGY PREDICTED BY IDOCK:   -7.29 KCAL/MOL
REMARK 923 INTER-LIGAND FREE ENERGY PREDICTED BY IDOCK:   -6.97 KCAL/MOL
REMARK 924 INTRA-LIGAND FREE ENERGY PREDICTED BY IDOCK:   -0.32 KCAL/MOL
REMARK 927      BINDING AFFINITY PREDICTED BY RF-SCORE:    0.00 PKD
ROOT
HETATM    1  C   UNL     1     -12.850  15.771  73.586  1.00  0.00    -0.592 C  
HETATM    2  O   UNL     1     -13.646  14.694  73.103  1.00  0.00    -0.569 OA 
ENDROOT
BRANCH   2   3
HETATM    3  C   UNL     1     -13.186  14.040  71.993  1.00  0.00    -0.412 A  
HETATM    4  C   UNL     1     -12.720  14.646  70.826  1.00  0.00    -0.422 A  
HETATM    5  C   UNL     1     -12.249  13.873  69.751  1.00  0.00    -0.388 A  
HETATM    6  C   UNL     1     -12.257  12.465  69.840  1.00  0.00    -0.227 A  
HETATM    7  C   UNL     1     -12.742  11.864  71.013  1.00  0.00    -0.354 A  
HETATM    8  C   UNL     1     -11.782  11.707  68.752  1.00  0.00    -0.392 A  
HETATM    9  C   UNL     1     -13.196  12.647  72.079  1.00  0.00    -0.531 A  
HETATM   10  C   UNL     1     -11.280  12.320  67.590  1.00  0.00    -0.346 A  
HETATM   11  C   UNL     1     -11.770  14.483  68.586  1.00  0.00    -0.364 A  
HETATM   12  C   UNL     1     -11.297  13.718  67.518  1.00  0.00    -0.334 A  
BRANCH  10  13
HETATM   13  C   UNL     1     -10.812  11.458  66.436  1.00  0.00    -0.323 C  
BRANCH  13  14
HETATM   14  C   UNL     1     -10.325  12.233  65.210  1.00  0.00    -0.311 C  
BRANCH  14  15
HETATM   15  C   UNL     1     -10.930  11.713  63.921  1.00  0.00    -0.407 C  
HETATM   16  O   UNL     1     -10.376  10.869  63.216  1.00  0.00    -0.325 OA 
HETATM   17  C   UNL     1     -12.272  12.277  63.531  1.00  0.00    -0.669 C  
ENDBRANCH  14  15
ENDBRANCH  13  14
ENDBRANCH  10  13
ENDBRANCH   2   3
TORSDOF 4
ENDMDL
MODEL       12
REMARK 921   NORMALIZED FREE ENERGY PREDICTED BY IDOCK:   -5.56 KCAL/MOL
REMARK 922        TOTAL FREE ENERGY PREDICTED BY IDOCK:   -7.25 KCAL/MOL
REMARK 923 INTER-LIGAND FREE ENERGY PREDICTED BY IDOCK:   -6.95 KCAL/MOL
REMARK 924 INTRA-LIGAND FREE ENERGY PREDICTED BY IDOCK:   -0.30 KCAL/MOL
REMARK 927      BINDING AFFINITY PREDICTED BY RF-SCORE:    0.00 PKD
ROOT
HETATM    1  C   UNL     1     -14.023   8.433  71.611  1.00  0.00    -0.399 C  
HETATM    2  O   UNL     1     -13.430   9.478  72.375  1.00  0.00    -0.453 OA 
ENDROOT
BRANCH   2   3
HETATM    3  C   UNL     1     -13.036  10.593  71.688  1.00  0.00    -0.477 A  
HETATM    4  C   UNL     1     -13.282  11.912  72.070  1.00  0.00    -0.461 A  
HETATM    5  C   UNL     1     -12.809  12.987  71.295  1.00  0.00    -0.370 A  
HETATM    6  C   UNL     1     -12.088  12.735  70.109  1.00  0.00    -0.370 A  
HETATM    7  C   UNL     1     -11.859  11.404  69.727  1.00  0.00    -0.435 A  
HETATM    8  C   UNL     1     -11.624  13.825  69.347  1.00  0.00    -0.365 A  
HETATM    9  C   UNL     1     -12.325  10.346  70.513  1.00  0.00    -0.410 A  
HETATM   10  C   UNL     1     -11.843  15.153  69.751  1.00  0.00    -0.364 A  
HETATM   11  C   UNL     1     -13.046  14.310  71.686  1.00  0.00    -0.417 A  
HETATM   12  C   UNL     1     -12.575  15.378  70.922  1.00  0.00    -0.496 A  
BRANCH  10  13
HETATM   13  C   UNL     1     -11.350  16.288  68.877  1.00  0.00    -0.317 C  
BRANCH  13  14
HETATM   14  C   UNL     1     -10.884  15.871  67.480  1.00  0.00    -0.305 C  
BRANCH  14  15
HETATM   15  C   UNL     1     -10.405  17.049  66.656  1.00  0.00    -0.299 C  
HETATM   16  O   UNL     1      -9.964  16.928  65.513  1.00  0.00    -0.572 OA 
HETATM   17  C   UNL     1     -10.500  18.408  67.302  1.00  0.00    -0.434 C  
ENDBRANCH  14  15
ENDBRANCH  13  14
ENDBRANCH  10  13
ENDBRANCH   2   3
TORSDOF 4
ENDMDL
MODEL       13
REMARK 921   NORMALIZED FREE ENERGY PREDICTED BY IDOCK:   -5.54 KCAL/MOL
REMARK 922        TOTAL FREE ENERGY PREDICTED BY IDOCK:   -7.22 KCAL/MOL
REMARK 923 INTER-LIGAND FREE ENERGY PREDICTED BY IDOCK:   -6.86 KCAL/MOL
REMARK 924 INTRA-LIGAND FREE ENERGY PREDICTED BY IDOCK:   -0.36 KCAL/MOL
REMARK 927      BINDING AFFINITY PREDICTED BY RF-SCORE:    0.00 PKD
ROOT
HETATM    1  C   UNL     1     -10.906   7.674  73.039  1.00  0.00    -0.400 C  
HETATM    2  O   UNL     1     -12.101   8.294  72.574  1.00  0.00    -0.385 OA 
ENDROOT
BRANCH   2   3
HETATM    3  C   UNL     1     -11.968   9.198  71.557  1.00  0.00    -0.352 A  
HETATM    4  C   UNL     1     -11.218   9.012  70.396  1.00  0.00    -0.275 A  
HETATM    5  C   UNL     1     -11.170  10.005  69.402  1.00  0.00    -0.235 A  
HETATM    6  C   UNL     1     -11.876  11.213  69.580  1.00  0.00    -0.423 A  
HETATM    7  C   UNL     1     -12.617  11.396  70.758  1.00  0.00    -0.409 A  
HETATM    8  C   UNL     1     -11.815  12.197  68.572  1.00  0.00    -0.365 A  
HETATM    9  C   UNL     1     -12.665  10.395  71.733  1.00  0.00    -0.525 A  
HETATM   10  C   UNL     1     -11.086  11.994  67.388  1.00  0.00    -0.337 A  
HETATM   11  C   UNL     1     -10.426   9.812  68.232  1.00  0.00    -0.255 A  
HETATM   12  C   UNL     1     -10.380  10.794  67.241  1.00  0.00    -0.262 A  
BRANCH  10  13
HETATM   13  C   UNL     1     -11.027  13.097  66.351  1.00  0.00    -0.305 C  
BRANCH  13  14
HETATM   14  C   UNL     1     -12.318  13.306  65.558  1.00  0.00    -0.533 C  
BRANCH  14  15
HETATM   15  C   UNL     1     -12.109  13.160  64.065  1.00  0.00    -0.446 C  
HETATM   16  O   UNL     1     -12.648  13.898  63.240  1.00  0.00    -0.824 OA 
HETATM   17  C   UNL     1     -11.185  12.055  63.618  1.00  0.00    -0.528 C  
ENDBRANCH  14  15
ENDBRANCH  13  14
ENDBRANCH  10  13
ENDBRANCH   2   3
TORSDOF 4
ENDMDL
MODEL       14
REMARK 921   NORMALIZED FREE ENERGY PREDICTED BY IDOCK:   -5.54 KCAL/MOL
REMARK 922        TOTAL FREE ENERGY PREDICTED BY IDOCK:   -7.22 KCAL/MOL
REMARK 923 INTER-LIGAND FREE ENERGY PREDICTED BY IDOCK:   -6.88 KCAL/MOL
REMARK 924 INTRA-LIGAND FREE ENERGY PREDICTED BY IDOCK:   -0.34 KCAL/MOL
REMARK 927      BINDING AFFINITY PREDICTED BY RF-SCORE:    0.00 PKD
ROOT
HETATM    1  C   UNL     1      -9.992  16.977  68.621  1.00  0.00    -0.294 C  
HETATM    2  O   UNL     1     -11.364  16.609  68.537  1.00  0.00    -0.317 OA 
ENDROOT
BRANCH   2   3
HETATM    3  C   UNL     1     -11.744  15.494  69.233  1.00  0.00    -0.365 A  
HETATM    4  C   UNL     1     -11.592  14.176  68.803  1.00  0.00    -0.362 A  
HETATM    5  C   UNL     1     -12.002  13.101  69.612  1.00  0.00    -0.370 A  
HETATM    6  C   UNL     1     -12.586  13.353  70.871  1.00  0.00    -0.406 A  
HETATM    7  C   UNL     1     -12.748  14.683  71.288  1.00  0.00    -0.402 A  
HETATM    8  C   UNL     1     -12.991  12.263  71.667  1.00  0.00    -0.416 A  
HETATM    9  C   UNL     1     -12.325  15.741  70.477  1.00  0.00    -0.388 A  
HETATM   10  C   UNL     1     -12.806  10.934  71.247  1.00  0.00    -0.536 A  
HETATM   11  C   UNL     1     -11.837  11.779  69.184  1.00  0.00    -0.389 A  
HETATM   12  C   UNL     1     -12.239  10.710  69.987  1.00  0.00    -0.373 A  
BRANCH  10  13
HETATM   13  C   UNL     1     -13.288   9.800  72.127  1.00  0.00    -0.527 C  
BRANCH  13  14
HETATM   14  C   UNL     1     -12.317   8.624  72.254  1.00  0.00    -0.449 C  
BRANCH  14  15
HETATM   15  C   UNL     1     -12.836   7.371  71.578  1.00  0.00    -0.375 C  
HETATM   16  O   UNL     1     -12.094   6.493  71.142  1.00  0.00    -0.350 OA 
HETATM   17  C   UNL     1     -14.334   7.236  71.467  1.00  0.00    -0.558 C  
ENDBRANCH  14  15
ENDBRANCH  13  14
ENDBRANCH  10  13
ENDBRANCH   2   3
TORSDOF 4
ENDMDL
MODEL       15
REMARK 921   NORMALIZED FREE ENERGY PREDICTED BY IDOCK:   -5.50 KCAL/MOL
REMARK 922        TOTAL FREE ENERGY PREDICTED BY IDOCK:   -7.17 KCAL/MOL
REMARK 923 INTER-LIGAND FREE ENERGY PREDICTED BY IDOCK:   -6.74 KCAL/MOL
REMARK 924 INTRA-LIGAND FREE ENERGY PREDICTED BY IDOCK:   -0.42 KCAL/MOL
REMARK 927      BINDING AFFINITY PREDICTED BY RF-SCORE:    0.00 PKD
ROOT
HETATM    1  C   UNL     1     -10.025  17.354  68.625  1.00  0.00    -0.340 C  
HETATM    2  O   UNL     1     -11.217  16.697  68.209  1.00  0.00    -0.349 OA 
ENDROOT
BRANCH   2   3
HETATM    3  C   UNL     1     -11.497  15.498  68.805  1.00  0.00    -0.355 A  
HETATM    4  C   UNL     1     -12.153  15.329  70.025  1.00  0.00    -0.386 A  
HETATM    5  C   UNL     1     -12.408  14.044  70.535  1.00  0.00    -0.437 A  
HETATM    6  C   UNL     1     -11.986  12.906  69.815  1.00  0.00    -0.365 A  
HETATM    7  C   UNL     1     -11.314  13.087  68.596  1.00  0.00    -0.329 A  
HETATM    8  C   UNL     1     -12.250  11.626  70.343  1.00  0.00    -0.434 A  
HETATM    9  C   UNL     1     -11.078  14.371  68.096  1.00  0.00    -0.279 A  
HETATM   10  C   UNL     1     -12.941  11.458  71.556  1.00  0.00    -0.505 A  
HETATM   11  C   UNL     1     -13.076  13.877  71.753  1.00  0.00    -0.458 A  
HETATM   12  C   UNL     1     -13.335  12.602  72.259  1.00  0.00    -0.527 A  
BRANCH  10  13
HETATM   13  C   UNL     1     -13.170  10.061  72.094  1.00  0.00    -0.489 C  
BRANCH  13  14
HETATM   14  C   UNL     1     -12.422   8.953  71.350  1.00  0.00    -0.357 C  
BRANCH  14  15
HETATM   15  C   UNL     1     -11.162   8.522  72.072  1.00  0.00    -0.348 C  
HETATM   16  O   UNL     1     -11.177   7.796  73.067  1.00  0.00    -0.405 OA 
HETATM   17  C   UNL     1      -9.856   9.020  71.507  1.00  0.00    -0.381 C  
ENDBRANCH  14  15
ENDBRANCH  13  14
ENDBRANCH  10  13
ENDBRANCH   2   3
TORSDOF 4
ENDMDL
MODEL       16
REMARK 921   NORMALIZED FREE ENERGY PREDICTED BY IDOCK:   -5.45 KCAL/MOL
REMARK 922        TOTAL FREE ENERGY PREDICTED BY IDOCK:   -7.11 KCAL/MOL
REMARK 923 INTER-LIGAND FREE ENERGY PREDICTED BY IDOCK:   -6.71 KCAL/MOL
REMARK 924 INTRA-LIGAND FREE ENERGY PREDICTED BY IDOCK:   -0.41 KCAL/MOL
REMARK 927      BINDING AFFINITY PREDICTED BY RF-SCORE:    0.00 PKD
ROOT
HETATM    1  C   UNL     1     -10.782   7.629  72.882  1.00  0.00    -0.371 C  
HETATM    2  O   UNL     1     -11.937   8.431  72.661  1.00  0.00    -0.396 OA 
ENDROOT
BRANCH   2   3
HETATM    3  C   UNL     1     -11.851   9.372  71.672  1.00  0.00    -0.394 A  
HETATM    4  C   UNL     1     -11.003   9.316  70.566  1.00  0.00    -0.318 A  
HETATM    5  C   UNL     1     -11.013  10.333  69.596  1.00  0.00    -0.314 A  
HETATM    6  C   UNL     1     -11.881  11.436  69.743  1.00  0.00    -0.435 A  
HETATM    7  C   UNL     1     -12.721  11.491  70.867  1.00  0.00    -0.372 A  
HETATM    8  C   UNL     1     -11.877  12.446  68.761  1.00  0.00    -0.358 A  
HETATM    9  C   UNL     1     -12.707  10.465  71.817  1.00  0.00    -0.525 A  
HETATM   10  C   UNL     1     -11.045  12.370  67.630  1.00  0.00    -0.306 A  
HETATM   11  C   UNL     1     -10.170  10.269  68.481  1.00  0.00    -0.192 A  
HETATM   12  C   UNL     1     -10.181  11.276  67.514  1.00  0.00    -0.217 A  
BRANCH  10  13
HETATM   13  C   UNL     1     -11.056  13.500  66.621  1.00  0.00    -0.309 C  
BRANCH  13  14
HETATM   14  C   UNL     1     -12.378  13.683  65.872  1.00  0.00    -0.516 C  
BRANCH  14  15
HETATM   15  C   UNL     1     -12.468  12.810  64.637  1.00  0.00    -0.456 C  
HETATM   16  O   UNL     1     -13.497  12.216  64.313  1.00  0.00    -0.708 OA 
HETATM   17  C   UNL     1     -11.222  12.701  63.796  1.00  0.00    -0.519 C  
ENDBRANCH  14  15
ENDBRANCH  13  14
ENDBRANCH  10  13
ENDBRANCH   2   3
TORSDOF 4
ENDMDL
MODEL       17
REMARK 921   NORMALIZED FREE ENERGY PREDICTED BY IDOCK:   -5.44 KCAL/MOL
REMARK 922        TOTAL FREE ENERGY PREDICTED BY IDOCK:   -7.10 KCAL/MOL
REMARK 923 INTER-LIGAND FREE ENERGY PREDICTED BY IDOCK:   -6.74 KCAL/MOL
REMARK 924 INTRA-LIGAND FREE ENERGY PREDICTED BY IDOCK:   -0.36 KCAL/MOL
REMARK 927      BINDING AFFINITY PREDICTED BY RF-SCORE:    0.00 PKD
ROOT
HETATM    1  C   UNL     1     -11.133   5.925  72.155  1.00  0.00    -0.281 C  
HETATM    2  O   UNL     1     -11.331   6.419  70.835  1.00  0.00    -0.304 OA 
ENDROOT
BRANCH   2   3
HETATM    3  C   UNL     1     -11.485   7.772  70.702  1.00  0.00    -0.245 A  
HETATM    4  C   UNL     1     -12.311   8.578  71.485  1.00  0.00    -0.354 A  
HETATM    5  C   UNL     1     -12.375   9.966  71.272  1.00  0.00    -0.478 A  
HETATM    6  C   UNL     1     -11.607  10.556  70.247  1.00  0.00    -0.417 A  
HETATM    7  C   UNL     1     -10.790   9.734  69.455  1.00  0.00    -0.256 A  
HETATM    8  C   UNL     1     -11.686  11.949  70.048  1.00  0.00    -0.366 A  
HETATM    9  C   UNL     1     -10.728   8.357  69.686  1.00  0.00    -0.201 A  
HETATM   10  C   UNL     1     -12.493  12.765  70.861  1.00  0.00    -0.373 A  
HETATM   11  C   UNL     1     -13.195  10.775  72.067  1.00  0.00    -0.466 A  
HETATM   12  C   UNL     1     -13.258  12.154  71.862  1.00  0.00    -0.474 A  
BRANCH  10  13
HETATM   13  C   UNL     1     -12.566  14.252  70.584  1.00  0.00    -0.424 C  
BRANCH  13  14
HETATM   14  C   UNL     1     -13.710  14.984  71.291  1.00  0.00    -0.523 C  
BRANCH  14  15
HETATM   15  C   UNL     1     -13.226  15.819  72.459  1.00  0.00    -0.487 C  
HETATM   16  O   UNL     1     -13.950  16.123  73.406  1.00  0.00    -0.488 OA 
HETATM   17  C   UNL     1     -11.787  16.268  72.417  1.00  0.00    -0.606 C  
ENDBRANCH  14  15
ENDBRANCH  13  14
ENDBRANCH  10  13
ENDBRANCH   2   3
TORSDOF 4
ENDMDL
MODEL       18
REMARK 921   NORMALIZED FREE ENERGY PREDICTED BY IDOCK:   -5.43 KCAL/MOL
REMARK 922        TOTAL FREE ENERGY PREDICTED BY IDOCK:   -7.08 KCAL/MOL
REMARK 923 INTER-LIGAND FREE ENERGY PREDICTED BY IDOCK:   -6.86 KCAL/MOL
REMARK 924 INTRA-LIGAND FREE ENERGY PREDICTED BY IDOCK:   -0.22 KCAL/MOL
REMARK 927      BINDING AFFINITY PREDICTED BY RF-SCORE:    0.00 PKD
ROOT
HETATM    1  C   UNL     1      -9.847   6.820  73.271  1.00  0.00    -0.190 C  
HETATM    2  O   UNL     1     -11.082   7.528  73.302  1.00  0.00    -0.378 OA 
ENDROOT
BRANCH   2   3
HETATM    3  C   UNL     1     -11.288   8.446  72.309  1.00  0.00    -0.378 A  
HETATM    4  C   UNL     1     -10.343   8.852  71.367  1.00  0.00    -0.377 A  
HETATM    5  C   UNL     1     -10.671   9.792  70.374  1.00  0.00    -0.368 A  
HETATM    6  C   UNL     1     -11.968  10.346  70.333  1.00  0.00    -0.409 A  
HETATM    7  C   UNL     1     -12.908   9.942  71.294  1.00  0.00    -0.486 A  
HETATM    8  C   UNL     1     -12.279  11.287  69.331  1.00  0.00    -0.315 A  
HETATM    9  C   UNL     1     -12.569   8.997  72.268  1.00  0.00    -0.445 A  
HETATM   10  C   UNL     1     -11.335  11.669  68.361  1.00  0.00    -0.339 A  
HETATM   11  C   UNL     1      -9.726  10.189  69.422  1.00  0.00    -0.247 A  
HETATM   12  C   UNL     1     -10.050  11.118  68.433  1.00  0.00    -0.193 A  
BRANCH  10  13
HETATM   13  C   UNL     1     -11.711  12.709  67.326  1.00  0.00    -0.435 C  
BRANCH  13  14
HETATM   14  C   UNL     1     -11.293  12.372  65.893  1.00  0.00    -0.399 C  
BRANCH  14  15
HETATM   15  C   UNL     1     -12.319  12.819  64.872  1.00  0.00    -0.490 C  
HETATM   16  O   UNL     1     -13.105  13.744  65.077  1.00  0.00    -0.751 OA 
HETATM   17  C   UNL     1     -12.335  12.076  63.560  1.00  0.00    -0.661 C  
ENDBRANCH  14  15
ENDBRANCH  13  14
ENDBRANCH  10  13
ENDBRANCH   2   3
TORSDOF 4
ENDMDL
MODEL       19
REMARK 921   NORMALIZED FREE ENERGY PREDICTED BY IDOCK:   -5.41 KCAL/MOL
REMARK 922        TOTAL FREE ENERGY PREDICTED BY IDOCK:   -7.06 KCAL/MOL
REMARK 923 INTER-LIGAND FREE ENERGY PREDICTED BY IDOCK:   -6.80 KCAL/MOL
REMARK 924 INTRA-LIGAND FREE ENERGY PREDICTED BY IDOCK:   -0.26 KCAL/MOL
REMARK 927      BINDING AFFINITY PREDICTED BY RF-SCORE:    0.00 PKD
ROOT
HETATM    1  C   UNL     1     -12.957   9.244  71.430  1.00  0.00    -0.326 C  
HETATM    2  O   UNL     1     -13.345  10.433  72.108  1.00  0.00    -0.441 OA 
ENDROOT
BRANCH   2   3
HETATM    3  C   UNL     1     -12.942  11.616  71.551  1.00  0.00    -0.358 A  
HETATM    4  C   UNL     1     -12.136  11.751  70.422  1.00  0.00    -0.440 A  
HETATM    5  C   UNL     1     -11.801  13.022  69.922  1.00  0.00    -0.377 A  
HETATM    6  C   UNL     1     -12.272  14.180  70.575  1.00  0.00    -0.431 A  
HETATM    7  C   UNL     1     -13.071  14.034  71.719  1.00  0.00    -0.449 A  
HETATM    8  C   UNL     1     -11.925  15.445  70.059  1.00  0.00    -0.383 A  
HETATM    9  C   UNL     1     -13.406  12.764  72.197  1.00  0.00    -0.593 A  
HETATM   10  C   UNL     1     -11.140  15.578  68.901  1.00  0.00    -0.282 A  
HETATM   11  C   UNL     1     -11.001  13.155  68.781  1.00  0.00    -0.298 A  
HETATM   12  C   UNL     1     -10.670  14.415  68.280  1.00  0.00    -0.246 A  
BRANCH  10  13
HETATM   13  C   UNL     1     -10.768  16.962  68.408  1.00  0.00    -0.368 C  
BRANCH  13  14
HETATM   14  C   UNL     1     -10.259  17.017  66.966  1.00  0.00    -0.303 C  
BRANCH  14  15
HETATM   15  C   UNL     1     -10.505  18.365  66.318  1.00  0.00    -0.393 C  
HETATM   16  O   UNL     1     -10.689  18.500  65.109  1.00  0.00    -0.524 OA 
HETATM   17  C   UNL     1     -10.526  19.561  67.236  1.00  0.00    -0.590 C  
ENDBRANCH  14  15
ENDBRANCH  13  14
ENDBRANCH  10  13
ENDBRANCH   2   3
TORSDOF 4
ENDMDL
MODEL       20
REMARK 921   NORMALIZED FREE ENERGY PREDICTED BY IDOCK:   -5.40 KCAL/MOL
REMARK 922        TOTAL FREE ENERGY PREDICTED BY IDOCK:   -7.04 KCAL/MOL
REMARK 923 INTER-LIGAND FREE ENERGY PREDICTED BY IDOCK:   -6.78 KCAL/MOL
REMARK 924 INTRA-LIGAND FREE ENERGY PREDICTED BY IDOCK:   -0.26 KCAL/MOL
REMARK 927      BINDING AFFINITY PREDICTED BY RF-SCORE:    0.00 PKD
ROOT
HETATM    1  C   UNL     1     -12.605  16.160  74.382  1.00  0.00    -0.448 C  
HETATM    2  O   UNL     1     -13.508  16.023  73.291  1.00  0.00    -0.598 OA 
ENDROOT
BRANCH   2   3
HETATM    3  C   UNL     1     -13.101  15.233  72.252  1.00  0.00    -0.382 A  
HETATM    4  C   UNL     1     -12.604  15.687  71.030  1.00  0.00    -0.515 A  
HETATM    5  C   UNL     1     -12.194  14.782  70.037  1.00  0.00    -0.383 A  
HETATM    6  C   UNL     1     -12.294  13.393  70.266  1.00  0.00    -0.354 A  
HETATM    7  C   UNL     1     -12.809  12.946  71.493  1.00  0.00    -0.380 A  
HETATM    8  C   UNL     1     -11.878  12.501  69.258  1.00  0.00    -0.360 A  
HETATM    9  C   UNL     1     -13.202  13.859  72.476  1.00  0.00    -0.601 A  
HETATM   10  C   UNL     1     -11.346  12.961  68.041  1.00  0.00    -0.333 A  
HETATM   11  C   UNL     1     -11.684  15.240  68.816  1.00  0.00    -0.374 A  
HETATM   12  C   UNL     1     -11.271  14.343  67.830  1.00  0.00    -0.316 A  
BRANCH  10  13
HETATM   13  C   UNL     1     -10.944  11.960  66.978  1.00  0.00    -0.326 C  
BRANCH  13  14
HETATM   14  C   UNL     1     -11.024  12.478  65.541  1.00  0.00    -0.322 C  
BRANCH  14  15
HETATM   15  C   UNL     1     -10.743  11.394  64.519  1.00  0.00    -0.327 C  
HETATM   16  O   UNL     1     -11.068  11.492  63.336  1.00  0.00    -0.391 OA 
HETATM   17  C   UNL     1     -10.026  10.166  65.019  1.00  0.00    -0.375 C  
ENDBRANCH  14  15
ENDBRANCH  13  14
ENDBRANCH  10  13
ENDBRANCH   2   3
TORSDOF 4
ENDMDL
MODEL       21
REMARK 921   NORMALIZED FREE ENERGY PREDICTED BY IDOCK:   -5.39 KCAL/MOL
REMARK 922        TOTAL FREE ENERGY PREDICTED BY IDOCK:   -7.03 KCAL/MOL
REMARK 923 INTER-LIGAND FREE ENERGY PREDICTED BY IDOCK:   -6.62 KCAL/MOL
REMARK 924 INTRA-LIGAND FREE ENERGY PREDICTED BY IDOCK:   -0.41 KCAL/MOL
REMARK 927      BINDING AFFINITY PREDICTED BY RF-SCORE:    0.00 PKD
ROOT
HETATM    1  C   UNL     1     -12.085   8.710  72.275  1.00  0.00    -0.373 C  
HETATM    2  O   UNL     1     -12.627  10.022  72.165  1.00  0.00    -0.337 OA 
ENDROOT
BRANCH   2   3
HETATM    3  C   UNL     1     -12.327  10.717  71.026  1.00  0.00    -0.403 A  
HETATM    4  C   UNL     1     -11.842  10.165  69.840  1.00  0.00    -0.206 A  
HETATM    5  C   UNL     1     -11.587  10.974  68.719  1.00  0.00    -0.386 A  
HETATM    6  C   UNL     1     -11.810  12.366  68.791  1.00  0.00    -0.358 A  
HETATM    7  C   UNL     1     -12.285  12.913  69.994  1.00  0.00    -0.292 A  
HETATM    8  C   UNL     1     -11.548  13.161  67.658  1.00  0.00    -0.392 A  
HETATM    9  C   UNL     1     -12.544  12.094  71.096  1.00  0.00    -0.360 A  
HETATM   10  C   UNL     1     -11.092  12.598  66.453  1.00  0.00    -0.325 A  
HETATM   11  C   UNL     1     -11.112  10.417  67.526  1.00  0.00    -0.336 A  
HETATM   12  C   UNL     1     -10.863  11.218  66.410  1.00  0.00    -0.306 A  
BRANCH  10  13
HETATM   13  C   UNL     1     -10.795  13.502  65.274  1.00  0.00    -0.316 C  
BRANCH  13  14
HETATM   14  C   UNL     1     -11.627  14.784  65.220  1.00  0.00    -0.338 C  
BRANCH  14  15
HETATM   15  C   UNL     1     -10.765  16.030  65.172  1.00  0.00    -0.409 C  
HETATM   16  O   UNL     1     -11.045  17.008  64.479  1.00  0.00    -1.098 OA 
HETATM   17  C   UNL     1      -9.528  16.028  66.033  1.00  0.00    -0.384 C  
ENDBRANCH  14  15
ENDBRANCH  13  14
ENDBRANCH  10  13
ENDBRANCH   2   3
TORSDOF 4
ENDMDL
MODEL       22
REMARK 921   NORMALIZED FREE ENERGY PREDICTED BY IDOCK:   -5.37 KCAL/MOL
REMARK 922        TOTAL FREE ENERGY PREDICTED BY IDOCK:   -7.02 KCAL/MOL
REMARK 923 INTER-LIGAND FREE ENERGY PREDICTED BY IDOCK:   -6.61 KCAL/MOL
REMARK 924 INTRA-LIGAND FREE ENERGY PREDICTED BY IDOCK:   -0.41 KCAL/MOL
REMARK 927      BINDING AFFINITY PREDICTED BY RF-SCORE:    0.00 PKD
ROOT
HETATM    1  C   UNL     1     -12.581  16.123  74.260  1.00  0.00    -0.500 C  
HETATM    2  O   UNL     1     -13.450  15.918  73.152  1.00  0.00    -0.575 OA 
ENDROOT
BRANCH   2   3
HETATM    3  C   UNL     1     -13.023  15.043  72.191  1.00  0.00    -0.342 A  
HETATM    4  C   UNL     1     -13.192  13.659  72.218  1.00  0.00    -0.565 A  
HETATM    5  C   UNL     1     -12.730  12.855  71.160  1.00  0.00    -0.366 A  
HETATM    6  C   UNL     1     -12.075  13.449  70.061  1.00  0.00    -0.404 A  
HETATM    7  C   UNL     1     -11.898  14.841  70.050  1.00  0.00    -0.362 A  
HETATM    8  C   UNL     1     -11.618  12.627  69.011  1.00  0.00    -0.367 A  
HETATM    9  C   UNL     1     -12.373  15.628  71.103  1.00  0.00    -0.482 A  
HETATM   10  C   UNL     1     -11.820  11.236  69.024  1.00  0.00    -0.421 A  
HETATM   11  C   UNL     1     -12.910  11.468  71.183  1.00  0.00    -0.414 A  
HETATM   12  C   UNL     1     -12.457  10.668  70.133  1.00  0.00    -0.342 A  
BRANCH  10  13
HETATM   13  C   UNL     1     -11.280  10.394  67.886  1.00  0.00    -0.332 C  
BRANCH  13  14
HETATM   14  C   UNL     1     -10.085  11.000  67.146  1.00  0.00    -0.227 C  
BRANCH  14  15
HETATM   15  C   UNL     1     -10.365  11.209  65.672  1.00  0.00    -0.254 C  
HETATM   16  O   UNL     1      -9.845  10.524  64.791  1.00  0.00    -0.272 OA 
HETATM   17  C   UNL     1     -11.333  12.309  65.317  1.00  0.00    -0.384 C  
ENDBRANCH  14  15
ENDBRANCH  13  14
ENDBRANCH  10  13
ENDBRANCH   2   3
TORSDOF 4
ENDMDL
MODEL       23
REMARK 921   NORMALIZED FREE ENERGY PREDICTED BY IDOCK:   -5.36 KCAL/MOL
REMARK 922        TOTAL FREE ENERGY PREDICTED BY IDOCK:   -7.00 KCAL/MOL
REMARK 923 INTER-LIGAND FREE ENERGY PREDICTED BY IDOCK:   -6.63 KCAL/MOL
REMARK 924 INTRA-LIGAND FREE ENERGY PREDICTED BY IDOCK:   -0.37 KCAL/MOL
REMARK 927      BINDING AFFINITY PREDICTED BY RF-SCORE:    0.00 PKD
ROOT
HETATM    1  C   UNL     1     -11.028  15.905  64.972  1.00  0.00    -0.412 C  
HETATM    2  O   UNL     1     -10.760  14.510  64.886  1.00  0.00    -0.396 OA 
ENDROOT
BRANCH   2   3
HETATM    3  C   UNL     1     -11.039  13.762  65.997  1.00  0.00    -0.291 A  
HETATM    4  C   UNL     1     -11.449  14.262  67.233  1.00  0.00    -0.371 A  
HETATM    5  C   UNL     1     -11.730  13.396  68.304  1.00  0.00    -0.391 A  
HETATM    6  C   UNL     1     -11.586  12.002  68.138  1.00  0.00    -0.403 A  
HETATM    7  C   UNL     1     -11.159  11.510  66.894  1.00  0.00    -0.366 A  
HETATM    8  C   UNL     1     -11.872  11.150  69.223  1.00  0.00    -0.422 A  
HETATM    9  C   UNL     1     -10.894  12.383  65.835  1.00  0.00    -0.305 A  
HETATM   10  C   UNL     1     -12.318  11.654  70.457  1.00  0.00    -0.410 A  
HETATM   11  C   UNL     1     -12.153  13.898  69.540  1.00  0.00    -0.393 A  
HETATM   12  C   UNL     1     -12.438  13.041  70.604  1.00  0.00    -0.347 A  
BRANCH  10  13
HETATM   13  C   UNL     1     -12.580  10.697  71.602  1.00  0.00    -0.482 C  
BRANCH  13  14
HETATM   14  C   UNL     1     -11.848   9.356  71.501  1.00  0.00    -0.456 C  
BRANCH  14  15
HETATM   15  C   UNL     1     -12.777   8.176  71.699  1.00  0.00    -0.321 C  
HETATM   16  O   UNL     1     -12.389   7.008  71.662  1.00  0.00    -0.332 OA 
HETATM   17  C   UNL     1     -14.228   8.494  71.959  1.00  0.00    -0.535 C  
ENDBRANCH  14  15
ENDBRANCH  13  14
ENDBRANCH  10  13
ENDBRANCH   2   3
TORSDOF 4
ENDMDL
MODEL       24
REMARK 921   NORMALIZED FREE ENERGY PREDICTED BY IDOCK:   -5.35 KCAL/MOL
REMARK 922        TOTAL FREE ENERGY PREDICTED BY IDOCK:   -6.99 KCAL/MOL
REMARK 923 INTER-LIGAND FREE ENERGY PREDICTED BY IDOCK:   -6.72 KCAL/MOL
REMARK 924 INTRA-LIGAND FREE ENERGY PREDICTED BY IDOCK:   -0.27 KCAL/MOL
REMARK 927      BINDING AFFINITY PREDICTED BY RF-SCORE:    0.00 PKD
ROOT
HETATM    1  C   UNL     1     -11.329  16.088  69.765  1.00  0.00    -0.331 C  
HETATM    2  O   UNL     1     -12.506  15.693  70.462  1.00  0.00    -0.415 OA 
ENDROOT
BRANCH   2   3
HETATM    3  C   UNL     1     -12.614  14.368  70.783  1.00  0.00    -0.357 A  
HETATM    4  C   UNL     1     -11.946  13.320  70.149  1.00  0.00    -0.388 A  
HETATM    5  C   UNL     1     -12.117  11.992  70.578  1.00  0.00    -0.402 A  
HETATM    6  C   UNL     1     -12.983  11.707  71.654  1.00  0.00    -0.483 A  
HETATM    7  C   UNL     1     -13.661  12.767  72.276  1.00  0.00    -0.563 A  
HETATM    8  C   UNL     1     -13.141  10.369  72.069  1.00  0.00    -0.521 A  
HETATM    9  C   UNL     1     -13.472  14.084  71.846  1.00  0.00    -0.506 A  
HETATM   10  C   UNL     1     -12.441   9.319  71.451  1.00  0.00    -0.418 A  
HETATM   11  C   UNL     1     -11.437  10.943  69.948  1.00  0.00    -0.402 A  
HETATM   12  C   UNL     1     -11.600   9.624  70.375  1.00  0.00    -0.299 A  
BRANCH  10  13
HETATM   13  C   UNL     1     -12.673   7.895  71.915  1.00  0.00    -0.341 C  
BRANCH  13  14
HETATM   14  C   UNL     1     -11.506   6.938  71.665  1.00  0.00    -0.312 C  
BRANCH  14  15
HETATM   15  C   UNL     1     -10.938   6.371  72.951  1.00  0.00    -0.250 C  
HETATM   16  O   UNL     1     -10.511   7.081  73.861  1.00  0.00    -0.375 OA 
HETATM   17  C   UNL     1     -10.923   4.869  73.078  1.00  0.00    -0.358 C  
ENDBRANCH  14  15
ENDBRANCH  13  14
ENDBRANCH  10  13
ENDBRANCH   2   3
TORSDOF 4
ENDMDL
MODEL       25
REMARK 921   NORMALIZED FREE ENERGY PREDICTED BY IDOCK:   -5.33 KCAL/MOL
REMARK 922        TOTAL FREE ENERGY PREDICTED BY IDOCK:   -6.96 KCAL/MOL
REMARK 923 INTER-LIGAND FREE ENERGY PREDICTED BY IDOCK:   -6.60 KCAL/MOL
REMARK 924 INTRA-LIGAND FREE ENERGY PREDICTED BY IDOCK:   -0.35 KCAL/MOL
REMARK 927      BINDING AFFINITY PREDICTED BY RF-SCORE:    0.00 PKD
ROOT
HETATM    1  C   UNL     1     -10.391  10.859  64.366  1.00  0.00    -0.361 C  
HETATM    2  O   UNL     1      -9.779  10.363  65.551  1.00  0.00    -0.212 OA 
ENDROOT
BRANCH   2   3
HETATM    3  C   UNL     1     -10.368  10.705  66.737  1.00  0.00    -0.245 A  
HETATM    4  C   UNL     1     -10.800  11.982  67.093  1.00  0.00    -0.297 A  
HETATM    5  C   UNL     1     -11.414  12.216  68.335  1.00  0.00    -0.356 A  
HETATM    6  C   UNL     1     -11.588  11.152  69.245  1.00  0.00    -0.388 A  
HETATM    7  C   UNL     1     -11.136   9.873  68.884  1.00  0.00    -0.181 A  
HETATM    8  C   UNL     1     -12.205  11.407  70.486  1.00  0.00    -0.478 A  
HETATM    9  C   UNL     1     -10.537   9.654  67.640  1.00  0.00    -0.334 A  
HETATM   10  C   UNL     1     -12.671  12.688  70.828  1.00  0.00    -0.213 A  
HETATM   11  C   UNL     1     -11.859  13.497  68.685  1.00  0.00    -0.404 A  
HETATM   12  C   UNL     1     -12.473  13.731  69.916  1.00  0.00    -0.259 A  
BRANCH  10  13
HETATM   13  C   UNL     1     -13.298  12.914  72.189  1.00  0.00    -0.615 C  
BRANCH  13  14
HETATM   14  C   UNL     1     -13.665  14.367  72.496  1.00  0.00    -0.589 C  
BRANCH  14  15
HETATM   15  C   UNL     1     -12.562  15.098  73.234  1.00  0.00    -0.499 C  
HETATM   16  O   UNL     1     -12.130  14.726  74.325  1.00  0.00    -0.526 OA 
HETATM   17  C   UNL     1     -11.994  16.321  72.561  1.00  0.00    -0.648 C  
ENDBRANCH  14  15
ENDBRANCH  13  14
ENDBRANCH  10  13
ENDBRANCH   2   3
TORSDOF 4
ENDMDL
MODEL       26
REMARK 921   NORMALIZED FREE ENERGY PREDICTED BY IDOCK:   -5.28 KCAL/MOL
REMARK 922        TOTAL FREE ENERGY PREDICTED BY IDOCK:   -6.90 KCAL/MOL
REMARK 923 INTER-LIGAND FREE ENERGY PREDICTED BY IDOCK:   -6.51 KCAL/MOL
REMARK 924 INTRA-LIGAND FREE ENERGY PREDICTED BY IDOCK:   -0.39 KCAL/MOL
REMARK 927      BINDING AFFINITY PREDICTED BY RF-SCORE:    0.00 PKD
ROOT
HETATM    1  C   UNL     1     -11.715   6.570  71.235  1.00  0.00    -0.331 C  
HETATM    2  O   UNL     1     -10.614   7.457  71.075  1.00  0.00    -0.222 OA 
ENDROOT
BRANCH   2   3
HETATM    3  C   UNL     1     -10.821   8.558  70.290  1.00  0.00    -0.238 A  
HETATM    4  C   UNL     1     -11.320   9.786  70.725  1.00  0.00    -0.416 A  
HETATM    5  C   UNL     1     -11.473  10.860  69.831  1.00  0.00    -0.402 A  
HETATM    6  C   UNL     1     -11.132  10.698  68.472  1.00  0.00    -0.318 A  
HETATM    7  C   UNL     1     -10.644   9.454  68.041  1.00  0.00    -0.278 A  
HETATM    8  C   UNL     1     -11.293  11.786  67.591  1.00  0.00    -0.370 A  
HETATM    9  C   UNL     1     -10.487   8.398  68.944  1.00  0.00    -0.208 A  
HETATM   10  C   UNL     1     -11.763  13.032  68.039  1.00  0.00    -0.397 A  
HETATM   11  C   UNL     1     -11.962  12.095  70.272  1.00  0.00    -0.389 A  
HETATM   12  C   UNL     1     -12.110  13.165  69.388  1.00  0.00    -0.285 A  
BRANCH  10  13
HETATM   13  C   UNL     1     -11.948  14.160  67.044  1.00  0.00    -0.471 C  
BRANCH  13  14
HETATM   14  C   UNL     1     -12.782  13.801  65.812  1.00  0.00    -0.494 C  
BRANCH  14  15
HETATM   15  C   UNL     1     -11.973  13.856  64.531  1.00  0.00    -0.437 C  
HETATM   16  O   UNL     1     -12.490  13.842  63.415  1.00  0.00    -0.833 OA 
HETATM   17  C   UNL     1     -10.476  13.940  64.682  1.00  0.00    -0.419 C  
ENDBRANCH  14  15
ENDBRANCH  13  14
ENDBRANCH  10  13
ENDBRANCH   2   3
TORSDOF 4
ENDMDL
MODEL       27
REMARK 921   NORMALIZED FREE ENERGY PREDICTED BY IDOCK:   -5.28 KCAL/MOL
REMARK 922        TOTAL FREE ENERGY PREDICTED BY IDOCK:   -6.90 KCAL/MOL
REMARK 923 INTER-LIGAND FREE ENERGY PREDICTED BY IDOCK:   -6.45 KCAL/MOL
REMARK 924 INTRA-LIGAND FREE ENERGY PREDICTED BY IDOCK:   -0.44 KCAL/MOL
REMARK 927      BINDING AFFINITY PREDICTED BY RF-SCORE:    0.00 PKD
ROOT
HETATM    1  C   UNL     1     -11.770  14.738  64.533  1.00  0.00    -0.391 C  
HETATM    2  O   UNL     1     -11.050  14.917  65.748  1.00  0.00    -0.331 OA 
ENDROOT
BRANCH   2   3
HETATM    3  C   UNL     1     -11.322  14.035  66.758  1.00  0.00    -0.334 A  
HETATM    4  C   UNL     1     -11.714  14.377  68.052  1.00  0.00    -0.374 A  
HETATM    5  C   UNL     1     -11.989  13.384  69.009  1.00  0.00    -0.357 A  
HETATM    6  C   UNL     1     -11.856  12.022  68.665  1.00  0.00    -0.366 A  
HETATM    7  C   UNL     1     -11.447  11.689  67.364  1.00  0.00    -0.357 A  
HETATM    8  C   UNL     1     -12.136  11.041  69.638  1.00  0.00    -0.411 A  
HETATM    9  C   UNL     1     -11.189  12.688  66.421  1.00  0.00    -0.350 A  
HETATM   10  C   UNL     1     -12.564  11.387  70.931  1.00  0.00    -0.453 A  
HETATM   11  C   UNL     1     -12.394  13.728  70.303  1.00  0.00    -0.407 A  
HETATM   12  C   UNL     1     -12.673  12.744  71.253  1.00  0.00    -0.364 A  
BRANCH  10  13
HETATM   13  C   UNL     1     -12.820  10.293  71.948  1.00  0.00    -0.528 C  
BRANCH  13  14
HETATM   14  C   UNL     1     -12.453   8.882  71.484  1.00  0.00    -0.380 C  
BRANCH  14  15
HETATM   15  C   UNL     1     -11.197   8.362  72.153  1.00  0.00    -0.361 C  
HETATM   16  O   UNL     1     -11.217   7.729  73.208  1.00  0.00    -0.350 OA 
HETATM   17  C   UNL     1      -9.891   8.651  71.456  1.00  0.00    -0.342 C  
ENDBRANCH  14  15
ENDBRANCH  13  14
ENDBRANCH  10  13
ENDBRANCH   2   3
TORSDOF 4
ENDMDL
MODEL       28
REMARK 921   NORMALIZED FREE ENERGY PREDICTED BY IDOCK:   -5.27 KCAL/MOL
REMARK 922        TOTAL FREE ENERGY PREDICTED BY IDOCK:   -6.89 KCAL/MOL
REMARK 923 INTER-LIGAND FREE ENERGY PREDICTED BY IDOCK:   -6.51 KCAL/MOL
REMARK 924 INTRA-LIGAND FREE ENERGY PREDICTED BY IDOCK:   -0.38 KCAL/MOL
REMARK 927      BINDING AFFINITY PREDICTED BY RF-SCORE:    0.00 PKD
ROOT
HETATM    1  C   UNL     1      -6.401  21.095  66.725  1.00  0.00    -0.316 C  
HETATM    2  O   UNL     1      -7.713  21.135  67.275  1.00  0.00    -0.344 OA 
ENDROOT
BRANCH   2   3
HETATM    3  C   UNL     1      -8.445  19.982  67.203  1.00  0.00    -0.334 A  
HETATM    4  C   UNL     1      -7.990  18.759  66.711  1.00  0.00    -0.265 A  
HETATM    5  C   UNL     1      -8.825  17.628  66.704  1.00  0.00    -0.283 A  
HETATM    6  C   UNL     1     -10.147  17.728  67.187  1.00  0.00    -0.338 A  
HETATM    7  C   UNL     1     -10.600  18.967  67.667  1.00  0.00    -0.501 A  
HETATM    8  C   UNL     1     -10.970  16.584  67.171  1.00  0.00    -0.049 A  
HETATM    9  C   UNL     1      -9.754  20.079  67.679  1.00  0.00    -0.535 A  
HETATM   10  C   UNL     1     -10.497  15.344  66.707  1.00  0.00    -0.299 A  
HETATM   11  C   UNL     1      -8.363  16.399  66.221  1.00  0.00    -0.362 A  
HETATM   12  C   UNL     1      -9.188  15.273  66.217  1.00  0.00    -0.350 A  
BRANCH  10  13
HETATM   13  C   UNL     1     -11.434  14.153  66.681  1.00  0.00    -0.378 C  
BRANCH  13  14
HETATM   14  C   UNL     1     -12.448  14.155  65.535  1.00  0.00    -0.495 C  
BRANCH  14  15
HETATM   15  C   UNL     1     -12.286  12.958  64.620  1.00  0.00    -0.439 C  
HETATM   16  O   UNL     1     -13.220  12.212  64.327  1.00  0.00    -0.768 OA 
HETATM   17  C   UNL     1     -10.907  12.717  64.062  1.00  0.00    -0.452 C  
ENDBRANCH  14  15
ENDBRANCH  13  14
ENDBRANCH  10  13
ENDBRANCH   2   3
TORSDOF 4
ENDMDL
MODEL       29
REMARK 921   NORMALIZED FREE ENERGY PREDICTED BY IDOCK:   -5.25 KCAL/MOL
REMARK 922        TOTAL FREE ENERGY PREDICTED BY IDOCK:   -6.87 KCAL/MOL
REMARK 923 INTER-LIGAND FREE ENERGY PREDICTED BY IDOCK:   -6.64 KCAL/MOL
REMARK 924 INTRA-LIGAND FREE ENERGY PREDICTED BY IDOCK:   -0.23 KCAL/MOL
REMARK 927      BINDING AFFINITY PREDICTED BY RF-SCORE:    0.00 PKD
ROOT
HETATM    1  C   UNL     1     -10.460  18.976  66.291  1.00  0.00    -0.457 C  
HETATM    2  O   UNL     1     -10.241  17.800  65.520  1.00  0.00    -0.589 OA 
ENDROOT
BRANCH   2   3
HETATM    3  C   UNL     1     -10.531  16.607  66.123  1.00  0.00    -0.285 A  
HETATM    4  C   UNL     1     -10.867  16.435  67.466  1.00  0.00    -0.249 A  
HETATM    5  C   UNL     1     -11.168  15.160  67.977  1.00  0.00    -0.329 A  
HETATM    6  C   UNL     1     -11.119  14.034  67.128  1.00  0.00    -0.313 A  
HETATM    7  C   UNL     1     -10.766  14.216  65.782  1.00  0.00    -0.301 A  
HETATM    8  C   UNL     1     -11.423  12.764  67.659  1.00  0.00    -0.387 A  
HETATM    9  C   UNL     1     -10.480  15.492  65.286  1.00  0.00    -0.437 A  
HETATM   10  C   UNL     1     -11.795  12.598  69.004  1.00  0.00    -0.341 A  
HETATM   11  C   UNL     1     -11.516  14.991  69.321  1.00  0.00    -0.326 A  
HETATM   12  C   UNL     1     -11.820  13.727  69.830  1.00  0.00    -0.394 A  
BRANCH  10  13
HETATM   13  C   UNL     1     -12.080  11.207  69.531  1.00  0.00    -0.396 C  
BRANCH  13  14
HETATM   14  C   UNL     1     -12.637  11.158  70.955  1.00  0.00    -0.503 C  
BRANCH  14  15
HETATM   15  C   UNL     1     -12.343   9.842  71.646  1.00  0.00    -0.408 C  
HETATM   16  O   UNL     1     -11.205   9.389  71.762  1.00  0.00    -0.376 OA 
HETATM   17  C   UNL     1     -13.527   9.095  72.207  1.00  0.00    -0.546 C  
ENDBRANCH  14  15
ENDBRANCH  13  14
ENDBRANCH  10  13
ENDBRANCH   2   3
TORSDOF 4
ENDMDL
MODEL       30
REMARK 921   NORMALIZED FREE ENERGY PREDICTED BY IDOCK:   -5.24 KCAL/MOL
REMARK 922        TOTAL FREE ENERGY PREDICTED BY IDOCK:   -6.85 KCAL/MOL
REMARK 923 INTER-LIGAND FREE ENERGY PREDICTED BY IDOCK:   -6.50 KCAL/MOL
REMARK 924 INTRA-LIGAND FREE ENERGY PREDICTED BY IDOCK:   -0.35 KCAL/MOL
REMARK 927      BINDING AFFINITY PREDICTED BY RF-SCORE:    0.00 PKD
ROOT
HETATM    1  C   UNL     1      -8.412   8.311  68.419  1.00  0.00    -0.129 C  
HETATM    2  O   UNL     1      -9.639   8.732  67.832  1.00  0.00    -0.140 OA 
ENDROOT
BRANCH   2   3
HETATM    3  C   UNL     1     -10.351   9.681  68.512  1.00  0.00    -0.205 A  
HETATM    4  C   UNL     1     -11.130   9.456  69.647  1.00  0.00    -0.163 A  
HETATM    5  C   UNL     1     -11.805  10.514  70.280  1.00  0.00    -0.418 A  
HETATM    6  C   UNL     1     -11.710  11.821  69.758  1.00  0.00    -0.408 A  
HETATM    7  C   UNL     1     -10.936  12.035  68.607  1.00  0.00    -0.281 A  
HETATM    8  C   UNL     1     -12.395  12.869  70.406  1.00  0.00    -0.333 A  
HETATM    9  C   UNL     1     -10.260  10.974  67.995  1.00  0.00    -0.201 A  
HETATM   10  C   UNL     1     -13.151  12.645  71.570  1.00  0.00    -0.373 A  
HETATM   11  C   UNL     1     -12.576  10.288  71.426  1.00  0.00    -0.539 A  
HETATM   12  C   UNL     1     -13.244  11.337  72.060  1.00  0.00    -0.437 A  
BRANCH  10  13
HETATM   13  C   UNL     1     -13.894  13.801  72.208  1.00  0.00    -0.679 C  
BRANCH  13  14
HETATM   14  C   UNL     1     -13.628  15.167  71.574  1.00  0.00    -0.564 C  
BRANCH  14  15
HETATM   15  C   UNL     1     -12.495  15.908  72.256  1.00  0.00    -0.465 C  
HETATM   16  O   UNL     1     -11.570  16.431  71.634  1.00  0.00    -0.443 OA 
HETATM   17  C   UNL     1     -12.550  15.990  73.760  1.00  0.00    -0.724 C  
ENDBRANCH  14  15
ENDBRANCH  13  14
ENDBRANCH  10  13
ENDBRANCH   2   3
TORSDOF 4
ENDMDL
MODEL       31
REMARK 921   NORMALIZED FREE ENERGY PREDICTED BY IDOCK:   -5.24 KCAL/MOL
REMARK 922        TOTAL FREE ENERGY PREDICTED BY IDOCK:   -6.85 KCAL/MOL
REMARK 923 INTER-LIGAND FREE ENERGY PREDICTED BY IDOCK:   -6.57 KCAL/MOL
REMARK 924 INTRA-LIGAND FREE ENERGY PREDICTED BY IDOCK:   -0.29 KCAL/MOL
REMARK 927      BINDING AFFINITY PREDICTED BY RF-SCORE:    0.00 PKD
ROOT
HETATM    1  C   UNL     1     -10.535  15.817  65.514  1.00  0.00    -0.403 C  
HETATM    2  O   UNL     1     -10.611  16.293  66.853  1.00  0.00    -0.310 OA 
ENDROOT
BRANCH   2   3
HETATM    3  C   UNL     1     -11.067  15.411  67.793  1.00  0.00    -0.320 A  
HETATM    4  C   UNL     1     -11.110  14.024  67.655  1.00  0.00    -0.298 A  
HETATM    5  C   UNL     1     -11.581  13.209  68.699  1.00  0.00    -0.356 A  
HETATM    6  C   UNL     1     -12.030  13.796  69.901  1.00  0.00    -0.412 A  
HETATM    7  C   UNL     1     -11.996  15.194  70.025  1.00  0.00    -0.374 A  
HETATM    8  C   UNL     1     -12.500  12.963  70.936  1.00  0.00    -0.383 A  
HETATM    9  C   UNL     1     -11.514  15.990  68.982  1.00  0.00    -0.360 A  
HETATM   10  C   UNL     1     -12.510  11.563  70.807  1.00  0.00    -0.444 A  
HETATM   11  C   UNL     1     -11.612  11.817  68.563  1.00  0.00    -0.380 A  
HETATM   12  C   UNL     1     -12.075  11.005  69.599  1.00  0.00    -0.411 A  
BRANCH  10  13
HETATM   13  C   UNL     1     -13.056  10.715  71.937  1.00  0.00    -0.563 C  
BRANCH  13  14
HETATM   14  C   UNL     1     -13.446   9.289  71.543  1.00  0.00    -0.437 C  
BRANCH  14  15
HETATM   15  C   UNL     1     -12.351   8.286  71.846  1.00  0.00    -0.338 C  
HETATM   16  O   UNL     1     -11.370   8.558  72.539  1.00  0.00    -0.368 OA 
HETATM   17  C   UNL     1     -12.517   6.908  71.259  1.00  0.00    -0.409 C  
ENDBRANCH  14  15
ENDBRANCH  13  14
ENDBRANCH  10  13
ENDBRANCH   2   3
TORSDOF 4
ENDMDL
MODEL       32
REMARK 921   NORMALIZED FREE ENERGY PREDICTED BY IDOCK:   -5.24 KCAL/MOL
REMARK 922        TOTAL FREE ENERGY PREDICTED BY IDOCK:   -6.85 KCAL/MOL
REMARK 923 INTER-LIGAND FREE ENERGY PREDICTED BY IDOCK:   -6.54 KCAL/MOL
REMARK 924 INTRA-LIGAND FREE ENERGY PREDICTED BY IDOCK:   -0.31 KCAL/MOL
REMARK 927      BINDING AFFINITY PREDICTED BY RF-SCORE:    0.00 PKD
ROOT
HETATM    1  C   UNL     1     -14.168   8.619  72.135  1.00  0.00    -0.439 C  
HETATM    2  O   UNL     1     -12.932   9.262  72.428  1.00  0.00    -0.403 OA 
ENDROOT
BRANCH   2   3
HETATM    3  C   UNL     1     -12.389  10.031  71.435  1.00  0.00    -0.415 A  
HETATM    4  C   UNL     1     -12.722  11.358  71.161  1.00  0.00    -0.479 A  
HETATM    5  C   UNL     1     -12.083  12.062  70.126  1.00  0.00    -0.377 A  
HETATM    6  C   UNL     1     -11.101  11.422  69.341  1.00  0.00    -0.301 A  
HETATM    7  C   UNL     1     -10.784  10.082  69.616  1.00  0.00    -0.282 A  
HETATM    8  C   UNL     1     -10.473  12.144  68.307  1.00  0.00    -0.225 A  
HETATM    9  C   UNL     1     -11.420   9.398  70.657  1.00  0.00    -0.344 A  
HETATM   10  C   UNL     1     -10.785  13.491  68.055  1.00  0.00    -0.263 A  
HETATM   11  C   UNL     1     -12.410  13.397  69.860  1.00  0.00    -0.259 A  
HETATM   12  C   UNL     1     -11.774  14.101  68.835  1.00  0.00    -0.369 A  
BRANCH  10  13
HETATM   13  C   UNL     1     -10.103  14.212  66.910  1.00  0.00    -0.258 C  
BRANCH  13  14
HETATM   14  C   UNL     1     -11.049  14.767  65.843  1.00  0.00    -0.340 C  
BRANCH  14  15
HETATM   15  C   UNL     1     -10.641  16.149  65.373  1.00  0.00    -0.380 C  
HETATM   16  O   UNL     1     -11.204  16.731  64.446  1.00  0.00    -1.112 OA 
HETATM   17  C   UNL     1      -9.499  16.802  66.108  1.00  0.00    -0.295 C  
ENDBRANCH  14  15
ENDBRANCH  13  14
ENDBRANCH  10  13
ENDBRANCH   2   3
TORSDOF 4
ENDMDL
MODEL       33
REMARK 921   NORMALIZED FREE ENERGY PREDICTED BY IDOCK:   -5.24 KCAL/MOL
REMARK 922        TOTAL FREE ENERGY PREDICTED BY IDOCK:   -6.85 KCAL/MOL
REMARK 923 INTER-LIGAND FREE ENERGY PREDICTED BY IDOCK:   -6.51 KCAL/MOL
REMARK 924 INTRA-LIGAND FREE ENERGY PREDICTED BY IDOCK:   -0.33 KCAL/MOL
REMARK 927      BINDING AFFINITY PREDICTED BY RF-SCORE:    0.00 PKD
ROOT
HETATM    1  C   UNL     1     -10.670   7.184  73.256  1.00  0.00    -0.361 C  
HETATM    2  O   UNL     1     -11.777   7.996  72.877  1.00  0.00    -0.369 OA 
ENDROOT
BRANCH   2   3
HETATM    3  C   UNL     1     -11.606   8.794  71.780  1.00  0.00    -0.346 A  
HETATM    4  C   UNL     1     -12.071  10.102  71.645  1.00  0.00    -0.373 A  
HETATM    5  C   UNL     1     -11.818  10.841  70.476  1.00  0.00    -0.453 A  
HETATM    6  C   UNL     1     -11.096  10.253  69.416  1.00  0.00    -0.299 A  
HETATM    7  C   UNL     1     -10.645   8.931  69.556  1.00  0.00    -0.233 A  
HETATM    8  C   UNL     1     -10.853  11.009  68.252  1.00  0.00    -0.261 A  
HETATM    9  C   UNL     1     -10.894   8.214  70.729  1.00  0.00    -0.247 A  
HETATM   10  C   UNL     1     -11.294  12.339  68.132  1.00  0.00    -0.349 A  
HETATM   11  C   UNL     1     -12.275  12.157  70.348  1.00  0.00    -0.378 A  
HETATM   12  C   UNL     1     -12.022  12.895  69.190  1.00  0.00    -0.308 A  
BRANCH  10  13
HETATM   13  C   UNL     1     -11.034  13.096  66.845  1.00  0.00    -0.295 C  
BRANCH  13  14
HETATM   14  C   UNL     1     -12.240  13.857  66.291  1.00  0.00    -0.498 C  
BRANCH  14  15
HETATM   15  C   UNL     1     -12.354  13.739  64.784  1.00  0.00    -0.386 C  
HETATM   16  O   UNL     1     -12.617  14.698  64.058  1.00  0.00    -0.819 OA 
HETATM   17  C   UNL     1     -12.118  12.372  64.194  1.00  0.00    -0.539 C  
ENDBRANCH  14  15
ENDBRANCH  13  14
ENDBRANCH  10  13
ENDBRANCH   2   3
TORSDOF 4
ENDMDL
MODEL       34
REMARK 921   NORMALIZED FREE ENERGY PREDICTED BY IDOCK:   -5.19 KCAL/MOL
REMARK 922        TOTAL FREE ENERGY PREDICTED BY IDOCK:   -6.79 KCAL/MOL
REMARK 923 INTER-LIGAND FREE ENERGY PREDICTED BY IDOCK:   -6.53 KCAL/MOL
REMARK 924 INTRA-LIGAND FREE ENERGY PREDICTED BY IDOCK:   -0.26 KCAL/MOL
REMARK 927      BINDING AFFINITY PREDICTED BY RF-SCORE:    0.00 PKD
ROOT
HETATM    1  C   UNL     1      -9.175   9.923  62.565  1.00  0.00    -0.283 C  
HETATM    2  O   UNL     1      -9.952  11.104  62.724  1.00  0.00    -0.258 OA 
ENDROOT
BRANCH   2   3
HETATM    3  C   UNL     1     -10.287  11.452  64.004  1.00  0.00    -0.362 A  
HETATM    4  C   UNL     1     -10.800  12.685  64.404  1.00  0.00    -0.386 A  
HETATM    5  C   UNL     1     -11.130  12.927  65.749  1.00  0.00    -0.312 A  
HETATM    6  C   UNL     1     -10.931  11.917  66.714  1.00  0.00    -0.337 A  
HETATM    7  C   UNL     1     -10.400  10.684  66.303  1.00  0.00    -0.296 A  
HETATM    8  C   UNL     1     -11.267  12.179  68.058  1.00  0.00    -0.319 A  
HETATM    9  C   UNL     1     -10.087  10.455  64.960  1.00  0.00    -0.379 A  
HETATM   10  C   UNL     1     -11.816  13.411  68.453  1.00  0.00    -0.401 A  
HETATM   11  C   UNL     1     -11.657  14.161  66.147  1.00  0.00    -0.377 A  
HETATM   12  C   UNL     1     -11.990  14.402  67.481  1.00  0.00    -0.389 A  
BRANCH  10  13
HETATM   13  C   UNL     1     -12.129  13.651  69.916  1.00  0.00    -0.406 C  
BRANCH  13  14
HETATM   14  C   UNL     1     -11.668  15.005  70.460  1.00  0.00    -0.344 C  
BRANCH  14  15
HETATM   15  C   UNL     1     -12.692  15.636  71.382  1.00  0.00    -0.471 C  
HETATM   16  O   UNL     1     -13.892  15.686  71.111  1.00  0.00    -0.583 OA 
HETATM   17  C   UNL     1     -12.174  16.205  72.678  1.00  0.00    -0.625 C  
ENDBRANCH  14  15
ENDBRANCH  13  14
ENDBRANCH  10  13
ENDBRANCH   2   3
TORSDOF 4
ENDMDL
MODEL       35
REMARK 921   NORMALIZED FREE ENERGY PREDICTED BY IDOCK:   -5.19 KCAL/MOL
REMARK 922        TOTAL FREE ENERGY PREDICTED BY IDOCK:   -6.79 KCAL/MOL
REMARK 923 INTER-LIGAND FREE ENERGY PREDICTED BY IDOCK:   -6.36 KCAL/MOL
REMARK 924 INTRA-LIGAND FREE ENERGY PREDICTED BY IDOCK:   -0.42 KCAL/MOL
REMARK 927      BINDING AFFINITY PREDICTED BY RF-SCORE:    0.00 PKD
ROOT
HETATM    1  C   UNL     1     -13.611  15.937  72.761  1.00  0.00    -0.510 C  
HETATM    2  O   UNL     1     -13.607  15.424  71.434  1.00  0.00    -0.479 OA 
ENDROOT
BRANCH   2   3
HETATM    3  C   UNL     1     -13.241  14.115  71.283  1.00  0.00    -0.329 A  
HETATM    4  C   UNL     1     -12.390  13.616  70.296  1.00  0.00    -0.392 A  
HETATM    5  C   UNL     1     -12.065  12.249  70.248  1.00  0.00    -0.376 A  
HETATM    6  C   UNL     1     -12.612  11.362  71.199  1.00  0.00    -0.490 A  
HETATM    7  C   UNL     1     -13.479  11.872  72.179  1.00  0.00    -0.300 A  
HETATM    8  C   UNL     1     -12.275   9.995  71.134  1.00  0.00    -0.477 A  
HETATM    9  C   UNL     1     -13.784  13.235  72.221  1.00  0.00    -0.686 A  
HETATM   10  C   UNL     1     -11.390   9.501  70.160  1.00  0.00    -0.241 A  
HETATM   11  C   UNL     1     -11.201  11.752  69.265  1.00  0.00    -0.318 A  
HETATM   12  C   UNL     1     -10.873  10.396  69.217  1.00  0.00    -0.280 A  
BRANCH  10  13
HETATM   13  C   UNL     1     -11.087   8.017  70.114  1.00  0.00    -0.191 C  
BRANCH  13  14
HETATM   14  C   UNL     1     -12.017   7.143  70.957  1.00  0.00    -0.387 C  
BRANCH  14  15
HETATM   15  C   UNL     1     -11.294   6.472  72.107  1.00  0.00    -0.282 C  
HETATM   16  O   UNL     1     -11.037   5.268  72.122  1.00  0.00    -0.207 OA 
HETATM   17  C   UNL     1     -10.885   7.358  73.256  1.00  0.00    -0.417 C  
ENDBRANCH  14  15
ENDBRANCH  13  14
ENDBRANCH  10  13
ENDBRANCH   2   3
TORSDOF 4
ENDMDL
MODEL       36
REMARK 921   NORMALIZED FREE ENERGY PREDICTED BY IDOCK:   -5.19 KCAL/MOL
REMARK 922        TOTAL FREE ENERGY PREDICTED BY IDOCK:   -6.78 KCAL/MOL
REMARK 923 INTER-LIGAND FREE ENERGY PREDICTED BY IDOCK:   -6.34 KCAL/MOL
REMARK 924 INTRA-LIGAND FREE ENERGY PREDICTED BY IDOCK:   -0.44 KCAL/MOL
REMARK 927      BINDING AFFINITY PREDICTED BY RF-SCORE:    0.00 PKD
ROOT
HETATM    1  C   UNL     1     -13.600  15.970  73.156  1.00  0.00    -0.439 C  
HETATM    2  O   UNL     1     -14.296  15.118  72.254  1.00  0.00    -0.508 OA 
ENDROOT
BRANCH   2   3
HETATM    3  C   UNL     1     -13.606  14.041  71.770  1.00  0.00    -0.394 A  
HETATM    4  C   UNL     1     -13.709  12.731  72.239  1.00  0.00    -0.495 A  
HETATM    5  C   UNL     1     -12.965  11.694  71.650  1.00  0.00    -0.483 A  
HETATM    6  C   UNL     1     -12.091  11.976  70.578  1.00  0.00    -0.402 A  
HETATM    7  C   UNL     1     -11.985  13.300  70.123  1.00  0.00    -0.388 A  
HETATM    8  C   UNL     1     -11.353  10.923  70.002  1.00  0.00    -0.386 A  
HETATM    9  C   UNL     1     -12.740  14.319  70.711  1.00  0.00    -0.419 A  
HETATM   10  C   UNL     1     -11.484   9.598  70.454  1.00  0.00    -0.325 A  
HETATM   11  C   UNL     1     -13.078  10.379  72.114  1.00  0.00    -0.427 A  
HETATM   12  C   UNL     1     -12.344   9.346  71.528  1.00  0.00    -0.452 A  
BRANCH  10  13
HETATM   13  C   UNL     1     -10.643   8.509  69.820  1.00  0.00    -0.224 C  
BRANCH  13  14
HETATM   14  C   UNL     1      -9.904   7.607  70.811  1.00  0.00    -0.177 C  
BRANCH  14  15
HETATM   15  C   UNL     1      -8.977   8.387  71.721  1.00  0.00    -0.198 C  
HETATM   16  O   UNL     1      -8.108   9.147  71.295  1.00  0.00    -0.285 OA 
HETATM   17  C   UNL     1      -9.171   8.198  73.204  1.00  0.00    -0.336 C  
ENDBRANCH  14  15
ENDBRANCH  13  14
ENDBRANCH  10  13
ENDBRANCH   2   3
TORSDOF 4
ENDMDL
MODEL       37
REMARK 921   NORMALIZED FREE ENERGY PREDICTED BY IDOCK:   -5.17 KCAL/MOL
REMARK 922        TOTAL FREE ENERGY PREDICTED BY IDOCK:   -6.77 KCAL/MOL
REMARK 923 INTER-LIGAND FREE ENERGY PREDICTED BY IDOCK:   -6.43 KCAL/MOL
REMARK 924 INTRA-LIGAND FREE ENERGY PREDICTED BY IDOCK:   -0.34 KCAL/MOL
REMARK 927      BINDING AFFINITY PREDICTED BY RF-SCORE:    0.00 PKD
ROOT
HETATM    1  C   UNL     1     -11.648  10.780  68.525  1.00  0.00    -0.255 C  
HETATM    2  O   UNL     1     -11.694  11.609  67.369  1.00  0.00    -0.556 OA 
ENDROOT
BRANCH   2   3
HETATM    3  C   UNL     1     -11.480  12.946  67.563  1.00  0.00    -0.335 A  
HETATM    4  C   UNL     1     -11.042  13.850  66.595  1.00  0.00    -0.310 A  
HETATM    5  C   UNL     1     -10.875  15.212  66.901  1.00  0.00    -0.317 A  
HETATM    6  C   UNL     1     -11.140  15.676  68.207  1.00  0.00    -0.336 A  
HETATM    7  C   UNL     1     -11.567  14.756  69.178  1.00  0.00    -0.330 A  
HETATM    8  C   UNL     1     -10.967  17.044  68.495  1.00  0.00    -0.247 A  
HETATM    9  C   UNL     1     -11.739  13.407  68.855  1.00  0.00    -0.369 A  
HETATM   10  C   UNL     1     -10.559  17.959  67.509  1.00  0.00    -0.386 A  
HETATM   11  C   UNL     1     -10.447  16.119  65.925  1.00  0.00    -0.366 A  
HETATM   12  C   UNL     1     -10.286  17.472  66.225  1.00  0.00    -0.356 A  
BRANCH  10  13
HETATM   13  C   UNL     1     -10.356  19.413  67.880  1.00  0.00    -0.542 C  
BRANCH  13  14
HETATM   14  C   UNL     1      -9.410  20.188  66.960  1.00  0.00    -0.523 C  
BRANCH  14  15
HETATM   15  C   UNL     1      -8.029  20.355  67.563  1.00  0.00    -0.291 C  
HETATM   16  O   UNL     1      -7.255  21.248  67.218  1.00  0.00    -0.508 OA 
HETATM   17  C   UNL     1      -7.635  19.368  68.631  1.00  0.00    -0.398 C  
ENDBRANCH  14  15
ENDBRANCH  13  14
ENDBRANCH  10  13
ENDBRANCH   2   3
TORSDOF 4
ENDMDL
MODEL       38
REMARK 921   NORMALIZED FREE ENERGY PREDICTED BY IDOCK:   -5.15 KCAL/MOL
REMARK 922        TOTAL FREE ENERGY PREDICTED BY IDOCK:   -6.74 KCAL/MOL
REMARK 923 INTER-LIGAND FREE ENERGY PREDICTED BY IDOCK:   -6.55 KCAL/MOL
REMARK 924 INTRA-LIGAND FREE ENERGY PREDICTED BY IDOCK:   -0.19 KCAL/MOL
REMARK 927      BINDING AFFINITY PREDICTED BY RF-SCORE:    0.00 PKD
ROOT
HETATM    1  C   UNL     1     -12.207   8.394  72.047  1.00  0.00    -0.362 C  
HETATM    2  O   UNL     1     -11.574   9.644  71.799  1.00  0.00    -0.378 OA 
ENDROOT
BRANCH   2   3
HETATM    3  C   UNL     1     -11.387   9.989  70.489  1.00  0.00    -0.335 A  
HETATM    4  C   UNL     1     -10.736   9.215  69.529  1.00  0.00    -0.226 A  
HETATM    5  C   UNL     1     -10.619   9.661  68.201  1.00  0.00    -0.273 A  
HETATM    6  C   UNL     1     -11.153  10.913  67.830  1.00  0.00    -0.362 A  
HETATM    7  C   UNL     1     -11.793  11.691  68.807  1.00  0.00    -0.387 A  
HETATM    8  C   UNL     1     -11.025  11.343  66.494  1.00  0.00    -0.328 A  
HETATM    9  C   UNL     1     -11.912  11.229  70.121  1.00  0.00    -0.452 A  
HETATM   10  C   UNL     1     -10.399  10.545  65.520  1.00  0.00    -0.287 A  
HETATM   11  C   UNL     1      -9.977   8.877  67.236  1.00  0.00    -0.277 A  
HETATM   12  C   UNL     1      -9.863   9.315  65.915  1.00  0.00    -0.335 A  
BRANCH  10  13
HETATM   13  C   UNL     1     -10.260  11.070  64.106  1.00  0.00    -0.419 C  
BRANCH  13  14
HETATM   14  C   UNL     1     -10.430  12.583  63.960  1.00  0.00    -0.449 C  
BRANCH  14  15
HETATM   15  C   UNL     1     -11.882  12.989  63.813  1.00  0.00    -0.502 C  
HETATM   16  O   UNL     1     -12.738  12.245  63.335  1.00  0.00    -0.727 OA 
HETATM   17  C   UNL     1     -12.249  14.370  64.296  1.00  0.00    -0.450 C  
ENDBRANCH  14  15
ENDBRANCH  13  14
ENDBRANCH  10  13
ENDBRANCH   2   3
TORSDOF 4
ENDMDL
MODEL       39
REMARK 921   NORMALIZED FREE ENERGY PREDICTED BY IDOCK:   -5.14 KCAL/MOL
REMARK 922        TOTAL FREE ENERGY PREDICTED BY IDOCK:   -6.73 KCAL/MOL
REMARK 923 INTER-LIGAND FREE ENERGY PREDICTED BY IDOCK:   -6.42 KCAL/MOL
REMARK 924 INTRA-LIGAND FREE ENERGY PREDICTED BY IDOCK:   -0.32 KCAL/MOL
REMARK 927      BINDING AFFINITY PREDICTED BY RF-SCORE:    0.00 PKD
ROOT
HETATM    1  C   UNL     1     -10.681  19.329  66.213  1.00  0.00    -0.384 C  
HETATM    2  O   UNL     1      -9.958  18.145  65.896  1.00  0.00    -0.540 OA 
ENDROOT
BRANCH   2   3
HETATM    3  C   UNL     1     -10.359  16.995  66.518  1.00  0.00    -0.298 A  
HETATM    4  C   UNL     1     -10.597  15.771  65.893  1.00  0.00    -0.350 A  
HETATM    5  C   UNL     1     -10.987  14.644  66.637  1.00  0.00    -0.323 A  
HETATM    6  C   UNL     1     -11.153  14.748  68.034  1.00  0.00    -0.294 A  
HETATM    7  C   UNL     1     -10.924  15.987  68.652  1.00  0.00    -0.323 A  
HETATM    8  C   UNL     1     -11.545  13.607  68.763  1.00  0.00    -0.359 A  
HETATM    9  C   UNL     1     -10.526  17.096  67.900  1.00  0.00    -0.369 A  
HETATM   10  C   UNL     1     -11.751  12.367  68.135  1.00  0.00    -0.408 A  
HETATM   11  C   UNL     1     -11.214  13.414  66.009  1.00  0.00    -0.310 A  
HETATM   12  C   UNL     1     -11.596  12.292  66.746  1.00  0.00    -0.434 A  
BRANCH  10  13
HETATM   13  C   UNL     1     -12.203  11.180  68.961  1.00  0.00    -0.194 C  
BRANCH  13  14
HETATM   14  C   UNL     1     -11.664  11.148  70.392  1.00  0.00    -0.415 C  
BRANCH  14  15
HETATM   15  C   UNL     1     -12.767  11.015  71.423  1.00  0.00    -0.429 C  
HETATM   16  O   UNL     1     -13.405  11.979  71.844  1.00  0.00    -0.456 OA 
HETATM   17  C   UNL     1     -13.066   9.622  71.916  1.00  0.00    -0.530 C  
ENDBRANCH  14  15
ENDBRANCH  13  14
ENDBRANCH  10  13
ENDBRANCH   2   3
TORSDOF 4
ENDMDL
MODEL       40
REMARK 921   NORMALIZED FREE ENERGY PREDICTED BY IDOCK:   -5.14 KCAL/MOL
REMARK 922        TOTAL FREE ENERGY PREDICTED BY IDOCK:   -6.73 KCAL/MOL
REMARK 923 INTER-LIGAND FREE ENERGY PREDICTED BY IDOCK:   -6.47 KCAL/MOL
REMARK 924 INTRA-LIGAND FREE ENERGY PREDICTED BY IDOCK:   -0.26 KCAL/MOL
REMARK 927      BINDING AFFINITY PREDICTED BY RF-SCORE:    0.00 PKD
ROOT
HETATM    1  C   UNL     1     -12.311  12.099  63.560  1.00  0.00    -0.574 C  
HETATM    2  O   UNL     1     -12.828  12.541  64.810  1.00  0.00    -0.755 OA 
ENDROOT
BRANCH   2   3
HETATM    3  C   UNL     1     -12.239  13.644  65.364  1.00  0.00    -0.444 A  
HETATM    4  C   UNL     1     -12.161  13.928  66.727  1.00  0.00    -0.476 A  
HETATM    5  C   UNL     1     -11.510  15.086  67.187  1.00  0.00    -0.304 A  
HETATM    6  C   UNL     1     -10.937  15.984  66.262  1.00  0.00    -0.071 A  
HETATM    7  C   UNL     1     -11.034  15.697  64.892  1.00  0.00    -0.447 A  
HETATM    8  C   UNL     1     -10.290  17.140  66.742  1.00  0.00    -0.302 A  
HETATM    9  C   UNL     1     -11.674  14.536  64.450  1.00  0.00    -0.381 A  
HETATM   10  C   UNL     1     -10.182  17.407  68.119  1.00  0.00    -0.350 A  
HETATM   11  C   UNL     1     -11.422  15.362  68.556  1.00  0.00    -0.360 A  
HETATM   12  C   UNL     1     -10.772  16.509  69.016  1.00  0.00    -0.332 A  
BRANCH  10  13
HETATM   13  C   UNL     1      -9.504  18.680  68.580  1.00  0.00    -0.386 C  
BRANCH  13  14
HETATM   14  C   UNL     1      -7.979  18.602  68.669  1.00  0.00    -0.356 C  
BRANCH  14  15
HETATM   15  C   UNL     1      -7.306  19.858  68.152  1.00  0.00    -0.303 C  
HETATM   16  O   UNL     1      -7.870  20.659  67.407  1.00  0.00    -0.331 OA 
HETATM   17  C   UNL     1      -5.887  20.097  68.602  1.00  0.00    -0.297 C  
ENDBRANCH  14  15
ENDBRANCH  13  14
ENDBRANCH  10  13
ENDBRANCH   2   3
TORSDOF 4
ENDMDL
MODEL       41
REMARK 921   NORMALIZED FREE ENERGY PREDICTED BY IDOCK:   -5.12 KCAL/MOL
REMARK 922        TOTAL FREE ENERGY PREDICTED BY IDOCK:   -6.70 KCAL/MOL
REMARK 923 INTER-LIGAND FREE ENERGY PREDICTED BY IDOCK:   -6.45 KCAL/MOL
REMARK 924 INTRA-LIGAND FREE ENERGY PREDICTED BY IDOCK:   -0.26 KCAL/MOL
REMARK 927      BINDING AFFINITY PREDICTED BY RF-SCORE:    0.00 PKD
ROOT
HETATM    1  C   UNL     1      -9.313  11.103  62.781  1.00  0.00    -0.351 C  
HETATM    2  O   UNL     1      -9.603  10.127  63.777  1.00  0.00    -0.293 OA 
ENDROOT
BRANCH   2   3
HETATM    3  C   UNL     1     -10.144  10.586  64.946  1.00  0.00    -0.333 A  
HETATM    4  C   UNL     1     -10.118   9.919  66.171  1.00  0.00    -0.315 A  
HETATM    5  C   UNL     1     -10.690  10.496  67.319  1.00  0.00    -0.333 A  
HETATM    6  C   UNL     1     -11.312  11.760  67.235  1.00  0.00    -0.379 A  
HETATM    7  C   UNL     1     -11.346  12.416  65.994  1.00  0.00    -0.397 A  
HETATM    8  C   UNL     1     -11.881  12.321  68.395  1.00  0.00    -0.358 A  
HETATM    9  C   UNL     1     -10.762  11.835  64.864  1.00  0.00    -0.347 A  
HETATM   10  C   UNL     1     -11.823  11.663  69.636  1.00  0.00    -0.419 A  
HETATM   11  C   UNL     1     -10.652   9.831  68.550  1.00  0.00    -0.252 A  
HETATM   12  C   UNL     1     -11.215  10.404  69.692  1.00  0.00    -0.333 A  
BRANCH  10  13
HETATM   13  C   UNL     1     -12.478  12.297  70.846  1.00  0.00    -0.371 C  
BRANCH  13  14
HETATM   14  C   UNL     1     -12.640  13.816  70.770  1.00  0.00    -0.410 C  
BRANCH  14  15
HETATM   15  C   UNL     1     -12.905  14.437  72.127  1.00  0.00    -0.342 C  
HETATM   16  O   UNL     1     -13.830  14.079  72.855  1.00  0.00    -0.657 OA 
HETATM   17  C   UNL     1     -11.963  15.530  72.565  1.00  0.00    -0.557 C  
ENDBRANCH  14  15
ENDBRANCH  13  14
ENDBRANCH  10  13
ENDBRANCH   2   3
TORSDOF 4
ENDMDL
MODEL       42
REMARK 921   NORMALIZED FREE ENERGY PREDICTED BY IDOCK:   -5.07 KCAL/MOL
REMARK 922        TOTAL FREE ENERGY PREDICTED BY IDOCK:   -6.64 KCAL/MOL
REMARK 923 INTER-LIGAND FREE ENERGY PREDICTED BY IDOCK:   -6.24 KCAL/MOL
REMARK 924 INTRA-LIGAND FREE ENERGY PREDICTED BY IDOCK:   -0.40 KCAL/MOL
REMARK 927      BINDING AFFINITY PREDICTED BY RF-SCORE:    0.00 PKD
ROOT
HETATM    1  C   UNL     1      -9.813  19.656  68.024  1.00  0.00    -0.415 C  
HETATM    2  O   UNL     1     -10.359  18.467  68.583  1.00  0.00    -0.363 OA 
ENDROOT
BRANCH   2   3
HETATM    3  C   UNL     1     -10.517  17.405  67.735  1.00  0.00    -0.376 A  
HETATM    4  C   UNL     1     -11.054  16.164  68.077  1.00  0.00    -0.317 A  
HETATM    5  C   UNL     1     -11.190  15.148  67.115  1.00  0.00    -0.320 A  
HETATM    6  C   UNL     1     -10.766  15.374  65.788  1.00  0.00    -0.360 A  
HETATM    7  C   UNL     1     -10.214  16.622  65.458  1.00  0.00    -0.227 A  
HETATM    8  C   UNL     1     -10.909  14.343  64.839  1.00  0.00    -0.430 A  
HETATM    9  C   UNL     1     -10.097  17.627  66.423  1.00  0.00    -0.356 A  
HETATM   10  C   UNL     1     -11.483  13.105  65.177  1.00  0.00    -0.327 A  
HETATM   11  C   UNL     1     -11.740  13.907  67.456  1.00  0.00    -0.416 A  
HETATM   12  C   UNL     1     -11.880  12.897  66.503  1.00  0.00    -0.473 A  
BRANCH  10  13
HETATM   13  C   UNL     1     -11.583  12.019  64.125  1.00  0.00    -0.460 C  
BRANCH  13  14
HETATM   14  C   UNL     1     -10.339  11.852  63.251  1.00  0.00    -0.432 C  
BRANCH  14  15
HETATM   15  C   UNL     1      -9.658  10.515  63.465  1.00  0.00    -0.326 C  
HETATM   16  O   UNL     1      -9.242   9.822  62.536  1.00  0.00    -0.283 OA 
HETATM   17  C   UNL     1      -9.499  10.059  64.893  1.00  0.00    -0.355 C  
ENDBRANCH  14  15
ENDBRANCH  13  14
ENDBRANCH  10  13
ENDBRANCH   2   3
TORSDOF 4
ENDMDL
MODEL       43
REMARK 921   NORMALIZED FREE ENERGY PREDICTED BY IDOCK:   -5.06 KCAL/MOL
REMARK 922        TOTAL FREE ENERGY PREDICTED BY IDOCK:   -6.62 KCAL/MOL
REMARK 923 INTER-LIGAND FREE ENERGY PREDICTED BY IDOCK:   -6.25 KCAL/MOL
REMARK 924 INTRA-LIGAND FREE ENERGY PREDICTED BY IDOCK:   -0.38 KCAL/MOL
REMARK 927      BINDING AFFINITY PREDICTED BY RF-SCORE:    0.00 PKD
ROOT
HETATM    1  C   UNL     1     -10.887  10.011  67.654  1.00  0.00    -0.278 C  
HETATM    2  O   UNL     1     -11.978  10.907  67.833  1.00  0.00    -0.585 OA 
ENDROOT
BRANCH   2   3
HETATM    3  C   UNL     1     -11.680  12.242  67.844  1.00  0.00    -0.347 A  
HETATM    4  C   UNL     1     -11.547  13.037  68.982  1.00  0.00    -0.367 A  
HETATM    5  C   UNL     1     -11.217  14.399  68.876  1.00  0.00    -0.284 A  
HETATM    6  C   UNL     1     -11.030  14.980  67.604  1.00  0.00    -0.305 A  
HETATM    7  C   UNL     1     -11.181  14.176  66.464  1.00  0.00    -0.333 A  
HETATM    8  C   UNL     1     -10.700  16.348  67.519  1.00  0.00    -0.298 A  
HETATM    9  C   UNL     1     -11.498  12.820  66.586  1.00  0.00    -0.404 A  
HETATM   10  C   UNL     1     -10.532  17.139  68.669  1.00  0.00    -0.366 A  
HETATM   11  C   UNL     1     -11.071  15.192  70.021  1.00  0.00    -0.297 A  
HETATM   12  C   UNL     1     -10.739  16.544  69.919  1.00  0.00    -0.269 A  
BRANCH  10  13
HETATM   13  C   UNL     1     -10.210  18.611  68.519  1.00  0.00    -0.398 C  
BRANCH  13  14
HETATM   14  C   UNL     1      -8.842  18.912  67.903  1.00  0.00    -0.326 C  
BRANCH  14  15
HETATM   15  C   UNL     1      -8.943  19.329  66.449  1.00  0.00    -0.352 C  
HETATM   16  O   UNL     1      -7.978  19.326  65.686  1.00  0.00    -0.431 OA 
HETATM   17  C   UNL     1     -10.307  19.749  65.961  1.00  0.00    -0.612 C  
ENDBRANCH  14  15
ENDBRANCH  13  14
ENDBRANCH  10  13
ENDBRANCH   2   3
TORSDOF 4
ENDMDL
MODEL       44
REMARK 921   NORMALIZED FREE ENERGY PREDICTED BY IDOCK:   -5.01 KCAL/MOL
REMARK 922        TOTAL FREE ENERGY PREDICTED BY IDOCK:   -6.56 KCAL/MOL
REMARK 923 INTER-LIGAND FREE ENERGY PREDICTED BY IDOCK:   -6.20 KCAL/MOL
REMARK 924 INTRA-LIGAND FREE ENERGY PREDICTED BY IDOCK:   -0.36 KCAL/MOL
REMARK 927      BINDING AFFINITY PREDICTED BY RF-SCORE:    0.00 PKD
ROOT
HETATM    1  C   UNL     1     -10.708  15.669  65.102  1.00  0.00    -0.443 C  
HETATM    2  O   UNL     1     -11.739  14.696  65.228  1.00  0.00    -0.353 OA 
ENDROOT
BRANCH   2   3
HETATM    3  C   UNL     1     -11.691  13.889  66.332  1.00  0.00    -0.383 A  
HETATM    4  C   UNL     1     -11.333  12.541  66.340  1.00  0.00    -0.379 A  
HETATM    5  C   UNL     1     -11.298  11.811  67.541  1.00  0.00    -0.377 A  
HETATM    6  C   UNL     1     -11.641  12.441  68.756  1.00  0.00    -0.373 A  
HETATM    7  C   UNL     1     -12.015  13.794  68.735  1.00  0.00    -0.400 A  
HETATM    8  C   UNL     1     -11.601  11.692  69.949  1.00  0.00    -0.366 A  
HETATM    9  C   UNL     1     -12.034  14.509  67.535  1.00  0.00    -0.358 A  
HETATM   10  C   UNL     1     -11.206  10.343  69.960  1.00  0.00    -0.385 A  
HETATM   11  C   UNL     1     -10.926  10.462  67.548  1.00  0.00    -0.358 A  
HETATM   12  C   UNL     1     -10.886   9.736  68.740  1.00  0.00    -0.219 A  
BRANCH  10  13
HETATM   13  C   UNL     1     -11.212   9.575  71.266  1.00  0.00    -0.452 C  
BRANCH  13  14
HETATM   14  C   UNL     1     -12.281   8.486  71.369  1.00  0.00    -0.343 C  
BRANCH  14  15
HETATM   15  C   UNL     1     -11.687   7.092  71.357  1.00  0.00    -0.306 C  
HETATM   16  O   UNL     1     -11.290   6.528  72.377  1.00  0.00    -0.261 OA 
HETATM   17  C   UNL     1     -11.608   6.402  70.019  1.00  0.00    -0.446 C  
ENDBRANCH  14  15
ENDBRANCH  13  14
ENDBRANCH  10  13
ENDBRANCH   2   3
TORSDOF 4
ENDMDL
MODEL       45
REMARK 921   NORMALIZED FREE ENERGY PREDICTED BY IDOCK:   -5.00 KCAL/MOL
REMARK 922        TOTAL FREE ENERGY PREDICTED BY IDOCK:   -6.55 KCAL/MOL
REMARK 923 INTER-LIGAND FREE ENERGY PREDICTED BY IDOCK:   -6.26 KCAL/MOL
REMARK 924 INTRA-LIGAND FREE ENERGY PREDICTED BY IDOCK:   -0.29 KCAL/MOL
REMARK 927      BINDING AFFINITY PREDICTED BY RF-SCORE:    0.00 PKD
ROOT
HETATM    1  C   UNL     1      -8.371  19.013  68.734  1.00  0.00    -0.329 C  
HETATM    2  O   UNL     1      -9.764  18.783  68.913  1.00  0.00    -0.372 OA 
ENDROOT
BRANCH   2   3
HETATM    3  C   UNL     1     -10.286  17.671  68.311  1.00  0.00    -0.374 A  
HETATM    4  C   UNL     1     -10.363  17.450  66.936  1.00  0.00    -0.317 A  
HETATM    5  C   UNL     1     -10.902  16.256  66.427  1.00  0.00    -0.100 A  
HETATM    6  C   UNL     1     -11.384  15.268  67.312  1.00  0.00    -0.269 A  
HETATM    7  C   UNL     1     -11.315  15.506  68.694  1.00  0.00    -0.348 A  
HETATM    8  C   UNL     1     -11.921  14.078  66.782  1.00  0.00    -0.473 A  
HETATM    9  C   UNL     1     -10.766  16.694  69.185  1.00  0.00    -0.342 A  
HETATM   10  C   UNL     1     -11.967  13.843  65.397  1.00  0.00    -0.393 A  
HETATM   11  C   UNL     1     -10.968  16.031  65.047  1.00  0.00    -0.393 A  
HETATM   12  C   UNL     1     -11.498  14.844  64.538  1.00  0.00    -0.328 A  
BRANCH  10  13
HETATM   13  C   UNL     1     -12.585  12.561  64.879  1.00  0.00    -0.469 C  
BRANCH  13  14
HETATM   14  C   UNL     1     -11.998  12.048  63.562  1.00  0.00    -0.605 C  
BRANCH  14  15
HETATM   15  C   UNL     1     -10.591  11.510  63.728  1.00  0.00    -0.406 C  
HETATM   16  O   UNL     1      -9.746  11.564  62.834  1.00  0.00    -0.372 OA 
HETATM   17  C   UNL     1     -10.255  10.899  65.065  1.00  0.00    -0.367 C  
ENDBRANCH  14  15
ENDBRANCH  13  14
ENDBRANCH  10  13
ENDBRANCH   2   3
TORSDOF 4
ENDMDL
MODEL       46
REMARK 921   NORMALIZED FREE ENERGY PREDICTED BY IDOCK:   -4.99 KCAL/MOL
REMARK 922        TOTAL FREE ENERGY PREDICTED BY IDOCK:   -6.54 KCAL/MOL
REMARK 923 INTER-LIGAND FREE ENERGY PREDICTED BY IDOCK:   -6.13 KCAL/MOL
REMARK 924 INTRA-LIGAND FREE ENERGY PREDICTED BY IDOCK:   -0.40 KCAL/MOL
REMARK 927      BINDING AFFINITY PREDICTED BY RF-SCORE:    0.00 PKD
ROOT
HETATM    1  C   UNL     1      -6.929  20.784  67.250  1.00  0.00    -0.358 C  
HETATM    2  O   UNL     1      -7.377  19.965  68.324  1.00  0.00    -0.296 OA 
ENDROOT
BRANCH   2   3
HETATM    3  C   UNL     1      -8.160  18.893  67.994  1.00  0.00    -0.292 A  
HETATM    4  C   UNL     1      -9.126  18.308  68.812  1.00  0.00    -0.247 A  
HETATM    5  C   UNL     1      -9.890  17.218  68.360  1.00  0.00    -0.309 A  
HETATM    6  C   UNL     1      -9.673  16.695  67.067  1.00  0.00    -0.253 A  
HETATM    7  C   UNL     1      -8.689  17.282  66.257  1.00  0.00    -0.259 A  
HETATM    8  C   UNL     1     -10.449  15.602  66.632  1.00  0.00    -0.301 A  
HETATM    9  C   UNL     1      -7.945  18.373  66.716  1.00  0.00    -0.261 A  
HETATM   10  C   UNL     1     -11.446  15.036  67.446  1.00  0.00    -0.326 A  
HETATM   11  C   UNL     1     -10.868  16.640  69.178  1.00  0.00    -0.315 A  
HETATM   12  C   UNL     1     -11.631  15.560  68.730  1.00  0.00    -0.390 A  
BRANCH  10  13
HETATM   13  C   UNL     1     -12.228  13.841  66.942  1.00  0.00    -0.408 C  
BRANCH  13  14
HETATM   14  C   UNL     1     -12.736  13.963  65.504  1.00  0.00    -0.536 C  
BRANCH  14  15
HETATM   15  C   UNL     1     -12.336  12.778  64.648  1.00  0.00    -0.459 C  
HETATM   16  O   UNL     1     -12.950  12.452  63.632  1.00  0.00    -0.758 OA 
HETATM   17  C   UNL     1     -11.125  12.000  65.096  1.00  0.00    -0.369 C  
ENDBRANCH  14  15
ENDBRANCH  13  14
ENDBRANCH  10  13
ENDBRANCH   2   3
TORSDOF 4
ENDMDL
MODEL       47
REMARK 921   NORMALIZED FREE ENERGY PREDICTED BY IDOCK:   -4.97 KCAL/MOL
REMARK 922        TOTAL FREE ENERGY PREDICTED BY IDOCK:   -6.52 KCAL/MOL
REMARK 923 INTER-LIGAND FREE ENERGY PREDICTED BY IDOCK:   -6.25 KCAL/MOL
REMARK 924 INTRA-LIGAND FREE ENERGY PREDICTED BY IDOCK:   -0.27 KCAL/MOL
REMARK 927      BINDING AFFINITY PREDICTED BY RF-SCORE:    0.00 PKD
ROOT
HETATM    1  C   UNL     1     -13.257  15.989  72.993  1.00  0.00    -0.498 C  
HETATM    2  O   UNL     1     -13.785  14.668  72.952  1.00  0.00    -0.529 OA 
ENDROOT
BRANCH   2   3
HETATM    3  C   UNL     1     -13.261  13.827  72.010  1.00  0.00    -0.432 A  
HETATM    4  C   UNL     1     -12.684  14.216  70.801  1.00  0.00    -0.414 A  
HETATM    5  C   UNL     1     -12.155  13.263  69.914  1.00  0.00    -0.377 A  
HETATM    6  C   UNL     1     -12.216  11.891  70.237  1.00  0.00    -0.353 A  
HETATM    7  C   UNL     1     -12.812  11.508  71.449  1.00  0.00    -0.489 A  
HETATM    8  C   UNL     1     -11.681  10.950  69.335  1.00  0.00    -0.397 A  
HETATM    9  C   UNL     1     -13.323  12.469  72.327  1.00  0.00    -0.475 A  
HETATM   10  C   UNL     1     -11.070  11.348  68.133  1.00  0.00    -0.306 A  
HETATM   11  C   UNL     1     -11.565  13.657  68.707  1.00  0.00    -0.359 A  
HETATM   12  C   UNL     1     -11.035  12.713  67.826  1.00  0.00    -0.266 A  
BRANCH  10  13
HETATM   13  C   UNL     1     -10.540  10.294  67.183  1.00  0.00    -0.320 C  
BRANCH  13  14
HETATM   14  C   UNL     1     -10.061   9.004  67.853  1.00  0.00    -0.246 C  
BRANCH  14  15
HETATM   15  C   UNL     1     -10.061   7.825  66.902  1.00  0.00    -0.286 C  
HETATM   16  O   UNL     1      -9.287   7.735  65.949  1.00  0.00    -0.095 OA 
HETATM   17  C   UNL     1     -11.065   6.735  67.179  1.00  0.00    -0.404 C  
ENDBRANCH  14  15
ENDBRANCH  13  14
ENDBRANCH  10  13
ENDBRANCH   2   3
TORSDOF 4
ENDMDL
MODEL       48
REMARK 921   NORMALIZED FREE ENERGY PREDICTED BY IDOCK:   -4.97 KCAL/MOL
REMARK 922        TOTAL FREE ENERGY PREDICTED BY IDOCK:   -6.51 KCAL/MOL
REMARK 923 INTER-LIGAND FREE ENERGY PREDICTED BY IDOCK:   -6.25 KCAL/MOL
REMARK 924 INTRA-LIGAND FREE ENERGY PREDICTED BY IDOCK:   -0.27 KCAL/MOL
REMARK 927      BINDING AFFINITY PREDICTED BY RF-SCORE:    0.00 PKD
ROOT
HETATM    1  C   UNL     1     -13.475  13.960  72.569  1.00  0.00    -0.572 C  
HETATM    2  O   UNL     1     -12.905  14.989  71.768  1.00  0.00    -0.303 OA 
ENDROOT
BRANCH   2   3
HETATM    3  C   UNL     1     -12.400  14.614  70.554  1.00  0.00    -0.337 A  
HETATM    4  C   UNL     1     -12.232  13.301  70.113  1.00  0.00    -0.376 A  
HETATM    5  C   UNL     1     -11.721  13.030  68.832  1.00  0.00    -0.371 A  
HETATM    6  C   UNL     1     -11.360  14.095  67.979  1.00  0.00    -0.324 A  
HETATM    7  C   UNL     1     -11.520  15.412  68.437  1.00  0.00    -0.365 A  
HETATM    8  C   UNL     1     -10.849  13.803  66.699  1.00  0.00    -0.288 A  
HETATM    9  C   UNL     1     -12.040  15.666  69.710  1.00  0.00    -0.346 A  
HETATM   10  C   UNL     1     -10.713  12.480  66.244  1.00  0.00    -0.288 A  
HETATM   11  C   UNL     1     -11.564  11.712  68.387  1.00  0.00    -0.376 A  
HETATM   12  C   UNL     1     -11.062  11.440  67.113  1.00  0.00    -0.366 A  
BRANCH  10  13
HETATM   13  C   UNL     1     -10.128  12.221  64.871  1.00  0.00    -0.274 C  
BRANCH  13  14
HETATM   14  C   UNL     1     -11.060  11.495  63.899  1.00  0.00    -0.458 C  
BRANCH  14  15
HETATM   15  C   UNL     1     -12.286  12.317  63.553  1.00  0.00    -0.568 C  
HETATM   16  O   UNL     1     -13.398  11.818  63.387  1.00  0.00    -0.510 OA 
HETATM   17  C   UNL     1     -12.086  13.805  63.424  1.00  0.00    -0.122 C  
ENDBRANCH  14  15
ENDBRANCH  13  14
ENDBRANCH  10  13
ENDBRANCH   2   3
TORSDOF 4
ENDMDL
MODEL       49
REMARK 921   NORMALIZED FREE ENERGY PREDICTED BY IDOCK:   -4.96 KCAL/MOL
REMARK 922        TOTAL FREE ENERGY PREDICTED BY IDOCK:   -6.51 KCAL/MOL
REMARK 923 INTER-LIGAND FREE ENERGY PREDICTED BY IDOCK:   -6.14 KCAL/MOL
REMARK 924 INTRA-LIGAND FREE ENERGY PREDICTED BY IDOCK:   -0.37 KCAL/MOL
REMARK 927      BINDING AFFINITY PREDICTED BY RF-SCORE:    0.00 PKD
ROOT
HETATM    1  C   UNL     1      -6.330  21.102  66.688  1.00  0.00    -0.298 C  
HETATM    2  O   UNL     1      -7.551  21.290  67.394  1.00  0.00    -0.410 OA 
ENDROOT
BRANCH   2   3
HETATM    3  C   UNL     1      -8.332  20.182  67.577  1.00  0.00    -0.332 A  
HETATM    4  C   UNL     1      -7.897  18.955  68.079  1.00  0.00    -0.305 A  
HETATM    5  C   UNL     1      -8.794  17.886  68.246  1.00  0.00    -0.277 A  
HETATM    6  C   UNL     1     -10.151  18.044  67.892  1.00  0.00    -0.360 A  
HETATM    7  C   UNL     1     -10.575  19.278  67.374  1.00  0.00    -0.594 A  
HETATM    8  C   UNL     1     -11.035  16.961  68.066  1.00  0.00    -0.271 A  
HETATM    9  C   UNL     1      -9.673  20.336  67.225  1.00  0.00    -0.590 A  
HETATM   10  C   UNL     1     -10.602  15.736  68.603  1.00  0.00    -0.250 A  
HETATM   11  C   UNL     1      -8.359  16.659  68.761  1.00  0.00    -0.252 A  
HETATM   12  C   UNL     1      -9.249  15.597  68.932  1.00  0.00    -0.226 A  
BRANCH  10  13
HETATM   13  C   UNL     1     -11.586  14.593  68.739  1.00  0.00    -0.346 C  
BRANCH  13  14
HETATM   14  C   UNL     1     -11.965  13.909  67.424  1.00  0.00    -0.436 C  
BRANCH  14  15
HETATM   15  C   UNL     1     -11.469  12.478  67.354  1.00  0.00    -0.341 C  
HETATM   16  O   UNL     1     -12.149  11.518  67.716  1.00  0.00    -0.626 OA 
HETATM   17  C   UNL     1     -10.081  12.271  66.803  1.00  0.00    -0.224 C  
ENDBRANCH  14  15
ENDBRANCH  13  14
ENDBRANCH  10  13
ENDBRANCH   2   3
TORSDOF 4
ENDMDL
MODEL       50
REMARK 921   NORMALIZED FREE ENERGY PREDICTED BY IDOCK:   -4.95 KCAL/MOL
REMARK 922        TOTAL FREE ENERGY PREDICTED BY IDOCK:   -6.49 KCAL/MOL
REMARK 923 INTER-LIGAND FREE ENERGY PREDICTED BY IDOCK:   -6.14 KCAL/MOL
REMARK 924 INTRA-LIGAND FREE ENERGY PREDICTED BY IDOCK:   -0.35 KCAL/MOL
REMARK 927      BINDING AFFINITY PREDICTED BY RF-SCORE:    0.00 PKD
ROOT
HETATM    1  C   UNL     1     -13.697  15.773  72.749  1.00  0.00    -0.560 C  
HETATM    2  O   UNL     1     -13.590  15.446  71.368  1.00  0.00    -0.479 OA 
ENDROOT
BRANCH   2   3
HETATM    3  C   UNL     1     -13.064  14.220  71.065  1.00  0.00    -0.328 A  
HETATM    4  C   UNL     1     -13.397  13.016  71.686  1.00  0.00    -0.379 A  
HETATM    5  C   UNL     1     -12.807  11.807  71.279  1.00  0.00    -0.409 A  
HETATM    6  C   UNL     1     -11.855  11.805  70.238  1.00  0.00    -0.382 A  
HETATM    7  C   UNL     1     -11.516  13.024  69.629  1.00  0.00    -0.253 A  
HETATM    8  C   UNL     1     -11.274  10.583  69.844  1.00  0.00    -0.374 A  
HETATM    9  C   UNL     1     -12.120  14.217  70.038  1.00  0.00    -0.409 A  
HETATM   10  C   UNL     1     -11.636   9.367  70.448  1.00  0.00    -0.241 A  
HETATM   11  C   UNL     1     -13.152  10.599  71.895  1.00  0.00    -0.563 A  
HETATM   12  C   UNL     1     -12.571   9.396  71.489  1.00  0.00    -0.447 A  
BRANCH  10  13
HETATM   13  C   UNL     1     -10.957   8.086  70.009  1.00  0.00    -0.202 C  
BRANCH  13  14
HETATM   14  C   UNL     1      -9.943   8.250  68.875  1.00  0.00    -0.193 C  
BRANCH  14  15
HETATM   15  C   UNL     1     -10.519   7.872  67.525  1.00  0.00    -0.262 C  
HETATM   16  O   UNL     1     -10.521   8.638  66.562  1.00  0.00    -0.249 OA 
HETATM   17  C   UNL     1     -11.096   6.485  67.403  1.00  0.00    -0.411 C  
ENDBRANCH  14  15
ENDBRANCH  13  14
ENDBRANCH  10  13
ENDBRANCH   2   3
TORSDOF 4
ENDMDL
MODEL       51
REMARK 921   NORMALIZED FREE ENERGY PREDICTED BY IDOCK:   -4.93 KCAL/MOL
REMARK 922        TOTAL FREE ENERGY PREDICTED BY IDOCK:   -6.46 KCAL/MOL
REMARK 923 INTER-LIGAND FREE ENERGY PREDICTED BY IDOCK:   -6.22 KCAL/MOL
REMARK 924 INTRA-LIGAND FREE ENERGY PREDICTED BY IDOCK:   -0.24 KCAL/MOL
REMARK 927      BINDING AFFINITY PREDICTED BY RF-SCORE:    0.00 PKD
ROOT
HETATM    1  C   UNL     1     -11.199   4.898  73.134  1.00  0.00    -0.326 C  
HETATM    2  O   UNL     1     -10.642   5.367  71.911  1.00  0.00    -0.221 OA 
ENDROOT
BRANCH   2   3
HETATM    3  C   UNL     1     -10.885   6.673  71.587  1.00  0.00    -0.234 A  
HETATM    4  C   UNL     1     -11.931   7.453  72.080  1.00  0.00    -0.333 A  
HETATM    5  C   UNL     1     -12.074   8.797  71.693  1.00  0.00    -0.401 A  
HETATM    6  C   UNL     1     -11.159   9.368  70.783  1.00  0.00    -0.365 A  
HETATM    7  C   UNL     1     -10.118   8.570  70.281  1.00  0.00    -0.199 A  
HETATM    8  C   UNL     1     -11.319  10.716  70.406  1.00  0.00    -0.389 A  
HETATM    9  C   UNL     1      -9.982   7.239  70.685  1.00  0.00    -0.187 A  
HETATM   10  C   UNL     1     -12.354  11.510  70.931  1.00  0.00    -0.460 A  
HETATM   11  C   UNL     1     -13.117   9.581  72.198  1.00  0.00    -0.522 A  
HETATM   12  C   UNL     1     -13.259  10.917  71.819  1.00  0.00    -0.513 A  
BRANCH  10  13
HETATM   13  C   UNL     1     -12.500  12.944  70.468  1.00  0.00    -0.294 C  
BRANCH  13  14
HETATM   14  C   UNL     1     -13.129  13.892  71.492  1.00  0.00    -0.441 C  
BRANCH  14  15
HETATM   15  C   UNL     1     -12.419  15.229  71.553  1.00  0.00    -0.361 C  
HETATM   16  O   UNL     1     -12.124  15.874  70.548  1.00  0.00    -0.375 OA 
HETATM   17  C   UNL     1     -12.088  15.755  72.927  1.00  0.00    -0.596 C  
ENDBRANCH  14  15
ENDBRANCH  13  14
ENDBRANCH  10  13
ENDBRANCH   2   3
TORSDOF 4
ENDMDL
MODEL       52
REMARK 921   NORMALIZED FREE ENERGY PREDICTED BY IDOCK:   -4.90 KCAL/MOL
REMARK 922        TOTAL FREE ENERGY PREDICTED BY IDOCK:   -6.44 KCAL/MOL
REMARK 923 INTER-LIGAND FREE ENERGY PREDICTED BY IDOCK:   -6.08 KCAL/MOL
REMARK 924 INTRA-LIGAND FREE ENERGY PREDICTED BY IDOCK:   -0.36 KCAL/MOL
REMARK 927      BINDING AFFINITY PREDICTED BY RF-SCORE:    0.00 PKD
ROOT
HETATM    1  C   UNL     1      -6.161  21.093  67.725  1.00  0.00    -0.363 C  
HETATM    2  O   UNL     1      -7.519  21.250  67.332  1.00  0.00    -0.450 OA 
ENDROOT
BRANCH   2   3
HETATM    3  C   UNL     1      -8.355  20.195  67.574  1.00  0.00    -0.332 A  
HETATM    4  C   UNL     1      -7.973  18.956  68.089  1.00  0.00    -0.330 A  
HETATM    5  C   UNL     1      -8.924  17.946  68.319  1.00  0.00    -0.277 A  
HETATM    6  C   UNL     1     -10.282  18.177  68.015  1.00  0.00    -0.392 A  
HETATM    7  C   UNL     1     -10.654  19.422  67.484  1.00  0.00    -0.591 A  
HETATM    8  C   UNL     1     -11.220  17.152  68.252  1.00  0.00     0.028 A  
HETATM    9  C   UNL     1      -9.699  20.420  67.272  1.00  0.00    -0.602 A  
HETATM   10  C   UNL     1     -10.838  15.917  68.803  1.00  0.00    -0.284 A  
HETATM   11  C   UNL     1      -8.540  16.708  68.847  1.00  0.00    -0.235 A  
HETATM   12  C   UNL     1      -9.482  15.705  69.080  1.00  0.00    -0.256 A  
BRANCH  10  13
HETATM   13  C   UNL     1     -11.881  14.837  69.007  1.00  0.00    -0.337 C  
BRANCH  13  14
HETATM   14  C   UNL     1     -11.708  14.005  70.279  1.00  0.00    -0.308 C  
BRANCH  14  15
HETATM   15  C   UNL     1     -12.928  14.060  71.175  1.00  0.00    -0.332 C  
HETATM   16  O   UNL     1     -13.383  13.067  71.743  1.00  0.00    -0.416 OA 
HETATM   17  C   UNL     1     -13.574  15.410  71.354  1.00  0.00    -0.604 C  
ENDBRANCH  14  15
ENDBRANCH  13  14
ENDBRANCH  10  13
ENDBRANCH   2   3
TORSDOF 4
ENDMDL
MODEL       53
REMARK 921   NORMALIZED FREE ENERGY PREDICTED BY IDOCK:   -4.82 KCAL/MOL
REMARK 922        TOTAL FREE ENERGY PREDICTED BY IDOCK:   -6.33 KCAL/MOL
REMARK 923 INTER-LIGAND FREE ENERGY PREDICTED BY IDOCK:   -6.07 KCAL/MOL
REMARK 924 INTRA-LIGAND FREE ENERGY PREDICTED BY IDOCK:   -0.26 KCAL/MOL
REMARK 927      BINDING AFFINITY PREDICTED BY RF-SCORE:    0.00 PKD
ROOT
HETATM    1  C   UNL     1     -11.144   4.944  72.968  1.00  0.00    -0.295 C  
HETATM    2  O   UNL     1     -10.865   6.226  73.519  1.00  0.00    -0.257 OA 
ENDROOT
BRANCH   2   3
HETATM    3  C   UNL     1     -10.929   7.290  72.662  1.00  0.00    -0.299 A  
HETATM    4  C   UNL     1     -11.900   8.290  72.678  1.00  0.00    -0.382 A  
HETATM    5  C   UNL     1     -11.857   9.353  71.759  1.00  0.00    -0.452 A  
HETATM    6  C   UNL     1     -10.826   9.408  70.797  1.00  0.00    -0.372 A  
HETATM    7  C   UNL     1      -9.862   8.389  70.780  1.00  0.00    -0.215 A  
HETATM    8  C   UNL     1     -10.800  10.481  69.883  1.00  0.00    -0.334 A  
HETATM    9  C   UNL     1      -9.912   7.344  71.708  1.00  0.00    -0.192 A  
HETATM   10  C   UNL     1     -11.761  11.507  69.924  1.00  0.00    -0.420 A  
HETATM   11  C   UNL     1     -12.826  10.363  71.785  1.00  0.00    -0.561 A  
HETATM   12  C   UNL     1     -12.782  11.422  70.877  1.00  0.00    -0.397 A  
BRANCH  10  13
HETATM   13  C   UNL     1     -11.705  12.620  68.898  1.00  0.00    -0.370 C  
BRANCH  13  14
HETATM   14  C   UNL     1     -11.594  12.153  67.445  1.00  0.00    -0.410 C  
BRANCH  14  15
HETATM   15  C   UNL     1     -11.712  13.298  66.460  1.00  0.00    -0.377 C  
HETATM   16  O   UNL     1     -12.123  13.149  65.309  1.00  0.00    -0.376 OA 
HETATM   17  C   UNL     1     -11.303  14.661  66.958  1.00  0.00    -0.362 C  
ENDBRANCH  14  15
ENDBRANCH  13  14
ENDBRANCH  10  13
ENDBRANCH   2   3
TORSDOF 4
ENDMDL
MODEL       54
REMARK 921   NORMALIZED FREE ENERGY PREDICTED BY IDOCK:   -4.82 KCAL/MOL
REMARK 922        TOTAL FREE ENERGY PREDICTED BY IDOCK:   -6.33 KCAL/MOL
REMARK 923 INTER-LIGAND FREE ENERGY PREDICTED BY IDOCK:   -5.98 KCAL/MOL
REMARK 924 INTRA-LIGAND FREE ENERGY PREDICTED BY IDOCK:   -0.35 KCAL/MOL
REMARK 927      BINDING AFFINITY PREDICTED BY RF-SCORE:    0.00 PKD
ROOT
HETATM    1  C   UNL     1     -13.486  15.719  73.307  1.00  0.00    -0.487 C  
HETATM    2  O   UNL     1     -14.125  15.102  72.195  1.00  0.00    -0.464 OA 
ENDROOT
BRANCH   2   3
HETATM    3  C   UNL     1     -13.440  14.092  71.576  1.00  0.00    -0.344 A  
HETATM    4  C   UNL     1     -13.411  12.759  71.985  1.00  0.00    -0.565 A  
HETATM    5  C   UNL     1     -12.687  11.797  71.258  1.00  0.00    -0.420 A  
HETATM    6  C   UNL     1     -11.968  12.182  70.107  1.00  0.00    -0.394 A  
HETATM    7  C   UNL     1     -11.992  13.529  69.712  1.00  0.00    -0.405 A  
HETATM    8  C   UNL     1     -11.248  11.204  69.392  1.00  0.00    -0.334 A  
HETATM    9  C   UNL     1     -12.726  14.471  70.439  1.00  0.00    -0.378 A  
HETATM   10  C   UNL     1     -11.248   9.854  69.786  1.00  0.00    -0.279 A  
HETATM   11  C   UNL     1     -12.669  10.458  71.662  1.00  0.00    -0.560 A  
HETATM   12  C   UNL     1     -11.955   9.500  70.940  1.00  0.00    -0.372 A  
BRANCH  10  13
HETATM   13  C   UNL     1     -10.431   8.849  69.000  1.00  0.00    -0.231 C  
BRANCH  13  14
HETATM   14  C   UNL     1     -10.547   8.972  67.479  1.00  0.00    -0.306 C  
BRANCH  14  15
HETATM   15  C   UNL     1      -9.208   8.829  66.785  1.00  0.00    -0.169 C  
HETATM   16  O   UNL     1      -8.845   7.785  66.242  1.00  0.00    -0.146 OA 
HETATM   17  C   UNL     1      -8.319  10.046  66.776  1.00  0.00    -0.125 C  
ENDBRANCH  14  15
ENDBRANCH  13  14
ENDBRANCH  10  13
ENDBRANCH   2   3
TORSDOF 4
ENDMDL
MODEL       55
REMARK 921   NORMALIZED FREE ENERGY PREDICTED BY IDOCK:   -4.82 KCAL/MOL
REMARK 922        TOTAL FREE ENERGY PREDICTED BY IDOCK:   -6.33 KCAL/MOL
REMARK 923 INTER-LIGAND FREE ENERGY PREDICTED BY IDOCK:   -5.95 KCAL/MOL
REMARK 924 INTRA-LIGAND FREE ENERGY PREDICTED BY IDOCK:   -0.38 KCAL/MOL
REMARK 927      BINDING AFFINITY PREDICTED BY RF-SCORE:    0.00 PKD
ROOT
HETATM    1  C   UNL     1     -12.237  14.045  64.568  1.00  0.00    -0.434 C  
HETATM    2  O   UNL     1     -11.032  13.849  65.300  1.00  0.00    -0.308 OA 
ENDROOT
BRANCH   2   3
HETATM    3  C   UNL     1     -11.086  12.973  66.349  1.00  0.00    -0.287 A  
HETATM    4  C   UNL     1     -11.624  13.242  67.607  1.00  0.00    -0.386 A  
HETATM    5  C   UNL     1     -11.646  12.256  68.609  1.00  0.00    -0.372 A  
HETATM    6  C   UNL     1     -11.106  10.978  68.349  1.00  0.00    -0.308 A  
HETATM    7  C   UNL     1     -10.553  10.722  67.084  1.00  0.00    -0.306 A  
HETATM    8  C   UNL     1     -11.136  10.003  69.366  1.00  0.00    -0.265 A  
HETATM    9  C   UNL     1     -10.549  11.710  66.095  1.00  0.00    -0.306 A  
HETATM   10  C   UNL     1     -11.710  10.266  70.622  1.00  0.00    -0.438 A  
HETATM   11  C   UNL     1     -12.198  12.524  69.866  1.00  0.00    -0.233 A  
HETATM   12  C   UNL     1     -12.225  11.545  70.861  1.00  0.00    -0.425 A  
BRANCH  10  13
HETATM   13  C   UNL     1     -11.687   9.192  71.690  1.00  0.00    -0.448 C  
BRANCH  13  14
HETATM   14  C   UNL     1     -12.543   7.961  71.385  1.00  0.00    -0.319 C  
BRANCH  14  15
HETATM   15  C   UNL     1     -11.718   6.693  71.294  1.00  0.00    -0.334 C  
HETATM   16  O   UNL     1     -11.359   6.058  72.285  1.00  0.00    -0.275 OA 
HETATM   17  C   UNL     1     -11.352   6.225  69.908  1.00  0.00    -0.504 C  
ENDBRANCH  14  15
ENDBRANCH  13  14
ENDBRANCH  10  13
ENDBRANCH   2   3
TORSDOF 4
ENDMDL
MODEL       56
REMARK 921   NORMALIZED FREE ENERGY PREDICTED BY IDOCK:   -4.81 KCAL/MOL
REMARK 922        TOTAL FREE ENERGY PREDICTED BY IDOCK:   -6.32 KCAL/MOL
REMARK 923 INTER-LIGAND FREE ENERGY PREDICTED BY IDOCK:   -5.93 KCAL/MOL
REMARK 924 INTRA-LIGAND FREE ENERGY PREDICTED BY IDOCK:   -0.38 KCAL/MOL
REMARK 927      BINDING AFFINITY PREDICTED BY RF-SCORE:    0.00 PKD
ROOT
HETATM    1  C   UNL     1      -9.521  10.469  62.896  1.00  0.00    -0.333 C  
HETATM    2  O   UNL     1      -9.974  11.595  63.639  1.00  0.00    -0.315 OA 
ENDROOT
BRANCH   2   3
HETATM    3  C   UNL     1     -10.306  11.373  64.947  1.00  0.00    -0.292 A  
HETATM    4  C   UNL     1     -10.865  12.312  65.815  1.00  0.00    -0.313 A  
HETATM    5  C   UNL     1     -11.188  11.968  67.139  1.00  0.00    -0.374 A  
HETATM    6  C   UNL     1     -10.934  10.661  67.608  1.00  0.00    -0.370 A  
HETATM    7  C   UNL     1     -10.358   9.729  66.731  1.00  0.00    -0.289 A  
HETATM    8  C   UNL     1     -11.263  10.336  68.939  1.00  0.00    -0.259 A  
HETATM    9  C   UNL     1     -10.053  10.083  65.414  1.00  0.00    -0.317 A  
HETATM   10  C   UNL     1     -11.858  11.273  69.801  1.00  0.00    -0.437 A  
HETATM   11  C   UNL     1     -11.760  12.907  68.004  1.00  0.00    -0.401 A  
HETATM   12  C   UNL     1     -12.086  12.567  69.318  1.00  0.00    -0.214 A  
BRANCH  10  13
HETATM   13  C   UNL     1     -12.163  10.881  71.232  1.00  0.00    -0.395 C  
BRANCH  13  14
HETATM   14  C   UNL     1     -13.232   9.797  71.389  1.00  0.00    -0.482 C  
BRANCH  14  15
HETATM   15  C   UNL     1     -12.634   8.432  71.662  1.00  0.00    -0.332 C  
HETATM   16  O   UNL     1     -13.209   7.382  71.373  1.00  0.00    -0.364 OA 
HETATM   17  C   UNL     1     -11.272   8.408  72.307  1.00  0.00    -0.446 C  
ENDBRANCH  14  15
ENDBRANCH  13  14
ENDBRANCH  10  13
ENDBRANCH   2   3
TORSDOF 4
ENDMDL
MODEL       57
REMARK 921   NORMALIZED FREE ENERGY PREDICTED BY IDOCK:   -4.75 KCAL/MOL
REMARK 922        TOTAL FREE ENERGY PREDICTED BY IDOCK:   -6.25 KCAL/MOL
REMARK 923 INTER-LIGAND FREE ENERGY PREDICTED BY IDOCK:   -5.97 KCAL/MOL
REMARK 924 INTRA-LIGAND FREE ENERGY PREDICTED BY IDOCK:   -0.28 KCAL/MOL
REMARK 927      BINDING AFFINITY PREDICTED BY RF-SCORE:    0.00 PKD
ROOT
HETATM    1  C   UNL     1     -11.650   9.569  71.497  1.00  0.00    -0.395 C  
HETATM    2  O   UNL     1     -12.613  10.259  70.709  1.00  0.00    -0.325 OA 
ENDROOT
BRANCH   2   3
HETATM    3  C   UNL     1     -12.142  11.247  69.888  1.00  0.00    -0.341 A  
HETATM    4  C   UNL     1     -12.157  12.613  70.167  1.00  0.00    -0.368 A  
HETATM    5  C   UNL     1     -11.624  13.541  69.256  1.00  0.00    -0.369 A  
HETATM    6  C   UNL     1     -11.076  13.093  68.035  1.00  0.00    -0.290 A  
HETATM    7  C   UNL     1     -11.079  11.717  67.757  1.00  0.00    -0.309 A  
HETATM    8  C   UNL     1     -10.548  14.038  67.134  1.00  0.00    -0.274 A  
HETATM    9  C   UNL     1     -11.603  10.805  68.679  1.00  0.00    -0.342 A  
HETATM   10  C   UNL     1     -10.533  15.412  67.432  1.00  0.00    -0.277 A  
HETATM   11  C   UNL     1     -11.629  14.911  69.543  1.00  0.00    -0.333 A  
HETATM   12  C   UNL     1     -11.096  15.835  68.642  1.00  0.00    -0.327 A  
BRANCH  10  13
HETATM   13  C   UNL     1      -9.982  16.389  66.414  1.00  0.00    -0.318 C  
BRANCH  13  14
HETATM   14  C   UNL     1      -9.640  17.774  66.969  1.00  0.00    -0.284 C  
BRANCH  14  15
HETATM   15  C   UNL     1     -10.333  18.887  66.209  1.00  0.00    -0.453 C  
HETATM   16  O   UNL     1     -11.059  18.679  65.236  1.00  0.00    -0.409 OA 
HETATM   17  C   UNL     1     -10.101  20.291  66.707  1.00  0.00    -0.556 C  
ENDBRANCH  14  15
ENDBRANCH  13  14
ENDBRANCH  10  13
ENDBRANCH   2   3
TORSDOF 4
ENDMDL
MODEL       58
REMARK 921   NORMALIZED FREE ENERGY PREDICTED BY IDOCK:   -4.75 KCAL/MOL
REMARK 922        TOTAL FREE ENERGY PREDICTED BY IDOCK:   -6.25 KCAL/MOL
REMARK 923 INTER-LIGAND FREE ENERGY PREDICTED BY IDOCK:   -5.86 KCAL/MOL
REMARK 924 INTRA-LIGAND FREE ENERGY PREDICTED BY IDOCK:   -0.39 KCAL/MOL
REMARK 927      BINDING AFFINITY PREDICTED BY RF-SCORE:    0.00 PKD
ROOT
HETATM    1  C   UNL     1      -9.151   5.274  68.267  1.00  0.00    -0.110 C  
HETATM    2  O   UNL     1      -9.608   6.200  69.247  1.00  0.00    -0.132 OA 
ENDROOT
BRANCH   2   3
HETATM    3  C   UNL     1     -10.011   7.426  68.793  1.00  0.00    -0.169 A  
HETATM    4  C   UNL     1     -10.534   8.453  69.579  1.00  0.00    -0.225 A  
HETATM    5  C   UNL     1     -10.897   9.685  69.007  1.00  0.00    -0.206 A  
HETATM    6  C   UNL     1     -10.746   9.887  67.619  1.00  0.00    -0.339 A  
HETATM    7  C   UNL     1     -10.233   8.842  66.835  1.00  0.00    -0.347 A  
HETATM    8  C   UNL     1     -11.117  11.129  67.064  1.00  0.00    -0.339 A  
HETATM    9  C   UNL     1      -9.865   7.627  67.420  1.00  0.00    -0.226 A  
HETATM   10  C   UNL     1     -11.611  12.174  67.863  1.00  0.00    -0.413 A  
HETATM   11  C   UNL     1     -11.410  10.718  69.799  1.00  0.00    -0.372 A  
HETATM   12  C   UNL     1     -11.768  11.944  69.235  1.00  0.00    -0.389 A  
BRANCH  10  13
HETATM   13  C   UNL     1     -12.025  13.477  67.211  1.00  0.00    -0.408 C  
BRANCH  13  14
HETATM   14  C   UNL     1     -12.501  13.351  65.763  1.00  0.00    -0.496 C  
BRANCH  14  15
HETATM   15  C   UNL     1     -11.940  14.442  64.874  1.00  0.00    -0.426 C  
HETATM   16  O   UNL     1     -12.603  14.995  63.997  1.00  0.00    -0.817 OA 
HETATM   17  C   UNL     1     -10.506  14.839  65.116  1.00  0.00    -0.443 C  
ENDBRANCH  14  15
ENDBRANCH  13  14
ENDBRANCH  10  13
ENDBRANCH   2   3
TORSDOF 4
ENDMDL
MODEL       59
REMARK 921   NORMALIZED FREE ENERGY PREDICTED BY IDOCK:   -4.73 KCAL/MOL
REMARK 922        TOTAL FREE ENERGY PREDICTED BY IDOCK:   -6.22 KCAL/MOL
REMARK 923 INTER-LIGAND FREE ENERGY PREDICTED BY IDOCK:   -5.89 KCAL/MOL
REMARK 924 INTRA-LIGAND FREE ENERGY PREDICTED BY IDOCK:   -0.33 KCAL/MOL
REMARK 927      BINDING AFFINITY PREDICTED BY RF-SCORE:    0.00 PKD
ROOT
HETATM    1  C   UNL     1     -10.597   6.317  71.756  1.00  0.00    -0.225 C  
HETATM    2  O   UNL     1     -11.922   6.823  71.637  1.00  0.00    -0.311 OA 
ENDROOT
BRANCH   2   3
HETATM    3  C   UNL     1     -12.048   8.166  71.410  1.00  0.00    -0.297 A  
HETATM    4  C   UNL     1     -11.337   8.901  70.461  1.00  0.00    -0.268 A  
HETATM    5  C   UNL     1     -11.563  10.279  70.298  1.00  0.00    -0.396 A  
HETATM    6  C   UNL     1     -12.512  10.936  71.110  1.00  0.00    -0.511 A  
HETATM    7  C   UNL     1     -13.212  10.191  72.071  1.00  0.00    -0.534 A  
HETATM    8  C   UNL     1     -12.724  12.318  70.932  1.00  0.00    -0.277 A  
HETATM    9  C   UNL     1     -12.984   8.819  72.214  1.00  0.00    -0.462 A  
HETATM   10  C   UNL     1     -12.031  13.050  69.952  1.00  0.00    -0.381 A  
HETATM   11  C   UNL     1     -10.858  11.012  69.337  1.00  0.00    -0.278 A  
HETATM   12  C   UNL     1     -11.084  12.379  69.170  1.00  0.00    -0.260 A  
BRANCH  10  13
HETATM   13  C   UNL     1     -12.274  14.539  69.824  1.00  0.00    -0.360 C  
BRANCH  13  14
HETATM   14  C   UNL     1     -11.008  15.392  69.718  1.00  0.00    -0.294 C  
BRANCH  14  15
HETATM   15  C   UNL     1     -10.925  16.140  68.402  1.00  0.00    -0.341 C  
HETATM   16  O   UNL     1     -10.770  17.359  68.337  1.00  0.00    -0.358 OA 
HETATM   17  C   UNL     1     -11.032  15.312  67.147  1.00  0.00    -0.331 C  
ENDBRANCH  14  15
ENDBRANCH  13  14
ENDBRANCH  10  13
ENDBRANCH   2   3
TORSDOF 4
ENDMDL
MODEL       60
REMARK 921   NORMALIZED FREE ENERGY PREDICTED BY IDOCK:   -4.72 KCAL/MOL
REMARK 922        TOTAL FREE ENERGY PREDICTED BY IDOCK:   -6.21 KCAL/MOL
REMARK 923 INTER-LIGAND FREE ENERGY PREDICTED BY IDOCK:   -5.88 KCAL/MOL
REMARK 924 INTRA-LIGAND FREE ENERGY PREDICTED BY IDOCK:   -0.33 KCAL/MOL
REMARK 927      BINDING AFFINITY PREDICTED BY RF-SCORE:    0.00 PKD
ROOT
HETATM    1  C   UNL     1     -11.132  14.918  65.049  1.00  0.00    -0.414 C  
HETATM    2  O   UNL     1     -11.784  14.838  66.312  1.00  0.00    -0.343 OA 
ENDROOT
BRANCH   2   3
HETATM    3  C   UNL     1     -11.645  13.666  67.002  1.00  0.00    -0.359 A  
HETATM    4  C   UNL     1     -11.925  13.480  68.356  1.00  0.00    -0.378 A  
HETATM    5  C   UNL     1     -11.766  12.220  68.960  1.00  0.00    -0.376 A  
HETATM    6  C   UNL     1     -11.303  11.128  68.195  1.00  0.00    -0.377 A  
HETATM    7  C   UNL     1     -11.009  11.329  66.837  1.00  0.00    -0.348 A  
HETATM    8  C   UNL     1     -11.149   9.874  68.818  1.00  0.00    -0.179 A  
HETATM    9  C   UNL     1     -11.184  12.585  66.249  1.00  0.00    -0.359 A  
HETATM   10  C   UNL     1     -11.465   9.681  70.174  1.00  0.00    -0.238 A  
HETATM   11  C   UNL     1     -12.060  12.033  70.315  1.00  0.00    -0.395 A  
HETATM   12  C   UNL     1     -11.906  10.782  70.916  1.00  0.00    -0.400 A  
BRANCH  10  13
HETATM   13  C   UNL     1     -11.250   8.319  70.803  1.00  0.00    -0.284 C  
BRANCH  13  14
HETATM   14  C   UNL     1     -11.171   8.320  72.331  1.00  0.00    -0.451 C  
BRANCH  14  15
HETATM   15  C   UNL     1      -9.753   8.150  72.836  1.00  0.00    -0.270 C  
HETATM   16  O   UNL     1      -8.807   8.808  72.402  1.00  0.00    -0.391 OA 
HETATM   17  C   UNL     1      -9.541   7.127  73.923  1.00  0.00    -0.319 C  
ENDBRANCH  14  15
ENDBRANCH  13  14
ENDBRANCH  10  13
ENDBRANCH   2   3
TORSDOF 4
ENDMDL
MODEL       61
REMARK 921   NORMALIZED FREE ENERGY PREDICTED BY IDOCK:   -4.70 KCAL/MOL
REMARK 922        TOTAL FREE ENERGY PREDICTED BY IDOCK:   -6.18 KCAL/MOL
REMARK 923 INTER-LIGAND FREE ENERGY PREDICTED BY IDOCK:   -5.89 KCAL/MOL
REMARK 924 INTRA-LIGAND FREE ENERGY PREDICTED BY IDOCK:   -0.29 KCAL/MOL
REMARK 927      BINDING AFFINITY PREDICTED BY RF-SCORE:    0.00 PKD
ROOT
HETATM    1  C   UNL     1     -14.278  15.450  72.296  1.00  0.00    -0.545 C  
HETATM    2  O   UNL     1     -13.065  15.840  71.663  1.00  0.00    -0.481 OA 
ENDROOT
BRANCH   2   3
HETATM    3  C   UNL     1     -12.597  15.020  70.673  1.00  0.00    -0.374 A  
HETATM    4  C   UNL     1     -12.407  13.643  70.779  1.00  0.00    -0.446 A  
HETATM    5  C   UNL     1     -11.939  12.892  69.686  1.00  0.00    -0.358 A  
HETATM    6  C   UNL     1     -11.644  13.537  68.466  1.00  0.00    -0.368 A  
HETATM    7  C   UNL     1     -11.826  14.925  68.374  1.00  0.00    -0.309 A  
HETATM    8  C   UNL     1     -11.176  12.767  67.382  1.00  0.00    -0.337 A  
HETATM    9  C   UNL     1     -12.302  15.656  69.466  1.00  0.00    -0.141 A  
HETATM   10  C   UNL     1     -11.018  11.374  67.481  1.00  0.00    -0.312 A  
HETATM   11  C   UNL     1     -11.760  11.508  69.792  1.00  0.00    -0.426 A  
HETATM   12  C   UNL     1     -11.301  10.760  68.707  1.00  0.00    -0.352 A  
BRANCH  10  13
HETATM   13  C   UNL     1     -10.480  10.600  66.296  1.00  0.00    -0.268 C  
BRANCH  13  14
HETATM   14  C   UNL     1     -10.411  11.390  64.987  1.00  0.00    -0.342 C  
BRANCH  14  15
HETATM   15  C   UNL     1      -9.549  10.706  63.945  1.00  0.00    -0.306 C  
HETATM   16  O   UNL     1      -9.284  11.219  62.858  1.00  0.00    -0.320 OA 
HETATM   17  C   UNL     1      -9.010   9.344  64.303  1.00  0.00    -0.204 C  
ENDBRANCH  14  15
ENDBRANCH  13  14
ENDBRANCH  10  13
ENDBRANCH   2   3
TORSDOF 4
ENDMDL
MODEL       62
REMARK 921   NORMALIZED FREE ENERGY PREDICTED BY IDOCK:   -4.67 KCAL/MOL
REMARK 922        TOTAL FREE ENERGY PREDICTED BY IDOCK:   -6.14 KCAL/MOL
REMARK 923 INTER-LIGAND FREE ENERGY PREDICTED BY IDOCK:   -5.84 KCAL/MOL
REMARK 924 INTRA-LIGAND FREE ENERGY PREDICTED BY IDOCK:   -0.31 KCAL/MOL
REMARK 927      BINDING AFFINITY PREDICTED BY RF-SCORE:    0.00 PKD
ROOT
HETATM    1  C   UNL     1      -5.961   7.560  62.996  1.00  0.00    -0.054 C  
HETATM    2  O   UNL     1      -7.152   7.188  63.681  1.00  0.00    -0.061 OA 
ENDROOT
BRANCH   2   3
HETATM    3  C   UNL     1      -7.955   8.207  64.114  1.00  0.00    -0.142 A  
HETATM    4  C   UNL     1      -8.480   9.224  63.317  1.00  0.00    -0.204 A  
HETATM    5  C   UNL     1      -9.315  10.213  63.866  1.00  0.00    -0.336 A  
HETATM    6  C   UNL     1      -9.620  10.190  65.244  1.00  0.00    -0.338 A  
HETATM    7  C   UNL     1      -9.075   9.170  66.040  1.00  0.00    -0.245 A  
HETATM    8  C   UNL     1     -10.458  11.190  65.776  1.00  0.00    -0.305 A  
HETATM    9  C   UNL     1      -8.255   8.187  65.477  1.00  0.00    -0.144 A  
HETATM   10  C   UNL     1     -11.014  12.194  64.964  1.00  0.00    -0.355 A  
HETATM   11  C   UNL     1      -9.851  11.226  63.063  1.00  0.00    -0.370 A  
HETATM   12  C   UNL     1     -10.684  12.206  63.604  1.00  0.00    -0.518 A  
BRANCH  10  13
HETATM   13  C   UNL     1     -11.882  13.264  65.593  1.00  0.00    -0.419 C  
BRANCH  13  14
HETATM   14  C   UNL     1     -12.317  14.382  64.643  1.00  0.00    -0.435 C  
BRANCH  14  15
HETATM   15  C   UNL     1     -11.393  15.581  64.701  1.00  0.00    -0.357 C  
HETATM   16  O   UNL     1     -11.539  16.572  63.986  1.00  0.00    -1.154 OA 
HETATM   17  C   UNL     1     -10.265  15.516  65.699  1.00  0.00    -0.403 C  
ENDBRANCH  14  15
ENDBRANCH  13  14
ENDBRANCH  10  13
ENDBRANCH   2   3
TORSDOF 4
ENDMDL
MODEL       63
REMARK 921   NORMALIZED FREE ENERGY PREDICTED BY IDOCK:   -4.66 KCAL/MOL
REMARK 922        TOTAL FREE ENERGY PREDICTED BY IDOCK:   -6.14 KCAL/MOL
REMARK 923 INTER-LIGAND FREE ENERGY PREDICTED BY IDOCK:   -5.82 KCAL/MOL
REMARK 924 INTRA-LIGAND FREE ENERGY PREDICTED BY IDOCK:   -0.32 KCAL/MOL
REMARK 927      BINDING AFFINITY PREDICTED BY RF-SCORE:    0.00 PKD
ROOT
HETATM    1  C   UNL     1      -7.662  20.726  67.149  1.00  0.00    -0.259 C  
HETATM    2  O   UNL     1      -9.079  20.596  67.105  1.00  0.00    -0.352 OA 
ENDROOT
BRANCH   2   3
HETATM    3  C   UNL     1      -9.587  19.343  67.316  1.00  0.00    -0.328 A  
HETATM    4  C   UNL     1      -9.796  18.374  66.335  1.00  0.00    -0.369 A  
HETATM    5  C   UNL     1     -10.306  17.108  66.670  1.00  0.00    -0.310 A  
HETATM    6  C   UNL     1     -10.626  16.811  68.012  1.00  0.00    -0.347 A  
HETATM    7  C   UNL     1     -10.426  17.798  68.989  1.00  0.00    -0.153 A  
HETATM    8  C   UNL     1     -11.138  15.536  68.327  1.00  0.00    -0.322 A  
HETATM    9  C   UNL     1      -9.907  19.049  68.643  1.00  0.00    -0.474 A  
HETATM   10  C   UNL     1     -11.315  14.549  67.342  1.00  0.00    -0.370 A  
HETATM   11  C   UNL     1     -10.504  16.132  65.686  1.00  0.00    -0.402 A  
HETATM   12  C   UNL     1     -11.006  14.872  66.016  1.00  0.00    -0.334 A  
BRANCH  10  13
HETATM   13  C   UNL     1     -11.899  13.206  67.730  1.00  0.00    -0.392 C  
BRANCH  13  14
HETATM   14  C   UNL     1     -11.128  12.459  68.820  1.00  0.00    -0.307 C  
BRANCH  14  15
HETATM   15  C   UNL     1     -11.970  12.209  70.054  1.00  0.00    -0.315 C  
HETATM   16  O   UNL     1     -12.438  13.119  70.739  1.00  0.00    -0.349 OA 
HETATM   17  C   UNL     1     -12.227  10.768  70.416  1.00  0.00    -0.437 C  
ENDBRANCH  14  15
ENDBRANCH  13  14
ENDBRANCH  10  13
ENDBRANCH   2   3
TORSDOF 4
ENDMDL
MODEL       64
REMARK 921   NORMALIZED FREE ENERGY PREDICTED BY IDOCK:   -4.65 KCAL/MOL
REMARK 922        TOTAL FREE ENERGY PREDICTED BY IDOCK:   -6.13 KCAL/MOL
REMARK 923 INTER-LIGAND FREE ENERGY PREDICTED BY IDOCK:   -5.86 KCAL/MOL
REMARK 924 INTRA-LIGAND FREE ENERGY PREDICTED BY IDOCK:   -0.27 KCAL/MOL
REMARK 927      BINDING AFFINITY PREDICTED BY RF-SCORE:    0.00 PKD
ROOT
HETATM    1  C   UNL     1     -13.653  15.138  72.608  1.00  0.00    -0.491 C  
HETATM    2  O   UNL     1     -13.242  13.778  72.514  1.00  0.00    -0.478 OA 
ENDROOT
BRANCH   2   3
HETATM    3  C   UNL     1     -12.764  13.364  71.301  1.00  0.00    -0.338 A  
HETATM    4  C   UNL     1     -12.466  14.191  70.218  1.00  0.00    -0.416 A  
HETATM    5  C   UNL     1     -11.957  13.656  69.021  1.00  0.00    -0.392 A  
HETATM    6  C   UNL     1     -11.755  12.265  68.902  1.00  0.00    -0.380 A  
HETATM    7  C   UNL     1     -12.072  11.440  69.993  1.00  0.00    -0.417 A  
HETATM    8  C   UNL     1     -11.245  11.749  67.695  1.00  0.00    -0.345 A  
HETATM    9  C   UNL     1     -12.566  11.987  71.181  1.00  0.00    -0.372 A  
HETATM   10  C   UNL     1     -10.913  12.587  66.617  1.00  0.00    -0.303 A  
HETATM   11  C   UNL     1     -11.647  14.489  67.940  1.00  0.00    -0.371 A  
HETATM   12  C   UNL     1     -11.138  13.962  66.752  1.00  0.00    -0.310 A  
BRANCH  10  13
HETATM   13  C   UNL     1     -10.399  11.977  65.329  1.00  0.00    -0.311 C  
BRANCH  13  14
HETATM   14  C   UNL     1      -9.155  11.099  65.483  1.00  0.00    -0.211 C  
BRANCH  14  15
HETATM   15  C   UNL     1      -9.200   9.873  64.593  1.00  0.00    -0.258 C  
HETATM   16  O   UNL     1      -9.018   8.733  65.019  1.00  0.00    -0.165 OA 
HETATM   17  C   UNL     1      -9.492  10.110  63.133  1.00  0.00    -0.296 C  
ENDBRANCH  14  15
ENDBRANCH  13  14
ENDBRANCH  10  13
ENDBRANCH   2   3
TORSDOF 4
ENDMDL
MODEL       65
REMARK 921   NORMALIZED FREE ENERGY PREDICTED BY IDOCK:   -4.64 KCAL/MOL
REMARK 922        TOTAL FREE ENERGY PREDICTED BY IDOCK:   -6.11 KCAL/MOL
REMARK 923 INTER-LIGAND FREE ENERGY PREDICTED BY IDOCK:   -5.69 KCAL/MOL
REMARK 924 INTRA-LIGAND FREE ENERGY PREDICTED BY IDOCK:   -0.42 KCAL/MOL
REMARK 927      BINDING AFFINITY PREDICTED BY RF-SCORE:    0.00 PKD
ROOT
HETATM    1  C   UNL     1      -7.764  20.071  67.691  1.00  0.00    -0.294 C  
HETATM    2  O   UNL     1      -9.160  19.927  67.928  1.00  0.00    -0.321 OA 
ENDROOT
BRANCH   2   3
HETATM    3  C   UNL     1      -9.687  18.677  67.753  1.00  0.00    -0.314 A  
HETATM    4  C   UNL     1      -9.853  18.029  66.529  1.00  0.00    -0.353 A  
HETATM    5  C   UNL     1     -10.389  16.730  66.468  1.00  0.00    -0.301 A  
HETATM    6  C   UNL     1     -10.777  16.074  67.655  1.00  0.00    -0.320 A  
HETATM    7  C   UNL     1     -10.619  16.741  68.880  1.00  0.00    -0.350 A  
HETATM    8  C   UNL     1     -11.313  14.773  67.573  1.00  0.00    -0.355 A  
HETATM    9  C   UNL     1     -10.074  18.027  68.926  1.00  0.00    -0.352 A  
HETATM   10  C   UNL     1     -11.448  14.108  66.342  1.00  0.00    -0.362 A  
HETATM   11  C   UNL     1     -10.543  16.076  65.241  1.00  0.00    -0.424 A  
HETATM   12  C   UNL     1     -11.071  14.785  65.177  1.00  0.00    -0.389 A  
BRANCH  10  13
HETATM   13  C   UNL     1     -12.059  12.722  66.307  1.00  0.00    -0.400 C  
BRANCH  13  14
HETATM   14  C   UNL     1     -11.134  11.597  66.774  1.00  0.00    -0.366 C  
BRANCH  14  15
HETATM   15  C   UNL     1     -10.152  11.174  65.700  1.00  0.00    -0.253 C  
HETATM   16  O   UNL     1     -10.503  10.847  64.567  1.00  0.00    -0.346 OA 
HETATM   17  C   UNL     1      -8.693  11.178  66.081  1.00  0.00    -0.188 C  
ENDBRANCH  14  15
ENDBRANCH  13  14
ENDBRANCH  10  13
ENDBRANCH   2   3
TORSDOF 4
ENDMDL
MODEL       66
REMARK 921   NORMALIZED FREE ENERGY PREDICTED BY IDOCK:   -4.58 KCAL/MOL
REMARK 922        TOTAL FREE ENERGY PREDICTED BY IDOCK:   -6.03 KCAL/MOL
REMARK 923 INTER-LIGAND FREE ENERGY PREDICTED BY IDOCK:   -5.65 KCAL/MOL
REMARK 924 INTRA-LIGAND FREE ENERGY PREDICTED BY IDOCK:   -0.38 KCAL/MOL
REMARK 927      BINDING AFFINITY PREDICTED BY RF-SCORE:    0.00 PKD
ROOT
HETATM    1  C   UNL     1     -10.569   4.845  72.618  1.00  0.00    -0.215 C  
HETATM    2  O   UNL     1     -10.975   6.082  73.192  1.00  0.00    -0.254 OA 
ENDROOT
BRANCH   2   3
HETATM    3  C   UNL     1     -10.929   7.181  72.379  1.00  0.00    -0.251 A  
HETATM    4  C   UNL     1     -11.820   8.254  72.410  1.00  0.00    -0.461 A  
HETATM    5  C   UNL     1     -11.664   9.346  71.538  1.00  0.00    -0.465 A  
HETATM    6  C   UNL     1     -10.603   9.357  70.608  1.00  0.00    -0.354 A  
HETATM    7  C   UNL     1      -9.720   8.266  70.576  1.00  0.00    -0.185 A  
HETATM    8  C   UNL     1     -10.464  10.460  69.742  1.00  0.00    -0.284 A  
HETATM    9  C   UNL     1      -9.881   7.193  71.457  1.00  0.00    -0.176 A  
HETATM   10  C   UNL     1     -11.343  11.556  69.798  1.00  0.00    -0.303 A  
HETATM   11  C   UNL     1     -12.552  10.427  71.578  1.00  0.00    -0.544 A  
HETATM   12  C   UNL     1     -12.398  11.514  70.717  1.00  0.00    -0.472 A  
BRANCH  10  13
HETATM   13  C   UNL     1     -11.168  12.701  68.822  1.00  0.00    -0.325 C  
BRANCH  13  14
HETATM   14  C   UNL     1     -12.150  13.860  69.005  1.00  0.00    -0.365 C  
BRANCH  14  15
HETATM   15  C   UNL     1     -11.544  15.014  69.778  1.00  0.00    -0.304 C  
HETATM   16  O   UNL     1     -10.467  15.528  69.474  1.00  0.00    -0.226 OA 
HETATM   17  C   UNL     1     -12.332  15.526  70.956  1.00  0.00    -0.471 C  
ENDBRANCH  14  15
ENDBRANCH  13  14
ENDBRANCH  10  13
ENDBRANCH   2   3
TORSDOF 4
ENDMDL
MODEL       67
REMARK 921   NORMALIZED FREE ENERGY PREDICTED BY IDOCK:   -4.57 KCAL/MOL
REMARK 922        TOTAL FREE ENERGY PREDICTED BY IDOCK:   -6.03 KCAL/MOL
REMARK 923 INTER-LIGAND FREE ENERGY PREDICTED BY IDOCK:   -5.74 KCAL/MOL
REMARK 924 INTRA-LIGAND FREE ENERGY PREDICTED BY IDOCK:   -0.29 KCAL/MOL
REMARK 927      BINDING AFFINITY PREDICTED BY RF-SCORE:    0.00 PKD
ROOT
HETATM    1  C   UNL     1     -11.433   5.631  72.828  1.00  0.00    -0.274 C  
HETATM    2  O   UNL     1     -10.400   5.849  71.873  1.00  0.00    -0.199 OA 
ENDROOT
BRANCH   2   3
HETATM    3  C   UNL     1     -10.522   6.955  71.078  1.00  0.00    -0.214 A  
HETATM    4  C   UNL     1     -10.361   6.984  69.693  1.00  0.00    -0.222 A  
HETATM    5  C   UNL     1     -10.530   8.179  68.972  1.00  0.00    -0.211 A  
HETATM    6  C   UNL     1     -10.855   9.371  69.653  1.00  0.00    -0.245 A  
HETATM    7  C   UNL     1     -11.001   9.335  71.049  1.00  0.00    -0.390 A  
HETATM    8  C   UNL     1     -11.020  10.559  68.913  1.00  0.00    -0.291 A  
HETATM    9  C   UNL     1     -10.840   8.136  71.751  1.00  0.00    -0.317 A  
HETATM   10  C   UNL     1     -10.891  10.579  67.514  1.00  0.00    -0.357 A  
HETATM   11  C   UNL     1     -10.380   8.204  67.581  1.00  0.00    -0.313 A  
HETATM   12  C   UNL     1     -10.553   9.388  66.862  1.00  0.00    -0.238 A  
BRANCH  10  13
HETATM   13  C   UNL     1     -11.047  11.889  66.770  1.00  0.00    -0.359 C  
BRANCH  13  14
HETATM   14  C   UNL     1     -11.284  11.752  65.264  1.00  0.00    -0.315 C  
BRANCH  14  15
HETATM   15  C   UNL     1     -12.375  12.677  64.765  1.00  0.00    -0.489 C  
HETATM   16  O   UNL     1     -13.026  12.450  63.745  1.00  0.00    -0.751 OA 
HETATM   17  C   UNL     1     -12.644  13.910  65.589  1.00  0.00    -0.553 C  
ENDBRANCH  14  15
ENDBRANCH  13  14
ENDBRANCH  10  13
ENDBRANCH   2   3
TORSDOF 4
ENDMDL
MODEL       68
REMARK 921   NORMALIZED FREE ENERGY PREDICTED BY IDOCK:   -4.56 KCAL/MOL
REMARK 922        TOTAL FREE ENERGY PREDICTED BY IDOCK:   -6.01 KCAL/MOL
REMARK 923 INTER-LIGAND FREE ENERGY PREDICTED BY IDOCK:   -5.65 KCAL/MOL
REMARK 924 INTRA-LIGAND FREE ENERGY PREDICTED BY IDOCK:   -0.36 KCAL/MOL
REMARK 927      BINDING AFFINITY PREDICTED BY RF-SCORE:    0.00 PKD
ROOT
HETATM    1  C   UNL     1     -12.316  15.555  64.085  1.00  0.00     0.066 C  
HETATM    2  O   UNL     1     -12.542  14.208  63.683  1.00  0.00    -0.831 OA 
ENDROOT
BRANCH   2   3
HETATM    3  C   UNL     1     -11.982  13.233  64.462  1.00  0.00    -0.400 A  
HETATM    4  C   UNL     1     -12.082  13.143  65.850  1.00  0.00    -0.501 A  
HETATM    5  C   UNL     1     -11.482  12.081  66.549  1.00  0.00    -0.413 A  
HETATM    6  C   UNL     1     -10.755  11.098  65.845  1.00  0.00    -0.261 A  
HETATM    7  C   UNL     1     -10.648  11.205  64.450  1.00  0.00    -0.411 A  
HETATM    8  C   UNL     1     -10.160  10.042  66.564  1.00  0.00    -0.296 A  
HETATM    9  C   UNL     1     -11.261  12.261  63.767  1.00  0.00    -0.510 A  
HETATM   10  C   UNL     1     -10.291   9.934  67.959  1.00  0.00    -0.244 A  
HETATM   11  C   UNL     1     -11.594  11.986  67.941  1.00  0.00    -0.405 A  
HETATM   12  C   UNL     1     -11.002  10.930  68.637  1.00  0.00    -0.274 A  
BRANCH  10  13
HETATM   13  C   UNL     1      -9.604   8.797  68.686  1.00  0.00    -0.159 C  
BRANCH  13  14
HETATM   14  C   UNL     1     -10.547   7.780  69.332  1.00  0.00    -0.211 C  
BRANCH  14  15
HETATM   15  C   UNL     1     -10.270   7.593  70.810  1.00  0.00    -0.201 C  
HETATM   16  O   UNL     1      -9.816   6.548  71.276  1.00  0.00    -0.180 OA 
HETATM   17  C   UNL     1     -10.571   8.767  71.707  1.00  0.00    -0.417 C  
ENDBRANCH  14  15
ENDBRANCH  13  14
ENDBRANCH  10  13
ENDBRANCH   2   3
TORSDOF 4
ENDMDL
MODEL       69
REMARK 921   NORMALIZED FREE ENERGY PREDICTED BY IDOCK:   -4.54 KCAL/MOL
REMARK 922        TOTAL FREE ENERGY PREDICTED BY IDOCK:   -5.99 KCAL/MOL
REMARK 923 INTER-LIGAND FREE ENERGY PREDICTED BY IDOCK:   -5.52 KCAL/MOL
REMARK 924 INTRA-LIGAND FREE ENERGY PREDICTED BY IDOCK:   -0.47 KCAL/MOL
REMARK 927      BINDING AFFINITY PREDICTED BY RF-SCORE:    0.00 PKD
ROOT
HETATM    1  C   UNL     1     -10.483  19.624  66.088  1.00  0.00    -0.524 C  
HETATM    2  O   UNL     1      -9.896  18.911  67.171  1.00  0.00    -0.302 OA 
ENDROOT
BRANCH   2   3
HETATM    3  C   UNL     1     -10.240  17.593  67.297  1.00  0.00    -0.343 A  
HETATM    4  C   UNL     1     -10.726  16.986  68.455  1.00  0.00    -0.361 A  
HETATM    5  C   UNL     1     -11.069  15.622  68.464  1.00  0.00    -0.322 A  
HETATM    6  C   UNL     1     -10.910  14.849  67.295  1.00  0.00    -0.306 A  
HETATM    7  C   UNL     1     -10.407  15.467  66.139  1.00  0.00    -0.325 A  
HETATM    8  C   UNL     1     -11.259  13.484  67.324  1.00  0.00    -0.319 A  
HETATM    9  C   UNL     1     -10.082  16.826  66.141  1.00  0.00    -0.360 A  
HETATM   10  C   UNL     1     -11.780  12.882  68.483  1.00  0.00    -0.374 A  
HETATM   11  C   UNL     1     -11.567  15.017  69.624  1.00  0.00    -0.333 A  
HETATM   12  C   UNL     1     -11.913  13.665  69.635  1.00  0.00    -0.402 A  
BRANCH  10  13
HETATM   13  C   UNL     1     -12.109  11.403  68.470  1.00  0.00    -0.168 C  
BRANCH  13  14
HETATM   14  C   UNL     1     -10.955  10.491  68.048  1.00  0.00    -0.345 C  
BRANCH  14  15
HETATM   15  C   UNL     1      -9.861  10.422  69.094  1.00  0.00    -0.223 C  
HETATM   16  O   UNL     1      -8.752  10.931  68.934  1.00  0.00    -0.162 OA 
HETATM   17  C   UNL     1     -10.195   9.696  70.373  1.00  0.00    -0.348 C  
ENDBRANCH  14  15
ENDBRANCH  13  14
ENDBRANCH  10  13
ENDBRANCH   2   3
TORSDOF 4
ENDMDL
MODEL       70
REMARK 921   NORMALIZED FREE ENERGY PREDICTED BY IDOCK:   -4.53 KCAL/MOL
REMARK 922        TOTAL FREE ENERGY PREDICTED BY IDOCK:   -5.98 KCAL/MOL
REMARK 923 INTER-LIGAND FREE ENERGY PREDICTED BY IDOCK:   -5.54 KCAL/MOL
REMARK 924 INTRA-LIGAND FREE ENERGY PREDICTED BY IDOCK:   -0.44 KCAL/MOL
REMARK 927      BINDING AFFINITY PREDICTED BY RF-SCORE:    0.00 PKD
ROOT
HETATM    1  C   UNL     1      -8.842  10.856  62.383  1.00  0.00    -0.313 C  
HETATM    2  O   UNL     1     -10.069  10.497  63.008  1.00  0.00    -0.230 OA 
ENDROOT
BRANCH   2   3
HETATM    3  C   UNL     1     -10.521  11.329  63.995  1.00  0.00    -0.378 A  
HETATM    4  C   UNL     1     -10.102  11.315  65.326  1.00  0.00    -0.318 A  
HETATM    5  C   UNL     1     -10.621  12.234  66.255  1.00  0.00    -0.282 A  
HETATM    6  C   UNL     1     -11.589  13.176  65.846  1.00  0.00    -0.391 A  
HETATM    7  C   UNL     1     -12.014  13.172  64.509  1.00  0.00    -0.442 A  
HETATM    8  C   UNL     1     -12.098  14.088  66.792  1.00  0.00    -0.480 A  
HETATM    9  C   UNL     1     -11.480  12.260  63.594  1.00  0.00    -0.572 A  
HETATM   10  C   UNL     1     -11.649  14.095  68.124  1.00  0.00    -0.365 A  
HETATM   11  C   UNL     1     -10.191  12.227  67.586  1.00  0.00    -0.208 A  
HETATM   12  C   UNL     1     -10.701  13.141  68.510  1.00  0.00    -0.277 A  
BRANCH  10  13
HETATM   13  C   UNL     1     -12.253  15.076  69.109  1.00  0.00    -0.186 C  
BRANCH  13  14
HETATM   14  C   UNL     1     -11.241  15.810  69.990  1.00  0.00    -0.346 C  
BRANCH  14  15
HETATM   15  C   UNL     1     -10.280  16.658  69.182  1.00  0.00    -0.309 C  
HETATM   16  O   UNL     1      -9.057  16.575  69.298  1.00  0.00    -0.216 OA 
HETATM   17  C   UNL     1     -10.893  17.624  68.200  1.00  0.00    -0.223 C  
ENDBRANCH  14  15
ENDBRANCH  13  14
ENDBRANCH  10  13
ENDBRANCH   2   3
TORSDOF 4
ENDMDL
MODEL       71
REMARK 921   NORMALIZED FREE ENERGY PREDICTED BY IDOCK:   -4.51 KCAL/MOL
REMARK 922        TOTAL FREE ENERGY PREDICTED BY IDOCK:   -5.95 KCAL/MOL
REMARK 923 INTER-LIGAND FREE ENERGY PREDICTED BY IDOCK:   -5.60 KCAL/MOL
REMARK 924 INTRA-LIGAND FREE ENERGY PREDICTED BY IDOCK:   -0.34 KCAL/MOL
REMARK 927      BINDING AFFINITY PREDICTED BY RF-SCORE:    0.00 PKD
ROOT
HETATM    1  C   UNL     1     -10.567   6.553  72.905  1.00  0.00    -0.241 C  
HETATM    2  O   UNL     1     -11.488   7.635  72.809  1.00  0.00    -0.355 OA 
ENDROOT
BRANCH   2   3
HETATM    3  C   UNL     1     -11.384   8.434  71.704  1.00  0.00    -0.286 A  
HETATM    4  C   UNL     1     -11.790   9.765  71.621  1.00  0.00    -0.429 A  
HETATM    5  C   UNL     1     -11.615  10.501  70.436  1.00  0.00    -0.430 A  
HETATM    6  C   UNL     1     -11.033   9.887  69.307  1.00  0.00    -0.244 A  
HETATM    7  C   UNL     1     -10.640   8.542  69.396  1.00  0.00    -0.203 A  
HETATM    8  C   UNL     1     -10.866  10.640  68.128  1.00  0.00    -0.291 A  
HETATM    9  C   UNL     1     -10.810   7.827  70.585  1.00  0.00    -0.241 A  
HETATM   10  C   UNL     1     -11.246  11.992  68.058  1.00  0.00    -0.316 A  
HETATM   11  C   UNL     1     -12.013  11.840  70.359  1.00  0.00    -0.422 A  
HETATM   12  C   UNL     1     -11.836  12.575  69.185  1.00  0.00    -0.348 A  
BRANCH  10  13
HETATM   13  C   UNL     1     -11.075  12.747  66.755  1.00  0.00    -0.314 C  
BRANCH  13  14
HETATM   14  C   UNL     1     -11.800  14.092  66.690  1.00  0.00    -0.447 C  
BRANCH  14  15
HETATM   15  C   UNL     1     -10.854  15.266  66.847  1.00  0.00    -0.317 C  
HETATM   16  O   UNL     1     -10.977  16.109  67.735  1.00  0.00    -0.328 OA 
HETATM   17  C   UNL     1      -9.724  15.359  65.853  1.00  0.00    -0.392 C  
ENDBRANCH  14  15
ENDBRANCH  13  14
ENDBRANCH  10  13
ENDBRANCH   2   3
TORSDOF 4
ENDMDL
MODEL       72
REMARK 921   NORMALIZED FREE ENERGY PREDICTED BY IDOCK:   -4.49 KCAL/MOL
REMARK 922        TOTAL FREE ENERGY PREDICTED BY IDOCK:   -5.93 KCAL/MOL
REMARK 923 INTER-LIGAND FREE ENERGY PREDICTED BY IDOCK:   -5.60 KCAL/MOL
REMARK 924 INTRA-LIGAND FREE ENERGY PREDICTED BY IDOCK:   -0.33 KCAL/MOL
REMARK 927      BINDING AFFINITY PREDICTED BY RF-SCORE:    0.00 PKD
ROOT
HETATM    1  C   UNL     1      -9.204  10.048  64.417  1.00  0.00    -0.266 C  
HETATM    2  O   UNL     1     -10.473  10.550  64.822  1.00  0.00    -0.304 OA 
ENDROOT
BRANCH   2   3
HETATM    3  C   UNL     1     -10.567  11.903  65.006  1.00  0.00    -0.289 A  
HETATM    4  C   UNL     1      -9.833  12.652  65.925  1.00  0.00    -0.251 A  
HETATM    5  C   UNL     1      -9.997  14.046  66.014  1.00  0.00    -0.331 A  
HETATM    6  C   UNL     1     -10.924  14.699  65.176  1.00  0.00    -0.395 A  
HETATM    7  C   UNL     1     -11.669  13.934  64.265  1.00  0.00    -0.406 A  
HETATM    8  C   UNL     1     -11.075  16.097  65.281  1.00  0.00    -0.187 A  
HETATM    9  C   UNL     1     -11.487  12.551  64.180  1.00  0.00    -0.449 A  
HETATM   10  C   UNL     1     -10.309  16.854  66.183  1.00  0.00    -0.327 A  
HETATM   11  C   UNL     1      -9.250  14.798  66.928  1.00  0.00    -0.263 A  
HETATM   12  C   UNL     1      -9.407  16.182  67.016  1.00  0.00    -0.232 A  
BRANCH  10  13
HETATM   13  C   UNL     1     -10.534  18.350  66.279  1.00  0.00    -0.421 C  
BRANCH  13  14
HETATM   14  C   UNL     1      -9.259  19.196  66.249  1.00  0.00    -0.335 C  
BRANCH  14  15
HETATM   15  C   UNL     1      -8.833  19.646  67.632  1.00  0.00    -0.320 C  
HETATM   16  O   UNL     1      -7.699  20.054  67.881  1.00  0.00    -0.289 OA 
HETATM   17  C   UNL     1      -9.879  19.580  68.716  1.00  0.00    -0.532 C  
ENDBRANCH  14  15
ENDBRANCH  13  14
ENDBRANCH  10  13
ENDBRANCH   2   3
TORSDOF 4
ENDMDL
MODEL       73
REMARK 921   NORMALIZED FREE ENERGY PREDICTED BY IDOCK:   -4.48 KCAL/MOL
REMARK 922        TOTAL FREE ENERGY PREDICTED BY IDOCK:   -5.91 KCAL/MOL
REMARK 923 INTER-LIGAND FREE ENERGY PREDICTED BY IDOCK:   -5.63 KCAL/MOL
REMARK 924 INTRA-LIGAND FREE ENERGY PREDICTED BY IDOCK:   -0.29 KCAL/MOL
REMARK 927      BINDING AFFINITY PREDICTED BY RF-SCORE:    0.00 PKD
ROOT
HETATM    1  C   UNL     1     -10.558   6.681  70.766  1.00  0.00    -0.226 C  
HETATM    2  O   UNL     1     -11.009   7.829  71.476  1.00  0.00    -0.230 OA 
ENDROOT
BRANCH   2   3
HETATM    3  C   UNL     1     -11.210   8.966  70.742  1.00  0.00    -0.272 A  
HETATM    4  C   UNL     1     -10.840   9.150  69.410  1.00  0.00    -0.165 A  
HETATM    5  C   UNL     1     -11.116  10.358  68.746  1.00  0.00    -0.298 A  
HETATM    6  C   UNL     1     -11.764  11.406  69.433  1.00  0.00    -0.406 A  
HETATM    7  C   UNL     1     -12.119  11.216  70.778  1.00  0.00    -0.458 A  
HETATM    8  C   UNL     1     -12.031  12.610  68.750  1.00  0.00    -0.279 A  
HETATM    9  C   UNL     1     -11.848  10.005  71.422  1.00  0.00    -0.447 A  
HETATM   10  C   UNL     1     -11.689  12.781  67.398  1.00  0.00    -0.425 A  
HETATM   11  C   UNL     1     -10.756  10.537  67.405  1.00  0.00    -0.334 A  
HETATM   12  C   UNL     1     -11.033  11.733  66.742  1.00  0.00    -0.336 A  
BRANCH  10  13
HETATM   13  C   UNL     1     -11.969  14.107  66.721  1.00  0.00    -0.475 C  
BRANCH  13  14
HETATM   14  C   UNL     1     -10.777  14.720  65.984  1.00  0.00    -0.314 C  
BRANCH  14  15
HETATM   15  C   UNL     1     -10.275  15.985  66.650  1.00  0.00    -0.291 C  
HETATM   16  O   UNL     1     -10.850  16.510  67.604  1.00  0.00    -0.326 OA 
HETATM   17  C   UNL     1      -9.010  16.586  66.092  1.00  0.00    -0.344 C  
ENDBRANCH  14  15
ENDBRANCH  13  14
ENDBRANCH  10  13
ENDBRANCH   2   3
TORSDOF 4
ENDMDL
MODEL       74
REMARK 921   NORMALIZED FREE ENERGY PREDICTED BY IDOCK:   -4.47 KCAL/MOL
REMARK 922        TOTAL FREE ENERGY PREDICTED BY IDOCK:   -5.90 KCAL/MOL
REMARK 923 INTER-LIGAND FREE ENERGY PREDICTED BY IDOCK:   -5.69 KCAL/MOL
REMARK 924 INTRA-LIGAND FREE ENERGY PREDICTED BY IDOCK:   -0.21 KCAL/MOL
REMARK 927      BINDING AFFINITY PREDICTED BY RF-SCORE:    0.00 PKD
ROOT
HETATM    1  C   UNL     1      -9.440   7.987  67.374  1.00  0.00    -0.151 C  
HETATM    2  O   UNL     1     -10.664   8.576  66.950  1.00  0.00    -0.265 OA 
ENDROOT
BRANCH   2   3
HETATM    3  C   UNL     1     -10.625   9.904  66.625  1.00  0.00    -0.115 A  
HETATM    4  C   UNL     1     -11.147  10.946  67.392  1.00  0.00    -0.373 A  
HETATM    5  C   UNL     1     -11.032  12.282  66.969  1.00  0.00    -0.314 A  
HETATM    6  C   UNL     1     -10.393  12.579  65.747  1.00  0.00    -0.288 A  
HETATM    7  C   UNL     1      -9.884  11.523  64.975  1.00  0.00    -0.294 A  
HETATM    8  C   UNL     1     -10.288  13.924  65.339  1.00  0.00    -0.364 A  
HETATM    9  C   UNL     1      -9.996  10.200  65.415  1.00  0.00    -0.377 A  
HETATM   10  C   UNL     1     -10.784  14.974  66.131  1.00  0.00    -0.328 A  
HETATM   11  C   UNL     1     -11.546  13.326  67.746  1.00  0.00    -0.380 A  
HETATM   12  C   UNL     1     -11.429  14.654  67.331  1.00  0.00    -0.384 A  
BRANCH  10  13
HETATM   13  C   UNL     1     -10.674  16.400  65.630  1.00  0.00    -0.280 C  
BRANCH  13  14
HETATM   14  C   UNL     1     -10.209  17.416  66.675  1.00  0.00    -0.324 C  
BRANCH  14  15
HETATM   15  C   UNL     1     -10.346  18.846  66.192  1.00  0.00    -0.460 C  
HETATM   16  O   UNL     1     -10.973  19.149  65.177  1.00  0.00    -0.464 OA 
HETATM   17  C   UNL     1      -9.676  19.907  67.026  1.00  0.00    -0.529 C  
ENDBRANCH  14  15
ENDBRANCH  13  14
ENDBRANCH  10  13
ENDBRANCH   2   3
TORSDOF 4
ENDMDL
MODEL       75
REMARK 921   NORMALIZED FREE ENERGY PREDICTED BY IDOCK:   -4.46 KCAL/MOL
REMARK 922        TOTAL FREE ENERGY PREDICTED BY IDOCK:   -5.88 KCAL/MOL
REMARK 923 INTER-LIGAND FREE ENERGY PREDICTED BY IDOCK:   -5.67 KCAL/MOL
REMARK 924 INTRA-LIGAND FREE ENERGY PREDICTED BY IDOCK:   -0.21 KCAL/MOL
REMARK 927      BINDING AFFINITY PREDICTED BY RF-SCORE:    0.00 PKD
ROOT
HETATM    1  C   UNL     1      -6.430  20.635  64.299  1.00  0.00    -0.250 C  
HETATM    2  O   UNL     1      -6.051  19.734  65.333  1.00  0.00    -0.188 OA 
ENDROOT
BRANCH   2   3
HETATM    3  C   UNL     1      -7.065  19.146  66.038  1.00  0.00    -0.266 A  
HETATM    4  C   UNL     1      -7.511  17.833  65.882  1.00  0.00    -0.200 A  
HETATM    5  C   UNL     1      -8.552  17.325  66.678  1.00  0.00    -0.286 A  
HETATM    6  C   UNL     1      -9.167  18.152  67.642  1.00  0.00    -0.259 A  
HETATM    7  C   UNL     1      -8.721  19.476  67.781  1.00  0.00    -0.364 A  
HETATM    8  C   UNL     1     -10.210  17.625  68.430  1.00  0.00    -0.381 A  
HETATM    9  C   UNL     1      -7.677  19.963  66.989  1.00  0.00    -0.312 A  
HETATM   10  C   UNL     1     -10.634  16.292  68.294  1.00  0.00    -0.300 A  
HETATM   11  C   UNL     1      -8.989  16.004  66.528  1.00  0.00    -0.327 A  
HETATM   12  C   UNL     1     -10.019  15.496  67.321  1.00  0.00    -0.238 A  
BRANCH  10  13
HETATM   13  C   UNL     1     -11.781  15.785  69.144  1.00  0.00    -0.398 C  
BRANCH  13  14
HETATM   14  C   UNL     1     -11.591  15.959  70.653  1.00  0.00    -0.426 C  
BRANCH  14  15
HETATM   15  C   UNL     1     -12.805  15.513  71.442  1.00  0.00    -0.465 C  
HETATM   16  O   UNL     1     -13.954  15.617  71.014  1.00  0.00    -0.534 OA 
HETATM   17  C   UNL     1     -12.544  14.916  72.802  1.00  0.00    -0.477 C  
ENDBRANCH  14  15
ENDBRANCH  13  14
ENDBRANCH  10  13
ENDBRANCH   2   3
TORSDOF 4
ENDMDL
MODEL       76
REMARK 921   NORMALIZED FREE ENERGY PREDICTED BY IDOCK:   -4.44 KCAL/MOL
REMARK 922        TOTAL FREE ENERGY PREDICTED BY IDOCK:   -5.86 KCAL/MOL
REMARK 923 INTER-LIGAND FREE ENERGY PREDICTED BY IDOCK:   -5.49 KCAL/MOL
REMARK 924 INTRA-LIGAND FREE ENERGY PREDICTED BY IDOCK:   -0.37 KCAL/MOL
REMARK 927      BINDING AFFINITY PREDICTED BY RF-SCORE:    0.00 PKD
ROOT
HETATM    1  C   UNL     1      -7.627   4.169  73.747  1.00  0.00    -0.080 C  
HETATM    2  O   UNL     1      -7.279   5.530  73.519  1.00  0.00    -0.084 OA 
ENDROOT
BRANCH   2   3
HETATM    3  C   UNL     1      -8.291   6.367  73.140  1.00  0.00    -0.115 A  
HETATM    4  C   UNL     1      -8.229   7.305  72.110  1.00  0.00    -0.109 A  
HETATM    5  C   UNL     1      -9.343   8.103  71.792  1.00  0.00    -0.241 A  
HETATM    6  C   UNL     1     -10.538   7.967  72.529  1.00  0.00    -0.397 A  
HETATM    7  C   UNL     1     -10.585   7.031  73.574  1.00  0.00    -0.405 A  
HETATM    8  C   UNL     1     -11.643   8.776  72.196  1.00  0.00    -0.434 A  
HETATM    9  C   UNL     1      -9.474   6.237  73.871  1.00  0.00    -0.165 A  
HETATM   10  C   UNL     1     -11.589   9.696  71.135  1.00  0.00    -0.456 A  
HETATM   11  C   UNL     1      -9.282   9.034  70.749  1.00  0.00    -0.299 A  
HETATM   12  C   UNL     1     -10.388   9.824  70.429  1.00  0.00    -0.354 A  
BRANCH  10  13
HETATM   13  C   UNL     1     -12.795  10.564  70.840  1.00  0.00    -0.485 C  
BRANCH  13  14
HETATM   14  C   UNL     1     -13.399  11.264  72.059  1.00  0.00    -0.386 C  
BRANCH  14  15
HETATM   15  C   UNL     1     -13.458  12.769  71.890  1.00  0.00    -0.358 C  
HETATM   16  O   UNL     1     -14.176  13.490  72.583  1.00  0.00    -0.751 OA 
HETATM   17  C   UNL     1     -12.576  13.363  70.822  1.00  0.00    -0.369 C  
ENDBRANCH  14  15
ENDBRANCH  13  14
ENDBRANCH  10  13
ENDBRANCH   2   3
TORSDOF 4
ENDMDL
MODEL       77
REMARK 921   NORMALIZED FREE ENERGY PREDICTED BY IDOCK:   -4.43 KCAL/MOL
REMARK 922        TOTAL FREE ENERGY PREDICTED BY IDOCK:   -5.85 KCAL/MOL
REMARK 923 INTER-LIGAND FREE ENERGY PREDICTED BY IDOCK:   -5.44 KCAL/MOL
REMARK 924 INTRA-LIGAND FREE ENERGY PREDICTED BY IDOCK:   -0.41 KCAL/MOL
REMARK 927      BINDING AFFINITY PREDICTED BY RF-SCORE:    0.00 PKD
ROOT
HETATM    1  C   UNL     1     -10.038  17.340  65.716  1.00  0.00    -0.141 C  
HETATM    2  O   UNL     1     -10.714  16.305  65.011  1.00  0.00    -0.600 OA 
ENDROOT
BRANCH   2   3
HETATM    3  C   UNL     1     -10.805  15.093  65.639  1.00  0.00    -0.360 A  
HETATM    4  C   UNL     1      -9.818  14.512  66.435  1.00  0.00    -0.306 A  
HETATM    5  C   UNL     1     -10.029  13.266  67.051  1.00  0.00    -0.238 A  
HETATM    6  C   UNL     1     -11.247  12.582  66.855  1.00  0.00    -0.354 A  
HETATM    7  C   UNL     1     -12.228  13.168  66.040  1.00  0.00    -0.478 A  
HETATM    8  C   UNL     1     -11.439  11.334  67.480  1.00  0.00    -0.324 A  
HETATM    9  C   UNL     1     -12.009  14.413  65.444  1.00  0.00    -0.369 A  
HETATM   10  C   UNL     1     -10.456  10.767  68.310  1.00  0.00    -0.207 A  
HETATM   11  C   UNL     1      -9.042  12.691  67.859  1.00  0.00    -0.200 A  
HETATM   12  C   UNL     1      -9.250  11.456  68.476  1.00  0.00    -0.174 A  
BRANCH  10  13
HETATM   13  C   UNL     1     -10.701   9.407  68.932  1.00  0.00    -0.203 C  
BRANCH  13  14
HETATM   14  C   UNL     1     -10.684   9.386  70.462  1.00  0.00    -0.335 C  
BRANCH  14  15
HETATM   15  C   UNL     1     -12.066   9.565  71.057  1.00  0.00    -0.318 C  
HETATM   16  O   UNL     1     -12.773   8.617  71.400  1.00  0.00    -0.312 OA 
HETATM   17  C   UNL     1     -12.551  10.983  71.223  1.00  0.00    -0.517 C  
ENDBRANCH  14  15
ENDBRANCH  13  14
ENDBRANCH  10  13
ENDBRANCH   2   3
TORSDOF 4
ENDMDL
MODEL       78
REMARK 921   NORMALIZED FREE ENERGY PREDICTED BY IDOCK:   -4.43 KCAL/MOL
REMARK 922        TOTAL FREE ENERGY PREDICTED BY IDOCK:   -5.85 KCAL/MOL
REMARK 923 INTER-LIGAND FREE ENERGY PREDICTED BY IDOCK:   -5.42 KCAL/MOL
REMARK 924 INTRA-LIGAND FREE ENERGY PREDICTED BY IDOCK:   -0.43 KCAL/MOL
REMARK 927      BINDING AFFINITY PREDICTED BY RF-SCORE:    0.00 PKD
ROOT
HETATM    1  C   UNL     1      -5.412  15.787  70.501  1.00  0.00    -0.141 C  
HETATM    2  O   UNL     1      -6.006  16.758  69.646  1.00  0.00    -0.195 OA 
ENDROOT
BRANCH   2   3
HETATM    3  C   UNL     1      -7.133  16.375  68.971  1.00  0.00    -0.208 A  
HETATM    4  C   UNL     1      -7.587  15.064  68.823  1.00  0.00    -0.137 A  
HETATM    5  C   UNL     1      -8.774  14.787  68.123  1.00  0.00    -0.168 A  
HETATM    6  C   UNL     1      -9.515  15.842  67.551  1.00  0.00    -0.219 A  
HETATM    7  C   UNL     1      -9.042  17.156  67.693  1.00  0.00    -0.227 A  
HETATM    8  C   UNL     1     -10.703  15.544  66.853  1.00  0.00    -0.317 A  
HETATM    9  C   UNL     1      -7.866  17.417  68.402  1.00  0.00    -0.257 A  
HETATM   10  C   UNL     1     -11.176  14.226  66.734  1.00  0.00    -0.337 A  
HETATM   11  C   UNL     1      -9.234  13.473  67.986  1.00  0.00    -0.209 A  
HETATM   12  C   UNL     1     -10.416  13.195  67.296  1.00  0.00    -0.243 A  
BRANCH  10  13
HETATM   13  C   UNL     1     -12.441  13.957  65.945  1.00  0.00    -0.519 C  
BRANCH  13  14
HETATM   14  C   UNL     1     -12.283  14.039  64.425  1.00  0.00    -0.457 C  
BRANCH  14  15
HETATM   15  C   UNL     1     -12.109  12.675  63.789  1.00  0.00    -0.522 C  
HETATM   16  O   UNL     1     -13.061  11.974  63.444  1.00  0.00    -0.747 OA 
HETATM   17  C   UNL     1     -10.693  12.202  63.582  1.00  0.00    -0.518 C  
ENDBRANCH  14  15
ENDBRANCH  13  14
ENDBRANCH  10  13
ENDBRANCH   2   3
TORSDOF 4
ENDMDL
MODEL       79
REMARK 921   NORMALIZED FREE ENERGY PREDICTED BY IDOCK:   -4.43 KCAL/MOL
REMARK 922        TOTAL FREE ENERGY PREDICTED BY IDOCK:   -5.85 KCAL/MOL
REMARK 923 INTER-LIGAND FREE ENERGY PREDICTED BY IDOCK:   -5.44 KCAL/MOL
REMARK 924 INTRA-LIGAND FREE ENERGY PREDICTED BY IDOCK:   -0.41 KCAL/MOL
REMARK 927      BINDING AFFINITY PREDICTED BY RF-SCORE:    0.00 PKD
ROOT
HETATM    1  C   UNL     1      -9.939   5.645  70.872  1.00  0.00    -0.194 C  
HETATM    2  O   UNL     1     -10.996   6.369  71.491  1.00  0.00    -0.244 OA 
ENDROOT
BRANCH   2   3
HETATM    3  C   UNL     1     -11.172   7.664  71.088  1.00  0.00    -0.261 A  
HETATM    4  C   UNL     1     -10.645   8.234  69.929  1.00  0.00    -0.232 A  
HETATM    5  C   UNL     1     -10.909   9.576  69.601  1.00  0.00    -0.255 A  
HETATM    6  C   UNL     1     -11.706  10.365  70.457  1.00  0.00    -0.434 A  
HETATM    7  C   UNL     1     -12.219   9.786  71.628  1.00  0.00    -0.488 A  
HETATM    8  C   UNL     1     -11.959  11.708  70.112  1.00  0.00    -0.441 A  
HETATM    9  C   UNL     1     -11.958   8.447  71.935  1.00  0.00    -0.397 A  
HETATM   10  C   UNL     1     -11.455  12.271  68.926  1.00  0.00    -0.355 A  
HETATM   11  C   UNL     1     -10.390  10.143  68.432  1.00  0.00    -0.210 A  
HETATM   12  C   UNL     1     -10.654  11.473  68.101  1.00  0.00    -0.226 A  
BRANCH  10  13
HETATM   13  C   UNL     1     -11.729  13.728  68.619  1.00  0.00    -0.391 C  
BRANCH  13  14
HETATM   14  C   UNL     1     -12.386  14.514  69.755  1.00  0.00    -0.317 C  
BRANCH  14  15
HETATM   15  C   UNL     1     -11.407  15.424  70.469  1.00  0.00    -0.326 C  
HETATM   16  O   UNL     1     -11.708  16.072  71.472  1.00  0.00    -0.427 OA 
HETATM   17  C   UNL     1     -10.015  15.500  69.895  1.00  0.00    -0.243 C  
ENDBRANCH  14  15
ENDBRANCH  13  14
ENDBRANCH  10  13
ENDBRANCH   2   3
TORSDOF 4
ENDMDL
MODEL       80
REMARK 921   NORMALIZED FREE ENERGY PREDICTED BY IDOCK:   -4.40 KCAL/MOL
REMARK 922        TOTAL FREE ENERGY PREDICTED BY IDOCK:   -5.82 KCAL/MOL
REMARK 923 INTER-LIGAND FREE ENERGY PREDICTED BY IDOCK:   -5.45 KCAL/MOL
REMARK 924 INTRA-LIGAND FREE ENERGY PREDICTED BY IDOCK:   -0.37 KCAL/MOL
REMARK 927      BINDING AFFINITY PREDICTED BY RF-SCORE:    0.00 PKD
ROOT
HETATM    1  C   UNL     1     -10.120  20.389  67.989  1.00  0.00    -0.226 C  
HETATM    2  O   UNL     1     -10.014  19.328  68.931  1.00  0.00    -0.422 OA 
ENDROOT
BRANCH   2   3
HETATM    3  C   UNL     1      -9.910  18.063  68.421  1.00  0.00    -0.366 A  
HETATM    4  C   UNL     1     -10.760  16.996  68.712  1.00  0.00    -0.313 A  
HETATM    5  C   UNL     1     -10.571  15.739  68.112  1.00  0.00    -0.275 A  
HETATM    6  C   UNL     1      -9.502  15.543  67.212  1.00  0.00    -0.218 A  
HETATM    7  C   UNL     1      -8.643  16.618  66.938  1.00  0.00    -0.240 A  
HETATM    8  C   UNL     1      -9.329  14.275  66.621  1.00  0.00    -0.302 A  
HETATM    9  C   UNL     1      -8.851  17.866  67.534  1.00  0.00    -0.248 A  
HETATM   10  C   UNL     1     -10.207  13.211  66.889  1.00  0.00    -0.245 A  
HETATM   11  C   UNL     1     -11.433  14.673  68.395  1.00  0.00    -0.335 A  
HETATM   12  C   UNL     1     -11.251  13.425  67.797  1.00  0.00    -0.306 A  
BRANCH  10  13
HETATM   13  C   UNL     1      -9.957  11.860  66.252  1.00  0.00    -0.245 C  
BRANCH  13  14
HETATM   14  C   UNL     1     -11.181  11.219  65.595  1.00  0.00    -0.074 C  
BRANCH  14  15
HETATM   15  C   UNL     1     -11.887  12.166  64.645  1.00  0.00    -0.328 C  
HETATM   16  O   UNL     1     -13.066  12.493  64.784  1.00  0.00    -0.853 OA 
HETATM   17  C   UNL     1     -11.069  12.709  63.502  1.00  0.00    -0.449 C  
ENDBRANCH  14  15
ENDBRANCH  13  14
ENDBRANCH  10  13
ENDBRANCH   2   3
TORSDOF 4
ENDMDL
MODEL       81
REMARK 921   NORMALIZED FREE ENERGY PREDICTED BY IDOCK:   -4.39 KCAL/MOL
REMARK 922        TOTAL FREE ENERGY PREDICTED BY IDOCK:   -5.80 KCAL/MOL
REMARK 923 INTER-LIGAND FREE ENERGY PREDICTED BY IDOCK:   -5.45 KCAL/MOL
REMARK 924 INTRA-LIGAND FREE ENERGY PREDICTED BY IDOCK:   -0.35 KCAL/MOL
REMARK 927      BINDING AFFINITY PREDICTED BY RF-SCORE:    0.00 PKD
ROOT
HETATM    1  C   UNL     1      -5.629  18.861  69.634  1.00  0.00    -0.221 C  
HETATM    2  O   UNL     1      -6.574  19.125  68.603  1.00  0.00    -0.246 OA 
ENDROOT
BRANCH   2   3
HETATM    3  C   UNL     1      -7.252  18.048  68.101  1.00  0.00    -0.236 A  
HETATM    4  C   UNL     1      -7.766  16.989  68.849  1.00  0.00    -0.231 A  
HETATM    5  C   UNL     1      -8.467  15.940  68.229  1.00  0.00    -0.170 A  
HETATM    6  C   UNL     1      -8.645  15.946  66.829  1.00  0.00    -0.301 A  
HETATM    7  C   UNL     1      -8.111  17.008  66.083  1.00  0.00    -0.292 A  
HETATM    8  C   UNL     1      -9.350  14.885  66.225  1.00  0.00    -0.329 A  
HETATM    9  C   UNL     1      -7.426  18.050  66.716  1.00  0.00    -0.242 A  
HETATM   10  C   UNL     1      -9.896  13.837  66.985  1.00  0.00    -0.251 A  
HETATM   11  C   UNL     1      -8.992  14.885  68.983  1.00  0.00    -0.174 A  
HETATM   12  C   UNL     1      -9.693  13.845  68.370  1.00  0.00    -0.226 A  
BRANCH  10  13
HETATM   13  C   UNL     1     -10.617  12.705  66.282  1.00  0.00    -0.274 C  
BRANCH  13  14
HETATM   14  C   UNL     1     -12.047  13.026  65.841  1.00  0.00    -0.503 C  
BRANCH  14  15
HETATM   15  C   UNL     1     -12.122  13.443  64.386  1.00  0.00    -0.416 C  
HETATM   16  O   UNL     1     -12.569  14.532  64.027  1.00  0.00    -0.797 OA 
HETATM   17  C   UNL     1     -11.609  12.452  63.373  1.00  0.00    -0.541 C  
ENDBRANCH  14  15
ENDBRANCH  13  14
ENDBRANCH  10  13
ENDBRANCH   2   3
TORSDOF 4
ENDMDL
MODEL       82
REMARK 921   NORMALIZED FREE ENERGY PREDICTED BY IDOCK:   -4.39 KCAL/MOL
REMARK 922        TOTAL FREE ENERGY PREDICTED BY IDOCK:   -5.80 KCAL/MOL
REMARK 923 INTER-LIGAND FREE ENERGY PREDICTED BY IDOCK:   -5.34 KCAL/MOL
REMARK 924 INTRA-LIGAND FREE ENERGY PREDICTED BY IDOCK:   -0.45 KCAL/MOL
REMARK 927      BINDING AFFINITY PREDICTED BY RF-SCORE:    0.00 PKD
ROOT
HETATM    1  C   UNL     1      -9.705  11.402  63.696  1.00  0.00    -0.312 C  
HETATM    2  O   UNL     1     -10.704  11.939  64.556  1.00  0.00    -0.280 OA 
ENDROOT
BRANCH   2   3
HETATM    3  C   UNL     1     -10.731  11.463  65.838  1.00  0.00    -0.255 A  
HETATM    4  C   UNL     1     -10.089  10.311  66.292  1.00  0.00    -0.300 A  
HETATM    5  C   UNL     1     -10.167   9.925  67.641  1.00  0.00    -0.255 A  
HETATM    6  C   UNL     1     -10.914  10.703  68.552  1.00  0.00    -0.296 A  
HETATM    7  C   UNL     1     -11.568  11.853  68.083  1.00  0.00    -0.400 A  
HETATM    8  C   UNL     1     -10.981  10.300  69.901  1.00  0.00    -0.358 A  
HETATM    9  C   UNL     1     -11.471  12.229  66.740  1.00  0.00    -0.421 A  
HETATM   10  C   UNL     1     -10.305   9.157  70.363  1.00  0.00    -0.269 A  
HETATM   11  C   UNL     1      -9.513   8.776  68.097  1.00  0.00    -0.152 A  
HETATM   12  C   UNL     1      -9.585   8.393  69.438  1.00  0.00    -0.170 A  
BRANCH  10  13
HETATM   13  C   UNL     1     -10.437   8.751  71.816  1.00  0.00    -0.417 C  
BRANCH  13  14
HETATM   14  C   UNL     1     -11.856   8.836  72.383  1.00  0.00    -0.356 C  
BRANCH  14  15
HETATM   15  C   UNL     1     -12.722   7.671  71.948  1.00  0.00    -0.293 C  
HETATM   16  O   UNL     1     -12.335   6.503  71.983  1.00  0.00    -0.336 OA 
HETATM   17  C   UNL     1     -14.111   8.005  71.467  1.00  0.00    -0.475 C  
ENDBRANCH  14  15
ENDBRANCH  13  14
ENDBRANCH  10  13
ENDBRANCH   2   3
TORSDOF 4
ENDMDL
MODEL       83
REMARK 921   NORMALIZED FREE ENERGY PREDICTED BY IDOCK:   -4.37 KCAL/MOL
REMARK 922        TOTAL FREE ENERGY PREDICTED BY IDOCK:   -5.78 KCAL/MOL
REMARK 923 INTER-LIGAND FREE ENERGY PREDICTED BY IDOCK:   -5.38 KCAL/MOL
REMARK 924 INTRA-LIGAND FREE ENERGY PREDICTED BY IDOCK:   -0.40 KCAL/MOL
REMARK 927      BINDING AFFINITY PREDICTED BY RF-SCORE:    0.00 PKD
ROOT
HETATM    1  C   UNL     1      -8.993   6.382  66.424  1.00  0.00    -0.153 C  
HETATM    2  O   UNL     1      -9.539   7.221  67.435  1.00  0.00    -0.134 OA 
ENDROOT
BRANCH   2   3
HETATM    3  C   UNL     1      -9.905   8.483  67.054  1.00  0.00    -0.224 A  
HETATM    4  C   UNL     1     -10.572   9.413  67.852  1.00  0.00    -0.293 A  
HETATM    5  C   UNL     1     -10.881  10.694  67.363  1.00  0.00    -0.353 A  
HETATM    6  C   UNL     1     -10.526  11.047  66.043  1.00  0.00    -0.304 A  
HETATM    7  C   UNL     1      -9.867  10.099  65.244  1.00  0.00    -0.388 A  
HETATM    8  C   UNL     1     -10.844  12.335  65.570  1.00  0.00    -0.319 A  
HETATM    9  C   UNL     1      -9.557   8.833  65.749  1.00  0.00    -0.190 A  
HETATM   10  C   UNL     1     -11.486  13.282  66.388  1.00  0.00    -0.364 A  
HETATM   11  C   UNL     1     -11.539  11.629  68.169  1.00  0.00    -0.389 A  
HETATM   12  C   UNL     1     -11.843  12.904  67.687  1.00  0.00    -0.400 A  
BRANCH  10  13
HETATM   13  C   UNL     1     -11.835  14.642  65.819  1.00  0.00    -0.274 C  
BRANCH  13  14
HETATM   14  C   UNL     1     -10.689  15.351  65.094  1.00  0.00    -0.460 C  
BRANCH  14  15
HETATM   15  C   UNL     1      -9.927  16.294  66.003  1.00  0.00    -0.345 C  
HETATM   16  O   UNL     1      -8.814  16.739  65.720  1.00  0.00    -0.505 OA 
HETATM   17  C   UNL     1     -10.603  16.682  67.293  1.00  0.00    -0.281 C  
ENDBRANCH  14  15
ENDBRANCH  13  14
ENDBRANCH  10  13
ENDBRANCH   2   3
TORSDOF 4
ENDMDL
MODEL       84
REMARK 921   NORMALIZED FREE ENERGY PREDICTED BY IDOCK:   -4.36 KCAL/MOL
REMARK 922        TOTAL FREE ENERGY PREDICTED BY IDOCK:   -5.76 KCAL/MOL
REMARK 923 INTER-LIGAND FREE ENERGY PREDICTED BY IDOCK:   -5.38 KCAL/MOL
REMARK 924 INTRA-LIGAND FREE ENERGY PREDICTED BY IDOCK:   -0.38 KCAL/MOL
REMARK 927      BINDING AFFINITY PREDICTED BY RF-SCORE:    0.00 PKD
ROOT
HETATM    1  C   UNL     1     -11.798  15.104  64.344  1.00  0.00    -0.305 C  
HETATM    2  O   UNL     1     -11.473  14.966  65.723  1.00  0.00    -0.342 OA 
ENDROOT
BRANCH   2   3
HETATM    3  C   UNL     1     -11.316  13.691  66.192  1.00  0.00    -0.312 A  
HETATM    4  C   UNL     1     -10.666  12.652  65.525  1.00  0.00    -0.303 A  
HETATM    5  C   UNL     1     -10.544  11.381  66.113  1.00  0.00    -0.316 A  
HETATM    6  C   UNL     1     -11.094  11.142  67.390  1.00  0.00    -0.370 A  
HETATM    7  C   UNL     1     -11.759  12.189  68.047  1.00  0.00    -0.409 A  
HETATM    8  C   UNL     1     -10.962   9.861  67.963  1.00  0.00    -0.269 A  
HETATM    9  C   UNL     1     -11.862  13.451  67.454  1.00  0.00    -0.418 A  
HETATM   10  C   UNL     1     -10.277   8.826  67.303  1.00  0.00    -0.332 A  
HETATM   11  C   UNL     1      -9.881  10.344  65.447  1.00  0.00    -0.347 A  
HETATM   12  C   UNL     1      -9.754   9.083  66.031  1.00  0.00    -0.339 A  
BRANCH  10  13
HETATM   13  C   UNL     1     -10.193   7.459  67.950  1.00  0.00    -0.242 C  
BRANCH  13  14
HETATM   14  C   UNL     1     -11.143   6.411  67.368  1.00  0.00    -0.412 C  
BRANCH  14  15
HETATM   15  C   UNL     1     -10.429   5.418  66.472  1.00  0.00    -0.294 C  
HETATM   16  O   UNL     1     -11.023   4.685  65.682  1.00  0.00    -0.253 OA 
HETATM   17  C   UNL     1      -8.926   5.369  66.583  1.00  0.00    -0.116 C  
ENDBRANCH  14  15
ENDBRANCH  13  14
ENDBRANCH  10  13
ENDBRANCH   2   3
TORSDOF 4
ENDMDL
MODEL       85
REMARK 921   NORMALIZED FREE ENERGY PREDICTED BY IDOCK:   -4.36 KCAL/MOL
REMARK 922        TOTAL FREE ENERGY PREDICTED BY IDOCK:   -5.76 KCAL/MOL
REMARK 923 INTER-LIGAND FREE ENERGY PREDICTED BY IDOCK:   -5.33 KCAL/MOL
REMARK 924 INTRA-LIGAND FREE ENERGY PREDICTED BY IDOCK:   -0.43 KCAL/MOL
REMARK 927      BINDING AFFINITY PREDICTED BY RF-SCORE:    0.00 PKD
ROOT
HETATM    1  C   UNL     1     -10.511  19.478  67.112  1.00  0.00    -0.474 C  
HETATM    2  O   UNL     1     -10.625  18.417  68.053  1.00  0.00    -0.381 OA 
ENDROOT
BRANCH   2   3
HETATM    3  C   UNL     1     -10.608  17.145  67.550  1.00  0.00    -0.323 A  
HETATM    4  C   UNL     1     -11.227  16.034  68.122  1.00  0.00    -0.325 A  
HETATM    5  C   UNL     1     -11.161  14.773  67.504  1.00  0.00    -0.339 A  
HETATM    6  C   UNL     1     -10.450  14.619  66.296  1.00  0.00    -0.302 A  
HETATM    7  C   UNL     1      -9.817  15.740  65.735  1.00  0.00    -0.383 A  
HETATM    8  C   UNL     1     -10.394  13.347  65.692  1.00  0.00    -0.295 A  
HETATM    9  C   UNL     1      -9.902  16.990  66.356  1.00  0.00    -0.312 A  
HETATM   10  C   UNL     1     -11.048  12.236  66.253  1.00  0.00    -0.342 A  
HETATM   11  C   UNL     1     -11.794  13.662  68.074  1.00  0.00    -0.397 A  
HETATM   12  C   UNL     1     -11.734  12.410  67.460  1.00  0.00    -0.425 A  
BRANCH  10  13
HETATM   13  C   UNL     1     -10.929  10.884  65.580  1.00  0.00    -0.032 C  
BRANCH  13  14
HETATM   14  C   UNL     1      -9.742  10.037  66.042  1.00  0.00    -0.301 C  
BRANCH  14  15
HETATM   15  C   UNL     1     -10.092   9.144  67.215  1.00  0.00    -0.233 C  
HETATM   16  O   UNL     1     -10.770   8.123  67.098  1.00  0.00    -0.316 OA 
HETATM   17  C   UNL     1      -9.557   9.559  68.562  1.00  0.00    -0.150 C  
ENDBRANCH  14  15
ENDBRANCH  13  14
ENDBRANCH  10  13
ENDBRANCH   2   3
TORSDOF 4
ENDMDL
MODEL       86
REMARK 921   NORMALIZED FREE ENERGY PREDICTED BY IDOCK:   -4.34 KCAL/MOL
REMARK 922        TOTAL FREE ENERGY PREDICTED BY IDOCK:   -5.74 KCAL/MOL
REMARK 923 INTER-LIGAND FREE ENERGY PREDICTED BY IDOCK:   -5.38 KCAL/MOL
REMARK 924 INTRA-LIGAND FREE ENERGY PREDICTED BY IDOCK:   -0.37 KCAL/MOL
REMARK 927      BINDING AFFINITY PREDICTED BY RF-SCORE:    0.00 PKD
ROOT
HETATM    1  C   UNL     1      -8.674   3.888  64.826  1.00  0.00    -0.116 C  
HETATM    2  O   UNL     1      -8.891   3.272  66.091  1.00  0.00    -0.126 OA 
ENDROOT
BRANCH   2   3
HETATM    3  C   UNL     1      -9.471   4.045  67.059  1.00  0.00    -0.199 A  
HETATM    4  C   UNL     1      -9.399   3.818  68.433  1.00  0.00    -0.226 A  
HETATM    5  C   UNL     1     -10.018   4.693  69.343  1.00  0.00    -0.249 A  
HETATM    6  C   UNL     1     -10.735   5.811  68.865  1.00  0.00    -0.334 A  
HETATM    7  C   UNL     1     -10.813   6.023  67.480  1.00  0.00    -0.393 A  
HETATM    8  C   UNL     1     -11.349   6.677  69.792  1.00  0.00    -0.412 A  
HETATM    9  C   UNL     1     -10.182   5.150  66.589  1.00  0.00    -0.297 A  
HETATM   10  C   UNL     1     -11.246   6.465  71.178  1.00  0.00    -0.357 A  
HETATM   11  C   UNL     1      -9.935   4.470  70.722  1.00  0.00    -0.269 A  
HETATM   12  C   UNL     1     -10.545   5.340  71.627  1.00  0.00    -0.261 A  
BRANCH  10  13
HETATM   13  C   UNL     1     -11.953   7.407  72.130  1.00  0.00    -0.307 C  
BRANCH  13  14
HETATM   14  C   UNL     1     -11.821   8.892  71.784  1.00  0.00    -0.429 C  
BRANCH  14  15
HETATM   15  C   UNL     1     -13.123   9.645  71.965  1.00  0.00    -0.445 C  
HETATM   16  O   UNL     1     -13.182  10.873  72.020  1.00  0.00    -0.492 OA 
HETATM   17  C   UNL     1     -14.376   8.812  72.070  1.00  0.00    -0.466 C  
ENDBRANCH  14  15
ENDBRANCH  13  14
ENDBRANCH  10  13
ENDBRANCH   2   3
TORSDOF 4
ENDMDL
MODEL       87
REMARK 921   NORMALIZED FREE ENERGY PREDICTED BY IDOCK:   -4.33 KCAL/MOL
REMARK 922        TOTAL FREE ENERGY PREDICTED BY IDOCK:   -5.73 KCAL/MOL
REMARK 923 INTER-LIGAND FREE ENERGY PREDICTED BY IDOCK:   -5.25 KCAL/MOL
REMARK 924 INTRA-LIGAND FREE ENERGY PREDICTED BY IDOCK:   -0.47 KCAL/MOL
REMARK 927      BINDING AFFINITY PREDICTED BY RF-SCORE:    0.00 PKD
ROOT
HETATM    1  C   UNL     1      -6.099  20.403  64.234  1.00  0.00    -0.287 C  
HETATM    2  O   UNL     1      -6.983  20.567  65.338  1.00  0.00    -0.245 OA 
ENDROOT
BRANCH   2   3
HETATM    3  C   UNL     1      -7.481  19.423  65.900  1.00  0.00    -0.279 A  
HETATM    4  C   UNL     1      -8.726  19.295  66.517  1.00  0.00    -0.362 A  
HETATM    5  C   UNL     1      -9.146  18.062  67.044  1.00  0.00    -0.259 A  
HETATM    6  C   UNL     1      -8.298  16.937  66.964  1.00  0.00    -0.227 A  
HETATM    7  C   UNL     1      -7.041  17.080  66.355  1.00  0.00    -0.285 A  
HETATM    8  C   UNL     1      -8.736  15.710  67.499  1.00  0.00    -0.189 A  
HETATM    9  C   UNL     1      -6.642  18.311  65.825  1.00  0.00    -0.317 A  
HETATM   10  C   UNL     1     -10.005  15.575  68.089  1.00  0.00    -0.217 A  
HETATM   11  C   UNL     1     -10.400  17.932  67.651  1.00  0.00    -0.387 A  
HETATM   12  C   UNL     1     -10.822  16.708  68.172  1.00  0.00    -0.348 A  
BRANCH  10  13
HETATM   13  C   UNL     1     -10.414  14.240  68.678  1.00  0.00    -0.249 C  
BRANCH  13  14
HETATM   14  C   UNL     1     -11.801  13.748  68.257  1.00  0.00    -0.413 C  
BRANCH  14  15
HETATM   15  C   UNL     1     -11.849  13.334  66.800  1.00  0.00    -0.394 C  
HETATM   16  O   UNL     1     -12.556  13.902  65.968  1.00  0.00    -0.467 OA 
HETATM   17  C   UNL     1     -10.970  12.177  66.398  1.00  0.00    -0.327 C  
ENDBRANCH  14  15
ENDBRANCH  13  14
ENDBRANCH  10  13
ENDBRANCH   2   3
TORSDOF 4
ENDMDL
MODEL       88
REMARK 921   NORMALIZED FREE ENERGY PREDICTED BY IDOCK:   -4.31 KCAL/MOL
REMARK 922        TOTAL FREE ENERGY PREDICTED BY IDOCK:   -5.70 KCAL/MOL
REMARK 923 INTER-LIGAND FREE ENERGY PREDICTED BY IDOCK:   -5.40 KCAL/MOL
REMARK 924 INTRA-LIGAND FREE ENERGY PREDICTED BY IDOCK:   -0.31 KCAL/MOL
REMARK 927      BINDING AFFINITY PREDICTED BY RF-SCORE:    0.00 PKD
ROOT
HETATM    1  C   UNL     1      -9.962   4.732  70.254  1.00  0.00    -0.250 C  
HETATM    2  O   UNL     1     -10.707   5.395  71.269  1.00  0.00    -0.237 OA 
ENDROOT
BRANCH   2   3
HETATM    3  C   UNL     1     -10.980   6.719  71.065  1.00  0.00    -0.255 A  
HETATM    4  C   UNL     1     -10.567   7.475  69.968  1.00  0.00    -0.242 A  
HETATM    5  C   UNL     1     -10.925   8.830  69.849  1.00  0.00    -0.184 A  
HETATM    6  C   UNL     1     -11.701   9.442  70.856  1.00  0.00    -0.378 A  
HETATM    7  C   UNL     1     -12.099   8.677  71.963  1.00  0.00    -0.442 A  
HETATM    8  C   UNL     1     -12.048  10.801  70.720  1.00  0.00    -0.473 A  
HETATM    9  C   UNL     1     -11.745   7.328  72.061  1.00  0.00    -0.329 A  
HETATM   10  C   UNL     1     -11.660  11.552  69.597  1.00  0.00    -0.403 A  
HETATM   11  C   UNL     1     -10.519   9.584  68.742  1.00  0.00    -0.243 A  
HETATM   12  C   UNL     1     -10.877  10.928  68.620  1.00  0.00    -0.258 A  
BRANCH  10  13
HETATM   13  C   UNL     1     -12.033  13.018  69.516  1.00  0.00    -0.350 C  
BRANCH  13  14
HETATM   14  C   UNL     1     -10.954  13.926  68.921  1.00  0.00    -0.290 C  
BRANCH  14  15
HETATM   15  C   UNL     1     -11.414  14.610  67.649  1.00  0.00    -0.346 C  
HETATM   16  O   UNL     1     -12.218  14.099  66.870  1.00  0.00    -0.439 OA 
HETATM   17  C   UNL     1     -10.840  15.976  67.372  1.00  0.00    -0.277 C  
ENDBRANCH  14  15
ENDBRANCH  13  14
ENDBRANCH  10  13
ENDBRANCH   2   3
TORSDOF 4
ENDMDL
MODEL       89
REMARK 921   NORMALIZED FREE ENERGY PREDICTED BY IDOCK:   -4.30 KCAL/MOL
REMARK 922        TOTAL FREE ENERGY PREDICTED BY IDOCK:   -5.70 KCAL/MOL
REMARK 923 INTER-LIGAND FREE ENERGY PREDICTED BY IDOCK:   -5.35 KCAL/MOL
REMARK 924 INTRA-LIGAND FREE ENERGY PREDICTED BY IDOCK:   -0.34 KCAL/MOL
REMARK 927      BINDING AFFINITY PREDICTED BY RF-SCORE:    0.00 PKD
ROOT
HETATM    1  C   UNL     1     -12.914  11.423  71.647  1.00  0.00    -0.418 C  
HETATM    2  O   UNL     1     -12.488  11.569  70.297  1.00  0.00    -0.267 OA 
ENDROOT
BRANCH   2   3
HETATM    3  C   UNL     1     -12.096  12.821  69.908  1.00  0.00    -0.259 A  
HETATM    4  C   UNL     1     -11.670  13.180  68.630  1.00  0.00    -0.362 A  
HETATM    5  C   UNL     1     -11.308  14.506  68.336  1.00  0.00    -0.311 A  
HETATM    6  C   UNL     1     -11.362  15.490  69.346  1.00  0.00    -0.321 A  
HETATM    7  C   UNL     1     -11.778  15.115  70.633  1.00  0.00    -0.356 A  
HETATM    8  C   UNL     1     -10.995  16.814  69.032  1.00  0.00    -0.239 A  
HETATM    9  C   UNL     1     -12.146  13.795  70.907  1.00  0.00    -0.366 A  
HETATM   10  C   UNL     1     -10.599  17.181  67.734  1.00  0.00    -0.360 A  
HETATM   11  C   UNL     1     -10.893  14.867  67.049  1.00  0.00    -0.315 A  
HETATM   12  C   UNL     1     -10.538  16.185  66.753  1.00  0.00    -0.277 A  
BRANCH  10  13
HETATM   13  C   UNL     1     -10.184  18.611  67.459  1.00  0.00    -0.425 C  
BRANCH  13  14
HETATM   14  C   UNL     1      -8.985  18.765  66.520  1.00  0.00    -0.320 C  
BRANCH  14  15
HETATM   15  C   UNL     1      -7.694  19.022  67.270  1.00  0.00    -0.237 C  
HETATM   16  O   UNL     1      -7.667  19.390  68.444  1.00  0.00    -0.303 OA 
HETATM   17  C   UNL     1      -6.414  18.794  66.508  1.00  0.00    -0.215 C  
ENDBRANCH  14  15
ENDBRANCH  13  14
ENDBRANCH  10  13
ENDBRANCH   2   3
TORSDOF 4
ENDMDL
MODEL       90
REMARK 921   NORMALIZED FREE ENERGY PREDICTED BY IDOCK:   -4.29 KCAL/MOL
REMARK 922        TOTAL FREE ENERGY PREDICTED BY IDOCK:   -5.68 KCAL/MOL
REMARK 923 INTER-LIGAND FREE ENERGY PREDICTED BY IDOCK:   -5.35 KCAL/MOL
REMARK 924 INTRA-LIGAND FREE ENERGY PREDICTED BY IDOCK:   -0.33 KCAL/MOL
REMARK 927      BINDING AFFINITY PREDICTED BY RF-SCORE:    0.00 PKD
ROOT
HETATM    1  C   UNL     1     -11.178  15.582  64.970  1.00  0.00    -0.358 C  
HETATM    2  O   UNL     1     -10.793  14.365  64.342  1.00  0.00    -0.310 OA 
ENDROOT
BRANCH   2   3
HETATM    3  C   UNL     1     -10.771  13.247  65.130  1.00  0.00    -0.322 A  
HETATM    4  C   UNL     1     -10.170  12.032  64.802  1.00  0.00    -0.311 A  
HETATM    5  C   UNL     1     -10.190  10.951  65.701  1.00  0.00    -0.323 A  
HETATM    6  C   UNL     1     -10.835  11.086  66.948  1.00  0.00    -0.324 A  
HETATM    7  C   UNL     1     -11.449  12.309  67.263  1.00  0.00    -0.426 A  
HETATM    8  C   UNL     1     -10.845   9.992  67.836  1.00  0.00    -0.323 A  
HETATM    9  C   UNL     1     -11.411  13.378  66.363  1.00  0.00    -0.359 A  
HETATM   10  C   UNL     1     -10.210   8.779  67.517  1.00  0.00    -0.309 A  
HETATM   11  C   UNL     1      -9.576   9.736  65.375  1.00  0.00    -0.359 A  
HETATM   12  C   UNL     1      -9.590   8.663  66.267  1.00  0.00    -0.322 A  
BRANCH  10  13
HETATM   13  C   UNL     1     -10.278   7.623  68.494  1.00  0.00    -0.220 C  
BRANCH  13  14
HETATM   14  C   UNL     1      -9.999   7.994  69.952  1.00  0.00    -0.189 C  
BRANCH  14  15
HETATM   15  C   UNL     1     -11.164   7.665  70.864  1.00  0.00    -0.268 C  
HETATM   16  O   UNL     1     -11.923   8.524  71.312  1.00  0.00    -0.288 OA 
HETATM   17  C   UNL     1     -11.367   6.210  71.202  1.00  0.00    -0.340 C  
ENDBRANCH  14  15
ENDBRANCH  13  14
ENDBRANCH  10  13
ENDBRANCH   2   3
TORSDOF 4
ENDMDL
MODEL       91
REMARK 921   NORMALIZED FREE ENERGY PREDICTED BY IDOCK:   -4.29 KCAL/MOL
REMARK 922        TOTAL FREE ENERGY PREDICTED BY IDOCK:   -5.68 KCAL/MOL
REMARK 923 INTER-LIGAND FREE ENERGY PREDICTED BY IDOCK:   -5.30 KCAL/MOL
REMARK 924 INTRA-LIGAND FREE ENERGY PREDICTED BY IDOCK:   -0.38 KCAL/MOL
REMARK 927      BINDING AFFINITY PREDICTED BY RF-SCORE:    0.00 PKD
ROOT
HETATM    1  C   UNL     1      -7.873   6.637  64.013  1.00  0.00    -0.112 C  
HETATM    2  O   UNL     1      -7.886   7.906  63.368  1.00  0.00    -0.133 OA 
ENDROOT
BRANCH   2   3
HETATM    3  C   UNL     1      -8.636   8.886  63.957  1.00  0.00    -0.100 A  
HETATM    4  C   UNL     1      -9.220   9.970  63.301  1.00  0.00    -0.317 A  
HETATM    5  C   UNL     1      -9.992  10.910  64.005  1.00  0.00    -0.403 A  
HETATM    6  C   UNL     1     -10.172  10.770  65.398  1.00  0.00    -0.341 A  
HETATM    7  C   UNL     1      -9.569   9.684  66.051  1.00  0.00    -0.305 A  
HETATM    8  C   UNL     1     -10.948  11.723  66.087  1.00  0.00    -0.355 A  
HETATM    9  C   UNL     1      -8.813   8.751  65.335  1.00  0.00    -0.221 A  
HETATM   10  C   UNL     1     -11.563  12.795  65.417  1.00  0.00    -0.393 A  
HETATM   11  C   UNL     1     -10.586  11.990  63.343  1.00  0.00    -0.478 A  
HETATM   12  C   UNL     1     -11.357  12.923  64.039  1.00  0.00    -0.466 A  
BRANCH  10  13
HETATM   13  C   UNL     1     -12.361  13.809  66.211  1.00  0.00    -0.479 C  
BRANCH  13  14
HETATM   14  C   UNL     1     -12.017  13.876  67.700  1.00  0.00    -0.403 C  
BRANCH  14  15
HETATM   15  C   UNL     1     -10.893  14.849  67.990  1.00  0.00    -0.263 C  
HETATM   16  O   UNL     1      -9.711  14.508  68.042  1.00  0.00    -0.209 OA 
HETATM   17  C   UNL     1     -11.285  16.288  68.210  1.00  0.00    -0.324 C  
ENDBRANCH  14  15
ENDBRANCH  13  14
ENDBRANCH  10  13
ENDBRANCH   2   3
TORSDOF 4
ENDMDL
MODEL       92
REMARK 921   NORMALIZED FREE ENERGY PREDICTED BY IDOCK:   -4.28 KCAL/MOL
REMARK 922        TOTAL FREE ENERGY PREDICTED BY IDOCK:   -5.66 KCAL/MOL
REMARK 923 INTER-LIGAND FREE ENERGY PREDICTED BY IDOCK:   -5.33 KCAL/MOL
REMARK 924 INTRA-LIGAND FREE ENERGY PREDICTED BY IDOCK:   -0.34 KCAL/MOL
REMARK 927      BINDING AFFINITY PREDICTED BY RF-SCORE:    0.00 PKD
ROOT
HETATM    1  C   UNL     1      -9.308   3.457  69.386  1.00  0.00    -0.166 C  
HETATM    2  O   UNL     1     -10.113   4.118  70.356  1.00  0.00    -0.163 OA 
ENDROOT
BRANCH   2   3
HETATM    3  C   UNL     1     -10.350   5.450  70.153  1.00  0.00    -0.290 A  
HETATM    4  C   UNL     1     -11.069   6.288  71.005  1.00  0.00    -0.357 A  
HETATM    5  C   UNL     1     -11.233   7.652  70.707  1.00  0.00    -0.282 A  
HETATM    6  C   UNL     1     -10.676   8.184  69.525  1.00  0.00    -0.180 A  
HETATM    7  C   UNL     1      -9.966   7.330  68.667  1.00  0.00    -0.169 A  
HETATM    8  C   UNL     1     -10.852   9.554  69.242  1.00  0.00    -0.211 A  
HETATM    9  C   UNL     1      -9.802   5.978  68.983  1.00  0.00    -0.182 A  
HETATM   10  C   UNL     1     -11.548  10.403  70.120  1.00  0.00    -0.392 A  
HETATM   11  C   UNL     1     -11.945   8.493  71.569  1.00  0.00    -0.354 A  
HETATM   12  C   UNL     1     -12.106   9.849  71.278  1.00  0.00    -0.485 A  
BRANCH  10  13
HETATM   13  C   UNL     1     -11.736  11.861  69.752  1.00  0.00    -0.403 C  
BRANCH  13  14
HETATM   14  C   UNL     1     -10.849  12.357  68.609  1.00  0.00    -0.273 C  
BRANCH  14  15
HETATM   15  C   UNL     1     -11.656  12.874  67.434  1.00  0.00    -0.360 C  
HETATM   16  O   UNL     1     -12.131  12.133  66.574  1.00  0.00    -0.627 OA 
HETATM   17  C   UNL     1     -11.867  14.365  67.364  1.00  0.00    -0.430 C  
ENDBRANCH  14  15
ENDBRANCH  13  14
ENDBRANCH  10  13
ENDBRANCH   2   3
TORSDOF 4
ENDMDL
MODEL       93
REMARK 921   NORMALIZED FREE ENERGY PREDICTED BY IDOCK:   -4.26 KCAL/MOL
REMARK 922        TOTAL FREE ENERGY PREDICTED BY IDOCK:   -5.64 KCAL/MOL
REMARK 923 INTER-LIGAND FREE ENERGY PREDICTED BY IDOCK:   -5.34 KCAL/MOL
REMARK 924 INTRA-LIGAND FREE ENERGY PREDICTED BY IDOCK:   -0.31 KCAL/MOL
REMARK 927      BINDING AFFINITY PREDICTED BY RF-SCORE:    0.00 PKD
ROOT
HETATM    1  C   UNL     1     -12.015  14.145  67.387  1.00  0.00    -0.404 C  
HETATM    2  O   UNL     1     -11.698  12.823  66.963  1.00  0.00    -0.342 OA 
ENDROOT
BRANCH   2   3
HETATM    3  C   UNL     1     -11.512  11.891  67.947  1.00  0.00    -0.316 A  
HETATM    4  C   UNL     1     -12.286  11.760  69.100  1.00  0.00    -0.169 A  
HETATM    5  C   UNL     1     -12.017  10.748  70.038  1.00  0.00    -0.427 A  
HETATM    6  C   UNL     1     -10.945   9.857  69.823  1.00  0.00    -0.304 A  
HETATM    7  C   UNL     1     -10.163  10.006  68.666  1.00  0.00    -0.198 A  
HETATM    8  C   UNL     1     -10.690   8.849  70.774  1.00  0.00    -0.287 A  
HETATM    9  C   UNL     1     -10.450  11.011  67.737  1.00  0.00    -0.232 A  
HETATM   10  C   UNL     1     -11.493   8.698  71.919  1.00  0.00    -0.419 A  
HETATM   11  C   UNL     1     -12.802  10.611  71.189  1.00  0.00    -0.518 A  
HETATM   12  C   UNL     1     -12.541   9.604  72.119  1.00  0.00    -0.388 A  
BRANCH  10  13
HETATM   13  C   UNL     1     -11.156   7.618  72.927  1.00  0.00    -0.448 C  
BRANCH  13  14
HETATM   14  C   UNL     1     -11.350   6.186  72.426  1.00  0.00    -0.340 C  
BRANCH  14  15
HETATM   15  C   UNL     1     -10.083   5.362  72.526  1.00  0.00    -0.175 C  
HETATM   16  O   UNL     1      -8.958   5.854  72.438  1.00  0.00    -0.138 OA 
HETATM   17  C   UNL     1     -10.256   3.881  72.754  1.00  0.00    -0.233 C  
ENDBRANCH  14  15
ENDBRANCH  13  14
ENDBRANCH  10  13
ENDBRANCH   2   3
TORSDOF 4
ENDMDL
MODEL       94
REMARK 921   NORMALIZED FREE ENERGY PREDICTED BY IDOCK:   -4.25 KCAL/MOL
REMARK 922        TOTAL FREE ENERGY PREDICTED BY IDOCK:   -5.63 KCAL/MOL
REMARK 923 INTER-LIGAND FREE ENERGY PREDICTED BY IDOCK:   -5.31 KCAL/MOL
REMARK 924 INTRA-LIGAND FREE ENERGY PREDICTED BY IDOCK:   -0.31 KCAL/MOL
REMARK 927      BINDING AFFINITY PREDICTED BY RF-SCORE:    0.00 PKD
ROOT
HETATM    1  C   UNL     1     -13.755  13.887  72.449  1.00  0.00    -0.576 C  
HETATM    2  O   UNL     1     -13.228  12.990  71.477  1.00  0.00    -0.351 OA 
ENDROOT
BRANCH   2   3
HETATM    3  C   UNL     1     -12.449  13.537  70.496  1.00  0.00    -0.302 A  
HETATM    4  C   UNL     1     -12.141  14.891  70.360  1.00  0.00    -0.386 A  
HETATM    5  C   UNL     1     -11.309  15.341  69.321  1.00  0.00    -0.308 A  
HETATM    6  C   UNL     1     -10.785  14.419  68.390  1.00  0.00    -0.250 A  
HETATM    7  C   UNL     1     -11.112  13.061  68.526  1.00  0.00    -0.298 A  
HETATM    8  C   UNL     1      -9.954  14.889  67.354  1.00  0.00    -0.223 A  
HETATM    9  C   UNL     1     -11.932  12.626  69.573  1.00  0.00    -0.332 A  
HETATM   10  C   UNL     1      -9.617  16.250  67.240  1.00  0.00    -0.231 A  
HETATM   11  C   UNL     1     -10.992  16.698  69.194  1.00  0.00    -0.276 A  
HETATM   12  C   UNL     1     -10.162  17.148  68.165  1.00  0.00    -0.332 A  
BRANCH  10  13
HETATM   13  C   UNL     1      -8.746  16.707  66.089  1.00  0.00    -0.322 C  
BRANCH  13  14
HETATM   14  C   UNL     1      -8.076  18.068  66.289  1.00  0.00    -0.259 C  
BRANCH  14  15
HETATM   15  C   UNL     1      -6.629  18.071  65.839  1.00  0.00    -0.284 C  
HETATM   16  O   UNL     1      -6.211  18.799  64.939  1.00  0.00    -0.381 OA 
HETATM   17  C   UNL     1      -5.696  17.130  66.559  1.00  0.00    -0.202 C  
ENDBRANCH  14  15
ENDBRANCH  13  14
ENDBRANCH  10  13
ENDBRANCH   2   3
TORSDOF 4
ENDMDL
MODEL       95
REMARK 921   NORMALIZED FREE ENERGY PREDICTED BY IDOCK:   -4.24 KCAL/MOL
REMARK 922        TOTAL FREE ENERGY PREDICTED BY IDOCK:   -5.61 KCAL/MOL
REMARK 923 INTER-LIGAND FREE ENERGY PREDICTED BY IDOCK:   -5.35 KCAL/MOL
REMARK 924 INTRA-LIGAND FREE ENERGY PREDICTED BY IDOCK:   -0.27 KCAL/MOL
REMARK 927      BINDING AFFINITY PREDICTED BY RF-SCORE:    0.00 PKD
ROOT
HETATM    1  C   UNL     1      -6.222  20.889  66.237  1.00  0.00    -0.260 C  
HETATM    2  O   UNL     1      -6.584  19.762  65.447  1.00  0.00    -0.251 OA 
ENDROOT
BRANCH   2   3
HETATM    3  C   UNL     1      -7.543  18.933  65.962  1.00  0.00    -0.231 A  
HETATM    4  C   UNL     1      -7.480  17.541  65.999  1.00  0.00    -0.274 A  
HETATM    5  C   UNL     1      -8.518  16.787  66.574  1.00  0.00    -0.318 A  
HETATM    6  C   UNL     1      -9.647  17.440  67.110  1.00  0.00    -0.265 A  
HETATM    7  C   UNL     1      -9.708  18.841  67.054  1.00  0.00    -0.340 A  
HETATM    8  C   UNL     1     -10.678  16.667  67.681  1.00  0.00    -0.306 A  
HETATM    9  C   UNL     1      -8.662  19.578  66.490  1.00  0.00    -0.388 A  
HETATM   10  C   UNL     1     -10.596  15.265  67.748  1.00  0.00    -0.266 A  
HETATM   11  C   UNL     1      -8.447  15.390  66.621  1.00  0.00    -0.296 A  
HETATM   12  C   UNL     1      -9.474  14.638  67.195  1.00  0.00    -0.234 A  
BRANCH  10  13
HETATM   13  C   UNL     1     -11.747  14.480  68.343  1.00  0.00    -0.367 C  
BRANCH  13  14
HETATM   14  C   UNL     1     -11.368  13.563  69.508  1.00  0.00    -0.265 C  
BRANCH  14  15
HETATM   15  C   UNL     1     -11.949  12.171  69.359  1.00  0.00    -0.270 C  
HETATM   16  O   UNL     1     -12.120  11.633  68.265  1.00  0.00    -0.552 OA 
HETATM   17  C   UNL     1     -12.309  11.451  70.633  1.00  0.00    -0.466 C  
ENDBRANCH  14  15
ENDBRANCH  13  14
ENDBRANCH  10  13
ENDBRANCH   2   3
TORSDOF 4
ENDMDL
MODEL       96
REMARK 921   NORMALIZED FREE ENERGY PREDICTED BY IDOCK:   -4.21 KCAL/MOL
REMARK 922        TOTAL FREE ENERGY PREDICTED BY IDOCK:   -5.58 KCAL/MOL
REMARK 923 INTER-LIGAND FREE ENERGY PREDICTED BY IDOCK:   -5.13 KCAL/MOL
REMARK 924 INTRA-LIGAND FREE ENERGY PREDICTED BY IDOCK:   -0.45 KCAL/MOL
REMARK 927      BINDING AFFINITY PREDICTED BY RF-SCORE:    0.00 PKD
ROOT
HETATM    1  C   UNL     1      -9.784  10.510  63.780  1.00  0.00    -0.326 C  
HETATM    2  O   UNL     1     -10.578  10.645  64.953  1.00  0.00    -0.279 OA 
ENDROOT
BRANCH   2   3
HETATM    3  C   UNL     1     -10.567  11.869  65.565  1.00  0.00    -0.269 A  
HETATM    4  C   UNL     1     -10.478  13.101  64.918  1.00  0.00    -0.369 A  
HETATM    5  C   UNL     1     -10.497  14.302  65.648  1.00  0.00    -0.336 A  
HETATM    6  C   UNL     1     -10.594  14.268  67.055  1.00  0.00    -0.280 A  
HETATM    7  C   UNL     1     -10.669  13.022  67.698  1.00  0.00    -0.239 A  
HETATM    8  C   UNL     1     -10.610  15.482  67.770  1.00  0.00    -0.281 A  
HETATM    9  C   UNL     1     -10.661  11.836  66.957  1.00  0.00    -0.267 A  
HETATM   10  C   UNL     1     -10.555  16.724  67.114  1.00  0.00    -0.256 A  
HETATM   11  C   UNL     1     -10.419  15.538  64.997  1.00  0.00    -0.392 A  
HETATM   12  C   UNL     1     -10.442  16.733  65.719  1.00  0.00    -0.305 A  
BRANCH  10  13
HETATM   13  C   UNL     1     -10.543  17.999  67.932  1.00  0.00    -0.387 C  
BRANCH  13  14
HETATM   14  C   UNL     1      -9.536  19.053  67.468  1.00  0.00    -0.358 C  
BRANCH  14  15
HETATM   15  C   UNL     1      -8.101  18.615  67.682  1.00  0.00    -0.247 C  
HETATM   16  O   UNL     1      -7.707  18.115  68.735  1.00  0.00    -0.297 OA 
HETATM   17  C   UNL     1      -7.155  18.812  66.525  1.00  0.00    -0.240 C  
ENDBRANCH  14  15
ENDBRANCH  13  14
ENDBRANCH  10  13
ENDBRANCH   2   3
TORSDOF 4
ENDMDL
MODEL       97
REMARK 921   NORMALIZED FREE ENERGY PREDICTED BY IDOCK:   -4.17 KCAL/MOL
REMARK 922        TOTAL FREE ENERGY PREDICTED BY IDOCK:   -5.53 KCAL/MOL
REMARK 923 INTER-LIGAND FREE ENERGY PREDICTED BY IDOCK:   -5.13 KCAL/MOL
REMARK 924 INTRA-LIGAND FREE ENERGY PREDICTED BY IDOCK:   -0.40 KCAL/MOL
REMARK 927      BINDING AFFINITY PREDICTED BY RF-SCORE:    0.00 PKD
ROOT
HETATM    1  C   UNL     1     -10.370  19.093  65.983  1.00  0.00    -0.463 C  
HETATM    2  O   UNL     1     -10.549  17.874  65.269  1.00  0.00    -0.637 OA 
ENDROOT
BRANCH   2   3
HETATM    3  C   UNL     1     -10.691  16.739  66.018  1.00  0.00    -0.138 A  
HETATM    4  C   UNL     1     -10.886  15.452  65.517  1.00  0.00    -0.384 A  
HETATM    5  C   UNL     1     -10.998  14.350  66.382  1.00  0.00    -0.319 A  
HETATM    6  C   UNL     1     -10.926  14.542  67.778  1.00  0.00    -0.282 A  
HETATM    7  C   UNL     1     -10.744  15.843  68.273  1.00  0.00    -0.291 A  
HETATM    8  C   UNL     1     -11.041  13.425  68.630  1.00  0.00    -0.295 A  
HETATM    9  C   UNL     1     -10.623  16.927  67.400  1.00  0.00    -0.294 A  
HETATM   10  C   UNL     1     -11.203  12.125  68.121  1.00  0.00    -0.320 A  
HETATM   11  C   UNL     1     -11.182  13.058  65.877  1.00  0.00    -0.315 A  
HETATM   12  C   UNL     1     -11.288  11.961  66.734  1.00  0.00    -0.393 A  
BRANCH  10  13
HETATM   13  C   UNL     1     -11.355  10.963  69.081  1.00  0.00    -0.350 C  
BRANCH  13  14
HETATM   14  C   UNL     1     -10.757   9.641  68.593  1.00  0.00    -0.233 C  
BRANCH  14  15
HETATM   15  C   UNL     1      -9.337   9.436  69.079  1.00  0.00    -0.153 C  
HETATM   16  O   UNL     1      -9.051   8.671  70.001  1.00  0.00    -0.148 OA 
HETATM   17  C   UNL     1      -8.260  10.216  68.368  1.00  0.00    -0.112 C  
ENDBRANCH  14  15
ENDBRANCH  13  14
ENDBRANCH  10  13
ENDBRANCH   2   3
TORSDOF 4
ENDMDL
MODEL       98
REMARK 921   NORMALIZED FREE ENERGY PREDICTED BY IDOCK:   -4.13 KCAL/MOL
REMARK 922        TOTAL FREE ENERGY PREDICTED BY IDOCK:   -5.48 KCAL/MOL
REMARK 923 INTER-LIGAND FREE ENERGY PREDICTED BY IDOCK:   -5.23 KCAL/MOL
REMARK 924 INTRA-LIGAND FREE ENERGY PREDICTED BY IDOCK:   -0.25 KCAL/MOL
REMARK 927      BINDING AFFINITY PREDICTED BY RF-SCORE:    0.00 PKD
ROOT
HETATM    1  C   UNL     1      -5.895  21.342  67.133  1.00  0.00    -0.349 C  
HETATM    2  O   UNL     1      -6.152  20.908  68.464  1.00  0.00    -0.340 OA 
ENDROOT
BRANCH   2   3
HETATM    3  C   UNL     1      -6.876  19.756  68.605  1.00  0.00    -0.322 A  
HETATM    4  C   UNL     1      -8.252  19.630  68.411  1.00  0.00    -0.350 A  
HETATM    5  C   UNL     1      -8.891  18.388  68.564  1.00  0.00    -0.336 A  
HETATM    6  C   UNL     1      -8.140  17.251  68.931  1.00  0.00    -0.189 A  
HETATM    7  C   UNL     1      -6.759  17.391  69.138  1.00  0.00    -0.243 A  
HETATM    8  C   UNL     1      -8.799  16.014  69.080  1.00  0.00    -0.245 A  
HETATM    9  C   UNL     1      -6.135  18.631  68.971  1.00  0.00    -0.247 A  
HETATM   10  C   UNL     1     -10.180  15.883  68.851  1.00  0.00    -0.226 A  
HETATM   11  C   UNL     1     -10.269  18.261  68.357  1.00  0.00    -0.402 A  
HETATM   12  C   UNL     1     -10.906  17.027  68.503  1.00  0.00    -0.310 A  
BRANCH  10  13
HETATM   13  C   UNL     1     -10.844  14.537  69.057  1.00  0.00    -0.265 C  
BRANCH  13  14
HETATM   14  C   UNL     1     -12.257  14.599  69.639  1.00  0.00    -0.325 C  
BRANCH  14  15
HETATM   15  C   UNL     1     -12.477  13.571  70.731  1.00  0.00    -0.353 C  
HETATM   16  O   UNL     1     -12.951  13.857  71.830  1.00  0.00    -0.332 OA 
HETATM   17  C   UNL     1     -12.091  12.150  70.409  1.00  0.00    -0.395 C  
ENDBRANCH  14  15
ENDBRANCH  13  14
ENDBRANCH  10  13
ENDBRANCH   2   3
TORSDOF 4
ENDMDL
MODEL       99
REMARK 921   NORMALIZED FREE ENERGY PREDICTED BY IDOCK:   -4.12 KCAL/MOL
REMARK 922        TOTAL FREE ENERGY PREDICTED BY IDOCK:   -5.47 KCAL/MOL
REMARK 923 INTER-LIGAND FREE ENERGY PREDICTED BY IDOCK:   -5.10 KCAL/MOL
REMARK 924 INTRA-LIGAND FREE ENERGY PREDICTED BY IDOCK:   -0.38 KCAL/MOL
REMARK 927      BINDING AFFINITY PREDICTED BY RF-SCORE:    0.00 PKD
ROOT
HETATM    1  C   UNL     1      -9.958   8.611  67.446  1.00  0.00    -0.210 C  
HETATM    2  O   UNL     1     -10.948   9.612  67.234  1.00  0.00    -0.224 OA 
ENDROOT
BRANCH   2   3
HETATM    3  C   UNL     1     -10.503  10.899  67.105  1.00  0.00    -0.237 A  
HETATM    4  C   UNL     1     -11.039  11.863  66.251  1.00  0.00    -0.364 A  
HETATM    5  C   UNL     1     -10.514  13.166  66.214  1.00  0.00    -0.291 A  
HETATM    6  C   UNL     1      -9.422  13.507  67.040  1.00  0.00    -0.251 A  
HETATM    7  C   UNL     1      -8.881  12.526  67.885  1.00  0.00    -0.185 A  
HETATM    8  C   UNL     1      -8.909  14.819  66.989  1.00  0.00    -0.258 A  
HETATM    9  C   UNL     1      -9.422  11.237  67.919  1.00  0.00    -0.179 A  
HETATM   10  C   UNL     1      -9.472  15.798  66.153  1.00  0.00    -0.375 A  
HETATM   11  C   UNL     1     -11.061  14.135  65.366  1.00  0.00    -0.321 A  
HETATM   12  C   UNL     1     -10.544  15.432  65.331  1.00  0.00    -0.430 A  
BRANCH  10  13
HETATM   13  C   UNL     1      -8.861  17.184  66.112  1.00  0.00    -0.220 C  
BRANCH  13  14
HETATM   14  C   UNL     1      -8.961  17.971  67.420  1.00  0.00    -0.246 C  
BRANCH  14  15
HETATM   15  C   UNL     1     -10.062  19.011  67.386  1.00  0.00    -0.370 C  
HETATM   16  O   UNL     1     -10.660  19.383  68.395  1.00  0.00    -0.317 OA 
HETATM   17  C   UNL     1     -10.399  19.593  66.036  1.00  0.00    -0.620 C  
ENDBRANCH  14  15
ENDBRANCH  13  14
ENDBRANCH  10  13
ENDBRANCH   2   3
TORSDOF 4
ENDMDL
MODEL      100
REMARK 921   NORMALIZED FREE ENERGY PREDICTED BY IDOCK:   -4.11 KCAL/MOL
REMARK 922        TOTAL FREE ENERGY PREDICTED BY IDOCK:   -5.46 KCAL/MOL
REMARK 923 INTER-LIGAND FREE ENERGY PREDICTED BY IDOCK:   -4.99 KCAL/MOL
REMARK 924 INTRA-LIGAND FREE ENERGY PREDICTED BY IDOCK:   -0.46 KCAL/MOL
REMARK 927      BINDING AFFINITY PREDICTED BY RF-SCORE:    0.00 PKD
ROOT
HETATM    1  C   UNL     1     -12.080  14.421  64.514  1.00  0.00    -0.481 C  
HETATM    2  O   UNL     1     -10.997  13.526  64.285  1.00  0.00    -0.383 OA 
ENDROOT
BRANCH   2   3
HETATM    3  C   UNL     1     -10.841  12.509  65.186  1.00  0.00    -0.288 A  
HETATM    4  C   UNL     1     -11.116  12.581  66.551  1.00  0.00    -0.330 A  
HETATM    5  C   UNL     1     -10.937  11.463  67.384  1.00  0.00    -0.326 A  
HETATM    6  C   UNL     1     -10.461  10.251  66.840  1.00  0.00    -0.291 A  
HETATM    7  C   UNL     1     -10.173  10.193  65.468  1.00  0.00    -0.288 A  
HETATM    8  C   UNL     1     -10.287   9.141  67.691  1.00  0.00    -0.314 A  
HETATM    9  C   UNL     1     -10.367  11.310  64.651  1.00  0.00    -0.373 A  
HETATM   10  C   UNL     1     -10.598   9.207  69.060  1.00  0.00    -0.219 A  
HETATM   11  C   UNL     1     -11.226  11.534  68.751  1.00  0.00    -0.309 A  
HETATM   12  C   UNL     1     -11.054  10.424  69.580  1.00  0.00    -0.314 A  
BRANCH  10  13
HETATM   13  C   UNL     1     -10.363   7.993  69.936  1.00  0.00    -0.221 C  
BRANCH  13  14
HETATM   14  C   UNL     1      -8.893   7.695  70.242  1.00  0.00    -0.145 C  
BRANCH  14  15
HETATM   15  C   UNL     1      -8.233   8.804  71.037  1.00  0.00    -0.160 C  
HETATM   16  O   UNL     1      -8.406   8.952  72.246  1.00  0.00    -0.384 OA 
HETATM   17  C   UNL     1      -7.326   9.734  70.272  1.00  0.00    -0.165 C  
ENDBRANCH  14  15
ENDBRANCH  13  14
ENDBRANCH  10  13
ENDBRANCH   2   3
TORSDOF 4
ENDMDL
MODEL      101
REMARK 921   NORMALIZED FREE ENERGY PREDICTED BY IDOCK:   -4.11 KCAL/MOL
REMARK 922        TOTAL FREE ENERGY PREDICTED BY IDOCK:   -5.46 KCAL/MOL
REMARK 923 INTER-LIGAND FREE ENERGY PREDICTED BY IDOCK:   -5.07 KCAL/MOL
REMARK 924 INTRA-LIGAND FREE ENERGY PREDICTED BY IDOCK:   -0.38 KCAL/MOL
REMARK 927      BINDING AFFINITY PREDICTED BY RF-SCORE:    0.00 PKD
ROOT
HETATM    1  C   UNL     1     -10.923  16.416  64.989  1.00  0.00    -0.252 C  
HETATM    2  O   UNL     1     -11.535  15.246  64.459  1.00  0.00    -0.383 OA 
ENDROOT
BRANCH   2   3
HETATM    3  C   UNL     1     -11.423  14.104  65.203  1.00  0.00    -0.336 A  
HETATM    4  C   UNL     1     -10.808  12.921  64.792  1.00  0.00    -0.350 A  
HETATM    5  C   UNL     1     -10.732  11.811  65.651  1.00  0.00    -0.328 A  
HETATM    6  C   UNL     1     -11.295  11.882  66.942  1.00  0.00    -0.392 A  
HETATM    7  C   UNL     1     -11.925  13.071  67.341  1.00  0.00    -0.372 A  
HETATM    8  C   UNL     1     -11.210  10.758  67.789  1.00  0.00    -0.385 A  
HETATM    9  C   UNL     1     -11.983  14.171  66.480  1.00  0.00    -0.466 A  
HETATM   10  C   UNL     1     -10.559   9.580  67.384  1.00  0.00    -0.337 A  
HETATM   11  C   UNL     1     -10.103  10.630  65.241  1.00  0.00    -0.363 A  
HETATM   12  C   UNL     1     -10.022   9.527  66.093  1.00  0.00    -0.342 A  
BRANCH  10  13
HETATM   13  C   UNL     1     -10.524   8.389  68.321  1.00  0.00    -0.214 C  
BRANCH  13  14
HETATM   14  C   UNL     1      -9.179   7.665  68.393  1.00  0.00    -0.140 C  
BRANCH  14  15
HETATM   15  C   UNL     1      -8.140   8.451  69.167  1.00  0.00    -0.119 C  
HETATM   16  O   UNL     1      -6.937   8.402  68.909  1.00  0.00    -0.060 OA 
HETATM   17  C   UNL     1      -8.650   9.323  70.286  1.00  0.00    -0.234 C  
ENDBRANCH  14  15
ENDBRANCH  13  14
ENDBRANCH  10  13
ENDBRANCH   2   3
TORSDOF 4
ENDMDL
MODEL      102
REMARK 921   NORMALIZED FREE ENERGY PREDICTED BY IDOCK:   -4.09 KCAL/MOL
REMARK 922        TOTAL FREE ENERGY PREDICTED BY IDOCK:   -5.43 KCAL/MOL
REMARK 923 INTER-LIGAND FREE ENERGY PREDICTED BY IDOCK:   -5.11 KCAL/MOL
REMARK 924 INTRA-LIGAND FREE ENERGY PREDICTED BY IDOCK:   -0.32 KCAL/MOL
REMARK 927      BINDING AFFINITY PREDICTED BY RF-SCORE:    0.00 PKD
ROOT
HETATM    1  C   UNL     1      -9.814  18.788  66.044  1.00  0.00    -0.198 C  
HETATM    2  O   UNL     1     -10.783  17.989  65.374  1.00  0.00    -0.632 OA 
ENDROOT
BRANCH   2   3
HETATM    3  C   UNL     1     -10.616  16.633  65.443  1.00  0.00    -0.237 A  
HETATM    4  C   UNL     1     -11.286  15.690  64.664  1.00  0.00    -0.380 A  
HETATM    5  C   UNL     1     -11.018  14.317  64.804  1.00  0.00    -0.408 A  
HETATM    6  C   UNL     1     -10.070  13.879  65.753  1.00  0.00    -0.336 A  
HETATM    7  C   UNL     1      -9.411  14.836  66.542  1.00  0.00    -0.316 A  
HETATM    8  C   UNL     1      -9.816  12.499  65.880  1.00  0.00    -0.257 A  
HETATM    9  C   UNL     1      -9.680  16.198  66.382  1.00  0.00    -0.308 A  
HETATM   10  C   UNL     1     -10.468  11.553  65.070  1.00  0.00    -0.344 A  
HETATM   11  C   UNL     1     -11.683  13.373  64.013  1.00  0.00    -0.465 A  
HETATM   12  C   UNL     1     -11.416  12.009  64.148  1.00  0.00    -0.460 A  
BRANCH  10  13
HETATM   13  C   UNL     1     -10.182  10.079  65.270  1.00  0.00    -0.196 C  
BRANCH  13  14
HETATM   14  C   UNL     1      -8.730   9.664  65.019  1.00  0.00    -0.202 C  
BRANCH  14  15
HETATM   15  C   UNL     1      -8.336   8.434  65.811  1.00  0.00    -0.146 C  
HETATM   16  O   UNL     1      -7.907   7.409  65.282  1.00  0.00    -0.105 OA 
HETATM   17  C   UNL     1      -8.486   8.519  67.309  1.00  0.00    -0.123 C  
ENDBRANCH  14  15
ENDBRANCH  13  14
ENDBRANCH  10  13
ENDBRANCH   2   3
TORSDOF 4
ENDMDL
MODEL      103
REMARK 921   NORMALIZED FREE ENERGY PREDICTED BY IDOCK:   -4.05 KCAL/MOL
REMARK 922        TOTAL FREE ENERGY PREDICTED BY IDOCK:   -5.39 KCAL/MOL
REMARK 923 INTER-LIGAND FREE ENERGY PREDICTED BY IDOCK:   -5.08 KCAL/MOL
REMARK 924 INTRA-LIGAND FREE ENERGY PREDICTED BY IDOCK:   -0.31 KCAL/MOL
REMARK 927      BINDING AFFINITY PREDICTED BY RF-SCORE:    0.00 PKD
ROOT
HETATM    1  C   UNL     1     -12.316  15.555  64.085  1.00  0.00     0.066 C  
HETATM    2  O   UNL     1     -12.542  14.208  63.683  1.00  0.00    -0.831 OA 
ENDROOT
BRANCH   2   3
HETATM    3  C   UNL     1     -11.982  13.233  64.462  1.00  0.00    -0.400 A  
HETATM    4  C   UNL     1     -12.082  13.143  65.850  1.00  0.00    -0.501 A  
HETATM    5  C   UNL     1     -11.482  12.081  66.549  1.00  0.00    -0.413 A  
HETATM    6  C   UNL     1     -10.755  11.098  65.845  1.00  0.00    -0.261 A  
HETATM    7  C   UNL     1     -10.648  11.205  64.450  1.00  0.00    -0.411 A  
HETATM    8  C   UNL     1     -10.160  10.042  66.564  1.00  0.00    -0.296 A  
HETATM    9  C   UNL     1     -11.261  12.261  63.767  1.00  0.00    -0.510 A  
HETATM   10  C   UNL     1     -10.291   9.934  67.959  1.00  0.00    -0.244 A  
HETATM   11  C   UNL     1     -11.594  11.986  67.941  1.00  0.00    -0.405 A  
HETATM   12  C   UNL     1     -11.002  10.930  68.637  1.00  0.00    -0.274 A  
BRANCH  10  13
HETATM   13  C   UNL     1      -9.604   8.797  68.686  1.00  0.00    -0.159 C  
BRANCH  13  14
HETATM   14  C   UNL     1      -8.176   8.504  68.221  1.00  0.00    -0.123 C  
BRANCH  14  15
HETATM   15  C   UNL     1      -7.987   7.057  67.812  1.00  0.00    -0.114 C  
HETATM   16  O   UNL     1      -8.339   6.622  66.716  1.00  0.00    -0.112 OA 
HETATM   17  C   UNL     1      -7.326   6.152  68.821  1.00  0.00    -0.086 C  
ENDBRANCH  14  15
ENDBRANCH  13  14
ENDBRANCH  10  13
ENDBRANCH   2   3
TORSDOF 4
ENDMDL
MODEL      104
REMARK 921   NORMALIZED FREE ENERGY PREDICTED BY IDOCK:   -4.05 KCAL/MOL
REMARK 922        TOTAL FREE ENERGY PREDICTED BY IDOCK:   -5.38 KCAL/MOL
REMARK 923 INTER-LIGAND FREE ENERGY PREDICTED BY IDOCK:   -5.11 KCAL/MOL
REMARK 924 INTRA-LIGAND FREE ENERGY PREDICTED BY IDOCK:   -0.27 KCAL/MOL
REMARK 927      BINDING AFFINITY PREDICTED BY RF-SCORE:    0.00 PKD
ROOT
HETATM    1  C   UNL     1     -12.798  13.177  71.763  1.00  0.00    -0.258 C  
HETATM    2  O   UNL     1     -13.397  12.007  72.309  1.00  0.00    -0.485 OA 
ENDROOT
BRANCH   2   3
HETATM    3  C   UNL     1     -12.934  10.806  71.846  1.00  0.00    -0.419 A  
HETATM    4  C   UNL     1     -11.972  10.634  70.851  1.00  0.00    -0.469 A  
HETATM    5  C   UNL     1     -11.552   9.349  70.467  1.00  0.00    -0.291 A  
HETATM    6  C   UNL     1     -12.117   8.212  71.084  1.00  0.00    -0.281 A  
HETATM    7  C   UNL     1     -13.095   8.396  72.074  1.00  0.00    -0.379 A  
HETATM    8  C   UNL     1     -11.685   6.932  70.685  1.00  0.00    -0.417 A  
HETATM    9  C   UNL     1     -13.493   9.681  72.453  1.00  0.00    -0.421 A  
HETATM   10  C   UNL     1     -10.691   6.762  69.706  1.00  0.00    -0.288 A  
HETATM   11  C   UNL     1     -10.578   9.178  69.477  1.00  0.00    -0.233 A  
HETATM   12  C   UNL     1     -10.157   7.903  69.097  1.00  0.00    -0.197 A  
BRANCH  10  13
HETATM   13  C   UNL     1     -10.286   5.362  69.291  1.00  0.00    -0.315 C  
BRANCH  13  14
HETATM   14  C   UNL     1      -9.262   4.689  70.207  1.00  0.00    -0.195 C  
BRANCH  14  15
HETATM   15  C   UNL     1      -9.569   3.223  70.437  1.00  0.00    -0.141 C  
HETATM   16  O   UNL     1      -9.565   2.390  69.531  1.00  0.00    -0.092 OA 
HETATM   17  C   UNL     1      -9.878   2.813  71.855  1.00  0.00    -0.229 C  
ENDBRANCH  14  15
ENDBRANCH  13  14
ENDBRANCH  10  13
ENDBRANCH   2   3
TORSDOF 4
ENDMDL
MODEL      105
REMARK 921   NORMALIZED FREE ENERGY PREDICTED BY IDOCK:   -4.05 KCAL/MOL
REMARK 922        TOTAL FREE ENERGY PREDICTED BY IDOCK:   -5.38 KCAL/MOL
REMARK 923 INTER-LIGAND FREE ENERGY PREDICTED BY IDOCK:   -5.06 KCAL/MOL
REMARK 924 INTRA-LIGAND FREE ENERGY PREDICTED BY IDOCK:   -0.32 KCAL/MOL
REMARK 927      BINDING AFFINITY PREDICTED BY RF-SCORE:    0.00 PKD
ROOT
HETATM    1  C   UNL     1      -8.537   9.384  64.096  1.00  0.00    -0.198 C  
HETATM    2  O   UNL     1      -9.547   9.278  65.093  1.00  0.00    -0.213 OA 
ENDROOT
BRANCH   2   3
HETATM    3  C   UNL     1      -9.840  10.415  65.794  1.00  0.00    -0.239 A  
HETATM    4  C   UNL     1     -10.662  11.452  65.355  1.00  0.00    -0.313 A  
HETATM    5  C   UNL     1     -10.913  12.570  66.171  1.00  0.00    -0.318 A  
HETATM    6  C   UNL     1     -10.317  12.655  67.447  1.00  0.00    -0.224 A  
HETATM    7  C   UNL     1      -9.480  11.613  67.874  1.00  0.00    -0.181 A  
HETATM    8  C   UNL     1     -10.579  13.784  68.250  1.00  0.00    -0.262 A  
HETATM    9  C   UNL     1      -9.250  10.503  67.056  1.00  0.00    -0.167 A  
HETATM   10  C   UNL     1     -11.435  14.812  67.818  1.00  0.00    -0.363 A  
HETATM   11  C   UNL     1     -11.748  13.604  65.733  1.00  0.00    -0.369 A  
HETATM   12  C   UNL     1     -12.002  14.712  66.543  1.00  0.00    -0.284 A  
BRANCH  10  13
HETATM   13  C   UNL     1     -11.657  16.018  68.708  1.00  0.00    -0.352 C  
BRANCH  13  14
HETATM   14  C   UNL     1     -10.406  16.853  68.986  1.00  0.00    -0.333 C  
BRANCH  14  15
HETATM   15  C   UNL     1     -10.309  18.066  68.084  1.00  0.00    -0.388 C  
HETATM   16  O   UNL     1     -10.390  17.994  66.858  1.00  0.00    -0.350 OA 
HETATM   17  C   UNL     1     -10.114  19.398  68.763  1.00  0.00    -0.504 C  
ENDBRANCH  14  15
ENDBRANCH  13  14
ENDBRANCH  10  13
ENDBRANCH   2   3
TORSDOF 4
ENDMDL
MODEL      106
REMARK 921   NORMALIZED FREE ENERGY PREDICTED BY IDOCK:   -4.04 KCAL/MOL
REMARK 922        TOTAL FREE ENERGY PREDICTED BY IDOCK:   -5.37 KCAL/MOL
REMARK 923 INTER-LIGAND FREE ENERGY PREDICTED BY IDOCK:   -5.13 KCAL/MOL
REMARK 924 INTRA-LIGAND FREE ENERGY PREDICTED BY IDOCK:   -0.24 KCAL/MOL
REMARK 927      BINDING AFFINITY PREDICTED BY RF-SCORE:    0.00 PKD
ROOT
HETATM    1  C   UNL     1      -8.141   8.370  63.540  1.00  0.00    -0.143 C  
HETATM    2  O   UNL     1      -8.251   8.077  64.929  1.00  0.00    -0.147 OA 
ENDROOT
BRANCH   2   3
HETATM    3  C   UNL     1      -8.953   8.970  65.691  1.00  0.00    -0.202 A  
HETATM    4  C   UNL     1      -8.936  10.357  65.543  1.00  0.00    -0.199 A  
HETATM    5  C   UNL     1      -9.717  11.181  66.372  1.00  0.00    -0.235 A  
HETATM    6  C   UNL     1     -10.519  10.605  67.380  1.00  0.00    -0.280 A  
HETATM    7  C   UNL     1     -10.518   9.209  67.531  1.00  0.00    -0.335 A  
HETATM    8  C   UNL     1     -11.294  11.447  68.202  1.00  0.00    -0.374 A  
HETATM    9  C   UNL     1      -9.745   8.402  66.690  1.00  0.00    -0.320 A  
HETATM   10  C   UNL     1     -11.302  12.842  68.028  1.00  0.00    -0.335 A  
HETATM   11  C   UNL     1      -9.708  12.571  66.214  1.00  0.00    -0.259 A  
HETATM   12  C   UNL     1     -10.485  13.391  67.033  1.00  0.00    -0.257 A  
BRANCH  10  13
HETATM   13  C   UNL     1     -12.128  13.704  68.961  1.00  0.00    -0.348 C  
BRANCH  13  14
HETATM   14  C   UNL     1     -12.128  13.254  70.423  1.00  0.00    -0.401 C  
BRANCH  14  15
HETATM   15  C   UNL     1     -12.458  14.386  71.375  1.00  0.00    -0.359 C  
HETATM   16  O   UNL     1     -11.595  15.096  71.892  1.00  0.00    -0.392 OA 
HETATM   17  C   UNL     1     -13.918  14.620  71.666  1.00  0.00    -0.546 C  
ENDBRANCH  14  15
ENDBRANCH  13  14
ENDBRANCH  10  13
ENDBRANCH   2   3
TORSDOF 4
ENDMDL
MODEL      107
REMARK 921   NORMALIZED FREE ENERGY PREDICTED BY IDOCK:   -4.02 KCAL/MOL
REMARK 922        TOTAL FREE ENERGY PREDICTED BY IDOCK:   -5.35 KCAL/MOL
REMARK 923 INTER-LIGAND FREE ENERGY PREDICTED BY IDOCK:   -4.95 KCAL/MOL
REMARK 924 INTRA-LIGAND FREE ENERGY PREDICTED BY IDOCK:   -0.40 KCAL/MOL
REMARK 927      BINDING AFFINITY PREDICTED BY RF-SCORE:    0.00 PKD
ROOT
HETATM    1  C   UNL     1      -8.947   8.238  71.052  1.00  0.00    -0.154 C  
HETATM    2  O   UNL     1      -8.702   7.661  69.775  1.00  0.00    -0.138 OA 
ENDROOT
BRANCH   2   3
HETATM    3  C   UNL     1      -9.076   8.399  68.686  1.00  0.00    -0.140 A  
HETATM    4  C   UNL     1      -8.913   9.777  68.541  1.00  0.00    -0.124 A  
HETATM    5  C   UNL     1      -9.316  10.432  67.365  1.00  0.00    -0.162 A  
HETATM    6  C   UNL     1      -9.907   9.694  66.317  1.00  0.00    -0.323 A  
HETATM    7  C   UNL     1     -10.080   8.311  66.478  1.00  0.00    -0.303 A  
HETATM    8  C   UNL     1     -10.306  10.369  65.146  1.00  0.00    -0.260 A  
HETATM    9  C   UNL     1      -9.663   7.672  67.649  1.00  0.00    -0.189 A  
HETATM   10  C   UNL     1     -10.109  11.752  64.989  1.00  0.00    -0.302 A  
HETATM   11  C   UNL     1      -9.141  11.813  67.217  1.00  0.00    -0.171 A  
HETATM   12  C   UNL     1      -9.536  12.465  66.048  1.00  0.00    -0.214 A  
BRANCH  10  13
HETATM   13  C   UNL     1     -10.586  12.433  63.723  1.00  0.00    -0.486 C  
BRANCH  13  14
HETATM   14  C   UNL     1     -12.074  12.791  63.704  1.00  0.00    -0.624 C  
BRANCH  14  15
HETATM   15  C   UNL     1     -12.380  14.027  64.525  1.00  0.00    -0.378 C  
HETATM   16  O   UNL     1     -13.317  14.084  65.322  1.00  0.00    -0.741 OA 
HETATM   17  C   UNL     1     -11.466  15.210  64.331  1.00  0.00    -0.241 C  
ENDBRANCH  14  15
ENDBRANCH  13  14
ENDBRANCH  10  13
ENDBRANCH   2   3
TORSDOF 4
ENDMDL
MODEL      108
REMARK 921   NORMALIZED FREE ENERGY PREDICTED BY IDOCK:   -4.01 KCAL/MOL
REMARK 922        TOTAL FREE ENERGY PREDICTED BY IDOCK:   -5.34 KCAL/MOL
REMARK 923 INTER-LIGAND FREE ENERGY PREDICTED BY IDOCK:   -5.06 KCAL/MOL
REMARK 924 INTRA-LIGAND FREE ENERGY PREDICTED BY IDOCK:   -0.27 KCAL/MOL
REMARK 927      BINDING AFFINITY PREDICTED BY RF-SCORE:    0.00 PKD
ROOT
HETATM    1  C   UNL     1     -11.241   4.357  72.959  1.00  0.00    -0.147 C  
HETATM    2  O   UNL     1     -11.247   5.741  73.289  1.00  0.00    -0.246 OA 
ENDROOT
BRANCH   2   3
HETATM    3  C   UNL     1     -11.075   6.620  72.255  1.00  0.00    -0.258 A  
HETATM    4  C   UNL     1     -10.951   6.277  70.908  1.00  0.00    -0.344 A  
HETATM    5  C   UNL     1     -10.799   7.268  69.923  1.00  0.00    -0.264 A  
HETATM    6  C   UNL     1     -10.758   8.628  70.294  1.00  0.00    -0.243 A  
HETATM    7  C   UNL     1     -10.868   8.962  71.653  1.00  0.00    -0.420 A  
HETATM    8  C   UNL     1     -10.604   9.607  69.292  1.00  0.00    -0.236 A  
HETATM    9  C   UNL     1     -11.031   7.966  72.621  1.00  0.00    -0.440 A  
HETATM   10  C   UNL     1     -10.514   9.261  67.933  1.00  0.00    -0.290 A  
HETATM   11  C   UNL     1     -10.688   6.923  68.571  1.00  0.00    -0.252 A  
HETATM   12  C   UNL     1     -10.541   7.905  67.590  1.00  0.00    -0.276 A  
BRANCH  10  13
HETATM   13  C   UNL     1     -10.316  10.351  66.899  1.00  0.00    -0.297 C  
BRANCH  13  14
HETATM   14  C   UNL     1     -10.126   9.852  65.465  1.00  0.00    -0.297 C  
BRANCH  14  15
HETATM   15  C   UNL     1     -10.341  10.947  64.440  1.00  0.00    -0.361 C  
HETATM   16  O   UNL     1      -9.927  10.868  63.283  1.00  0.00    -0.322 OA 
HETATM   17  C   UNL     1     -11.106  12.162  64.900  1.00  0.00    -0.367 C  
ENDBRANCH  14  15
ENDBRANCH  13  14
ENDBRANCH  10  13
ENDBRANCH   2   3
TORSDOF 4
ENDMDL
MODEL      109
REMARK 921   NORMALIZED FREE ENERGY PREDICTED BY IDOCK:   -4.00 KCAL/MOL
REMARK 922        TOTAL FREE ENERGY PREDICTED BY IDOCK:   -5.32 KCAL/MOL
REMARK 923 INTER-LIGAND FREE ENERGY PREDICTED BY IDOCK:   -4.85 KCAL/MOL
REMARK 924 INTRA-LIGAND FREE ENERGY PREDICTED BY IDOCK:   -0.47 KCAL/MOL
REMARK 927      BINDING AFFINITY PREDICTED BY RF-SCORE:    0.00 PKD
ROOT
HETATM    1  C   UNL     1      -8.673   9.222  62.579  1.00  0.00    -0.230 C  
HETATM    2  O   UNL     1      -8.777   8.850  63.949  1.00  0.00    -0.151 OA 
ENDROOT
BRANCH   2   3
HETATM    3  C   UNL     1      -9.370   9.753  64.787  1.00  0.00    -0.265 A  
HETATM    4  C   UNL     1      -9.599  11.099  64.503  1.00  0.00    -0.288 A  
HETATM    5  C   UNL     1     -10.238  11.935  65.435  1.00  0.00    -0.300 A  
HETATM    6  C   UNL     1     -10.645  11.416  66.682  1.00  0.00    -0.302 A  
HETATM    7  C   UNL     1     -10.397  10.063  66.965  1.00  0.00    -0.305 A  
HETATM    8  C   UNL     1     -11.283  12.270  67.604  1.00  0.00    -0.346 A  
HETATM    9  C   UNL     1      -9.771   9.242  66.023  1.00  0.00    -0.359 A  
HETATM   10  C   UNL     1     -11.543  13.618  67.301  1.00  0.00    -0.387 A  
HETATM   11  C   UNL     1     -10.478  13.283  65.142  1.00  0.00    -0.346 A  
HETATM   12  C   UNL     1     -11.116  14.114  66.064  1.00  0.00    -0.314 A  
BRANCH  10  13
HETATM   13  C   UNL     1     -12.204  14.500  68.340  1.00  0.00    -0.154 C  
BRANCH  13  14
HETATM   14  C   UNL     1     -11.282  14.965  69.470  1.00  0.00    -0.300 C  
BRANCH  14  15
HETATM   15  C   UNL     1     -10.317  16.043  69.020  1.00  0.00    -0.242 C  
HETATM   16  O   UNL     1     -10.674  17.191  68.755  1.00  0.00    -0.337 OA 
HETATM   17  C   UNL     1      -8.865  15.649  68.917  1.00  0.00    -0.222 C  
ENDBRANCH  14  15
ENDBRANCH  13  14
ENDBRANCH  10  13
ENDBRANCH   2   3
TORSDOF 4
ENDMDL
MODEL      110
REMARK 921   NORMALIZED FREE ENERGY PREDICTED BY IDOCK:   -4.00 KCAL/MOL
REMARK 922        TOTAL FREE ENERGY PREDICTED BY IDOCK:   -5.31 KCAL/MOL
REMARK 923 INTER-LIGAND FREE ENERGY PREDICTED BY IDOCK:   -4.95 KCAL/MOL
REMARK 924 INTRA-LIGAND FREE ENERGY PREDICTED BY IDOCK:   -0.36 KCAL/MOL
REMARK 927      BINDING AFFINITY PREDICTED BY RF-SCORE:    0.00 PKD
ROOT
HETATM    1  C   UNL     1     -14.411   8.538  72.272  1.00  0.00    -0.390 C  
HETATM    2  O   UNL     1     -13.069   8.935  72.532  1.00  0.00    -0.422 OA 
ENDROOT
BRANCH   2   3
HETATM    3  C   UNL     1     -12.465   9.716  71.586  1.00  0.00    -0.407 A  
HETATM    4  C   UNL     1     -12.776  11.048  71.310  1.00  0.00    -0.537 A  
HETATM    5  C   UNL     1     -12.073  11.764  70.326  1.00  0.00    -0.426 A  
HETATM    6  C   UNL     1     -11.047  11.130  69.593  1.00  0.00    -0.297 A  
HETATM    7  C   UNL     1     -10.752   9.786  69.868  1.00  0.00    -0.303 A  
HETATM    8  C   UNL     1     -10.355  11.865  68.610  1.00  0.00    -0.218 A  
HETATM    9  C   UNL     1     -11.452   9.090  70.858  1.00  0.00    -0.347 A  
HETATM   10  C   UNL     1     -10.647  13.217  68.358  1.00  0.00    -0.264 A  
HETATM   11  C   UNL     1     -12.379  13.104  70.060  1.00  0.00    -0.241 A  
HETATM   12  C   UNL     1     -11.679  13.819  69.086  1.00  0.00    -0.379 A  
BRANCH  10  13
HETATM   13  C   UNL     1      -9.894  13.951  67.268  1.00  0.00    -0.244 C  
BRANCH  13  14
HETATM   14  C   UNL     1      -8.585  13.290  66.832  1.00  0.00    -0.116 C  
BRANCH  14  15
HETATM   15  C   UNL     1      -7.424  13.660  67.733  1.00  0.00    -0.168 C  
HETATM   16  O   UNL     1      -7.306  14.772  68.246  1.00  0.00    -0.102 OA 
HETATM   17  C   UNL     1      -6.399  12.584  67.990  1.00  0.00    -0.087 C  
ENDBRANCH  14  15
ENDBRANCH  13  14
ENDBRANCH  10  13
ENDBRANCH   2   3
TORSDOF 4
ENDMDL
MODEL      111
REMARK 921   NORMALIZED FREE ENERGY PREDICTED BY IDOCK:   -3.99 KCAL/MOL
REMARK 922        TOTAL FREE ENERGY PREDICTED BY IDOCK:   -5.31 KCAL/MOL
REMARK 923 INTER-LIGAND FREE ENERGY PREDICTED BY IDOCK:   -5.06 KCAL/MOL
REMARK 924 INTRA-LIGAND FREE ENERGY PREDICTED BY IDOCK:   -0.26 KCAL/MOL
REMARK 927      BINDING AFFINITY PREDICTED BY RF-SCORE:    0.00 PKD
ROOT
HETATM    1  C   UNL     1     -10.628  17.006  68.468  1.00  0.00    -0.370 C  
HETATM    2  O   UNL     1     -11.751  16.270  68.939  1.00  0.00    -0.313 OA 
ENDROOT
BRANCH   2   3
HETATM    3  C   UNL     1     -11.629  14.907  68.956  1.00  0.00    -0.305 A  
HETATM    4  C   UNL     1     -10.953  14.139  68.007  1.00  0.00    -0.269 A  
HETATM    5  C   UNL     1     -10.872  12.742  68.136  1.00  0.00    -0.249 A  
HETATM    6  C   UNL     1     -11.492  12.099  69.228  1.00  0.00    -0.363 A  
HETATM    7  C   UNL     1     -12.182  12.880  70.169  1.00  0.00    -0.336 A  
HETATM    8  C   UNL     1     -11.401  10.697  69.339  1.00  0.00    -0.348 A  
HETATM    9  C   UNL     1     -12.243  14.270  70.035  1.00  0.00    -0.417 A  
HETATM   10  C   UNL     1     -10.690   9.929  68.401  1.00  0.00    -0.271 A  
HETATM   11  C   UNL     1     -10.184  11.974  67.189  1.00  0.00    -0.221 A  
HETATM   12  C   UNL     1     -10.098  10.587  67.316  1.00  0.00    -0.242 A  
BRANCH  10  13
HETATM   13  C   UNL     1     -10.651   8.422  68.549  1.00  0.00    -0.149 C  
BRANCH  13  14
HETATM   14  C   UNL     1     -10.001   7.918  69.839  1.00  0.00    -0.192 C  
BRANCH  14  15
HETATM   15  C   UNL     1     -11.024   7.491  70.872  1.00  0.00    -0.253 C  
HETATM   16  O   UNL     1     -11.572   6.389  70.853  1.00  0.00    -0.333 OA 
HETATM   17  C   UNL     1     -11.346   8.489  71.955  1.00  0.00    -0.425 C  
ENDBRANCH  14  15
ENDBRANCH  13  14
ENDBRANCH  10  13
ENDBRANCH   2   3
TORSDOF 4
ENDMDL
MODEL      112
REMARK 921   NORMALIZED FREE ENERGY PREDICTED BY IDOCK:   -3.99 KCAL/MOL
REMARK 922        TOTAL FREE ENERGY PREDICTED BY IDOCK:   -5.31 KCAL/MOL
REMARK 923 INTER-LIGAND FREE ENERGY PREDICTED BY IDOCK:   -4.87 KCAL/MOL
REMARK 924 INTRA-LIGAND FREE ENERGY PREDICTED BY IDOCK:   -0.44 KCAL/MOL
REMARK 927      BINDING AFFINITY PREDICTED BY RF-SCORE:    0.00 PKD
ROOT
HETATM    1  C   UNL     1     -12.128  14.072  66.254  1.00  0.00    -0.456 C  
HETATM    2  O   UNL     1     -11.666  12.740  66.061  1.00  0.00    -0.372 OA 
ENDROOT
BRANCH   2   3
HETATM    3  C   UNL     1     -11.527  11.969  67.182  1.00  0.00    -0.335 A  
HETATM    4  C   UNL     1     -11.071  10.651  67.212  1.00  0.00    -0.313 A  
HETATM    5  C   UNL     1     -10.948   9.958  68.429  1.00  0.00    -0.235 A  
HETATM    6  C   UNL     1     -11.301  10.593  69.639  1.00  0.00    -0.360 A  
HETATM    7  C   UNL     1     -11.772  11.915  69.596  1.00  0.00    -0.413 A  
HETATM    8  C   UNL     1     -11.171   9.882  70.849  1.00  0.00    -0.433 A  
HETATM    9  C   UNL     1     -11.878  12.595  68.379  1.00  0.00    -0.347 A  
HETATM   10  C   UNL     1     -10.679   8.566  70.880  1.00  0.00    -0.268 A  
HETATM   11  C   UNL     1     -10.479   8.640  68.459  1.00  0.00    -0.209 A  
HETATM   12  C   UNL     1     -10.351   7.951  69.666  1.00  0.00    -0.216 A  
BRANCH  10  13
HETATM   13  C   UNL     1     -10.590   7.835  72.204  1.00  0.00    -0.295 C  
BRANCH  13  14
HETATM   14  C   UNL     1      -9.371   8.192  73.057  1.00  0.00    -0.335 C  
BRANCH  14  15
HETATM   15  C   UNL     1      -8.212   7.242  72.832  1.00  0.00    -0.106 C  
HETATM   16  O   UNL     1      -8.113   6.162  73.413  1.00  0.00    -0.109 OA 
HETATM   17  C   UNL     1      -7.164   7.679  71.840  1.00  0.00    -0.065 C  
ENDBRANCH  14  15
ENDBRANCH  13  14
ENDBRANCH  10  13
ENDBRANCH   2   3
TORSDOF 4
ENDMDL
MODEL      113
REMARK 921   NORMALIZED FREE ENERGY PREDICTED BY IDOCK:   -3.97 KCAL/MOL
REMARK 922        TOTAL FREE ENERGY PREDICTED BY IDOCK:   -5.29 KCAL/MOL
REMARK 923 INTER-LIGAND FREE ENERGY PREDICTED BY IDOCK:   -5.15 KCAL/MOL
REMARK 924 INTRA-LIGAND FREE ENERGY PREDICTED BY IDOCK:   -0.14 KCAL/MOL
REMARK 927      BINDING AFFINITY PREDICTED BY RF-SCORE:    0.00 PKD
ROOT
HETATM    1  C   UNL     1     -14.406  15.158  71.935  1.00  0.00    -0.596 C  
HETATM    2  O   UNL     1     -13.118  15.499  71.433  1.00  0.00    -0.453 OA 
ENDROOT
BRANCH   2   3
HETATM    3  C   UNL     1     -12.564  14.636  70.528  1.00  0.00    -0.350 A  
HETATM    4  C   UNL     1     -12.410  13.261  70.704  1.00  0.00    -0.416 A  
HETATM    5  C   UNL     1     -11.843  12.463  69.694  1.00  0.00    -0.380 A  
HETATM    6  C   UNL     1     -11.410  13.057  68.489  1.00  0.00    -0.323 A  
HETATM    7  C   UNL     1     -11.557  14.444  68.328  1.00  0.00    -0.359 A  
HETATM    8  C   UNL     1     -10.844  12.242  67.489  1.00  0.00    -0.271 A  
HETATM    9  C   UNL     1     -12.132  15.222  69.337  1.00  0.00    -0.301 A  
HETATM   10  C   UNL     1     -10.722  10.851  67.655  1.00  0.00    -0.288 A  
HETATM   11  C   UNL     1     -11.701  11.082  69.867  1.00  0.00    -0.424 A  
HETATM   12  C   UNL     1     -11.143  10.287  68.864  1.00  0.00    -0.278 A  
BRANCH  10  13
HETATM   13  C   UNL     1     -10.076  10.025  66.561  1.00  0.00    -0.296 C  
BRANCH  13  14
HETATM   14  C   UNL     1      -9.121   8.937  67.054  1.00  0.00    -0.161 C  
BRANCH  14  15
HETATM   15  C   UNL     1      -7.791   9.500  67.514  1.00  0.00    -0.102 C  
HETATM   16  O   UNL     1      -7.697  10.542  68.163  1.00  0.00    -0.093 OA 
HETATM   17  C   UNL     1      -6.560   8.713  67.144  1.00  0.00    -0.058 C  
ENDBRANCH  14  15
ENDBRANCH  13  14
ENDBRANCH  10  13
ENDBRANCH   2   3
TORSDOF 4
ENDMDL
MODEL      114
REMARK 921   NORMALIZED FREE ENERGY PREDICTED BY IDOCK:   -3.96 KCAL/MOL
REMARK 922        TOTAL FREE ENERGY PREDICTED BY IDOCK:   -5.27 KCAL/MOL
REMARK 923 INTER-LIGAND FREE ENERGY PREDICTED BY IDOCK:   -4.96 KCAL/MOL
REMARK 924 INTRA-LIGAND FREE ENERGY PREDICTED BY IDOCK:   -0.31 KCAL/MOL
REMARK 927      BINDING AFFINITY PREDICTED BY RF-SCORE:    0.00 PKD
ROOT
HETATM    1  C   UNL     1     -11.180  15.444  65.016  1.00  0.00    -0.387 C  
HETATM    2  O   UNL     1     -10.780  14.333  64.221  1.00  0.00    -0.220 OA 
ENDROOT
BRANCH   2   3
HETATM    3  C   UNL     1     -10.656  13.132  64.862  1.00  0.00    -0.349 A  
HETATM    4  C   UNL     1     -10.929  12.896  66.209  1.00  0.00    -0.305 A  
HETATM    5  C   UNL     1     -10.785  11.610  66.760  1.00  0.00    -0.299 A  
HETATM    6  C   UNL     1     -10.348  10.543  65.948  1.00  0.00    -0.275 A  
HETATM    7  C   UNL     1     -10.062  10.793  64.597  1.00  0.00    -0.410 A  
HETATM    8  C   UNL     1     -10.209   9.261  66.518  1.00  0.00    -0.316 A  
HETATM    9  C   UNL     1     -10.220  12.075  64.061  1.00  0.00    -0.391 A  
HETATM   10  C   UNL     1     -10.518   9.019  67.868  1.00  0.00    -0.291 A  
HETATM   11  C   UNL     1     -11.071  11.373  68.109  1.00  0.00    -0.306 A  
HETATM   12  C   UNL     1     -10.934  10.097  68.658  1.00  0.00    -0.273 A  
BRANCH  10  13
HETATM   13  C   UNL     1     -10.320   7.630  68.439  1.00  0.00    -0.228 C  
BRANCH  13  14
HETATM   14  C   UNL     1     -10.855   6.492  67.567  1.00  0.00    -0.433 C  
BRANCH  14  15
HETATM   15  C   UNL     1      -9.780   5.486  67.209  1.00  0.00    -0.139 C  
HETATM   16  O   UNL     1      -9.245   5.447  66.101  1.00  0.00    -0.149 OA 
HETATM   17  C   UNL     1      -9.376   4.516  68.290  1.00  0.00    -0.190 C  
ENDBRANCH  14  15
ENDBRANCH  13  14
ENDBRANCH  10  13
ENDBRANCH   2   3
TORSDOF 4
ENDMDL
MODEL      115
REMARK 921   NORMALIZED FREE ENERGY PREDICTED BY IDOCK:   -3.92 KCAL/MOL
REMARK 922        TOTAL FREE ENERGY PREDICTED BY IDOCK:   -5.22 KCAL/MOL
REMARK 923 INTER-LIGAND FREE ENERGY PREDICTED BY IDOCK:   -4.83 KCAL/MOL
REMARK 924 INTRA-LIGAND FREE ENERGY PREDICTED BY IDOCK:   -0.39 KCAL/MOL
REMARK 927      BINDING AFFINITY PREDICTED BY RF-SCORE:    0.00 PKD
ROOT
HETATM    1  C   UNL     1     -12.963  12.410  71.587  1.00  0.00    -0.305 C  
HETATM    2  O   UNL     1     -13.456  11.225  72.204  1.00  0.00    -0.390 OA 
ENDROOT
BRANCH   2   3
HETATM    3  C   UNL     1     -12.869  10.048  71.830  1.00  0.00    -0.446 A  
HETATM    4  C   UNL     1     -11.549   9.896  71.405  1.00  0.00    -0.428 A  
HETATM    5  C   UNL     1     -11.043   8.630  71.063  1.00  0.00    -0.316 A  
HETATM    6  C   UNL     1     -11.879   7.496  71.135  1.00  0.00    -0.324 A  
HETATM    7  C   UNL     1     -13.209   7.661  71.550  1.00  0.00    -0.380 A  
HETATM    8  C   UNL     1     -11.353   6.235  70.788  1.00  0.00    -0.397 A  
HETATM    9  C   UNL     1     -13.695   8.925  71.898  1.00  0.00    -0.488 A  
HETATM   10  C   UNL     1     -10.013   6.079  70.393  1.00  0.00    -0.233 A  
HETATM   11  C   UNL     1      -9.715   8.477  70.649  1.00  0.00    -0.207 A  
HETATM   12  C   UNL     1      -9.208   7.221  70.313  1.00  0.00    -0.155 A  
BRANCH  10  13
HETATM   13  C   UNL     1      -9.508   4.706  69.999  1.00  0.00    -0.242 C  
BRANCH  13  14
HETATM   14  C   UNL     1      -8.529   4.693  68.823  1.00  0.00    -0.092 C  
BRANCH  14  15
HETATM   15  C   UNL     1      -9.171   5.160  67.532  1.00  0.00    -0.117 C  
HETATM   16  O   UNL     1     -10.193   4.651  67.073  1.00  0.00    -0.196 OA 
HETATM   17  C   UNL     1      -8.498   6.307  66.820  1.00  0.00    -0.111 C  
ENDBRANCH  14  15
ENDBRANCH  13  14
ENDBRANCH  10  13
ENDBRANCH   2   3
TORSDOF 4
ENDMDL
MODEL      116
REMARK 921   NORMALIZED FREE ENERGY PREDICTED BY IDOCK:   -3.90 KCAL/MOL
REMARK 922        TOTAL FREE ENERGY PREDICTED BY IDOCK:   -5.19 KCAL/MOL
REMARK 923 INTER-LIGAND FREE ENERGY PREDICTED BY IDOCK:   -4.78 KCAL/MOL
REMARK 924 INTRA-LIGAND FREE ENERGY PREDICTED BY IDOCK:   -0.42 KCAL/MOL
REMARK 927      BINDING AFFINITY PREDICTED BY RF-SCORE:    0.00 PKD
ROOT
HETATM    1  C   UNL     1      -8.658   5.136  66.385  1.00  0.00    -0.112 C  
HETATM    2  O   UNL     1      -9.727   5.617  67.192  1.00  0.00    -0.124 OA 
ENDROOT
BRANCH   2   3
HETATM    3  C   UNL     1      -9.846   6.975  67.309  1.00  0.00    -0.166 A  
HETATM    4  C   UNL     1      -9.534   7.907  66.319  1.00  0.00    -0.220 A  
HETATM    5  C   UNL     1      -9.716   9.283  66.542  1.00  0.00    -0.305 A  
HETATM    6  C   UNL     1     -10.207   9.736  67.785  1.00  0.00    -0.254 A  
HETATM    7  C   UNL     1     -10.503   8.791  68.779  1.00  0.00    -0.214 A  
HETATM    8  C   UNL     1     -10.381  11.119  67.989  1.00  0.00    -0.208 A  
HETATM    9  C   UNL     1     -10.329   7.425  68.539  1.00  0.00    -0.221 A  
HETATM   10  C   UNL     1     -10.099  12.054  66.978  1.00  0.00    -0.221 A  
HETATM   11  C   UNL     1      -9.414  10.216  65.543  1.00  0.00    -0.286 A  
HETATM   12  C   UNL     1      -9.597  11.583  65.759  1.00  0.00    -0.259 A  
BRANCH  10  13
HETATM   13  C   UNL     1     -10.273  13.532  67.261  1.00  0.00    -0.242 C  
BRANCH  13  14
HETATM   14  C   UNL     1     -11.717  14.034  67.201  1.00  0.00    -0.421 C  
BRANCH  14  15
HETATM   15  C   UNL     1     -12.208  14.211  65.778  1.00  0.00    -0.442 C  
HETATM   16  O   UNL     1     -13.225  13.665  65.351  1.00  0.00    -0.678 OA 
HETATM   17  C   UNL     1     -11.387  15.110  64.888  1.00  0.00    -0.402 C  
ENDBRANCH  14  15
ENDBRANCH  13  14
ENDBRANCH  10  13
ENDBRANCH   2   3
TORSDOF 4
ENDMDL
MODEL      117
REMARK 921   NORMALIZED FREE ENERGY PREDICTED BY IDOCK:   -3.90 KCAL/MOL
REMARK 922        TOTAL FREE ENERGY PREDICTED BY IDOCK:   -5.19 KCAL/MOL
REMARK 923 INTER-LIGAND FREE ENERGY PREDICTED BY IDOCK:   -4.77 KCAL/MOL
REMARK 924 INTRA-LIGAND FREE ENERGY PREDICTED BY IDOCK:   -0.42 KCAL/MOL
REMARK 927      BINDING AFFINITY PREDICTED BY RF-SCORE:    0.00 PKD
ROOT
HETATM    1  C   UNL     1      -9.170   7.957  66.462  1.00  0.00    -0.191 C  
HETATM    2  O   UNL     1     -10.473   8.383  66.843  1.00  0.00    -0.317 OA 
ENDROOT
BRANCH   2   3
HETATM    3  C   UNL     1     -10.624   9.710  67.139  1.00  0.00    -0.228 A  
HETATM    4  C   UNL     1     -10.370  10.772  66.271  1.00  0.00    -0.303 A  
HETATM    5  C   UNL     1     -10.580  12.101  66.676  1.00  0.00    -0.266 A  
HETATM    6  C   UNL     1     -11.041  12.374  67.981  1.00  0.00    -0.288 A  
HETATM    7  C   UNL     1     -11.279  11.300  68.852  1.00  0.00    -0.315 A  
HETATM    8  C   UNL     1     -11.245  13.713  68.369  1.00  0.00    -0.306 A  
HETATM    9  C   UNL     1     -11.077   9.982  68.431  1.00  0.00    -0.236 A  
HETATM   10  C   UNL     1     -11.021  14.780  67.481  1.00  0.00    -0.304 A  
HETATM   11  C   UNL     1     -10.337  13.164  65.799  1.00  0.00    -0.294 A  
HETATM   12  C   UNL     1     -10.549  14.486  66.197  1.00  0.00    -0.308 A  
BRANCH  10  13
HETATM   13  C   UNL     1     -11.225  16.203  67.959  1.00  0.00    -0.291 C  
BRANCH  13  14
HETATM   14  C   UNL     1     -10.356  17.249  67.258  1.00  0.00    -0.331 C  
BRANCH  14  15
HETATM   15  C   UNL     1      -9.178  17.684  68.107  1.00  0.00    -0.282 C  
HETATM   16  O   UNL     1      -9.202  18.690  68.816  1.00  0.00    -0.330 OA 
HETATM   17  C   UNL     1      -7.950  16.811  68.056  1.00  0.00    -0.179 C  
ENDBRANCH  14  15
ENDBRANCH  13  14
ENDBRANCH  10  13
ENDBRANCH   2   3
TORSDOF 4
ENDMDL
MODEL      118
REMARK 921   NORMALIZED FREE ENERGY PREDICTED BY IDOCK:   -3.87 KCAL/MOL
REMARK 922        TOTAL FREE ENERGY PREDICTED BY IDOCK:   -5.16 KCAL/MOL
REMARK 923 INTER-LIGAND FREE ENERGY PREDICTED BY IDOCK:   -4.95 KCAL/MOL
REMARK 924 INTRA-LIGAND FREE ENERGY PREDICTED BY IDOCK:   -0.22 KCAL/MOL
REMARK 927      BINDING AFFINITY PREDICTED BY RF-SCORE:    0.00 PKD
ROOT
HETATM    1  C   UNL     1     -10.791  16.973  68.419  1.00  0.00    -0.333 C  
HETATM    2  O   UNL     1     -11.898  16.129  68.715  1.00  0.00    -0.339 OA 
ENDROOT
BRANCH   2   3
HETATM    3  C   UNL     1     -11.710  14.785  68.540  1.00  0.00    -0.317 A  
HETATM    4  C   UNL     1     -11.218  14.176  67.386  1.00  0.00    -0.334 A  
HETATM    5  C   UNL     1     -11.045  12.783  67.323  1.00  0.00    -0.314 A  
HETATM    6  C   UNL     1     -11.383  11.982  68.434  1.00  0.00    -0.332 A  
HETATM    7  C   UNL     1     -11.891  12.603  69.586  1.00  0.00    -0.379 A  
HETATM    8  C   UNL     1     -11.203  10.586  68.352  1.00  0.00    -0.339 A  
HETATM    9  C   UNL     1     -12.047  13.991  69.637  1.00  0.00    -0.408 A  
HETATM   10  C   UNL     1     -10.675   9.978  67.200  1.00  0.00    -0.279 A  
HETATM   11  C   UNL     1     -10.540  12.175  66.168  1.00  0.00    -0.290 A  
HETATM   12  C   UNL     1     -10.362  10.791  66.105  1.00  0.00    -0.300 A  
BRANCH  10  13
HETATM   13  C   UNL     1     -10.533   8.471  67.152  1.00  0.00    -0.370 C  
BRANCH  13  14
HETATM   14  C   UNL     1      -9.651   7.872  68.249  1.00  0.00    -0.164 C  
BRANCH  14  15
HETATM   15  C   UNL     1      -9.229   6.450  67.939  1.00  0.00    -0.113 C  
HETATM   16  O   UNL     1      -8.302   6.180  67.176  1.00  0.00    -0.106 OA 
HETATM   17  C   UNL     1     -10.002   5.352  68.624  1.00  0.00    -0.232 C  
ENDBRANCH  14  15
ENDBRANCH  13  14
ENDBRANCH  10  13
ENDBRANCH   2   3
TORSDOF 4
ENDMDL
MODEL      119
REMARK 921   NORMALIZED FREE ENERGY PREDICTED BY IDOCK:   -3.87 KCAL/MOL
REMARK 922        TOTAL FREE ENERGY PREDICTED BY IDOCK:   -5.15 KCAL/MOL
REMARK 923 INTER-LIGAND FREE ENERGY PREDICTED BY IDOCK:   -4.83 KCAL/MOL
REMARK 924 INTRA-LIGAND FREE ENERGY PREDICTED BY IDOCK:   -0.32 KCAL/MOL
REMARK 927      BINDING AFFINITY PREDICTED BY RF-SCORE:    0.00 PKD
ROOT
HETATM    1  C   UNL     1     -11.414   4.311  73.333  1.00  0.00    -0.171 C  
HETATM    2  O   UNL     1     -11.074   5.680  73.523  1.00  0.00    -0.256 OA 
ENDROOT
BRANCH   2   3
HETATM    3  C   UNL     1     -11.040   6.465  72.403  1.00  0.00    -0.268 A  
HETATM    4  C   UNL     1     -11.414   7.808  72.339  1.00  0.00    -0.418 A  
HETATM    5  C   UNL     1     -11.318   8.526  71.134  1.00  0.00    -0.319 A  
HETATM    6  C   UNL     1     -10.851   7.884  69.968  1.00  0.00    -0.238 A  
HETATM    7  C   UNL     1     -10.491   6.529  70.040  1.00  0.00    -0.257 A  
HETATM    8  C   UNL     1     -10.763   8.621  68.770  1.00  0.00    -0.098 A  
HETATM    9  C   UNL     1     -10.581   5.831  71.248  1.00  0.00    -0.319 A  
HETATM   10  C   UNL     1     -11.108   9.983  68.716  1.00  0.00    -0.219 A  
HETATM   11  C   UNL     1     -11.682   9.877  71.075  1.00  0.00    -0.466 A  
HETATM   12  C   UNL     1     -11.584  10.594  69.881  1.00  0.00    -0.396 A  
BRANCH  10  13
HETATM   13  C   UNL     1     -11.025  10.720  67.395  1.00  0.00    -0.361 C  
BRANCH  13  14
HETATM   14  C   UNL     1     -11.310  12.221  67.475  1.00  0.00    -0.388 C  
BRANCH  14  15
HETATM   15  C   UNL     1     -10.051  13.055  67.346  1.00  0.00    -0.231 C  
HETATM   16  O   UNL     1      -8.923  12.563  67.340  1.00  0.00    -0.172 OA 
HETATM   17  C   UNL     1     -10.240  14.545  67.211  1.00  0.00    -0.255 C  
ENDBRANCH  14  15
ENDBRANCH  13  14
ENDBRANCH  10  13
ENDBRANCH   2   3
TORSDOF 4
ENDMDL
MODEL      120
REMARK 921   NORMALIZED FREE ENERGY PREDICTED BY IDOCK:   -3.86 KCAL/MOL
REMARK 922        TOTAL FREE ENERGY PREDICTED BY IDOCK:   -5.15 KCAL/MOL
REMARK 923 INTER-LIGAND FREE ENERGY PREDICTED BY IDOCK:   -4.87 KCAL/MOL
REMARK 924 INTRA-LIGAND FREE ENERGY PREDICTED BY IDOCK:   -0.28 KCAL/MOL
REMARK 927      BINDING AFFINITY PREDICTED BY RF-SCORE:    0.00 PKD
ROOT
HETATM    1  C   UNL     1     -11.976  15.228  69.460  1.00  0.00    -0.330 C  
HETATM    2  O   UNL     1     -11.577  14.753  68.179  1.00  0.00    -0.307 OA 
ENDROOT
BRANCH   2   3
HETATM    3  C   UNL     1     -11.353  13.408  68.065  1.00  0.00    -0.286 A  
HETATM    4  C   UNL     1     -11.163  12.522  69.126  1.00  0.00    -0.297 A  
HETATM    5  C   UNL     1     -10.961  11.150  68.892  1.00  0.00    -0.276 A  
HETATM    6  C   UNL     1     -10.936  10.659  67.570  1.00  0.00    -0.371 A  
HETATM    7  C   UNL     1     -11.114  11.561  66.509  1.00  0.00    -0.341 A  
HETATM    8  C   UNL     1     -10.732   9.281  67.356  1.00  0.00    -0.263 A  
HETATM    9  C   UNL     1     -11.325  12.920  66.758  1.00  0.00    -0.367 A  
HETATM   10  C   UNL     1     -10.574   8.385  68.427  1.00  0.00    -0.155 A  
HETATM   11  C   UNL     1     -10.782  10.261  69.958  1.00  0.00    -0.345 A  
HETATM   12  C   UNL     1     -10.586   8.898  69.729  1.00  0.00    -0.230 A  
BRANCH  10  13
HETATM   13  C   UNL     1     -10.325   6.918  68.141  1.00  0.00    -0.223 C  
BRANCH  13  14
HETATM   14  C   UNL     1     -11.151   6.336  66.992  1.00  0.00    -0.379 C  
BRANCH  14  15
HETATM   15  C   UNL     1     -10.623   4.996  66.522  1.00  0.00    -0.231 C  
HETATM   16  O   UNL     1     -10.900   4.518  65.423  1.00  0.00    -0.271 OA 
HETATM   17  C   UNL     1      -9.715   4.257  67.473  1.00  0.00    -0.198 C  
ENDBRANCH  14  15
ENDBRANCH  13  14
ENDBRANCH  10  13
ENDBRANCH   2   3
TORSDOF 4
ENDMDL
MODEL      121
REMARK 921   NORMALIZED FREE ENERGY PREDICTED BY IDOCK:   -3.86 KCAL/MOL
REMARK 922        TOTAL FREE ENERGY PREDICTED BY IDOCK:   -5.14 KCAL/MOL
REMARK 923 INTER-LIGAND FREE ENERGY PREDICTED BY IDOCK:   -5.38 KCAL/MOL
REMARK 924 INTRA-LIGAND FREE ENERGY PREDICTED BY IDOCK:    0.24 KCAL/MOL
REMARK 927      BINDING AFFINITY PREDICTED BY RF-SCORE:    0.00 PKD
ROOT
HETATM    1  C   UNL     1     -11.494  15.183  63.836  1.00  0.00     0.470 C  
HETATM    2  O   UNL     1     -10.822  14.037  64.347  1.00  0.00    -0.374 OA 
ENDROOT
BRANCH   2   3
HETATM    3  C   UNL     1     -11.135  13.660  65.624  1.00  0.00    -0.294 A  
HETATM    4  C   UNL     1     -11.373  14.524  66.692  1.00  0.00    -0.359 A  
HETATM    5  C   UNL     1     -11.709  14.025  67.963  1.00  0.00    -0.394 A  
HETATM    6  C   UNL     1     -11.796  12.632  68.171  1.00  0.00    -0.366 A  
HETATM    7  C   UNL     1     -11.540  11.770  67.092  1.00  0.00    -0.342 A  
HETATM    8  C   UNL     1     -12.133  12.151  69.451  1.00  0.00    -0.247 A  
HETATM    9  C   UNL     1     -11.218  12.282  65.832  1.00  0.00    -0.381 A  
HETATM   10  C   UNL     1     -12.406  13.024  70.518  1.00  0.00    -0.365 A  
HETATM   11  C   UNL     1     -11.960  14.894  69.031  1.00  0.00    -0.307 A  
HETATM   12  C   UNL     1     -12.298  14.401  70.292  1.00  0.00    -0.410 A  
BRANCH  10  13
HETATM   13  C   UNL     1     -12.732  12.454  71.883  1.00  0.00    -0.194 C  
BRANCH  13  14
HETATM   14  C   UNL     1     -13.753  13.258  72.691  1.00  0.00    -0.465 C  
BRANCH  14  15
HETATM   15  C   UNL     1     -13.155  14.514  73.290  1.00  0.00    -0.329 C  
HETATM   16  O   UNL     1     -12.251  14.490  74.125  1.00  0.00    -0.388 OA 
HETATM   17  C   UNL     1     -13.717  15.827  72.806  1.00  0.00    -0.639 C  
ENDBRANCH  14  15
ENDBRANCH  13  14
ENDBRANCH  10  13
ENDBRANCH   2   3
TORSDOF 4
ENDMDL
MODEL      122
REMARK 921   NORMALIZED FREE ENERGY PREDICTED BY IDOCK:   -3.85 KCAL/MOL
REMARK 922        TOTAL FREE ENERGY PREDICTED BY IDOCK:   -5.14 KCAL/MOL
REMARK 923 INTER-LIGAND FREE ENERGY PREDICTED BY IDOCK:   -4.68 KCAL/MOL
REMARK 924 INTRA-LIGAND FREE ENERGY PREDICTED BY IDOCK:   -0.46 KCAL/MOL
REMARK 927      BINDING AFFINITY PREDICTED BY RF-SCORE:    0.00 PKD
ROOT
HETATM    1  C   UNL     1      -9.464  10.270  68.191  1.00  0.00    -0.147 C  
HETATM    2  O   UNL     1      -8.331  11.089  67.928  1.00  0.00    -0.118 OA 
ENDROOT
BRANCH   2   3
HETATM    3  C   UNL     1      -8.516  12.441  68.020  1.00  0.00    -0.176 A  
HETATM    4  C   UNL     1      -9.744  13.088  68.154  1.00  0.00    -0.228 A  
HETATM    5  C   UNL     1      -9.816  14.487  68.262  1.00  0.00    -0.229 A  
HETATM    6  C   UNL     1      -8.633  15.256  68.222  1.00  0.00    -0.159 A  
HETATM    7  C   UNL     1      -7.403  14.598  68.072  1.00  0.00    -0.142 A  
HETATM    8  C   UNL     1      -8.725  16.658  68.331  1.00  0.00    -0.225 A  
HETATM    9  C   UNL     1      -7.347  13.204  67.977  1.00  0.00    -0.125 A  
HETATM   10  C   UNL     1      -9.962  17.305  68.500  1.00  0.00    -0.320 A  
HETATM   11  C   UNL     1     -11.049  15.133  68.409  1.00  0.00    -0.286 A  
HETATM   12  C   UNL     1     -11.122  16.522  68.521  1.00  0.00    -0.335 A  
BRANCH  10  13
HETATM   13  C   UNL     1     -10.007  18.817  68.580  1.00  0.00    -0.450 C  
BRANCH  13  14
HETATM   14  C   UNL     1     -10.904  19.490  67.539  1.00  0.00    -0.494 C  
BRANCH  14  15
HETATM   15  C   UNL     1     -10.298  19.465  66.151  1.00  0.00    -0.504 C  
HETATM   16  O   UNL     1     -10.960  19.244  65.137  1.00  0.00    -0.448 OA 
HETATM   17  C   UNL     1      -8.818  19.738  66.056  1.00  0.00    -0.295 C  
ENDBRANCH  14  15
ENDBRANCH  13  14
ENDBRANCH  10  13
ENDBRANCH   2   3
TORSDOF 4
ENDMDL
MODEL      123
REMARK 921   NORMALIZED FREE ENERGY PREDICTED BY IDOCK:   -3.85 KCAL/MOL
REMARK 922        TOTAL FREE ENERGY PREDICTED BY IDOCK:   -5.13 KCAL/MOL
REMARK 923 INTER-LIGAND FREE ENERGY PREDICTED BY IDOCK:   -4.82 KCAL/MOL
REMARK 924 INTRA-LIGAND FREE ENERGY PREDICTED BY IDOCK:   -0.32 KCAL/MOL
REMARK 927      BINDING AFFINITY PREDICTED BY RF-SCORE:    0.00 PKD
ROOT
HETATM    1  C   UNL     1     -10.615  18.387  67.067  1.00  0.00    -0.366 C  
HETATM    2  O   UNL     1     -11.003  17.368  67.982  1.00  0.00    -0.341 OA 
ENDROOT
BRANCH   2   3
HETATM    3  C   UNL     1     -10.653  16.086  67.658  1.00  0.00    -0.309 A  
HETATM    4  C   UNL     1     -11.396  14.942  67.947  1.00  0.00    -0.340 A  
HETATM    5  C   UNL     1     -10.949  13.671  67.546  1.00  0.00    -0.282 A  
HETATM    6  C   UNL     1      -9.726  13.542  66.855  1.00  0.00    -0.261 A  
HETATM    7  C   UNL     1      -8.978  14.698  66.582  1.00  0.00    -0.267 A  
HETATM    8  C   UNL     1      -9.294  12.259  66.462  1.00  0.00    -0.230 A  
HETATM    9  C   UNL     1      -9.442  15.956  66.977  1.00  0.00    -0.234 A  
HETATM   10  C   UNL     1     -10.062  11.111  66.724  1.00  0.00    -0.255 A  
HETATM   11  C   UNL     1     -11.703  12.525  67.826  1.00  0.00    -0.419 A  
HETATM   12  C   UNL     1     -11.264  11.262  67.425  1.00  0.00    -0.370 A  
BRANCH  10  13
HETATM   13  C   UNL     1      -9.536   9.753  66.308  1.00  0.00    -0.250 C  
BRANCH  13  14
HETATM   14  C   UNL     1     -10.454   8.575  66.644  1.00  0.00    -0.235 C  
BRANCH  14  15
HETATM   15  C   UNL     1     -10.070   7.897  67.944  1.00  0.00    -0.191 C  
HETATM   16  O   UNL     1      -9.174   8.316  68.676  1.00  0.00    -0.143 OA 
HETATM   17  C   UNL     1     -10.853   6.664  68.318  1.00  0.00    -0.322 C  
ENDBRANCH  14  15
ENDBRANCH  13  14
ENDBRANCH  10  13
ENDBRANCH   2   3
TORSDOF 4
ENDMDL
MODEL      124
REMARK 921   NORMALIZED FREE ENERGY PREDICTED BY IDOCK:   -3.83 KCAL/MOL
REMARK 922        TOTAL FREE ENERGY PREDICTED BY IDOCK:   -5.11 KCAL/MOL
REMARK 923 INTER-LIGAND FREE ENERGY PREDICTED BY IDOCK:   -4.63 KCAL/MOL
REMARK 924 INTRA-LIGAND FREE ENERGY PREDICTED BY IDOCK:   -0.48 KCAL/MOL
REMARK 927      BINDING AFFINITY PREDICTED BY RF-SCORE:    0.00 PKD
ROOT
HETATM    1  C   UNL     1      -8.295   3.345  64.661  1.00  0.00    -0.093 C  
HETATM    2  O   UNL     1      -8.416   2.899  66.006  1.00  0.00    -0.096 OA 
ENDROOT
BRANCH   2   3
HETATM    3  C   UNL     1      -9.122   3.702  66.859  1.00  0.00    -0.166 A  
HETATM    4  C   UNL     1      -9.113   3.619  68.251  1.00  0.00    -0.199 A  
HETATM    5  C   UNL     1      -9.863   4.514  69.033  1.00  0.00    -0.202 A  
HETATM    6  C   UNL     1     -10.649   5.505  68.407  1.00  0.00    -0.210 A  
HETATM    7  C   UNL     1     -10.663   5.571  67.005  1.00  0.00    -0.286 A  
HETATM    8  C   UNL     1     -11.396   6.393  69.208  1.00  0.00    -0.405 A  
HETATM    9  C   UNL     1      -9.902   4.681  66.242  1.00  0.00    -0.241 A  
HETATM   10  C   UNL     1     -11.358   6.328  70.612  1.00  0.00    -0.409 A  
HETATM   11  C   UNL     1      -9.843   4.436  70.430  1.00  0.00    -0.286 A  
HETATM   12  C   UNL     1     -10.584   5.327  71.209  1.00  0.00    -0.242 A  
BRANCH  10  13
HETATM   13  C   UNL     1     -12.205   7.286  71.424  1.00  0.00    -0.384 C  
BRANCH  13  14
HETATM   14  C   UNL     1     -11.439   8.088  72.478  1.00  0.00    -0.471 C  
BRANCH  14  15
HETATM   15  C   UNL     1     -10.231   8.796  71.899  1.00  0.00    -0.345 C  
HETATM   16  O   UNL     1     -10.317   9.652  71.018  1.00  0.00    -0.298 OA 
HETATM   17  C   UNL     1      -8.887   8.409  72.463  1.00  0.00    -0.296 C  
ENDBRANCH  14  15
ENDBRANCH  13  14
ENDBRANCH  10  13
ENDBRANCH   2   3
TORSDOF 4
ENDMDL
MODEL      125
REMARK 921   NORMALIZED FREE ENERGY PREDICTED BY IDOCK:   -3.79 KCAL/MOL
REMARK 922        TOTAL FREE ENERGY PREDICTED BY IDOCK:   -5.06 KCAL/MOL
REMARK 923 INTER-LIGAND FREE ENERGY PREDICTED BY IDOCK:   -4.80 KCAL/MOL
REMARK 924 INTRA-LIGAND FREE ENERGY PREDICTED BY IDOCK:   -0.26 KCAL/MOL
REMARK 927      BINDING AFFINITY PREDICTED BY RF-SCORE:    0.00 PKD
ROOT
HETATM    1  C   UNL     1     -12.170  15.650  71.011  1.00  0.00    -0.412 C  
HETATM    2  O   UNL     1     -12.248  15.877  69.608  1.00  0.00    -0.303 OA 
ENDROOT
BRANCH   2   3
HETATM    3  C   UNL     1     -11.797  14.871  68.798  1.00  0.00    -0.296 A  
HETATM    4  C   UNL     1     -11.756  13.516  69.128  1.00  0.00    -0.374 A  
HETATM    5  C   UNL     1     -11.290  12.563  68.205  1.00  0.00    -0.331 A  
HETATM    6  C   UNL     1     -10.845  12.976  66.932  1.00  0.00    -0.282 A  
HETATM    7  C   UNL     1     -10.876  14.343  66.615  1.00  0.00    -0.304 A  
HETATM    8  C   UNL     1     -10.381  12.006  66.022  1.00  0.00    -0.271 A  
HETATM    9  C   UNL     1     -11.353  15.278  67.539  1.00  0.00    -0.300 A  
HETATM   10  C   UNL     1     -10.373  10.638  66.344  1.00  0.00    -0.291 A  
HETATM   11  C   UNL     1     -11.261  11.203  68.534  1.00  0.00    -0.318 A  
HETATM   12  C   UNL     1     -10.804  10.254  67.619  1.00  0.00    -0.363 A  
BRANCH  10  13
HETATM   13  C   UNL     1      -9.833   9.640  65.340  1.00  0.00    -0.322 C  
BRANCH  13  14
HETATM   14  C   UNL     1      -8.910  10.233  64.274  1.00  0.00    -0.234 C  
BRANCH  14  15
HETATM   15  C   UNL     1      -7.954   9.205  63.701  1.00  0.00    -0.146 C  
HETATM   16  O   UNL     1      -8.327   8.268  62.996  1.00  0.00    -0.157 OA 
HETATM   17  C   UNL     1      -6.494   9.384  64.030  1.00  0.00    -0.095 C  
ENDBRANCH  14  15
ENDBRANCH  13  14
ENDBRANCH  10  13
ENDBRANCH   2   3
TORSDOF 4
ENDMDL
MODEL      126
REMARK 921   NORMALIZED FREE ENERGY PREDICTED BY IDOCK:   -3.76 KCAL/MOL
REMARK 922        TOTAL FREE ENERGY PREDICTED BY IDOCK:   -5.02 KCAL/MOL
REMARK 923 INTER-LIGAND FREE ENERGY PREDICTED BY IDOCK:   -4.62 KCAL/MOL
REMARK 924 INTRA-LIGAND FREE ENERGY PREDICTED BY IDOCK:   -0.41 KCAL/MOL
REMARK 927      BINDING AFFINITY PREDICTED BY RF-SCORE:    0.00 PKD
ROOT
HETATM    1  C   UNL     1     -13.439  12.810  72.121  1.00  0.00    -0.492 C  
HETATM    2  O   UNL     1     -13.126  11.455  71.822  1.00  0.00    -0.480 OA 
ENDROOT
BRANCH   2   3
HETATM    3  C   UNL     1     -12.363  11.232  70.709  1.00  0.00    -0.398 A  
HETATM    4  C   UNL     1     -12.382  11.996  69.542  1.00  0.00    -0.056 A  
HETATM    5  C   UNL     1     -11.535  11.687  68.463  1.00  0.00    -0.358 A  
HETATM    6  C   UNL     1     -10.661  10.583  68.549  1.00  0.00    -0.259 A  
HETATM    7  C   UNL     1     -10.660   9.811  69.722  1.00  0.00    -0.285 A  
HETATM    8  C   UNL     1      -9.821  10.288  67.457  1.00  0.00    -0.204 A  
HETATM    9  C   UNL     1     -11.499  10.138  70.791  1.00  0.00    -0.442 A  
HETATM   10  C   UNL     1      -9.818  11.081  66.296  1.00  0.00    -0.257 A  
HETATM   11  C   UNL     1     -11.548  12.462  67.298  1.00  0.00    -0.435 A  
HETATM   12  C   UNL     1     -10.705  12.161  66.227  1.00  0.00    -0.296 A  
BRANCH  10  13
HETATM   13  C   UNL     1      -8.918  10.701  65.138  1.00  0.00    -0.217 C  
BRANCH  13  14
HETATM   14  C   UNL     1      -8.719   9.196  64.943  1.00  0.00    -0.215 C  
BRANCH  14  15
HETATM   15  C   UNL     1      -7.255   8.804  64.930  1.00  0.00    -0.084 C  
HETATM   16  O   UNL     1      -6.711   8.287  63.955  1.00  0.00    -0.074 OA 
HETATM   17  C   UNL     1      -6.470   9.087  66.186  1.00  0.00    -0.065 C  
ENDBRANCH  14  15
ENDBRANCH  13  14
ENDBRANCH  10  13
ENDBRANCH   2   3
TORSDOF 4
ENDMDL
MODEL      127
REMARK 921   NORMALIZED FREE ENERGY PREDICTED BY IDOCK:   -3.76 KCAL/MOL
REMARK 922        TOTAL FREE ENERGY PREDICTED BY IDOCK:   -5.02 KCAL/MOL
REMARK 923 INTER-LIGAND FREE ENERGY PREDICTED BY IDOCK:   -4.64 KCAL/MOL
REMARK 924 INTRA-LIGAND FREE ENERGY PREDICTED BY IDOCK:   -0.38 KCAL/MOL
REMARK 927      BINDING AFFINITY PREDICTED BY RF-SCORE:    0.00 PKD
ROOT
HETATM    1  C   UNL     1      -5.372  13.707  71.486  1.00  0.00    -0.208 C  
HETATM    2  O   UNL     1      -5.308  13.390  70.099  1.00  0.00    -0.092 OA 
ENDROOT
BRANCH   2   3
HETATM    3  C   UNL     1      -6.479  13.466  69.397  1.00  0.00    -0.100 A  
HETATM    4  C   UNL     1      -7.196  12.381  68.891  1.00  0.00    -0.061 A  
HETATM    5  C   UNL     1      -8.405  12.575  68.200  1.00  0.00    -0.175 A  
HETATM    6  C   UNL     1      -8.899  13.881  68.000  1.00  0.00    -0.184 A  
HETATM    7  C   UNL     1      -8.162  14.967  68.501  1.00  0.00    -0.153 A  
HETATM    8  C   UNL     1     -10.111  14.055  67.304  1.00  0.00    -0.249 A  
HETATM    9  C   UNL     1      -6.968  14.757  69.196  1.00  0.00    -0.138 A  
HETATM   10  C   UNL     1     -10.849  12.959  66.825  1.00  0.00    -0.288 A  
HETATM   11  C   UNL     1      -9.129  11.485  67.704  1.00  0.00    -0.168 A  
HETATM   12  C   UNL     1     -10.331  11.674  67.021  1.00  0.00    -0.248 A  
BRANCH  10  13
HETATM   13  C   UNL     1     -12.131  13.203  66.054  1.00  0.00    -0.495 C  
BRANCH  13  14
HETATM   14  C   UNL     1     -11.937  13.569  64.582  1.00  0.00    -0.438 C  
BRANCH  14  15
HETATM   15  C   UNL     1     -11.974  12.355  63.675  1.00  0.00    -0.539 C  
HETATM   16  O   UNL     1     -13.008  11.949  63.146  1.00  0.00    -0.640 OA 
HETATM   17  C   UNL     1     -10.662  11.652  63.435  1.00  0.00    -0.460 C  
ENDBRANCH  14  15
ENDBRANCH  13  14
ENDBRANCH  10  13
ENDBRANCH   2   3
TORSDOF 4
ENDMDL
MODEL      128
REMARK 921   NORMALIZED FREE ENERGY PREDICTED BY IDOCK:   -3.75 KCAL/MOL
REMARK 922        TOTAL FREE ENERGY PREDICTED BY IDOCK:   -5.01 KCAL/MOL
REMARK 923 INTER-LIGAND FREE ENERGY PREDICTED BY IDOCK:   -4.62 KCAL/MOL
REMARK 924 INTRA-LIGAND FREE ENERGY PREDICTED BY IDOCK:   -0.39 KCAL/MOL
REMARK 927      BINDING AFFINITY PREDICTED BY RF-SCORE:    0.00 PKD
ROOT
HETATM    1  C   UNL     1      -8.321   8.507  62.806  1.00  0.00    -0.154 C  
HETATM    2  O   UNL     1      -7.578   8.903  63.953  1.00  0.00    -0.111 OA 
ENDROOT
BRANCH   2   3
HETATM    3  C   UNL     1      -8.293   9.150  65.093  1.00  0.00    -0.154 A  
HETATM    4  C   UNL     1      -9.186  10.205  65.281  1.00  0.00    -0.257 A  
HETATM    5  C   UNL     1      -9.885  10.350  66.492  1.00  0.00    -0.256 A  
HETATM    6  C   UNL     1      -9.677   9.429  67.539  1.00  0.00    -0.198 A  
HETATM    7  C   UNL     1      -8.765   8.379  67.345  1.00  0.00    -0.136 A  
HETATM    8  C   UNL     1     -10.386   9.592  68.746  1.00  0.00    -0.228 A  
HETATM    9  C   UNL     1      -8.086   8.241  66.131  1.00  0.00    -0.111 A  
HETATM   10  C   UNL     1     -11.311  10.636  68.921  1.00  0.00    -0.337 A  
HETATM   11  C   UNL     1     -10.790  11.402  66.674  1.00  0.00    -0.339 A  
HETATM   12  C   UNL     1     -11.490  11.547  67.874  1.00  0.00    -0.372 A  
BRANCH  10  13
HETATM   13  C   UNL     1     -12.024  10.784  70.250  1.00  0.00    -0.438 C  
BRANCH  13  14
HETATM   14  C   UNL     1     -11.686   9.711  71.286  1.00  0.00    -0.458 C  
BRANCH  14  15
HETATM   15  C   UNL     1     -12.739   8.624  71.356  1.00  0.00    -0.276 C  
HETATM   16  O   UNL     1     -13.924   8.858  71.594  1.00  0.00    -0.392 OA 
HETATM   17  C   UNL     1     -12.271   7.213  71.108  1.00  0.00    -0.405 C  
ENDBRANCH  14  15
ENDBRANCH  13  14
ENDBRANCH  10  13
ENDBRANCH   2   3
TORSDOF 4
ENDMDL
MODEL      129
REMARK 921   NORMALIZED FREE ENERGY PREDICTED BY IDOCK:   -3.74 KCAL/MOL
REMARK 922        TOTAL FREE ENERGY PREDICTED BY IDOCK:   -5.00 KCAL/MOL
REMARK 923 INTER-LIGAND FREE ENERGY PREDICTED BY IDOCK:   -4.59 KCAL/MOL
REMARK 924 INTRA-LIGAND FREE ENERGY PREDICTED BY IDOCK:   -0.41 KCAL/MOL
REMARK 927      BINDING AFFINITY PREDICTED BY RF-SCORE:    0.00 PKD
ROOT
HETATM    1  C   UNL     1      -7.160  18.932  68.986  1.00  0.00    -0.306 C  
HETATM    2  O   UNL     1      -8.550  18.733  68.751  1.00  0.00    -0.336 OA 
ENDROOT
BRANCH   2   3
HETATM    3  C   UNL     1      -8.971  17.439  68.614  1.00  0.00    -0.255 A  
HETATM    4  C   UNL     1      -8.144  16.319  68.534  1.00  0.00    -0.193 A  
HETATM    5  C   UNL     1      -8.688  15.028  68.415  1.00  0.00    -0.175 A  
HETATM    6  C   UNL     1     -10.087  14.857  68.362  1.00  0.00    -0.225 A  
HETATM    7  C   UNL     1     -10.910  15.992  68.428  1.00  0.00    -0.310 A  
HETATM    8  C   UNL     1     -10.614  13.555  68.242  1.00  0.00    -0.259 A  
HETATM    9  C   UNL     1     -10.355  17.268  68.558  1.00  0.00    -0.371 A  
HETATM   10  C   UNL     1      -9.779  12.425  68.196  1.00  0.00    -0.214 A  
HETATM   11  C   UNL     1      -7.857  13.904  68.348  1.00  0.00    -0.138 A  
HETATM   12  C   UNL     1      -8.394  12.620  68.234  1.00  0.00    -0.165 A  
BRANCH  10  13
HETATM   13  C   UNL     1     -10.396  11.050  68.033  1.00  0.00    -0.209 C  
BRANCH  13  14
HETATM   14  C   UNL     1     -11.765  10.876  68.694  1.00  0.00    -0.334 C  
BRANCH  14  15
HETATM   15  C   UNL     1     -11.662  10.702  70.197  1.00  0.00    -0.332 C  
HETATM   16  O   UNL     1     -12.449  11.227  70.984  1.00  0.00    -0.382 OA 
HETATM   17  C   UNL     1     -10.537   9.835  70.701  1.00  0.00    -0.382 C  
ENDBRANCH  14  15
ENDBRANCH  13  14
ENDBRANCH  10  13
ENDBRANCH   2   3
TORSDOF 4
ENDMDL
MODEL      130
REMARK 921   NORMALIZED FREE ENERGY PREDICTED BY IDOCK:   -3.74 KCAL/MOL
REMARK 922        TOTAL FREE ENERGY PREDICTED BY IDOCK:   -5.00 KCAL/MOL
REMARK 923 INTER-LIGAND FREE ENERGY PREDICTED BY IDOCK:   -4.64 KCAL/MOL
REMARK 924 INTRA-LIGAND FREE ENERGY PREDICTED BY IDOCK:   -0.35 KCAL/MOL
REMARK 927      BINDING AFFINITY PREDICTED BY RF-SCORE:    0.00 PKD
ROOT
HETATM    1  C   UNL     1     -13.372  12.867  72.111  1.00  0.00    -0.515 C  
HETATM    2  O   UNL     1     -13.534  11.453  72.091  1.00  0.00    -0.397 OA 
ENDROOT
BRANCH   2   3
HETATM    3  C   UNL     1     -12.693  10.751  71.271  1.00  0.00    -0.441 A  
HETATM    4  C   UNL     1     -12.233  11.172  70.024  1.00  0.00    -0.402 A  
HETATM    5  C   UNL     1     -11.351  10.375  69.274  1.00  0.00    -0.296 A  
HETATM    6  C   UNL     1     -10.932   9.125  69.777  1.00  0.00    -0.195 A  
HETATM    7  C   UNL     1     -11.413   8.704  71.027  1.00  0.00    -0.324 A  
HETATM    8  C   UNL     1     -10.048   8.340  69.010  1.00  0.00    -0.208 A  
HETATM    9  C   UNL     1     -12.280   9.513  71.767  1.00  0.00    -0.465 A  
HETATM   10  C   UNL     1      -9.559   8.781  67.769  1.00  0.00    -0.177 A  
HETATM   11  C   UNL     1     -10.881  10.804  68.028  1.00  0.00    -0.302 A  
HETATM   12  C   UNL     1     -10.001  10.017  67.282  1.00  0.00    -0.245 A  
BRANCH  10  13
HETATM   13  C   UNL     1      -8.637   7.884  66.970  1.00  0.00    -0.128 C  
BRANCH  13  14
HETATM   14  C   UNL     1      -8.358   6.519  67.603  1.00  0.00    -0.121 C  
BRANCH  14  15
HETATM   15  C   UNL     1      -9.020   5.385  66.847  1.00  0.00    -0.110 C  
HETATM   16  O   UNL     1      -9.666   4.498  67.405  1.00  0.00    -0.171 OA 
HETATM   17  C   UNL     1      -8.863   5.391  65.348  1.00  0.00    -0.144 C  
ENDBRANCH  14  15
ENDBRANCH  13  14
ENDBRANCH  10  13
ENDBRANCH   2   3
TORSDOF 4
ENDMDL
MODEL      131
REMARK 921   NORMALIZED FREE ENERGY PREDICTED BY IDOCK:   -3.72 KCAL/MOL
REMARK 922        TOTAL FREE ENERGY PREDICTED BY IDOCK:   -4.98 KCAL/MOL
REMARK 923 INTER-LIGAND FREE ENERGY PREDICTED BY IDOCK:   -4.75 KCAL/MOL
REMARK 924 INTRA-LIGAND FREE ENERGY PREDICTED BY IDOCK:   -0.23 KCAL/MOL
REMARK 927      BINDING AFFINITY PREDICTED BY RF-SCORE:    0.00 PKD
ROOT
HETATM    1  C   UNL     1      -8.682   6.368  66.015  1.00  0.00    -0.151 C  
HETATM    2  O   UNL     1      -9.429   7.094  66.986  1.00  0.00    -0.141 OA 
ENDROOT
BRANCH   2   3
HETATM    3  C   UNL     1      -9.341   8.458  66.935  1.00  0.00    -0.174 A  
HETATM    4  C   UNL     1      -9.888   9.272  65.943  1.00  0.00    -0.335 A  
HETATM    5  C   UNL     1      -9.754  10.670  66.002  1.00  0.00    -0.258 A  
HETATM    6  C   UNL     1      -9.047  11.264  67.069  1.00  0.00    -0.167 A  
HETATM    7  C   UNL     1      -8.487  10.435  68.054  1.00  0.00    -0.119 A  
HETATM    8  C   UNL     1      -8.922  12.667  67.110  1.00  0.00    -0.205 A  
HETATM    9  C   UNL     1      -8.639   9.047  67.987  1.00  0.00    -0.129 A  
HETATM   10  C   UNL     1      -9.504  13.487  66.128  1.00  0.00    -0.159 A  
HETATM   11  C   UNL     1     -10.315  11.486  65.013  1.00  0.00    -0.333 A  
HETATM   12  C   UNL     1     -10.187  12.875  65.071  1.00  0.00    -0.289 A  
BRANCH  10  13
HETATM   13  C   UNL     1      -9.313  14.988  66.203  1.00  0.00    -0.327 C  
BRANCH  13  14
HETATM   14  C   UNL     1     -10.589  15.788  66.469  1.00  0.00    -0.306 C  
BRANCH  14  15
HETATM   15  C   UNL     1     -10.673  17.041  65.619  1.00  0.00    -0.144 C  
HETATM   16  O   UNL     1     -11.129  17.042  64.476  1.00  0.00    -1.098 OA 
HETATM   17  C   UNL     1     -10.172  18.317  66.247  1.00  0.00    -0.414 C  
ENDBRANCH  14  15
ENDBRANCH  13  14
ENDBRANCH  10  13
ENDBRANCH   2   3
TORSDOF 4
ENDMDL
MODEL      132
REMARK 921   NORMALIZED FREE ENERGY PREDICTED BY IDOCK:   -3.68 KCAL/MOL
REMARK 922        TOTAL FREE ENERGY PREDICTED BY IDOCK:   -4.92 KCAL/MOL
REMARK 923 INTER-LIGAND FREE ENERGY PREDICTED BY IDOCK:   -4.49 KCAL/MOL
REMARK 924 INTRA-LIGAND FREE ENERGY PREDICTED BY IDOCK:   -0.44 KCAL/MOL
REMARK 927      BINDING AFFINITY PREDICTED BY RF-SCORE:    0.00 PKD
ROOT
HETATM    1  C   UNL     1     -10.305   8.625  67.253  1.00  0.00    -0.296 C  
HETATM    2  O   UNL     1     -11.307   9.477  67.795  1.00  0.00     0.036 OA 
ENDROOT
BRANCH   2   3
HETATM    3  C   UNL     1     -11.083  10.824  67.705  1.00  0.00    -0.319 A  
HETATM    4  C   UNL     1     -11.794  11.814  68.383  1.00  0.00    -0.347 A  
HETATM    5  C   UNL     1     -11.462  13.172  68.230  1.00  0.00    -0.349 A  
HETATM    6  C   UNL     1     -10.407  13.546  67.371  1.00  0.00    -0.237 A  
HETATM    7  C   UNL     1      -9.708  12.543  66.682  1.00  0.00    -0.244 A  
HETATM    8  C   UNL     1     -10.091  14.912  67.231  1.00  0.00    -0.235 A  
HETATM    9  C   UNL     1     -10.041  11.196  66.853  1.00  0.00    -0.250 A  
HETATM   10  C   UNL     1     -10.786  15.906  67.942  1.00  0.00    -0.312 A  
HETATM   11  C   UNL     1     -12.169  14.164  68.921  1.00  0.00    -0.257 A  
HETATM   12  C   UNL     1     -11.839  15.512  68.775  1.00  0.00    -0.335 A  
BRANCH  10  13
HETATM   13  C   UNL     1     -10.426  17.362  67.729  1.00  0.00    -0.376 C  
BRANCH  13  14
HETATM   14  C   UNL     1      -9.533  17.970  68.812  1.00  0.00    -0.279 C  
BRANCH  14  15
HETATM   15  C   UNL     1      -8.062  17.700  68.566  1.00  0.00    -0.283 C  
HETATM   16  O   UNL     1      -7.374  18.389  67.813  1.00  0.00    -0.219 OA 
HETATM   17  C   UNL     1      -7.458  16.532  69.302  1.00  0.00    -0.183 C  
ENDBRANCH  14  15
ENDBRANCH  13  14
ENDBRANCH  10  13
ENDBRANCH   2   3
TORSDOF 4
ENDMDL
MODEL      133
REMARK 921   NORMALIZED FREE ENERGY PREDICTED BY IDOCK:   -3.66 KCAL/MOL
REMARK 922        TOTAL FREE ENERGY PREDICTED BY IDOCK:   -4.90 KCAL/MOL
REMARK 923 INTER-LIGAND FREE ENERGY PREDICTED BY IDOCK:   -4.43 KCAL/MOL
REMARK 924 INTRA-LIGAND FREE ENERGY PREDICTED BY IDOCK:   -0.47 KCAL/MOL
REMARK 927      BINDING AFFINITY PREDICTED BY RF-SCORE:    0.00 PKD
ROOT
HETATM    1  C   UNL     1      -9.645  12.899  66.336  1.00  0.00    -0.252 C  
HETATM    2  O   UNL     1      -8.589  12.003  66.667  1.00  0.00    -0.187 OA 
ENDROOT
BRANCH   2   3
HETATM    3  C   UNL     1      -8.752  11.253  67.799  1.00  0.00    -0.134 A  
HETATM    4  C   UNL     1      -9.927  11.150  68.545  1.00  0.00    -0.204 A  
HETATM    5  C   UNL     1      -9.988  10.329  69.684  1.00  0.00    -0.240 A  
HETATM    6  C   UNL     1      -8.847   9.607  70.092  1.00  0.00    -0.266 A  
HETATM    7  C   UNL     1      -7.666   9.728  69.344  1.00  0.00    -0.109 A  
HETATM    8  C   UNL     1      -8.928   8.790  71.238  1.00  0.00    -0.295 A  
HETATM    9  C   UNL     1      -7.624  10.540  68.206  1.00  0.00    -0.096 A  
HETATM   10  C   UNL     1     -10.122   8.661  71.968  1.00  0.00    -0.401 A  
HETATM   11  C   UNL     1     -11.171  10.218  70.424  1.00  0.00    -0.407 A  
HETATM   12  C   UNL     1     -11.236   9.399  71.553  1.00  0.00    -0.457 A  
BRANCH  10  13
HETATM   13  C   UNL     1     -10.146   7.794  73.210  1.00  0.00    -0.374 C  
BRANCH  13  14
HETATM   14  C   UNL     1     -10.072   6.289  72.948  1.00  0.00    -0.196 C  
BRANCH  14  15
HETATM   15  C   UNL     1     -11.045   5.842  71.875  1.00  0.00    -0.248 C  
HETATM   16  O   UNL     1     -12.264   5.973  71.983  1.00  0.00    -0.257 OA 
HETATM   17  C   UNL     1     -10.447   5.222  70.638  1.00  0.00    -0.306 C  
ENDBRANCH  14  15
ENDBRANCH  13  14
ENDBRANCH  10  13
ENDBRANCH   2   3
TORSDOF 4
ENDMDL
MODEL      134
REMARK 921   NORMALIZED FREE ENERGY PREDICTED BY IDOCK:   -3.65 KCAL/MOL
REMARK 922        TOTAL FREE ENERGY PREDICTED BY IDOCK:   -4.89 KCAL/MOL
REMARK 923 INTER-LIGAND FREE ENERGY PREDICTED BY IDOCK:   -4.64 KCAL/MOL
REMARK 924 INTRA-LIGAND FREE ENERGY PREDICTED BY IDOCK:   -0.25 KCAL/MOL
REMARK 927      BINDING AFFINITY PREDICTED BY RF-SCORE:    0.00 PKD
ROOT
HETATM    1  C   UNL     1     -10.372  18.671  66.823  1.00  0.00    -0.407 C  
HETATM    2  O   UNL     1     -10.617  17.563  67.682  1.00  0.00    -0.364 OA 
ENDROOT
BRANCH   2   3
HETATM    3  C   UNL     1     -10.514  16.319  67.125  1.00  0.00    -0.297 A  
HETATM    4  C   UNL     1     -10.222  15.141  67.812  1.00  0.00    -0.236 A  
HETATM    5  C   UNL     1     -10.161  13.908  67.138  1.00  0.00    -0.258 A  
HETATM    6  C   UNL     1     -10.385  13.857  65.746  1.00  0.00    -0.326 A  
HETATM    7  C   UNL     1     -10.663  15.050  65.061  1.00  0.00    -0.448 A  
HETATM    8  C   UNL     1     -10.319  12.612  65.088  1.00  0.00    -0.312 A  
HETATM    9  C   UNL     1     -10.732  16.266  65.747  1.00  0.00    -0.264 A  
HETATM   10  C   UNL     1     -10.058  11.422  65.789  1.00  0.00    -0.289 A  
HETATM   11  C   UNL     1      -9.880  12.726  67.832  1.00  0.00    -0.223 A  
HETATM   12  C   UNL     1      -9.824  11.500  67.167  1.00  0.00    -0.210 A  
BRANCH  10  13
HETATM   13  C   UNL     1      -9.966  10.115  65.028  1.00  0.00    -0.375 C  
BRANCH  13  14
HETATM   14  C   UNL     1      -8.687   9.312  65.278  1.00  0.00    -0.214 C  
BRANCH  14  15
HETATM   15  C   UNL     1      -8.025   8.866  63.990  1.00  0.00    -0.153 C  
HETATM   16  O   UNL     1      -8.637   8.761  62.927  1.00  0.00    -0.188 OA 
HETATM   17  C   UNL     1      -6.552   8.556  64.061  1.00  0.00    -0.075 C  
ENDBRANCH  14  15
ENDBRANCH  13  14
ENDBRANCH  10  13
ENDBRANCH   2   3
TORSDOF 4
ENDMDL
MODEL      135
REMARK 921   NORMALIZED FREE ENERGY PREDICTED BY IDOCK:   -3.64 KCAL/MOL
REMARK 922        TOTAL FREE ENERGY PREDICTED BY IDOCK:   -4.88 KCAL/MOL
REMARK 923 INTER-LIGAND FREE ENERGY PREDICTED BY IDOCK:   -4.54 KCAL/MOL
REMARK 924 INTRA-LIGAND FREE ENERGY PREDICTED BY IDOCK:   -0.34 KCAL/MOL
REMARK 927      BINDING AFFINITY PREDICTED BY RF-SCORE:    0.00 PKD
ROOT
HETATM    1  C   UNL     1     -10.346  17.576  68.091  1.00  0.00    -0.375 C  
HETATM    2  O   UNL     1     -11.342  16.569  68.233  1.00  0.00    -0.331 OA 
ENDROOT
BRANCH   2   3
HETATM    3  C   UNL     1     -10.967  15.288  67.933  1.00  0.00    -0.306 A  
HETATM    4  C   UNL     1      -9.720  14.722  68.199  1.00  0.00    -0.217 A  
HETATM    5  C   UNL     1      -9.450  13.384  67.865  1.00  0.00    -0.216 A  
HETATM    6  C   UNL     1     -10.443  12.600  67.241  1.00  0.00    -0.237 A  
HETATM    7  C   UNL     1     -11.690  13.184  66.965  1.00  0.00    -0.431 A  
HETATM    8  C   UNL     1     -10.153  11.261  66.914  1.00  0.00    -0.246 A  
HETATM    9  C   UNL     1     -11.948  14.513  67.313  1.00  0.00    -0.375 A  
HETATM   10  C   UNL     1      -8.908  10.682  67.214  1.00  0.00    -0.137 A  
HETATM   11  C   UNL     1      -8.202  12.814  68.144  1.00  0.00    -0.167 A  
HETATM   12  C   UNL     1      -7.932  11.483  67.818  1.00  0.00    -0.128 A  
BRANCH  10  13
HETATM   13  C   UNL     1      -8.637   9.247  66.811  1.00  0.00    -0.134 C  
BRANCH  13  14
HETATM   14  C   UNL     1      -9.864   8.469  66.332  1.00  0.00    -0.327 C  
BRANCH  14  15
HETATM   15  C   UNL     1     -10.436   7.572  67.411  1.00  0.00    -0.297 C  
HETATM   16  O   UNL     1     -10.523   7.917  68.589  1.00  0.00    -0.203 OA 
HETATM   17  C   UNL     1     -10.912   6.210  66.973  1.00  0.00    -0.414 C  
ENDBRANCH  14  15
ENDBRANCH  13  14
ENDBRANCH  10  13
ENDBRANCH   2   3
TORSDOF 4
ENDMDL
MODEL      136
REMARK 921   NORMALIZED FREE ENERGY PREDICTED BY IDOCK:   -3.61 KCAL/MOL
REMARK 922        TOTAL FREE ENERGY PREDICTED BY IDOCK:   -4.84 KCAL/MOL
REMARK 923 INTER-LIGAND FREE ENERGY PREDICTED BY IDOCK:   -4.37 KCAL/MOL
REMARK 924 INTRA-LIGAND FREE ENERGY PREDICTED BY IDOCK:   -0.48 KCAL/MOL
REMARK 927      BINDING AFFINITY PREDICTED BY RF-SCORE:    0.00 PKD
ROOT
HETATM    1  C   UNL     1      -5.910   8.570  63.580  1.00  0.00    -0.072 C  
HETATM    2  O   UNL     1      -6.364   8.201  64.877  1.00  0.00    -0.048 OA 
ENDROOT
BRANCH   2   3
HETATM    3  C   UNL     1      -7.355   8.970  65.423  1.00  0.00    -0.085 A  
HETATM    4  C   UNL     1      -7.167  10.152  66.139  1.00  0.00    -0.115 A  
HETATM    5  C   UNL     1      -8.264  10.875  66.639  1.00  0.00    -0.145 A  
HETATM    6  C   UNL     1      -9.575  10.398  66.428  1.00  0.00    -0.225 A  
HETATM    7  C   UNL     1      -9.753   9.200  65.719  1.00  0.00    -0.299 A  
HETATM    8  C   UNL     1     -10.662  11.137  66.938  1.00  0.00    -0.322 A  
HETATM    9  C   UNL     1      -8.652   8.498  65.218  1.00  0.00    -0.192 A  
HETATM   10  C   UNL     1     -10.471  12.345  67.629  1.00  0.00    -0.229 A  
HETATM   11  C   UNL     1      -8.073  12.067  67.347  1.00  0.00    -0.168 A  
HETATM   12  C   UNL     1      -9.161  12.790  67.840  1.00  0.00    -0.205 A  
BRANCH  10  13
HETATM   13  C   UNL     1     -11.672  13.083  68.184  1.00  0.00    -0.391 C  
BRANCH  13  14
HETATM   14  C   UNL     1     -11.982  14.417  67.501  1.00  0.00    -0.389 C  
BRANCH  14  15
HETATM   15  C   UNL     1     -12.155  14.271  66.003  1.00  0.00    -0.408 C  
HETATM   16  O   UNL     1     -13.154  13.764  65.493  1.00  0.00    -0.671 OA 
HETATM   17  C   UNL     1     -11.034  14.791  65.140  1.00  0.00    -0.403 C  
ENDBRANCH  14  15
ENDBRANCH  13  14
ENDBRANCH  10  13
ENDBRANCH   2   3
TORSDOF 4
ENDMDL
MODEL      137
REMARK 921   NORMALIZED FREE ENERGY PREDICTED BY IDOCK:   -3.61 KCAL/MOL
REMARK 922        TOTAL FREE ENERGY PREDICTED BY IDOCK:   -4.84 KCAL/MOL
REMARK 923 INTER-LIGAND FREE ENERGY PREDICTED BY IDOCK:   -4.42 KCAL/MOL
REMARK 924 INTRA-LIGAND FREE ENERGY PREDICTED BY IDOCK:   -0.42 KCAL/MOL
REMARK 927      BINDING AFFINITY PREDICTED BY RF-SCORE:    0.00 PKD
ROOT
HETATM    1  C   UNL     1      -5.771  18.279  69.763  1.00  0.00    -0.235 C  
HETATM    2  O   UNL     1      -6.934  18.534  68.983  1.00  0.00    -0.276 OA 
ENDROOT
BRANCH   2   3
HETATM    3  C   UNL     1      -7.570  17.445  68.455  1.00  0.00    -0.255 A  
HETATM    4  C   UNL     1      -8.600  17.480  67.514  1.00  0.00    -0.222 A  
HETATM    5  C   UNL     1      -9.169  16.292  67.022  1.00  0.00    -0.230 A  
HETATM    6  C   UNL     1      -8.706  15.045  67.491  1.00  0.00    -0.194 A  
HETATM    7  C   UNL     1      -7.680  15.020  68.449  1.00  0.00    -0.113 A  
HETATM    8  C   UNL     1      -9.290  13.865  66.987  1.00  0.00    -0.255 A  
HETATM    9  C   UNL     1      -7.117  16.209  68.920  1.00  0.00    -0.166 A  
HETATM   10  C   UNL     1     -10.303  13.903  66.013  1.00  0.00    -0.310 A  
HETATM   11  C   UNL     1     -10.193  16.330  66.069  1.00  0.00    -0.376 A  
HETATM   12  C   UNL     1     -10.756  15.152  65.575  1.00  0.00    -0.379 A  
BRANCH  10  13
HETATM   13  C   UNL     1     -10.919  12.606  65.529  1.00  0.00    -0.313 C  
BRANCH  13  14
HETATM   14  C   UNL     1      -9.916  11.491  65.224  1.00  0.00    -0.302 C  
BRANCH  14  15
HETATM   15  C   UNL     1     -10.185  10.236  66.030  1.00  0.00    -0.228 C  
HETATM   16  O   UNL     1      -9.805   9.121  65.675  1.00  0.00    -0.264 OA 
HETATM   17  C   UNL     1     -10.947  10.413  67.319  1.00  0.00    -0.306 C  
ENDBRANCH  14  15
ENDBRANCH  13  14
ENDBRANCH  10  13
ENDBRANCH   2   3
TORSDOF 4
ENDMDL
MODEL      138
REMARK 921   NORMALIZED FREE ENERGY PREDICTED BY IDOCK:   -3.58 KCAL/MOL
REMARK 922        TOTAL FREE ENERGY PREDICTED BY IDOCK:   -4.81 KCAL/MOL
REMARK 923 INTER-LIGAND FREE ENERGY PREDICTED BY IDOCK:   -4.56 KCAL/MOL
REMARK 924 INTRA-LIGAND FREE ENERGY PREDICTED BY IDOCK:   -0.24 KCAL/MOL
REMARK 927      BINDING AFFINITY PREDICTED BY RF-SCORE:    0.00 PKD
ROOT
HETATM    1  C   UNL     1      -8.643   4.260  69.042  1.00  0.00    -0.083 C  
HETATM    2  O   UNL     1      -9.994   4.706  69.087  1.00  0.00    -0.189 OA 
ENDROOT
BRANCH   2   3
HETATM    3  C   UNL     1     -10.225   6.004  68.722  1.00  0.00    -0.188 A  
HETATM    4  C   UNL     1     -10.446   7.069  69.596  1.00  0.00    -0.238 A  
HETATM    5  C   UNL     1     -10.653   8.371  69.109  1.00  0.00    -0.177 A  
HETATM    6  C   UNL     1     -10.650   8.610  67.719  1.00  0.00    -0.249 A  
HETATM    7  C   UNL     1     -10.441   7.530  66.847  1.00  0.00    -0.385 A  
HETATM    8  C   UNL     1     -10.860   9.923  67.250  1.00  0.00    -0.268 A  
HETATM    9  C   UNL     1     -10.226   6.243  67.347  1.00  0.00    -0.223 A  
HETATM   10  C   UNL     1     -11.048  10.999  68.134  1.00  0.00    -0.329 A  
HETATM   11  C   UNL     1     -10.862   9.440  69.989  1.00  0.00    -0.271 A  
HETATM   12  C   UNL     1     -11.063  10.735  69.508  1.00  0.00    -0.334 A  
BRANCH  10  13
HETATM   13  C   UNL     1     -11.302  12.385  67.577  1.00  0.00    -0.375 C  
BRANCH  13  14
HETATM   14  C   UNL     1     -11.064  13.530  68.563  1.00  0.00    -0.300 C  
BRANCH  14  15
HETATM   15  C   UNL     1     -11.369  14.886  67.959  1.00  0.00    -0.324 C  
HETATM   16  O   UNL     1     -11.998  15.757  68.559  1.00  0.00    -0.314 OA 
HETATM   17  C   UNL     1     -10.853  15.135  66.565  1.00  0.00    -0.317 C  
ENDBRANCH  14  15
ENDBRANCH  13  14
ENDBRANCH  10  13
ENDBRANCH   2   3
TORSDOF 4
ENDMDL
MODEL      139
REMARK 921   NORMALIZED FREE ENERGY PREDICTED BY IDOCK:   -3.56 KCAL/MOL
REMARK 922        TOTAL FREE ENERGY PREDICTED BY IDOCK:   -4.78 KCAL/MOL
REMARK 923 INTER-LIGAND FREE ENERGY PREDICTED BY IDOCK:   -4.51 KCAL/MOL
REMARK 924 INTRA-LIGAND FREE ENERGY PREDICTED BY IDOCK:   -0.27 KCAL/MOL
REMARK 927      BINDING AFFINITY PREDICTED BY RF-SCORE:    0.00 PKD
ROOT
HETATM    1  C   UNL     1     -11.747  10.809  68.184  1.00  0.00    -0.092 C  
HETATM    2  O   UNL     1     -10.795  11.149  67.183  1.00  0.00    -0.244 OA 
ENDROOT
BRANCH   2   3
HETATM    3  C   UNL     1     -10.514  12.479  67.029  1.00  0.00    -0.231 A  
HETATM    4  C   UNL     1      -9.257  13.067  67.173  1.00  0.00    -0.226 A  
HETATM    5  C   UNL     1      -9.079  14.446  66.970  1.00  0.00    -0.250 A  
HETATM    6  C   UNL     1     -10.183  15.255  66.628  1.00  0.00    -0.275 A  
HETATM    7  C   UNL     1     -11.446  14.656  66.499  1.00  0.00    -0.354 A  
HETATM    8  C   UNL     1      -9.984  16.636  66.429  1.00  0.00    -0.316 A  
HETATM    9  C   UNL     1     -11.605  13.281  66.693  1.00  0.00    -0.408 A  
HETATM   10  C   UNL     1      -8.711  17.221  66.542  1.00  0.00    -0.293 A  
HETATM   11  C   UNL     1      -7.815  15.033  67.104  1.00  0.00    -0.224 A  
HETATM   12  C   UNL     1      -7.634  16.401  66.898  1.00  0.00    -0.275 A  
BRANCH  10  13
HETATM   13  C   UNL     1      -8.558  18.716  66.350  1.00  0.00    -0.284 C  
BRANCH  13  14
HETATM   14  C   UNL     1      -7.457  19.364  67.191  1.00  0.00    -0.248 C  
BRANCH  14  15
HETATM   15  C   UNL     1      -7.724  19.251  68.679  1.00  0.00    -0.359 C  
HETATM   16  O   UNL     1      -6.846  18.973  69.495  1.00  0.00    -0.263 OA 
HETATM   17  C   UNL     1      -9.140  19.506  69.131  1.00  0.00    -0.171 C  
ENDBRANCH  14  15
ENDBRANCH  13  14
ENDBRANCH  10  13
ENDBRANCH   2   3
TORSDOF 4
ENDMDL
MODEL      140
REMARK 921   NORMALIZED FREE ENERGY PREDICTED BY IDOCK:   -3.55 KCAL/MOL
REMARK 922        TOTAL FREE ENERGY PREDICTED BY IDOCK:   -4.77 KCAL/MOL
REMARK 923 INTER-LIGAND FREE ENERGY PREDICTED BY IDOCK:   -4.50 KCAL/MOL
REMARK 924 INTRA-LIGAND FREE ENERGY PREDICTED BY IDOCK:   -0.27 KCAL/MOL
REMARK 927      BINDING AFFINITY PREDICTED BY RF-SCORE:    0.00 PKD
ROOT
HETATM    1  C   UNL     1      -9.793  20.454  67.208  1.00  0.00    -0.456 C  
HETATM    2  O   UNL     1      -8.630  19.689  67.509  1.00  0.00    -0.294 OA 
ENDROOT
BRANCH   2   3
HETATM    3  C   UNL     1      -8.733  18.333  67.366  1.00  0.00    -0.256 A  
HETATM    4  C   UNL     1      -8.026  17.381  68.101  1.00  0.00    -0.233 A  
HETATM    5  C   UNL     1      -8.228  16.007  67.884  1.00  0.00    -0.154 A  
HETATM    6  C   UNL     1      -9.146  15.577  66.903  1.00  0.00    -0.264 A  
HETATM    7  C   UNL     1      -9.842  16.543  66.158  1.00  0.00    -0.355 A  
HETATM    8  C   UNL     1      -9.333  14.195  66.699  1.00  0.00    -0.299 A  
HETATM    9  C   UNL     1      -9.639  17.906  66.394  1.00  0.00    -0.294 A  
HETATM   10  C   UNL     1      -8.645  13.238  67.465  1.00  0.00    -0.200 A  
HETATM   11  C   UNL     1      -7.526  15.054  68.631  1.00  0.00    -0.122 A  
HETATM   12  C   UNL     1      -7.727  13.688  68.421  1.00  0.00    -0.138 A  
BRANCH  10  13
HETATM   13  C   UNL     1      -8.859  11.765  67.183  1.00  0.00    -0.173 C  
BRANCH  13  14
HETATM   14  C   UNL     1      -9.558  10.990  68.302  1.00  0.00    -0.172 C  
BRANCH  14  15
HETATM   15  C   UNL     1     -10.856  10.357  67.842  1.00  0.00    -0.279 C  
HETATM   16  O   UNL     1     -11.944  10.925  67.934  1.00  0.00    -0.585 OA 
HETATM   17  C   UNL     1     -10.759   8.976  67.246  1.00  0.00    -0.222 C  
ENDBRANCH  14  15
ENDBRANCH  13  14
ENDBRANCH  10  13
ENDBRANCH   2   3
TORSDOF 4
ENDMDL
MODEL      141
REMARK 921   NORMALIZED FREE ENERGY PREDICTED BY IDOCK:   -3.51 KCAL/MOL
REMARK 922        TOTAL FREE ENERGY PREDICTED BY IDOCK:   -4.72 KCAL/MOL
REMARK 923 INTER-LIGAND FREE ENERGY PREDICTED BY IDOCK:   -4.31 KCAL/MOL
REMARK 924 INTRA-LIGAND FREE ENERGY PREDICTED BY IDOCK:   -0.40 KCAL/MOL
REMARK 927      BINDING AFFINITY PREDICTED BY RF-SCORE:    0.00 PKD
ROOT
HETATM    1  C   UNL     1      -9.792   3.740  71.932  1.00  0.00    -0.178 C  
HETATM    2  O   UNL     1      -9.194   5.031  71.949  1.00  0.00    -0.135 OA 
ENDROOT
BRANCH   2   3
HETATM    3  C   UNL     1      -9.466   5.848  70.886  1.00  0.00    -0.165 A  
HETATM    4  C   UNL     1      -8.548   6.677  70.242  1.00  0.00    -0.140 A  
HETATM    5  C   UNL     1      -8.934   7.462  69.141  1.00  0.00    -0.135 A  
HETATM    6  C   UNL     1     -10.269   7.425  68.685  1.00  0.00    -0.203 A  
HETATM    7  C   UNL     1     -11.188   6.598  69.350  1.00  0.00    -0.356 A  
HETATM    8  C   UNL     1     -10.637   8.220  67.581  1.00  0.00    -0.264 A  
HETATM    9  C   UNL     1     -10.786   5.815  70.436  1.00  0.00    -0.360 A  
HETATM   10  C   UNL     1      -9.703   9.029  66.912  1.00  0.00    -0.260 A  
HETATM   11  C   UNL     1      -8.009   8.284  68.488  1.00  0.00    -0.122 A  
HETATM   12  C   UNL     1      -8.389   9.061  67.392  1.00  0.00    -0.112 A  
BRANCH  10  13
HETATM   13  C   UNL     1     -10.158   9.888  65.750  1.00  0.00    -0.317 C  
BRANCH  13  14
HETATM   14  C   UNL     1     -10.043  11.396  65.980  1.00  0.00    -0.275 C  
BRANCH  14  15
HETATM   15  C   UNL     1     -11.357  12.016  66.412  1.00  0.00    -0.354 C  
HETATM   16  O   UNL     1     -12.330  12.105  65.664  1.00  0.00    -0.560 OA 
HETATM   17  C   UNL     1     -11.429  12.525  67.829  1.00  0.00    -0.378 C  
ENDBRANCH  14  15
ENDBRANCH  13  14
ENDBRANCH  10  13
ENDBRANCH   2   3
TORSDOF 4
ENDMDL
MODEL      142
REMARK 921   NORMALIZED FREE ENERGY PREDICTED BY IDOCK:   -3.49 KCAL/MOL
REMARK 922        TOTAL FREE ENERGY PREDICTED BY IDOCK:   -4.69 KCAL/MOL
REMARK 923 INTER-LIGAND FREE ENERGY PREDICTED BY IDOCK:   -4.39 KCAL/MOL
REMARK 924 INTRA-LIGAND FREE ENERGY PREDICTED BY IDOCK:   -0.30 KCAL/MOL
REMARK 927      BINDING AFFINITY PREDICTED BY RF-SCORE:    0.00 PKD
ROOT
HETATM    1  C   UNL     1     -13.320  13.256  72.060  1.00  0.00    -0.489 C  
HETATM    2  O   UNL     1     -13.900  11.967  72.230  1.00  0.00    -0.189 OA 
ENDROOT
BRANCH   2   3
HETATM    3  C   UNL     1     -13.174  10.902  71.773  1.00  0.00    -0.408 A  
HETATM    4  C   UNL     1     -12.159  10.958  70.818  1.00  0.00    -0.469 A  
HETATM    5  C   UNL     1     -11.462   9.798  70.437  1.00  0.00    -0.347 A  
HETATM    6  C   UNL     1     -11.797   8.555  71.014  1.00  0.00    -0.290 A  
HETATM    7  C   UNL     1     -12.830   8.507  71.964  1.00  0.00    -0.414 A  
HETATM    8  C   UNL     1     -11.088   7.403  70.619  1.00  0.00    -0.285 A  
HETATM    9  C   UNL     1     -13.506   9.671  72.341  1.00  0.00    -0.421 A  
HETATM   10  C   UNL     1     -10.042   7.468  69.682  1.00  0.00    -0.189 A  
HETATM   11  C   UNL     1     -10.436   9.859  69.488  1.00  0.00    -0.261 A  
HETATM   12  C   UNL     1      -9.739   8.709  69.111  1.00  0.00    -0.173 A  
BRANCH  10  13
HETATM   13  C   UNL     1      -9.334   6.195  69.267  1.00  0.00    -0.142 C  
BRANCH  13  14
HETATM   14  C   UNL     1      -7.815   6.213  69.451  1.00  0.00    -0.100 C  
BRANCH  14  15
HETATM   15  C   UNL     1      -7.410   6.233  70.912  1.00  0.00    -0.080 C  
HETATM   16  O   UNL     1      -7.114   5.215  71.536  1.00  0.00    -0.058 OA 
HETATM   17  C   UNL     1      -7.376   7.582  71.584  1.00  0.00    -0.075 C  
ENDBRANCH  14  15
ENDBRANCH  13  14
ENDBRANCH  10  13
ENDBRANCH   2   3
TORSDOF 4
ENDMDL
MODEL      143
REMARK 921   NORMALIZED FREE ENERGY PREDICTED BY IDOCK:   -3.49 KCAL/MOL
REMARK 922        TOTAL FREE ENERGY PREDICTED BY IDOCK:   -4.69 KCAL/MOL
REMARK 923 INTER-LIGAND FREE ENERGY PREDICTED BY IDOCK:   -4.27 KCAL/MOL
REMARK 924 INTRA-LIGAND FREE ENERGY PREDICTED BY IDOCK:   -0.42 KCAL/MOL
REMARK 927      BINDING AFFINITY PREDICTED BY RF-SCORE:    0.00 PKD
ROOT
HETATM    1  C   UNL     1      -9.475  10.355  63.014  1.00  0.00    -0.330 C  
HETATM    2  O   UNL     1      -8.856  10.834  64.202  1.00  0.00    -0.174 OA 
ENDROOT
BRANCH   2   3
HETATM    3  C   UNL     1      -9.201  10.209  65.369  1.00  0.00    -0.202 A  
HETATM    4  C   UNL     1      -9.481  10.843  66.580  1.00  0.00    -0.210 A  
HETATM    5  C   UNL     1      -9.847  10.099  67.715  1.00  0.00    -0.190 A  
HETATM    6  C   UNL     1      -9.921   8.692  67.640  1.00  0.00    -0.248 A  
HETATM    7  C   UNL     1      -9.624   8.063  66.421  1.00  0.00    -0.267 A  
HETATM    8  C   UNL     1     -10.289   7.964  68.789  1.00  0.00    -0.220 A  
HETATM    9  C   UNL     1      -9.273   8.817  65.297  1.00  0.00    -0.099 A  
HETATM   10  C   UNL     1     -10.604   8.607  69.999  1.00  0.00    -0.233 A  
HETATM   11  C   UNL     1     -10.139  10.737  68.926  1.00  0.00    -0.217 A  
HETATM   12  C   UNL     1     -10.507  10.002  70.054  1.00  0.00    -0.337 A  
BRANCH  10  13
HETATM   13  C   UNL     1     -10.962   7.775  71.213  1.00  0.00    -0.259 C  
BRANCH  13  14
HETATM   14  C   UNL     1     -11.882   8.467  72.221  1.00  0.00    -0.453 C  
BRANCH  14  15
HETATM   15  C   UNL     1     -13.345   8.346  71.844  1.00  0.00    -0.357 C  
HETATM   16  O   UNL     1     -13.867   7.276  71.530  1.00  0.00    -0.393 OA 
HETATM   17  C   UNL     1     -14.158   9.615  71.879  1.00  0.00    -0.080 C  
ENDBRANCH  14  15
ENDBRANCH  13  14
ENDBRANCH  10  13
ENDBRANCH   2   3
TORSDOF 4
ENDMDL
MODEL      144
REMARK 921   NORMALIZED FREE ENERGY PREDICTED BY IDOCK:   -3.48 KCAL/MOL
REMARK 922        TOTAL FREE ENERGY PREDICTED BY IDOCK:   -4.68 KCAL/MOL
REMARK 923 INTER-LIGAND FREE ENERGY PREDICTED BY IDOCK:   -4.30 KCAL/MOL
REMARK 924 INTRA-LIGAND FREE ENERGY PREDICTED BY IDOCK:   -0.38 KCAL/MOL
REMARK 927      BINDING AFFINITY PREDICTED BY RF-SCORE:    0.00 PKD
ROOT
HETATM    1  C   UNL     1     -10.546  14.251  67.874  1.00  0.00    -0.240 C  
HETATM    2  O   UNL     1     -10.698  13.169  66.962  1.00  0.00    -0.259 OA 
ENDROOT
BRANCH   2   3
HETATM    3  C   UNL     1     -10.725  11.911  67.500  1.00  0.00    -0.225 A  
HETATM    4  C   UNL     1     -11.012  11.600  68.829  1.00  0.00    -0.274 A  
HETATM    5  C   UNL     1     -11.032  10.266  69.269  1.00  0.00    -0.284 A  
HETATM    6  C   UNL     1     -10.745   9.222  68.364  1.00  0.00    -0.192 A  
HETATM    7  C   UNL     1     -10.442   9.547  67.032  1.00  0.00    -0.302 A  
HETATM    8  C   UNL     1     -10.769   7.891  68.824  1.00  0.00    -0.082 A  
HETATM    9  C   UNL     1     -10.438  10.878  66.606  1.00  0.00    -0.307 A  
HETATM   10  C   UNL     1     -11.092   7.578  70.156  1.00  0.00    -0.246 A  
HETATM   11  C   UNL     1     -11.333   9.955  70.600  1.00  0.00    -0.413 A  
HETATM   12  C   UNL     1     -11.357   8.630  71.040  1.00  0.00    -0.322 A  
BRANCH  10  13
HETATM   13  C   UNL     1     -11.072   6.131  70.607  1.00  0.00    -0.384 C  
BRANCH  13  14
HETATM   14  C   UNL     1      -9.676   5.547  70.835  1.00  0.00    -0.231 C  
BRANCH  14  15
HETATM   15  C   UNL     1      -9.474   4.233  70.107  1.00  0.00    -0.182 C  
HETATM   16  O   UNL     1      -9.415   3.151  70.689  1.00  0.00    -0.148 OA 
HETATM   17  C   UNL     1      -9.355   4.305  68.606  1.00  0.00    -0.213 C  
ENDBRANCH  14  15
ENDBRANCH  13  14
ENDBRANCH  10  13
ENDBRANCH   2   3
TORSDOF 4
ENDMDL
MODEL      145
REMARK 921   NORMALIZED FREE ENERGY PREDICTED BY IDOCK:   -3.43 KCAL/MOL
REMARK 922        TOTAL FREE ENERGY PREDICTED BY IDOCK:   -4.61 KCAL/MOL
REMARK 923 INTER-LIGAND FREE ENERGY PREDICTED BY IDOCK:   -4.37 KCAL/MOL
REMARK 924 INTRA-LIGAND FREE ENERGY PREDICTED BY IDOCK:   -0.25 KCAL/MOL
REMARK 927      BINDING AFFINITY PREDICTED BY RF-SCORE:    0.00 PKD
ROOT
HETATM    1  C   UNL     1      -9.482   4.721  69.262  1.00  0.00    -0.153 C  
HETATM    2  O   UNL     1     -10.600   5.450  69.754  1.00  0.00    -0.309 OA 
ENDROOT
BRANCH   2   3
HETATM    3  C   UNL     1     -10.663   6.776  69.423  1.00  0.00    -0.255 A  
HETATM    4  C   UNL     1     -10.370   7.316  68.171  1.00  0.00    -0.234 A  
HETATM    5  C   UNL     1     -10.490   8.697  67.935  1.00  0.00    -0.269 A  
HETATM    6  C   UNL     1     -10.898   9.555  68.978  1.00  0.00    -0.184 A  
HETATM    7  C   UNL     1     -11.176   9.003  70.238  1.00  0.00    -0.232 A  
HETATM    8  C   UNL     1     -11.011  10.936  68.723  1.00  0.00    -0.285 A  
HETATM    9  C   UNL     1     -11.064   7.627  70.454  1.00  0.00    -0.270 A  
HETATM   10  C   UNL     1     -10.749  11.474  67.451  1.00  0.00    -0.275 A  
HETATM   11  C   UNL     1     -10.207   9.236  66.675  1.00  0.00    -0.323 A  
HETATM   12  C   UNL     1     -10.329  10.606  66.436  1.00  0.00    -0.291 A  
BRANCH  10  13
HETATM   13  C   UNL     1     -10.854  12.971  67.239  1.00  0.00    -0.270 C  
BRANCH  13  14
HETATM   14  C   UNL     1      -9.726  13.792  67.867  1.00  0.00    -0.229 C  
BRANCH  14  15
HETATM   15  C   UNL     1      -9.835  15.267  67.540  1.00  0.00    -0.213 C  
HETATM   16  O   UNL     1      -9.852  16.143  68.405  1.00  0.00    -0.215 OA 
HETATM   17  C   UNL     1      -9.915  15.631  66.079  1.00  0.00    -0.359 C  
ENDBRANCH  14  15
ENDBRANCH  13  14
ENDBRANCH  10  13
ENDBRANCH   2   3
TORSDOF 4
ENDMDL
MODEL      146
REMARK 921   NORMALIZED FREE ENERGY PREDICTED BY IDOCK:   -3.43 KCAL/MOL
REMARK 922        TOTAL FREE ENERGY PREDICTED BY IDOCK:   -4.61 KCAL/MOL
REMARK 923 INTER-LIGAND FREE ENERGY PREDICTED BY IDOCK:   -4.29 KCAL/MOL
REMARK 924 INTRA-LIGAND FREE ENERGY PREDICTED BY IDOCK:   -0.32 KCAL/MOL
REMARK 927      BINDING AFFINITY PREDICTED BY RF-SCORE:    0.00 PKD
ROOT
HETATM    1  C   UNL     1      -8.999   4.337  62.763  1.00  0.00    -0.116 C  
HETATM    2  O   UNL     1      -9.387   3.300  63.657  1.00  0.00    -0.095 OA 
ENDROOT
BRANCH   2   3
HETATM    3  C   UNL     1      -9.482   3.633  64.980  1.00  0.00    -0.161 A  
HETATM    4  C   UNL     1     -10.200   4.711  65.499  1.00  0.00    -0.219 A  
HETATM    5  C   UNL     1     -10.246   4.948  66.883  1.00  0.00    -0.254 A  
HETATM    6  C   UNL     1      -9.547   4.097  67.766  1.00  0.00    -0.208 A  
HETATM    7  C   UNL     1      -8.815   3.024  67.233  1.00  0.00    -0.160 A  
HETATM    8  C   UNL     1      -9.604   4.352  69.151  1.00  0.00    -0.252 A  
HETATM    9  C   UNL     1      -8.789   2.795  65.854  1.00  0.00    -0.135 A  
HETATM   10  C   UNL     1     -10.356   5.418  69.673  1.00  0.00    -0.361 A  
HETATM   11  C   UNL     1     -10.977   6.022  67.403  1.00  0.00    -0.344 A  
HETATM   12  C   UNL     1     -11.028   6.258  68.778  1.00  0.00    -0.424 A  
BRANCH  10  13
HETATM   13  C   UNL     1     -10.357   5.667  71.168  1.00  0.00    -0.295 C  
BRANCH  13  14
HETATM   14  C   UNL     1     -10.106   7.119  71.579  1.00  0.00    -0.197 C  
BRANCH  14  15
HETATM   15  C   UNL     1     -11.098   7.604  72.617  1.00  0.00    -0.359 C  
HETATM   16  O   UNL     1     -10.978   7.364  73.818  1.00  0.00    -0.276 OA 
HETATM   17  C   UNL     1     -12.261   8.419  72.110  1.00  0.00    -0.434 C  
ENDBRANCH  14  15
ENDBRANCH  13  14
ENDBRANCH  10  13
ENDBRANCH   2   3
TORSDOF 4
ENDMDL
MODEL      147
REMARK 921   NORMALIZED FREE ENERGY PREDICTED BY IDOCK:   -3.41 KCAL/MOL
REMARK 922        TOTAL FREE ENERGY PREDICTED BY IDOCK:   -4.59 KCAL/MOL
REMARK 923 INTER-LIGAND FREE ENERGY PREDICTED BY IDOCK:   -4.26 KCAL/MOL
REMARK 924 INTRA-LIGAND FREE ENERGY PREDICTED BY IDOCK:   -0.33 KCAL/MOL
REMARK 927      BINDING AFFINITY PREDICTED BY RF-SCORE:    0.00 PKD
ROOT
HETATM    1  C   UNL     1     -12.158  15.553  69.763  1.00  0.00    -0.349 C  
HETATM    2  O   UNL     1     -12.005  15.378  68.359  1.00  0.00    -0.301 OA 
ENDROOT
BRANCH   2   3
HETATM    3  C   UNL     1     -11.576  14.150  67.936  1.00  0.00    -0.338 A  
HETATM    4  C   UNL     1     -11.584  12.980  68.696  1.00  0.00    -0.354 A  
HETATM    5  C   UNL     1     -11.137  11.763  68.151  1.00  0.00    -0.297 A  
HETATM    6  C   UNL     1     -10.661  11.720  66.823  1.00  0.00    -0.273 A  
HETATM    7  C   UNL     1     -10.643  12.906  66.073  1.00  0.00    -0.287 A  
HETATM    8  C   UNL     1     -10.216  10.492  66.295  1.00  0.00    -0.296 A  
HETATM    9  C   UNL     1     -11.102  14.106  66.625  1.00  0.00    -0.314 A  
HETATM   10  C   UNL     1     -10.257   9.307  67.051  1.00  0.00    -0.331 A  
HETATM   11  C   UNL     1     -11.158  10.588  68.910  1.00  0.00    -0.312 A  
HETATM   12  C   UNL     1     -10.719   9.377  68.370  1.00  0.00    -0.213 A  
BRANCH  10  13
HETATM   13  C   UNL     1      -9.737   8.020  66.446  1.00  0.00    -0.255 C  
BRANCH  13  14
HETATM   14  C   UNL     1      -8.303   7.657  66.836  1.00  0.00    -0.124 C  
BRANCH  14  15
HETATM   15  C   UNL     1      -7.368   7.632  65.644  1.00  0.00    -0.073 C  
HETATM   16  O   UNL     1      -6.193   7.990  65.710  1.00  0.00    -0.041 OA 
HETATM   17  C   UNL     1      -7.946   7.132  64.344  1.00  0.00    -0.101 C  
ENDBRANCH  14  15
ENDBRANCH  13  14
ENDBRANCH  10  13
ENDBRANCH   2   3
TORSDOF 4
ENDMDL
MODEL      148
REMARK 921   NORMALIZED FREE ENERGY PREDICTED BY IDOCK:   -3.40 KCAL/MOL
REMARK 922        TOTAL FREE ENERGY PREDICTED BY IDOCK:   -4.58 KCAL/MOL
REMARK 923 INTER-LIGAND FREE ENERGY PREDICTED BY IDOCK:   -4.15 KCAL/MOL
REMARK 924 INTRA-LIGAND FREE ENERGY PREDICTED BY IDOCK:   -0.43 KCAL/MOL
REMARK 927      BINDING AFFINITY PREDICTED BY RF-SCORE:    0.00 PKD
ROOT
HETATM    1  C   UNL     1     -12.269  11.121  70.626  1.00  0.00    -0.397 C  
HETATM    2  O   UNL     1     -12.317  10.214  71.722  1.00  0.00    -0.388 OA 
ENDROOT
BRANCH   2   3
HETATM    3  C   UNL     1     -11.785   8.971  71.513  1.00  0.00    -0.345 A  
HETATM    4  C   UNL     1     -11.723   7.944  72.455  1.00  0.00    -0.423 A  
HETATM    5  C   UNL     1     -11.171   6.694  72.124  1.00  0.00    -0.299 A  
HETATM    6  C   UNL     1     -10.659   6.472  70.828  1.00  0.00    -0.278 A  
HETATM    7  C   UNL     1     -10.713   7.517  69.892  1.00  0.00    -0.254 A  
HETATM    8  C   UNL     1     -10.109   5.213  70.516  1.00  0.00    -0.326 A  
HETATM    9  C   UNL     1     -11.275   8.751  70.233  1.00  0.00    -0.212 A  
HETATM   10  C   UNL     1     -10.079   4.169  71.456  1.00  0.00    -0.184 A  
HETATM   11  C   UNL     1     -11.121   5.661  73.067  1.00  0.00    -0.327 A  
HETATM   12  C   UNL     1     -10.577   4.417  72.740  1.00  0.00    -0.254 A  
BRANCH  10  13
HETATM   13  C   UNL     1      -9.447   2.845  71.079  1.00  0.00    -0.227 C  
BRANCH  13  14
HETATM   14  C   UNL     1      -8.678   2.851  69.756  1.00  0.00    -0.130 C  
BRANCH  14  15
HETATM   15  C   UNL     1      -7.196   3.099  69.951  1.00  0.00    -0.041 C  
HETATM   16  O   UNL     1      -6.457   2.302  70.529  1.00  0.00    -0.023 OA 
HETATM   17  C   UNL     1      -6.646   4.385  69.388  1.00  0.00    -0.040 C  
ENDBRANCH  14  15
ENDBRANCH  13  14
ENDBRANCH  10  13
ENDBRANCH   2   3
TORSDOF 4
ENDMDL
MODEL      149
REMARK 921   NORMALIZED FREE ENERGY PREDICTED BY IDOCK:   -3.39 KCAL/MOL
REMARK 922        TOTAL FREE ENERGY PREDICTED BY IDOCK:   -4.57 KCAL/MOL
REMARK 923 INTER-LIGAND FREE ENERGY PREDICTED BY IDOCK:   -4.20 KCAL/MOL
REMARK 924 INTRA-LIGAND FREE ENERGY PREDICTED BY IDOCK:   -0.37 KCAL/MOL
REMARK 927      BINDING AFFINITY PREDICTED BY RF-SCORE:    0.00 PKD
ROOT
HETATM    1  C   UNL     1      -8.491  10.031  67.996  1.00  0.00    -0.117 C  
HETATM    2  O   UNL     1      -7.436  10.984  68.067  1.00  0.00    -0.086 OA 
ENDROOT
BRANCH   2   3
HETATM    3  C   UNL     1      -7.751  12.275  67.744  1.00  0.00    -0.139 A  
HETATM    4  C   UNL     1      -9.030  12.754  67.460  1.00  0.00    -0.192 A  
HETATM    5  C   UNL     1      -9.243  14.110  67.159  1.00  0.00    -0.237 A  
HETATM    6  C   UNL     1      -8.150  15.003  67.129  1.00  0.00    -0.245 A  
HETATM    7  C   UNL     1      -6.865  14.508  67.401  1.00  0.00    -0.067 A  
HETATM    8  C   UNL     1      -8.383  16.359  66.824  1.00  0.00    -0.285 A  
HETATM    9  C   UNL     1      -6.671  13.159  67.711  1.00  0.00    -0.149 A  
HETATM   10  C   UNL     1      -9.678  16.846  66.572  1.00  0.00    -0.295 A  
HETATM   11  C   UNL     1     -10.528  14.591  66.887  1.00  0.00    -0.269 A  
HETATM   12  C   UNL     1     -10.743  15.938  66.592  1.00  0.00    -0.270 A  
BRANCH  10  13
HETATM   13  C   UNL     1      -9.868  18.306  66.218  1.00  0.00    -0.323 C  
BRANCH  13  14
HETATM   14  C   UNL     1      -8.745  19.235  66.685  1.00  0.00    -0.343 C  
BRANCH  14  15
HETATM   15  C   UNL     1      -8.850  19.570  68.159  1.00  0.00    -0.330 C  
HETATM   16  O   UNL     1      -7.881  19.546  68.919  1.00  0.00    -0.356 OA 
HETATM   17  C   UNL     1     -10.216  19.952  68.670  1.00  0.00    -0.494 C  
ENDBRANCH  14  15
ENDBRANCH  13  14
ENDBRANCH  10  13
ENDBRANCH   2   3
TORSDOF 4
ENDMDL
MODEL      150
REMARK 921   NORMALIZED FREE ENERGY PREDICTED BY IDOCK:   -3.36 KCAL/MOL
REMARK 922        TOTAL FREE ENERGY PREDICTED BY IDOCK:   -4.53 KCAL/MOL
REMARK 923 INTER-LIGAND FREE ENERGY PREDICTED BY IDOCK:   -4.18 KCAL/MOL
REMARK 924 INTRA-LIGAND FREE ENERGY PREDICTED BY IDOCK:   -0.35 KCAL/MOL
REMARK 927      BINDING AFFINITY PREDICTED BY RF-SCORE:    0.00 PKD
ROOT
HETATM    1  C   UNL     1      -5.766   9.437  62.560  1.00  0.00    -0.085 C  
HETATM    2  O   UNL     1      -6.754   8.739  63.310  1.00  0.00    -0.090 OA 
ENDROOT
BRANCH   2   3
HETATM    3  C   UNL     1      -7.736   9.496  63.886  1.00  0.00    -0.123 A  
HETATM    4  C   UNL     1      -7.753   9.938  65.209  1.00  0.00    -0.129 A  
HETATM    5  C   UNL     1      -8.808  10.732  65.691  1.00  0.00    -0.202 A  
HETATM    6  C   UNL     1      -9.874  11.080  64.835  1.00  0.00    -0.327 A  
HETATM    7  C   UNL     1      -9.855  10.619  63.509  1.00  0.00    -0.384 A  
HETATM    8  C   UNL     1     -10.923  11.876  65.337  1.00  0.00    -0.352 A  
HETATM    9  C   UNL     1      -8.793   9.839  63.041  1.00  0.00    -0.255 A  
HETATM   10  C   UNL     1     -10.920  12.349  66.661  1.00  0.00    -0.309 A  
HETATM   11  C   UNL     1      -8.817  11.184  67.016  1.00  0.00    -0.149 A  
HETATM   12  C   UNL     1      -9.860  11.977  67.496  1.00  0.00    -0.190 A  
BRANCH  10  13
HETATM   13  C   UNL     1     -12.088  13.174  67.159  1.00  0.00    -0.343 C  
BRANCH  13  14
HETATM   14  C   UNL     1     -11.858  14.687  67.153  1.00  0.00    -0.367 C  
BRANCH  14  15
HETATM   15  C   UNL     1     -11.252  15.184  68.450  1.00  0.00    -0.299 C  
HETATM   16  O   UNL     1     -10.183  15.792  68.497  1.00  0.00    -0.210 OA 
HETATM   17  C   UNL     1     -12.033  14.906  69.709  1.00  0.00    -0.366 C  
ENDBRANCH  14  15
ENDBRANCH  13  14
ENDBRANCH  10  13
ENDBRANCH   2   3
TORSDOF 4
ENDMDL
MODEL      151
REMARK 921   NORMALIZED FREE ENERGY PREDICTED BY IDOCK:   -3.28 KCAL/MOL
REMARK 922        TOTAL FREE ENERGY PREDICTED BY IDOCK:   -4.43 KCAL/MOL
REMARK 923 INTER-LIGAND FREE ENERGY PREDICTED BY IDOCK:   -4.11 KCAL/MOL
REMARK 924 INTRA-LIGAND FREE ENERGY PREDICTED BY IDOCK:   -0.32 KCAL/MOL
REMARK 927      BINDING AFFINITY PREDICTED BY RF-SCORE:    0.00 PKD
ROOT
HETATM    1  C   UNL     1     -10.656  19.609  67.118  1.00  0.00    -0.487 C  
HETATM    2  O   UNL     1     -10.250  19.016  68.347  1.00  0.00    -0.380 OA 
ENDROOT
BRANCH   2   3
HETATM    3  C   UNL     1     -10.020  17.667  68.331  1.00  0.00    -0.356 A  
HETATM    4  C   UNL     1     -10.965  16.684  68.039  1.00  0.00    -0.311 A  
HETATM    5  C   UNL     1     -10.611  15.323  68.032  1.00  0.00    -0.261 A  
HETATM    6  C   UNL     1      -9.287  14.939  68.336  1.00  0.00    -0.197 A  
HETATM    7  C   UNL     1      -8.348  15.936  68.642  1.00  0.00    -0.195 A  
HETATM    8  C   UNL     1      -8.952  13.571  68.324  1.00  0.00    -0.180 A  
HETATM    9  C   UNL     1      -8.712  17.286  68.634  1.00  0.00    -0.268 A  
HETATM   10  C   UNL     1      -9.897  12.583  67.996  1.00  0.00    -0.214 A  
HETATM   11  C   UNL     1     -11.557  14.338  67.727  1.00  0.00    -0.383 A  
HETATM   12  C   UNL     1     -11.208  12.987  67.714  1.00  0.00    -0.313 A  
BRANCH  10  13
HETATM   13  C   UNL     1      -9.493  11.124  68.030  1.00  0.00    -0.174 C  
BRANCH  13  14
HETATM   14  C   UNL     1      -8.098  10.855  68.599  1.00  0.00    -0.143 C  
BRANCH  14  15
HETATM   15  C   UNL     1      -7.399   9.708  67.896  1.00  0.00    -0.082 C  
HETATM   16  O   UNL     1      -6.251   9.360  68.169  1.00  0.00    -0.052 OA 
HETATM   17  C   UNL     1      -8.187   8.988  66.832  1.00  0.00    -0.116 C  
ENDBRANCH  14  15
ENDBRANCH  13  14
ENDBRANCH  10  13
ENDBRANCH   2   3
TORSDOF 4
ENDMDL
MODEL      152
REMARK 921   NORMALIZED FREE ENERGY PREDICTED BY IDOCK:   -3.22 KCAL/MOL
REMARK 922        TOTAL FREE ENERGY PREDICTED BY IDOCK:   -4.36 KCAL/MOL
REMARK 923 INTER-LIGAND FREE ENERGY PREDICTED BY IDOCK:   -4.00 KCAL/MOL
REMARK 924 INTRA-LIGAND FREE ENERGY PREDICTED BY IDOCK:   -0.35 KCAL/MOL
REMARK 927      BINDING AFFINITY PREDICTED BY RF-SCORE:    0.00 PKD
ROOT
HETATM    1  C   UNL     1     -11.750  13.837  66.092  1.00  0.00    -0.370 C  
HETATM    2  O   UNL     1     -12.198  12.880  67.046  1.00  0.00    -0.391 OA 
ENDROOT
BRANCH   2   3
HETATM    3  C   UNL     1     -11.490  11.712  67.123  1.00  0.00    -0.271 A  
HETATM    4  C   UNL     1     -11.536  10.802  68.179  1.00  0.00    -0.346 A  
HETATM    5  C   UNL     1     -10.778   9.618  68.143  1.00  0.00    -0.266 A  
HETATM    6  C   UNL     1      -9.949   9.347  67.034  1.00  0.00    -0.282 A  
HETATM    7  C   UNL     1      -9.899  10.277  65.984  1.00  0.00    -0.292 A  
HETATM    8  C   UNL     1      -9.197   8.155  67.017  1.00  0.00    -0.187 A  
HETATM    9  C   UNL     1     -10.667  11.444  66.028  1.00  0.00    -0.318 A  
HETATM   10  C   UNL     1      -9.271   7.223  68.066  1.00  0.00    -0.131 A  
HETATM   11  C   UNL     1     -10.835   8.699  69.197  1.00  0.00    -0.060 A  
HETATM   12  C   UNL     1     -10.088   7.521  69.163  1.00  0.00    -0.192 A  
BRANCH  10  13
HETATM   13  C   UNL     1      -8.416   5.973  68.013  1.00  0.00    -0.115 C  
BRANCH  13  14
HETATM   14  C   UNL     1      -9.091   4.708  68.547  1.00  0.00    -0.157 C  
BRANCH  14  15
HETATM   15  C   UNL     1      -9.470   3.745  67.440  1.00  0.00    -0.196 C  
HETATM   16  O   UNL     1      -9.503   2.525  67.599  1.00  0.00    -0.187 OA 
HETATM   17  C   UNL     1      -9.824   4.354  66.107  1.00  0.00    -0.243 C  
ENDBRANCH  14  15
ENDBRANCH  13  14
ENDBRANCH  10  13
ENDBRANCH   2   3
TORSDOF 4
ENDMDL
MODEL      153
REMARK 921   NORMALIZED FREE ENERGY PREDICTED BY IDOCK:   -3.08 KCAL/MOL
REMARK 922        TOTAL FREE ENERGY PREDICTED BY IDOCK:   -4.18 KCAL/MOL
REMARK 923 INTER-LIGAND FREE ENERGY PREDICTED BY IDOCK:   -3.84 KCAL/MOL
REMARK 924 INTRA-LIGAND FREE ENERGY PREDICTED BY IDOCK:   -0.35 KCAL/MOL
REMARK 927      BINDING AFFINITY PREDICTED BY RF-SCORE:    0.00 PKD
ROOT
HETATM    1  C   UNL     1      -9.356   9.365  64.638  1.00  0.00    -0.044 C  
HETATM    2  O   UNL     1     -10.120  10.090  65.595  1.00  0.00    -0.282 OA 
ENDROOT
BRANCH   2   3
HETATM    3  C   UNL     1      -9.717  11.370  65.860  1.00  0.00    -0.227 A  
HETATM    4  C   UNL     1      -8.740  11.740  66.785  1.00  0.00    -0.192 A  
HETATM    5  C   UNL     1      -8.389  13.090  66.961  1.00  0.00    -0.102 A  
HETATM    6  C   UNL     1      -9.038  14.090  66.206  1.00  0.00    -0.047 A  
HETATM    7  C   UNL     1     -10.029  13.708  65.288  1.00  0.00    -0.229 A  
HETATM    8  C   UNL     1      -8.672  15.437  66.397  1.00  0.00    -0.307 A  
HETATM    9  C   UNL     1     -10.359  12.360  65.116  1.00  0.00    -0.313 A  
HETATM   10  C   UNL     1      -7.664  15.805  67.305  1.00  0.00    -0.232 A  
HETATM   11  C   UNL     1      -7.400  13.459  67.880  1.00  0.00    -0.140 A  
HETATM   12  C   UNL     1      -7.046  14.798  68.055  1.00  0.00    -0.147 A  
BRANCH  10  13
HETATM   13  C   UNL     1      -7.333  17.271  67.496  1.00  0.00    -0.183 C  
BRANCH  13  14
HETATM   14  C   UNL     1      -8.290  18.244  66.804  1.00  0.00    -0.269 C  
BRANCH  14  15
HETATM   15  C   UNL     1      -9.450  18.643  67.693  1.00  0.00    -0.293 C  
HETATM   16  O   UNL     1      -9.366  18.684  68.921  1.00  0.00    -0.312 OA 
HETATM   17  C   UNL     1     -10.738  19.006  67.000  1.00  0.00    -0.516 C  
ENDBRANCH  14  15
ENDBRANCH  13  14
ENDBRANCH  10  13
ENDBRANCH   2   3
TORSDOF 4
ENDMDL
MODEL      154
REMARK 921   NORMALIZED FREE ENERGY PREDICTED BY IDOCK:   -3.06 KCAL/MOL
REMARK 922        TOTAL FREE ENERGY PREDICTED BY IDOCK:   -4.16 KCAL/MOL
REMARK 923 INTER-LIGAND FREE ENERGY PREDICTED BY IDOCK:   -3.88 KCAL/MOL
REMARK 924 INTRA-LIGAND FREE ENERGY PREDICTED BY IDOCK:   -0.28 KCAL/MOL
REMARK 927      BINDING AFFINITY PREDICTED BY RF-SCORE:    0.00 PKD
ROOT
HETATM    1  C   UNL     1      -9.356  10.522  63.423  1.00  0.00    -0.305 C  
HETATM    2  O   UNL     1      -8.371  10.500  64.451  1.00  0.00    -0.163 OA 
ENDROOT
BRANCH   2   3
HETATM    3  C   UNL     1      -8.666   9.766  65.567  1.00  0.00    -0.149 A  
HETATM    4  C   UNL     1      -9.616   8.747  65.644  1.00  0.00    -0.105 A  
HETATM    5  C   UNL     1      -9.821   8.042  66.843  1.00  0.00    -0.318 A  
HETATM    6  C   UNL     1      -9.069   8.371  67.990  1.00  0.00    -0.140 A  
HETATM    7  C   UNL     1      -8.126   9.408  67.906  1.00  0.00    -0.103 A  
HETATM    8  C   UNL     1      -9.290   7.653  69.183  1.00  0.00    -0.147 A  
HETATM    9  C   UNL     1      -7.925  10.092  66.704  1.00  0.00    -0.116 A  
HETATM   10  C   UNL     1     -10.224   6.605  69.249  1.00  0.00    -0.206 A  
HETATM   11  C   UNL     1     -10.766   7.012  66.915  1.00  0.00    -0.376 A  
HETATM   12  C   UNL     1     -10.969   6.307  68.102  1.00  0.00    -0.412 A  
BRANCH  10  13
HETATM   13  C   UNL     1     -10.445   5.887  70.564  1.00  0.00    -0.319 C  
BRANCH  13  14
HETATM   14  C   UNL     1     -10.246   6.750  71.811  1.00  0.00    -0.206 C  
BRANCH  14  15
HETATM   15  C   UNL     1     -10.744   6.069  73.070  1.00  0.00    -0.252 C  
HETATM   16  O   UNL     1     -10.532   6.515  74.198  1.00  0.00    -0.337 OA 
HETATM   17  C   UNL     1     -11.535   4.800  72.883  1.00  0.00    -0.222 C  
ENDBRANCH  14  15
ENDBRANCH  13  14
ENDBRANCH  10  13
ENDBRANCH   2   3
TORSDOF 4
ENDMDL
MODEL      155
REMARK 921   NORMALIZED FREE ENERGY PREDICTED BY IDOCK:   -3.02 KCAL/MOL
REMARK 922        TOTAL FREE ENERGY PREDICTED BY IDOCK:   -4.11 KCAL/MOL
REMARK 923 INTER-LIGAND FREE ENERGY PREDICTED BY IDOCK:   -3.78 KCAL/MOL
REMARK 924 INTRA-LIGAND FREE ENERGY PREDICTED BY IDOCK:   -0.34 KCAL/MOL
REMARK 927      BINDING AFFINITY PREDICTED BY RF-SCORE:    0.00 PKD
ROOT
HETATM    1  C   UNL     1      -9.128  10.860  64.942  1.00  0.00    -0.182 C  
HETATM    2  O   UNL     1     -10.016  11.468  65.872  1.00  0.00    -0.214 OA 
ENDROOT
BRANCH   2   3
HETATM    3  C   UNL     1     -10.086  10.901  67.115  1.00  0.00    -0.198 A  
HETATM    4  C   UNL     1      -9.124  10.068  67.685  1.00  0.00    -0.142 A  
HETATM    5  C   UNL     1      -9.290   9.556  68.984  1.00  0.00    -0.155 A  
HETATM    6  C   UNL     1     -10.450   9.876  69.721  1.00  0.00    -0.292 A  
HETATM    7  C   UNL     1     -11.419  10.704  69.134  1.00  0.00    -0.349 A  
HETATM    8  C   UNL     1     -10.599   9.353  71.022  1.00  0.00    -0.400 A  
HETATM    9  C   UNL     1     -11.234  11.214  67.845  1.00  0.00    -0.365 A  
HETATM   10  C   UNL     1      -9.612   8.541  71.607  1.00  0.00    -0.319 A  
HETATM   11  C   UNL     1      -8.318   8.730  69.558  1.00  0.00    -0.119 A  
HETATM   12  C   UNL     1      -8.478   8.224  70.849  1.00  0.00    -0.144 A  
BRANCH  10  13
HETATM   13  C   UNL     1      -9.837   7.978  72.995  1.00  0.00    -0.352 C  
BRANCH  13  14
HETATM   14  C   UNL     1     -10.096   6.471  73.046  1.00  0.00    -0.206 C  
BRANCH  14  15
HETATM   15  C   UNL     1      -8.897   5.696  73.557  1.00  0.00    -0.122 C  
HETATM   16  O   UNL     1      -8.222   6.069  74.516  1.00  0.00    -0.111 OA 
HETATM   17  C   UNL     1      -8.562   4.417  72.833  1.00  0.00    -0.105 C  
ENDBRANCH  14  15
ENDBRANCH  13  14
ENDBRANCH  10  13
ENDBRANCH   2   3
TORSDOF 4
ENDMDL
MODEL      156
REMARK 921   NORMALIZED FREE ENERGY PREDICTED BY IDOCK:   -2.98 KCAL/MOL
REMARK 922        TOTAL FREE ENERGY PREDICTED BY IDOCK:   -4.07 KCAL/MOL
REMARK 923 INTER-LIGAND FREE ENERGY PREDICTED BY IDOCK:   -3.53 KCAL/MOL
REMARK 924 INTRA-LIGAND FREE ENERGY PREDICTED BY IDOCK:   -0.54 KCAL/MOL
REMARK 927      BINDING AFFINITY PREDICTED BY RF-SCORE:    0.00 PKD
ROOT
HETATM    1  C   UNL     1     -14.022   9.265  72.451  1.00  0.00    -0.360 C  
HETATM    2  O   UNL     1     -13.690   8.265  71.494  1.00  0.00    -0.345 OA 
ENDROOT
BRANCH   2   3
HETATM    3  C   UNL     1     -12.412   7.779  71.532  1.00  0.00    -0.324 A  
HETATM    4  C   UNL     1     -11.969   6.606  70.921  1.00  0.00    -0.413 A  
HETATM    5  C   UNL     1     -10.622   6.212  71.007  1.00  0.00    -0.301 A  
HETATM    6  C   UNL     1      -9.704   7.001  71.732  1.00  0.00    -0.165 A  
HETATM    7  C   UNL     1     -10.163   8.172  72.355  1.00  0.00    -0.368 A  
HETATM    8  C   UNL     1      -8.358   6.589  71.808  1.00  0.00    -0.116 A  
HETATM    9  C   UNL     1     -11.503   8.557  72.250  1.00  0.00    -0.445 A  
HETATM   10  C   UNL     1      -7.907   5.425  71.162  1.00  0.00    -0.104 A  
HETATM   11  C   UNL     1     -10.177   5.041  70.383  1.00  0.00    -0.324 A  
HETATM   12  C   UNL     1      -8.839   4.650  70.464  1.00  0.00    -0.141 A  
BRANCH  10  13
HETATM   13  C   UNL     1      -6.457   5.010  71.304  1.00  0.00    -0.030 C  
BRANCH  13  14
HETATM   14  C   UNL     1      -5.691   4.886  69.985  1.00  0.00    -0.016 C  
BRANCH  14  15
HETATM   15  C   UNL     1      -5.700   6.174  69.188  1.00  0.00    -0.019 C  
HETATM   16  O   UNL     1      -5.163   7.208  69.584  1.00  0.00    -0.015 OA 
HETATM   17  C   UNL     1      -6.403   6.138  67.854  1.00  0.00    -0.040 C  
ENDBRANCH  14  15
ENDBRANCH  13  14
ENDBRANCH  10  13
ENDBRANCH   2   3
TORSDOF 4
ENDMDL
MODEL      157
REMARK 921   NORMALIZED FREE ENERGY PREDICTED BY IDOCK:   -2.97 KCAL/MOL
REMARK 922        TOTAL FREE ENERGY PREDICTED BY IDOCK:   -4.05 KCAL/MOL
REMARK 923 INTER-LIGAND FREE ENERGY PREDICTED BY IDOCK:   -3.56 KCAL/MOL
REMARK 924 INTRA-LIGAND FREE ENERGY PREDICTED BY IDOCK:   -0.49 KCAL/MOL
REMARK 927      BINDING AFFINITY PREDICTED BY RF-SCORE:    0.00 PKD
ROOT
HETATM    1  C   UNL     1     -13.742   9.449  72.467  1.00  0.00    -0.350 C  
HETATM    2  O   UNL     1     -13.635   8.272  71.675  1.00  0.00    -0.347 OA 
ENDROOT
BRANCH   2   3
HETATM    3  C   UNL     1     -12.394   7.971  71.185  1.00  0.00    -0.218 A  
HETATM    4  C   UNL     1     -11.987   6.725  70.709  1.00  0.00    -0.433 A  
HETATM    5  C   UNL     1     -10.688   6.534  70.207  1.00  0.00    -0.307 A  
HETATM    6  C   UNL     1      -9.774   7.610  70.193  1.00  0.00    -0.179 A  
HETATM    7  C   UNL     1     -10.190   8.856  70.688  1.00  0.00    -0.267 A  
HETATM    8  C   UNL     1      -8.477   7.399  69.686  1.00  0.00    -0.133 A  
HETATM    9  C   UNL     1     -11.489   9.033  71.173  1.00  0.00    -0.376 A  
HETATM   10  C   UNL     1      -8.079   6.151  69.176  1.00  0.00    -0.109 A  
HETATM   11  C   UNL     1     -10.285   5.286  69.719  1.00  0.00    -0.364 A  
HETATM   12  C   UNL     1      -8.997   5.095  69.215  1.00  0.00    -0.126 A  
BRANCH  10  13
HETATM   13  C   UNL     1      -6.662   5.969  68.673  1.00  0.00    -0.061 C  
BRANCH  13  14
HETATM   14  C   UNL     1      -6.547   5.551  67.205  1.00  0.00    -0.053 C  
BRANCH  14  15
HETATM   15  C   UNL     1      -6.904   6.676  66.255  1.00  0.00    -0.061 C  
HETATM   16  O   UNL     1      -6.124   7.587  65.977  1.00  0.00    -0.037 OA 
HETATM   17  C   UNL     1      -8.281   6.631  65.643  1.00  0.00    -0.137 C  
ENDBRANCH  14  15
ENDBRANCH  13  14
ENDBRANCH  10  13
ENDBRANCH   2   3
TORSDOF 4
ENDMDL
MODEL      158
REMARK 921   NORMALIZED FREE ENERGY PREDICTED BY IDOCK:   -2.92 KCAL/MOL
REMARK 922        TOTAL FREE ENERGY PREDICTED BY IDOCK:   -3.99 KCAL/MOL
REMARK 923 INTER-LIGAND FREE ENERGY PREDICTED BY IDOCK:   -3.50 KCAL/MOL
REMARK 924 INTRA-LIGAND FREE ENERGY PREDICTED BY IDOCK:   -0.49 KCAL/MOL
REMARK 927      BINDING AFFINITY PREDICTED BY RF-SCORE:    0.00 PKD
ROOT
HETATM    1  C   UNL     1     -12.401  14.427  64.145  1.00  0.00    -0.307 C  
HETATM    2  O   UNL     1     -12.194  14.302  65.548  1.00  0.00    -0.395 OA 
ENDROOT
BRANCH   2   3
HETATM    3  C   UNL     1     -11.425  13.250  65.964  1.00  0.00    -0.330 A  
HETATM    4  C   UNL     1     -11.350  12.762  67.268  1.00  0.00    -0.364 A  
HETATM    5  C   UNL     1     -10.538  11.657  67.580  1.00  0.00    -0.245 A  
HETATM    6  C   UNL     1      -9.776  11.037  66.567  1.00  0.00    -0.230 A  
HETATM    7  C   UNL     1      -9.847  11.545  65.260  1.00  0.00    -0.286 A  
HETATM    8  C   UNL     1      -8.968   9.932  66.899  1.00  0.00    -0.154 A  
HETATM    9  C   UNL     1     -10.668  12.637  64.964  1.00  0.00    -0.321 A  
HETATM   10  C   UNL     1      -8.920   9.420  68.208  1.00  0.00    -0.128 A  
HETATM   11  C   UNL     1     -10.474  11.162  68.887  1.00  0.00    -0.233 A  
HETATM   12  C   UNL     1      -9.672  10.062  69.198  1.00  0.00    -0.217 A  
BRANCH  10  13
HETATM   13  C   UNL     1      -8.010   8.250  68.517  1.00  0.00    -0.122 C  
BRANCH  13  14
HETATM   14  C   UNL     1      -6.765   8.600  69.335  1.00  0.00    -0.049 C  
BRANCH  14  15
HETATM   15  C   UNL     1      -5.749   9.386  68.531  1.00  0.00    -0.040 C  
HETATM   16  O   UNL     1      -5.307   8.996  67.450  1.00  0.00    -0.037 OA 
HETATM   17  C   UNL     1      -5.296  10.700  69.115  1.00  0.00    -0.041 C  
ENDBRANCH  14  15
ENDBRANCH  13  14
ENDBRANCH  10  13
ENDBRANCH   2   3
TORSDOF 4
ENDMDL
MODEL      159
REMARK 921   NORMALIZED FREE ENERGY PREDICTED BY IDOCK:   -2.91 KCAL/MOL
REMARK 922        TOTAL FREE ENERGY PREDICTED BY IDOCK:   -3.98 KCAL/MOL
REMARK 923 INTER-LIGAND FREE ENERGY PREDICTED BY IDOCK:   -3.67 KCAL/MOL
REMARK 924 INTRA-LIGAND FREE ENERGY PREDICTED BY IDOCK:   -0.31 KCAL/MOL
REMARK 927      BINDING AFFINITY PREDICTED BY RF-SCORE:    0.00 PKD
ROOT
HETATM    1  C   UNL     1     -11.599   3.586  73.493  1.00  0.00     0.043 C  
HETATM    2  O   UNL     1     -10.269   3.712  73.003  1.00  0.00    -0.144 OA 
ENDROOT
BRANCH   2   3
HETATM    3  C   UNL     1      -9.990   4.831  72.267  1.00  0.00    -0.178 A  
HETATM    4  C   UNL     1     -10.564   6.089  72.449  1.00  0.00    -0.254 A  
HETATM    5  C   UNL     1     -10.185   7.178  71.645  1.00  0.00    -0.208 A  
HETATM    6  C   UNL     1      -9.220   7.001  70.630  1.00  0.00    -0.158 A  
HETATM    7  C   UNL     1      -8.659   5.728  70.446  1.00  0.00    -0.133 A  
HETATM    8  C   UNL     1      -8.853   8.105  69.834  1.00  0.00    -0.139 A  
HETATM    9  C   UNL     1      -9.038   4.657  71.261  1.00  0.00    -0.179 A  
HETATM   10  C   UNL     1      -9.409   9.379  70.042  1.00  0.00    -0.253 A  
HETATM   11  C   UNL     1     -10.753   8.443  71.836  1.00  0.00    -0.373 A  
HETATM   12  C   UNL     1     -10.375   9.527  71.043  1.00  0.00    -0.353 A  
BRANCH  10  13
HETATM   13  C   UNL     1      -9.003  10.524  69.136  1.00  0.00    -0.171 C  
BRANCH  13  14
HETATM   14  C   UNL     1      -9.302  10.309  67.651  1.00  0.00    -0.158 C  
BRANCH  14  15
HETATM   15  C   UNL     1     -10.474  11.141  67.172  1.00  0.00    -0.231 C  
HETATM   16  O   UNL     1     -11.637  10.907  67.500  1.00  0.00    -0.526 OA 
HETATM   17  C   UNL     1     -10.152  12.299  66.262  1.00  0.00    -0.253 C  
ENDBRANCH  14  15
ENDBRANCH  13  14
ENDBRANCH  10  13
ENDBRANCH   2   3
TORSDOF 4
ENDMDL
MODEL      160
REMARK 921   NORMALIZED FREE ENERGY PREDICTED BY IDOCK:   -2.90 KCAL/MOL
REMARK 922        TOTAL FREE ENERGY PREDICTED BY IDOCK:   -3.96 KCAL/MOL
REMARK 923 INTER-LIGAND FREE ENERGY PREDICTED BY IDOCK:   -3.72 KCAL/MOL
REMARK 924 INTRA-LIGAND FREE ENERGY PREDICTED BY IDOCK:   -0.25 KCAL/MOL
REMARK 927      BINDING AFFINITY PREDICTED BY RF-SCORE:    0.00 PKD
ROOT
HETATM    1  C   UNL     1      -9.859  10.535  64.079  1.00  0.00    -0.324 C  
HETATM    2  O   UNL     1      -8.945  10.853  65.122  1.00  0.00    -0.197 OA 
ENDROOT
BRANCH   2   3
HETATM    3  C   UNL     1      -9.078  10.154  66.290  1.00  0.00    -0.154 A  
HETATM    4  C   UNL     1     -10.005  10.422  67.298  1.00  0.00    -0.229 A  
HETATM    5  C   UNL     1     -10.068   9.621  68.452  1.00  0.00    -0.199 A  
HETATM    6  C   UNL     1      -9.176   8.539  68.606  1.00  0.00    -0.142 A  
HETATM    7  C   UNL     1      -8.237   8.287  67.593  1.00  0.00    -0.127 A  
HETATM    8  C   UNL     1      -9.253   7.749  69.770  1.00  0.00    -0.150 A  
HETATM    9  C   UNL     1      -8.195   9.085  66.446  1.00  0.00    -0.111 A  
HETATM   10  C   UNL     1     -10.211   8.000  70.768  1.00  0.00    -0.209 A  
HETATM   11  C   UNL     1     -11.006   9.884  69.456  1.00  0.00    -0.274 A  
HETATM   12  C   UNL     1     -11.074   9.089  70.601  1.00  0.00    -0.314 A  
BRANCH  10  13
HETATM   13  C   UNL     1     -10.230   7.139  72.015  1.00  0.00    -0.209 C  
BRANCH  13  14
HETATM   14  C   UNL     1     -11.202   5.959  71.969  1.00  0.00    -0.330 C  
BRANCH  14  15
HETATM   15  C   UNL     1     -11.104   5.082  73.200  1.00  0.00    -0.326 C  
HETATM   16  O   UNL     1     -11.554   3.937  73.242  1.00  0.00    -0.146 OA 
HETATM   17  C   UNL     1     -10.408   5.676  74.399  1.00  0.00    -0.278 C  
ENDBRANCH  14  15
ENDBRANCH  13  14
ENDBRANCH  10  13
ENDBRANCH   2   3
TORSDOF 4
ENDMDL
MODEL      161
REMARK 921   NORMALIZED FREE ENERGY PREDICTED BY IDOCK:   -2.90 KCAL/MOL
REMARK 922        TOTAL FREE ENERGY PREDICTED BY IDOCK:   -3.96 KCAL/MOL
REMARK 923 INTER-LIGAND FREE ENERGY PREDICTED BY IDOCK:   -3.55 KCAL/MOL
REMARK 924 INTRA-LIGAND FREE ENERGY PREDICTED BY IDOCK:   -0.41 KCAL/MOL
REMARK 927      BINDING AFFINITY PREDICTED BY RF-SCORE:    0.00 PKD
ROOT
HETATM    1  C   UNL     1     -10.620   1.764  74.273  1.00  0.00    -0.133 C  
HETATM    2  O   UNL     1      -9.531   2.679  74.324  1.00  0.00    -0.083 OA 
ENDROOT
BRANCH   2   3
HETATM    3  C   UNL     1      -9.657   3.825  73.588  1.00  0.00    -0.102 A  
HETATM    4  C   UNL     1      -8.645   4.428  72.841  1.00  0.00    -0.105 A  
HETATM    5  C   UNL     1      -8.893   5.598  72.102  1.00  0.00    -0.137 A  
HETATM    6  C   UNL     1     -10.177   6.183  72.122  1.00  0.00    -0.213 A  
HETATM    7  C   UNL     1     -11.185   5.576  72.888  1.00  0.00    -0.358 A  
HETATM    8  C   UNL     1     -10.406   7.356  71.376  1.00  0.00    -0.208 A  
HETATM    9  C   UNL     1     -10.926   4.406  73.608  1.00  0.00    -0.374 A  
HETATM   10  C   UNL     1      -9.394   7.943  70.597  1.00  0.00    -0.158 A  
HETATM   11  C   UNL     1      -7.880   6.195  71.344  1.00  0.00    -0.108 A  
HETATM   12  C   UNL     1      -8.124   7.354  70.606  1.00  0.00    -0.110 A  
BRANCH  10  13
HETATM   13  C   UNL     1      -9.684   9.222  69.839  1.00  0.00    -0.220 C  
BRANCH  13  14
HETATM   14  C   UNL     1     -11.032   9.251  69.116  1.00  0.00    -0.083 C  
BRANCH  14  15
HETATM   15  C   UNL     1     -11.867  10.457  69.498  1.00  0.00    -0.147 C  
HETATM   16  O   UNL     1     -12.346  11.227  68.666  1.00  0.00    -0.534 OA 
HETATM   17  C   UNL     1     -12.099  10.678  70.971  1.00  0.00    -0.473 C  
ENDBRANCH  14  15
ENDBRANCH  13  14
ENDBRANCH  10  13
ENDBRANCH   2   3
TORSDOF 4
ENDMDL
MODEL      162
REMARK 921   NORMALIZED FREE ENERGY PREDICTED BY IDOCK:   -2.88 KCAL/MOL
REMARK 922        TOTAL FREE ENERGY PREDICTED BY IDOCK:   -3.94 KCAL/MOL
REMARK 923 INTER-LIGAND FREE ENERGY PREDICTED BY IDOCK:   -3.43 KCAL/MOL
REMARK 924 INTRA-LIGAND FREE ENERGY PREDICTED BY IDOCK:   -0.51 KCAL/MOL
REMARK 927      BINDING AFFINITY PREDICTED BY RF-SCORE:    0.00 PKD
ROOT
HETATM    1  C   UNL     1     -14.202   9.112  72.426  1.00  0.00    -0.269 C  
HETATM    2  O   UNL     1     -13.822   8.139  71.459  1.00  0.00    -0.357 OA 
ENDROOT
BRANCH   2   3
HETATM    3  C   UNL     1     -12.505   7.771  71.443  1.00  0.00    -0.320 A  
HETATM    4  C   UNL     1     -12.006   6.552  70.983  1.00  0.00    -0.358 A  
HETATM    5  C   UNL     1     -10.626   6.287  70.994  1.00  0.00    -0.289 A  
HETATM    6  C   UNL     1      -9.728   7.257  71.487  1.00  0.00    -0.168 A  
HETATM    7  C   UNL     1     -10.241   8.475  71.960  1.00  0.00    -0.391 A  
HETATM    8  C   UNL     1      -8.347   6.973  71.490  1.00  0.00    -0.112 A  
HETATM    9  C   UNL     1     -11.615   8.728  71.932  1.00  0.00    -0.432 A  
HETATM   10  C   UNL     1      -7.845   5.757  70.995  1.00  0.00    -0.106 A  
HETATM   11  C   UNL     1     -10.126   5.068  70.521  1.00  0.00    -0.323 A  
HETATM   12  C   UNL     1      -8.756   4.804  70.526  1.00  0.00    -0.130 A  
BRANCH  10  13
HETATM   13  C   UNL     1      -6.355   5.490  71.051  1.00  0.00    -0.035 C  
BRANCH  13  14
HETATM   14  C   UNL     1      -5.805   5.198  72.449  1.00  0.00    -0.021 C  
BRANCH  14  15
HETATM   15  C   UNL     1      -6.439   3.972  73.075  1.00  0.00    -0.036 C  
HETATM   16  O   UNL     1      -6.268   2.835  72.635  1.00  0.00    -0.009 OA 
HETATM   17  C   UNL     1      -7.301   4.203  74.290  1.00  0.00    -0.071 C  
ENDBRANCH  14  15
ENDBRANCH  13  14
ENDBRANCH  10  13
ENDBRANCH   2   3
TORSDOF 4
ENDMDL
MODEL      163
REMARK 921   NORMALIZED FREE ENERGY PREDICTED BY IDOCK:   -2.87 KCAL/MOL
REMARK 922        TOTAL FREE ENERGY PREDICTED BY IDOCK:   -3.93 KCAL/MOL
REMARK 923 INTER-LIGAND FREE ENERGY PREDICTED BY IDOCK:   -4.13 KCAL/MOL
REMARK 924 INTRA-LIGAND FREE ENERGY PREDICTED BY IDOCK:    0.20 KCAL/MOL
REMARK 927      BINDING AFFINITY PREDICTED BY RF-SCORE:    0.00 PKD
ROOT
HETATM    1  C   UNL     1     -11.367   3.828  73.646  1.00  0.00    -0.138 C  
HETATM    2  O   UNL     1     -11.122   5.213  73.867  1.00  0.00    -0.265 OA 
ENDROOT
BRANCH   2   3
HETATM    3  C   UNL     1     -10.948   5.991  72.755  1.00  0.00    -0.264 A  
HETATM    4  C   UNL     1     -10.897   5.530  71.440  1.00  0.00    -0.256 A  
HETATM    5  C   UNL     1     -10.736   6.426  70.368  1.00  0.00    -0.317 A  
HETATM    6  C   UNL     1     -10.610   7.808  70.620  1.00  0.00    -0.222 A  
HETATM    7  C   UNL     1     -10.648   8.260  71.948  1.00  0.00    -0.350 A  
HETATM    8  C   UNL     1     -10.448   8.690  69.532  1.00  0.00    -0.222 A  
HETATM    9  C   UNL     1     -10.821   7.359  73.003  1.00  0.00    -0.423 A  
HETATM   10  C   UNL     1     -10.431   8.227  68.205  1.00  0.00    -0.226 A  
HETATM   11  C   UNL     1     -10.697   5.963  69.048  1.00  0.00    -0.379 A  
HETATM   12  C   UNL     1     -10.541   6.850  67.981  1.00  0.00    -0.273 A  
BRANCH  10  13
HETATM   13  C   UNL     1     -10.222   9.214  67.075  1.00  0.00    -0.333 C  
BRANCH  13  14
HETATM   14  C   UNL     1      -8.774   9.664  66.873  1.00  0.00    -0.139 C  
BRANCH  14  15
HETATM   15  C   UNL     1      -8.244  10.451  68.055  1.00  0.00    -0.114 C  
HETATM   16  O   UNL     1      -7.121  10.270  68.527  1.00  0.00    -0.071 OA 
HETATM   17  C   UNL     1      -9.163  11.493  68.639  1.00  0.00    -0.136 C  
ENDBRANCH  14  15
ENDBRANCH  13  14
ENDBRANCH  10  13
ENDBRANCH   2   3
TORSDOF 4
ENDMDL
MODEL      164
REMARK 921   NORMALIZED FREE ENERGY PREDICTED BY IDOCK:   -2.76 KCAL/MOL
REMARK 922        TOTAL FREE ENERGY PREDICTED BY IDOCK:   -3.79 KCAL/MOL
REMARK 923 INTER-LIGAND FREE ENERGY PREDICTED BY IDOCK:   -3.49 KCAL/MOL
REMARK 924 INTRA-LIGAND FREE ENERGY PREDICTED BY IDOCK:   -0.30 KCAL/MOL
REMARK 927      BINDING AFFINITY PREDICTED BY RF-SCORE:    0.00 PKD
ROOT
HETATM    1  C   UNL     1     -10.694   6.101  70.762  1.00  0.00    -0.266 C  
HETATM    2  O   UNL     1      -9.884   6.292  69.607  1.00  0.00    -0.158 OA 
ENDROOT
BRANCH   2   3
HETATM    3  C   UNL     1      -9.674   7.584  69.211  1.00  0.00    -0.163 A  
HETATM    4  C   UNL     1     -10.667   8.498  68.857  1.00  0.00    -0.100 A  
HETATM    5  C   UNL     1     -10.337   9.813  68.484  1.00  0.00    -0.228 A  
HETATM    6  C   UNL     1      -8.985  10.216  68.454  1.00  0.00    -0.123 A  
HETATM    7  C   UNL     1      -7.993   9.285  68.798  1.00  0.00    -0.099 A  
HETATM    8  C   UNL     1      -8.674  11.538  68.077  1.00  0.00    -0.151 A  
HETATM    9  C   UNL     1      -8.338   7.984  69.177  1.00  0.00    -0.132 A  
HETATM   10  C   UNL     1      -9.678  12.467  67.753  1.00  0.00    -0.202 A  
HETATM   11  C   UNL     1     -11.335  10.732  68.141  1.00  0.00    -0.377 A  
HETATM   12  C   UNL     1     -11.010  12.039  67.775  1.00  0.00    -0.279 A  
BRANCH  10  13
HETATM   13  C   UNL     1      -9.287  13.866  67.323  1.00  0.00    -0.231 C  
BRANCH  13  14
HETATM   14  C   UNL     1      -9.205  14.890  68.458  1.00  0.00    -0.192 C  
BRANCH  14  15
HETATM   15  C   UNL     1     -10.077  16.103  68.204  1.00  0.00    -0.237 C  
HETATM   16  O   UNL     1      -9.812  16.949  67.350  1.00  0.00    -0.250 OA 
HETATM   17  C   UNL     1     -11.316  16.233  69.053  1.00  0.00    -0.301 C  
ENDBRANCH  14  15
ENDBRANCH  13  14
ENDBRANCH  10  13
ENDBRANCH   2   3
TORSDOF 4
ENDMDL
MODEL      165
REMARK 921   NORMALIZED FREE ENERGY PREDICTED BY IDOCK:   -2.73 KCAL/MOL
REMARK 922        TOTAL FREE ENERGY PREDICTED BY IDOCK:   -3.76 KCAL/MOL
REMARK 923 INTER-LIGAND FREE ENERGY PREDICTED BY IDOCK:   -3.45 KCAL/MOL
REMARK 924 INTRA-LIGAND FREE ENERGY PREDICTED BY IDOCK:   -0.31 KCAL/MOL
REMARK 927      BINDING AFFINITY PREDICTED BY RF-SCORE:    0.00 PKD
ROOT
HETATM    1  C   UNL     1      -8.823   4.372  62.964  1.00  0.00    -0.123 C  
HETATM    2  O   UNL     1      -8.873   3.237  63.821  1.00  0.00    -0.092 OA 
ENDROOT
BRANCH   2   3
HETATM    3  C   UNL     1      -9.050   3.482  65.155  1.00  0.00    -0.142 A  
HETATM    4  C   UNL     1      -8.878   2.555  66.183  1.00  0.00    -0.132 A  
HETATM    5  C   UNL     1      -9.067   2.924  67.526  1.00  0.00    -0.215 A  
HETATM    6  C   UNL     1      -9.449   4.244  67.846  1.00  0.00    -0.216 A  
HETATM    7  C   UNL     1      -9.634   5.165  66.803  1.00  0.00    -0.159 A  
HETATM    8  C   UNL     1      -9.635   4.594  69.198  1.00  0.00    -0.245 A  
HETATM    9  C   UNL     1      -9.431   4.787  65.473  1.00  0.00    -0.170 A  
HETATM   10  C   UNL     1      -9.428   3.667  70.234  1.00  0.00    -0.257 A  
HETATM   11  C   UNL     1      -8.882   1.995  68.557  1.00  0.00    -0.146 A  
HETATM   12  C   UNL     1      -9.065   2.359  69.892  1.00  0.00    -0.176 A  
BRANCH  10  13
HETATM   13  C   UNL     1      -9.673   4.087  71.669  1.00  0.00    -0.242 C  
BRANCH  13  14
HETATM   14  C   UNL     1      -9.650   5.597  71.912  1.00  0.00    -0.176 C  
BRANCH  14  15
HETATM   15  C   UNL     1     -10.867   6.077  72.677  1.00  0.00    -0.244 C  
HETATM   16  O   UNL     1     -11.890   5.404  72.793  1.00  0.00    -0.268 OA 
HETATM   17  C   UNL     1     -10.769   7.441  73.313  1.00  0.00    -0.441 C  
ENDBRANCH  14  15
ENDBRANCH  13  14
ENDBRANCH  10  13
ENDBRANCH   2   3
TORSDOF 4
ENDMDL
MODEL      166
REMARK 921   NORMALIZED FREE ENERGY PREDICTED BY IDOCK:   -2.73 KCAL/MOL
REMARK 922        TOTAL FREE ENERGY PREDICTED BY IDOCK:   -3.75 KCAL/MOL
REMARK 923 INTER-LIGAND FREE ENERGY PREDICTED BY IDOCK:   -3.42 KCAL/MOL
REMARK 924 INTRA-LIGAND FREE ENERGY PREDICTED BY IDOCK:   -0.33 KCAL/MOL
REMARK 927      BINDING AFFINITY PREDICTED BY RF-SCORE:    0.00 PKD
ROOT
HETATM    1  C   UNL     1      -5.776  16.905  68.011  1.00  0.00    -0.120 C  
HETATM    2  O   UNL     1      -6.997  16.996  67.285  1.00  0.00    -0.143 OA 
ENDROOT
BRANCH   2   3
HETATM    3  C   UNL     1      -7.689  15.831  67.097  1.00  0.00    -0.219 A  
HETATM    4  C   UNL     1      -7.282  14.566  67.521  1.00  0.00    -0.210 A  
HETATM    5  C   UNL     1      -8.085  13.436  67.291  1.00  0.00    -0.147 A  
HETATM    6  C   UNL     1      -9.315  13.573  66.613  1.00  0.00    -0.254 A  
HETATM    7  C   UNL     1      -9.708  14.849  66.178  1.00  0.00    -0.333 A  
HETATM    8  C   UNL     1     -10.106  12.428  66.392  1.00  0.00    -0.252 A  
HETATM    9  C   UNL     1      -8.904  15.965  66.424  1.00  0.00    -0.368 A  
HETATM   10  C   UNL     1      -9.710  11.160  66.849  1.00  0.00    -0.216 A  
HETATM   11  C   UNL     1      -7.681  12.169  67.727  1.00  0.00    -0.139 A  
HETATM   12  C   UNL     1      -8.479  11.045  67.505  1.00  0.00    -0.127 A  
BRANCH  10  13
HETATM   13  C   UNL     1     -10.583   9.957  66.556  1.00  0.00    -0.156 C  
BRANCH  13  14
HETATM   14  C   UNL     1     -10.302   8.729  67.426  1.00  0.00    -0.349 C  
BRANCH  14  15
HETATM   15  C   UNL     1     -10.312   7.441  66.627  1.00  0.00    -0.171 C  
HETATM   16  O   UNL     1     -11.234   6.629  66.683  1.00  0.00    -0.231 OA 
HETATM   17  C   UNL     1      -9.123   7.193  65.733  1.00  0.00     0.015 C  
ENDBRANCH  14  15
ENDBRANCH  13  14
ENDBRANCH  10  13
ENDBRANCH   2   3
TORSDOF 4
ENDMDL
MODEL      167
REMARK 921   NORMALIZED FREE ENERGY PREDICTED BY IDOCK:   -2.73 KCAL/MOL
REMARK 922        TOTAL FREE ENERGY PREDICTED BY IDOCK:   -3.75 KCAL/MOL
REMARK 923 INTER-LIGAND FREE ENERGY PREDICTED BY IDOCK:   -3.40 KCAL/MOL
REMARK 924 INTRA-LIGAND FREE ENERGY PREDICTED BY IDOCK:   -0.34 KCAL/MOL
REMARK 927      BINDING AFFINITY PREDICTED BY RF-SCORE:    0.00 PKD
ROOT
HETATM    1  C   UNL     1     -10.440   5.253  73.213  1.00  0.00    -0.224 C  
HETATM    2  O   UNL     1     -11.464   5.959  72.520  1.00  0.00    -0.290 OA 
ENDROOT
BRANCH   2   3
HETATM    3  C   UNL     1     -11.075   6.700  71.438  1.00  0.00    -0.263 A  
HETATM    4  C   UNL     1     -11.550   7.969  71.108  1.00  0.00    -0.307 A  
HETATM    5  C   UNL     1     -11.062   8.651  69.980  1.00  0.00    -0.161 A  
HETATM    6  C   UNL     1     -10.088   8.045  69.159  1.00  0.00    -0.202 A  
HETATM    7  C   UNL     1      -9.627   6.761  69.491  1.00  0.00    -0.148 A  
HETATM    8  C   UNL     1      -9.612   8.744  68.031  1.00  0.00    -0.160 A  
HETATM    9  C   UNL     1     -10.113   6.101  70.623  1.00  0.00    -0.240 A  
HETATM   10  C   UNL     1     -10.068  10.036  67.720  1.00  0.00    -0.222 A  
HETATM   11  C   UNL     1     -11.532   9.929  69.657  1.00  0.00    -0.160 A  
HETATM   12  C   UNL     1     -11.046  10.611  68.540  1.00  0.00    -0.318 A  
BRANCH  10  13
HETATM   13  C   UNL     1      -9.547  10.730  66.478  1.00  0.00    -0.217 C  
BRANCH  13  14
HETATM   14  C   UNL     1      -8.047  10.563  66.227  1.00  0.00    -0.142 C  
BRANCH  14  15
HETATM   15  C   UNL     1      -7.757   9.755  64.978  1.00  0.00    -0.126 C  
HETATM   16  O   UNL     1      -8.529   9.707  64.021  1.00  0.00    -0.157 OA 
HETATM   17  C   UNL     1      -6.452   9.001  64.950  1.00  0.00    -0.066 C  
ENDBRANCH  14  15
ENDBRANCH  13  14
ENDBRANCH  10  13
ENDBRANCH   2   3
TORSDOF 4
ENDMDL
MODEL      168
REMARK 921   NORMALIZED FREE ENERGY PREDICTED BY IDOCK:   -2.71 KCAL/MOL
REMARK 922        TOTAL FREE ENERGY PREDICTED BY IDOCK:   -3.73 KCAL/MOL
REMARK 923 INTER-LIGAND FREE ENERGY PREDICTED BY IDOCK:   -3.23 KCAL/MOL
REMARK 924 INTRA-LIGAND FREE ENERGY PREDICTED BY IDOCK:   -0.50 KCAL/MOL
REMARK 927      BINDING AFFINITY PREDICTED BY RF-SCORE:    0.00 PKD
ROOT
HETATM    1  C   UNL     1     -10.049   3.575  64.159  1.00  0.00    -0.204 C  
HETATM    2  O   UNL     1      -9.203   4.421  64.929  1.00  0.00    -0.147 OA 
ENDROOT
BRANCH   2   3
HETATM    3  C   UNL     1      -9.451   4.479  66.273  1.00  0.00    -0.172 A  
HETATM    4  C   UNL     1      -9.062   3.528  67.215  1.00  0.00    -0.194 A  
HETATM    5  C   UNL     1      -9.354   3.701  68.579  1.00  0.00    -0.226 A  
HETATM    6  C   UNL     1     -10.062   4.844  69.006  1.00  0.00    -0.210 A  
HETATM    7  C   UNL     1     -10.462   5.789  68.049  1.00  0.00    -0.286 A  
HETATM    8  C   UNL     1     -10.346   5.000  70.378  1.00  0.00    -0.297 A  
HETATM    9  C   UNL     1     -10.154   5.608  66.697  1.00  0.00    -0.237 A  
HETATM   10  C   UNL     1      -9.922   4.057  71.330  1.00  0.00    -0.202 A  
HETATM   11  C   UNL     1      -8.952   2.751  69.524  1.00  0.00    -0.170 A  
HETATM   12  C   UNL     1      -9.236   2.923  70.880  1.00  0.00    -0.207 A  
BRANCH  10  13
HETATM   13  C   UNL     1     -10.282   4.256  72.788  1.00  0.00    -0.227 C  
BRANCH  13  14
HETATM   14  C   UNL     1      -9.756   5.551  73.410  1.00  0.00    -0.158 C  
BRANCH  14  15
HETATM   15  C   UNL     1      -8.250   5.539  73.578  1.00  0.00    -0.113 C  
HETATM   16  O   UNL     1      -7.669   4.767  74.341  1.00  0.00    -0.091 OA 
HETATM   17  C   UNL     1      -7.470   6.528  72.749  1.00  0.00    -0.094 C  
ENDBRANCH  14  15
ENDBRANCH  13  14
ENDBRANCH  10  13
ENDBRANCH   2   3
TORSDOF 4
ENDMDL
MODEL      169
REMARK 921   NORMALIZED FREE ENERGY PREDICTED BY IDOCK:   -2.71 KCAL/MOL
REMARK 922        TOTAL FREE ENERGY PREDICTED BY IDOCK:   -3.73 KCAL/MOL
REMARK 923 INTER-LIGAND FREE ENERGY PREDICTED BY IDOCK:   -3.32 KCAL/MOL
REMARK 924 INTRA-LIGAND FREE ENERGY PREDICTED BY IDOCK:   -0.41 KCAL/MOL
REMARK 927      BINDING AFFINITY PREDICTED BY RF-SCORE:    0.00 PKD
ROOT
HETATM    1  C   UNL     1      -8.038  10.168  64.617  1.00  0.00    -0.153 C  
HETATM    2  O   UNL     1      -7.087   9.484  65.425  1.00  0.00    -0.089 OA 
ENDROOT
BRANCH   2   3
HETATM    3  C   UNL     1      -7.475   9.170  66.698  1.00  0.00    -0.086 A  
HETATM    4  C   UNL     1      -8.441   9.844  67.444  1.00  0.00    -0.118 A  
HETATM    5  C   UNL     1      -8.778   9.420  68.742  1.00  0.00    -0.131 A  
HETATM    6  C   UNL     1      -8.123   8.306  69.308  1.00  0.00    -0.116 A  
HETATM    7  C   UNL     1      -7.142   7.643  68.555  1.00  0.00    -0.081 A  
HETATM    8  C   UNL     1      -8.473   7.896  70.610  1.00  0.00    -0.125 A  
HETATM    9  C   UNL     1      -6.827   8.069  67.262  1.00  0.00    -0.074 A  
HETATM   10  C   UNL     1      -9.472   8.556  71.347  1.00  0.00    -0.279 A  
HETATM   11  C   UNL     1      -9.756  10.091  69.484  1.00  0.00    -0.253 A  
HETATM   12  C   UNL     1     -10.095   9.669  70.771  1.00  0.00    -0.293 A  
BRANCH  10  13
HETATM   13  C   UNL     1      -9.787   8.095  72.755  1.00  0.00    -0.353 C  
BRANCH  13  14
HETATM   14  C   UNL     1     -11.263   7.789  73.018  1.00  0.00    -0.380 C  
BRANCH  14  15
HETATM   15  C   UNL     1     -11.818   6.755  72.060  1.00  0.00    -0.314 C  
HETATM   16  O   UNL     1     -11.568   5.554  72.156  1.00  0.00    -0.190 OA 
HETATM   17  C   UNL     1     -12.717   7.266  70.963  1.00  0.00    -0.284 C  
ENDBRANCH  14  15
ENDBRANCH  13  14
ENDBRANCH  10  13
ENDBRANCH   2   3
TORSDOF 4
ENDMDL
MODEL      170
REMARK 921   NORMALIZED FREE ENERGY PREDICTED BY IDOCK:   -2.61 KCAL/MOL
REMARK 922        TOTAL FREE ENERGY PREDICTED BY IDOCK:   -3.60 KCAL/MOL
REMARK 923 INTER-LIGAND FREE ENERGY PREDICTED BY IDOCK:   -3.27 KCAL/MOL
REMARK 924 INTRA-LIGAND FREE ENERGY PREDICTED BY IDOCK:   -0.33 KCAL/MOL
REMARK 927      BINDING AFFINITY PREDICTED BY RF-SCORE:    0.00 PKD
ROOT
HETATM    1  C   UNL     1      -8.257   4.531  64.693  1.00  0.00    -0.109 C  
HETATM    2  O   UNL     1      -8.610   5.869  65.025  1.00  0.00    -0.139 OA 
ENDROOT
BRANCH   2   3
HETATM    3  C   UNL     1      -8.707   6.166  66.357  1.00  0.00    -0.138 A  
HETATM    4  C   UNL     1      -8.897   7.439  66.895  1.00  0.00    -0.140 A  
HETATM    5  C   UNL     1      -9.003   7.627  68.284  1.00  0.00    -0.127 A  
HETATM    6  C   UNL     1      -8.905   6.519  69.152  1.00  0.00    -0.128 A  
HETATM    7  C   UNL     1      -8.700   5.244  68.602  1.00  0.00    -0.096 A  
HETATM    8  C   UNL     1      -9.014   6.727  70.542  1.00  0.00    -0.152 A  
HETATM    9  C   UNL     1      -8.608   5.072  67.218  1.00  0.00    -0.104 A  
HETATM   10  C   UNL     1      -9.239   8.006  71.080  1.00  0.00    -0.169 A  
HETATM   11  C   UNL     1      -9.206   8.903  68.821  1.00  0.00    -0.140 A  
HETATM   12  C   UNL     1      -9.317   9.092  70.200  1.00  0.00    -0.213 A  
BRANCH  10  13
HETATM   13  C   UNL     1      -9.316   8.179  72.583  1.00  0.00    -0.342 C  
BRANCH  13  14
HETATM   14  C   UNL     1     -10.517   7.505  73.249  1.00  0.00    -0.426 C  
BRANCH  14  15
HETATM   15  C   UNL     1     -11.776   7.610  72.412  1.00  0.00    -0.317 C  
HETATM   16  O   UNL     1     -12.285   8.688  72.105  1.00  0.00    -0.343 OA 
HETATM   17  C   UNL     1     -12.390   6.313  71.950  1.00  0.00    -0.186 C  
ENDBRANCH  14  15
ENDBRANCH  13  14
ENDBRANCH  10  13
ENDBRANCH   2   3
TORSDOF 4
ENDMDL
MODEL      171
REMARK 921   NORMALIZED FREE ENERGY PREDICTED BY IDOCK:   -2.61 KCAL/MOL
REMARK 922        TOTAL FREE ENERGY PREDICTED BY IDOCK:   -3.60 KCAL/MOL
REMARK 923 INTER-LIGAND FREE ENERGY PREDICTED BY IDOCK:   -3.27 KCAL/MOL
REMARK 924 INTRA-LIGAND FREE ENERGY PREDICTED BY IDOCK:   -0.33 KCAL/MOL
REMARK 927      BINDING AFFINITY PREDICTED BY RF-SCORE:    0.00 PKD
ROOT
HETATM    1  C   UNL     1     -10.837   1.645  62.585  1.00  0.00    -0.155 C  
HETATM    2  O   UNL     1     -10.554   3.016  62.845  1.00  0.00    -0.156 OA 
ENDROOT
BRANCH   2   3
HETATM    3  C   UNL     1     -10.261   3.347  64.139  1.00  0.00    -0.195 A  
HETATM    4  C   UNL     1     -10.741   4.465  64.822  1.00  0.00    -0.080 A  
HETATM    5  C   UNL     1     -10.390   4.697  66.163  1.00  0.00    -0.310 A  
HETATM    6  C   UNL     1      -9.530   3.798  66.830  1.00  0.00    -0.224 A  
HETATM    7  C   UNL     1      -9.041   2.684  66.130  1.00  0.00    -0.115 A  
HETATM    8  C   UNL     1      -9.189   4.048  68.175  1.00  0.00    -0.203 A  
HETATM    9  C   UNL     1      -9.409   2.461  64.800  1.00  0.00    -0.121 A  
HETATM   10  C   UNL     1      -9.701   5.157  68.871  1.00  0.00    -0.220 A  
HETATM   11  C   UNL     1     -10.882   5.812  66.850  1.00  0.00    -0.337 A  
HETATM   12  C   UNL     1     -10.538   6.043  68.183  1.00  0.00    -0.328 A  
BRANCH  10  13
HETATM   13  C   UNL     1      -9.276   5.397  70.305  1.00  0.00    -0.185 C  
BRANCH  13  14
HETATM   14  C   UNL     1     -10.278   4.925  71.361  1.00  0.00    -0.257 C  
BRANCH  14  15
HETATM   15  C   UNL     1      -9.810   3.677  72.083  1.00  0.00    -0.170 C  
HETATM   16  O   UNL     1     -10.202   2.548  71.786  1.00  0.00    -0.119 OA 
HETATM   17  C   UNL     1      -8.817   3.875  73.199  1.00  0.00    -0.101 C  
ENDBRANCH  14  15
ENDBRANCH  13  14
ENDBRANCH  10  13
ENDBRANCH   2   3
TORSDOF 4
ENDMDL
MODEL      172
REMARK 921   NORMALIZED FREE ENERGY PREDICTED BY IDOCK:   -2.54 KCAL/MOL
REMARK 922        TOTAL FREE ENERGY PREDICTED BY IDOCK:   -3.52 KCAL/MOL
REMARK 923 INTER-LIGAND FREE ENERGY PREDICTED BY IDOCK:   -3.24 KCAL/MOL
REMARK 924 INTRA-LIGAND FREE ENERGY PREDICTED BY IDOCK:   -0.29 KCAL/MOL
REMARK 927      BINDING AFFINITY PREDICTED BY RF-SCORE:    0.00 PKD
ROOT
HETATM    1  C   UNL     1      -6.113  15.442  68.588  1.00  0.00    -0.096 C  
HETATM    2  O   UNL     1      -7.472  15.486  68.167  1.00  0.00    -0.108 OA 
ENDROOT
BRANCH   2   3
HETATM    3  C   UNL     1      -8.110  14.284  68.025  1.00  0.00    -0.145 A  
HETATM    4  C   UNL     1      -7.501  13.075  67.687  1.00  0.00    -0.156 A  
HETATM    5  C   UNL     1      -8.254  11.891  67.589  1.00  0.00    -0.148 A  
HETATM    6  C   UNL     1      -9.645  11.922  67.821  1.00  0.00    -0.190 A  
HETATM    7  C   UNL     1     -10.250  13.146  68.146  1.00  0.00    -0.239 A  
HETATM    8  C   UNL     1     -10.383  10.725  67.717  1.00  0.00    -0.226 A  
HETATM    9  C   UNL     1      -9.487  14.312  68.251  1.00  0.00    -0.209 A  
HETATM   10  C   UNL     1      -9.762   9.502  67.411  1.00  0.00    -0.201 A  
HETATM   11  C   UNL     1      -7.640  10.677  67.262  1.00  0.00    -0.100 A  
HETATM   12  C   UNL     1      -8.384   9.499  67.169  1.00  0.00    -0.131 A  
BRANCH  10  13
HETATM   13  C   UNL     1     -10.606   8.251  67.279  1.00  0.00    -0.335 C  
BRANCH  13  14
HETATM   14  C   UNL     1     -10.740   7.426  68.561  1.00  0.00    -0.138 C  
BRANCH  14  15
HETATM   15  C   UNL     1     -10.587   5.940  68.309  1.00  0.00    -0.244 C  
HETATM   16  O   UNL     1     -10.472   5.118  69.218  1.00  0.00    -0.219 OA 
HETATM   17  C   UNL     1     -10.591   5.495  66.869  1.00  0.00    -0.348 C  
ENDBRANCH  14  15
ENDBRANCH  13  14
ENDBRANCH  10  13
ENDBRANCH   2   3
TORSDOF 4
ENDMDL
MODEL      173
REMARK 921   NORMALIZED FREE ENERGY PREDICTED BY IDOCK:   -2.46 KCAL/MOL
REMARK 922        TOTAL FREE ENERGY PREDICTED BY IDOCK:   -3.42 KCAL/MOL
REMARK 923 INTER-LIGAND FREE ENERGY PREDICTED BY IDOCK:   -3.17 KCAL/MOL
REMARK 924 INTRA-LIGAND FREE ENERGY PREDICTED BY IDOCK:   -0.25 KCAL/MOL
REMARK 927      BINDING AFFINITY PREDICTED BY RF-SCORE:    0.00 PKD
ROOT
HETATM    1  C   UNL     1     -11.859  14.300  66.681  1.00  0.00    -0.421 C  
HETATM    2  O   UNL     1     -10.708  13.957  67.444  1.00  0.00    -0.268 OA 
ENDROOT
BRANCH   2   3
HETATM    3  C   UNL     1     -10.219  12.690  67.281  1.00  0.00    -0.224 A  
HETATM    4  C   UNL     1     -10.912  11.510  67.550  1.00  0.00    -0.308 A  
HETATM    5  C   UNL     1     -10.316  10.256  67.325  1.00  0.00    -0.284 A  
HETATM    6  C   UNL     1      -8.995  10.184  66.835  1.00  0.00    -0.146 A  
HETATM    7  C   UNL     1      -8.301  11.377  66.581  1.00  0.00    -0.172 A  
HETATM    8  C   UNL     1      -8.415   8.918  66.617  1.00  0.00    -0.122 A  
HETATM    9  C   UNL     1      -8.912  12.616  66.799  1.00  0.00    -0.197 A  
HETATM   10  C   UNL     1      -9.128   7.730  66.855  1.00  0.00    -0.171 A  
HETATM   11  C   UNL     1     -11.018   9.073  67.583  1.00  0.00     0.008 A  
HETATM   12  C   UNL     1     -10.430   7.827  67.357  1.00  0.00    -0.362 A  
BRANCH  10  13
HETATM   13  C   UNL     1      -8.445   6.395  66.635  1.00  0.00    -0.115 C  
BRANCH  13  14
HETATM   14  C   UNL     1      -9.030   5.552  65.501  1.00  0.00    -0.133 C  
BRANCH  14  15
HETATM   15  C   UNL     1      -8.203   4.314  65.216  1.00  0.00    -0.106 C  
HETATM   16  O   UNL     1      -8.696   3.260  64.814  1.00  0.00    -0.100 OA 
HETATM   17  C   UNL     1      -6.717   4.429  65.443  1.00  0.00    -0.052 C  
ENDBRANCH  14  15
ENDBRANCH  13  14
ENDBRANCH  10  13
ENDBRANCH   2   3
TORSDOF 4
ENDMDL
MODEL      174
REMARK 921   NORMALIZED FREE ENERGY PREDICTED BY IDOCK:   -2.46 KCAL/MOL
REMARK 922        TOTAL FREE ENERGY PREDICTED BY IDOCK:   -3.42 KCAL/MOL
REMARK 923 INTER-LIGAND FREE ENERGY PREDICTED BY IDOCK:   -3.12 KCAL/MOL
REMARK 924 INTRA-LIGAND FREE ENERGY PREDICTED BY IDOCK:   -0.30 KCAL/MOL
REMARK 927      BINDING AFFINITY PREDICTED BY RF-SCORE:    0.00 PKD
ROOT
HETATM    1  C   UNL     1     -11.894  15.675  69.132  1.00  0.00    -0.362 C  
HETATM    2  O   UNL     1     -10.484  15.512  69.236  1.00  0.00    -0.216 OA 
ENDROOT
BRANCH   2   3
HETATM    3  C   UNL     1      -9.958  14.363  68.710  1.00  0.00    -0.223 A  
HETATM    4  C   UNL     1     -10.603  13.128  68.647  1.00  0.00    -0.259 A  
HETATM    5  C   UNL     1      -9.974  12.014  68.064  1.00  0.00    -0.197 A  
HETATM    6  C   UNL     1      -8.667  12.137  67.546  1.00  0.00    -0.173 A  
HETATM    7  C   UNL     1      -8.021  13.381  67.628  1.00  0.00    -0.174 A  
HETATM    8  C   UNL     1      -8.052  11.009  66.966  1.00  0.00    -0.136 A  
HETATM    9  C   UNL     1      -8.665  14.482  68.200  1.00  0.00    -0.171 A  
HETATM   10  C   UNL     1      -8.717   9.775  66.872  1.00  0.00    -0.143 A  
HETATM   11  C   UNL     1     -10.627  10.779  67.990  1.00  0.00    -0.245 A  
HETATM   12  C   UNL     1     -10.006   9.673  67.408  1.00  0.00    -0.237 A  
BRANCH  10  13
HETATM   13  C   UNL     1      -7.998   8.586  66.269  1.00  0.00    -0.102 C  
BRANCH  13  14
HETATM   14  C   UNL     1      -8.908   7.434  65.835  1.00  0.00    -0.149 C  
BRANCH  14  15
HETATM   15  C   UNL     1      -8.472   6.104  66.416  1.00  0.00    -0.123 C  
HETATM   16  O   UNL     1      -7.320   5.680  66.322  1.00  0.00    -0.076 OA 
HETATM   17  C   UNL     1      -9.527   5.305  67.138  1.00  0.00    -0.132 C  
ENDBRANCH  14  15
ENDBRANCH  13  14
ENDBRANCH  10  13
ENDBRANCH   2   3
TORSDOF 4
ENDMDL
MODEL      175
REMARK 921   NORMALIZED FREE ENERGY PREDICTED BY IDOCK:   -2.35 KCAL/MOL
REMARK 922        TOTAL FREE ENERGY PREDICTED BY IDOCK:   -3.28 KCAL/MOL
REMARK 923 INTER-LIGAND FREE ENERGY PREDICTED BY IDOCK:   -3.04 KCAL/MOL
REMARK 924 INTRA-LIGAND FREE ENERGY PREDICTED BY IDOCK:   -0.25 KCAL/MOL
REMARK 927      BINDING AFFINITY PREDICTED BY RF-SCORE:    0.00 PKD
ROOT
HETATM    1  C   UNL     1      -9.324  10.359  63.156  1.00  0.00    -0.312 C  
HETATM    2  O   UNL     1      -8.347  10.570  64.170  1.00  0.00    -0.164 OA 
ENDROOT
BRANCH   2   3
HETATM    3  C   UNL     1      -8.402   9.743  65.258  1.00  0.00    -0.142 A  
HETATM    4  C   UNL     1      -8.345  10.148  66.591  1.00  0.00    -0.123 A  
HETATM    5  C   UNL     1      -8.433   9.210  67.635  1.00  0.00    -0.116 A  
HETATM    6  C   UNL     1      -8.567   7.838  67.336  1.00  0.00    -0.125 A  
HETATM    7  C   UNL     1      -8.608   7.439  65.991  1.00  0.00    -0.162 A  
HETATM    8  C   UNL     1      -8.652   6.912  68.396  1.00  0.00    -0.125 A  
HETATM    9  C   UNL     1      -8.532   8.385  64.965  1.00  0.00    -0.160 A  
HETATM   10  C   UNL     1      -8.629   7.326  69.739  1.00  0.00    -0.141 A  
HETATM   11  C   UNL     1      -8.388   9.620  68.972  1.00  0.00    -0.122 A  
HETATM   12  C   UNL     1      -8.479   8.691  70.010  1.00  0.00    -0.130 A  
BRANCH  10  13
HETATM   13  C   UNL     1      -8.692   6.287  70.839  1.00  0.00    -0.136 C  
BRANCH  13  14
HETATM   14  C   UNL     1      -9.609   6.643  72.011  1.00  0.00    -0.150 C  
BRANCH  14  15
HETATM   15  C   UNL     1     -11.004   6.074  71.846  1.00  0.00    -0.264 C  
HETATM   16  O   UNL     1     -11.613   5.524  72.763  1.00  0.00    -0.308 OA 
HETATM   17  C   UNL     1     -11.634   6.218  70.484  1.00  0.00    -0.357 C  
ENDBRANCH  14  15
ENDBRANCH  13  14
ENDBRANCH  10  13
ENDBRANCH   2   3
TORSDOF 4
ENDMDL
MODEL      176
REMARK 921   NORMALIZED FREE ENERGY PREDICTED BY IDOCK:   -2.18 KCAL/MOL
REMARK 922        TOTAL FREE ENERGY PREDICTED BY IDOCK:   -3.07 KCAL/MOL
REMARK 923 INTER-LIGAND FREE ENERGY PREDICTED BY IDOCK:   -2.85 KCAL/MOL
REMARK 924 INTRA-LIGAND FREE ENERGY PREDICTED BY IDOCK:   -0.23 KCAL/MOL
REMARK 927      BINDING AFFINITY PREDICTED BY RF-SCORE:    0.00 PKD
ROOT
HETATM    1  C   UNL     1      -6.821  14.880  69.358  1.00  0.00    -0.164 C  
HETATM    2  O   UNL     1      -7.944  14.573  68.540  1.00  0.00    -0.129 OA 
ENDROOT
BRANCH   2   3
HETATM    3  C   UNL     1      -8.254  13.248  68.394  1.00  0.00    -0.134 A  
HETATM    4  C   UNL     1      -9.413  12.743  67.806  1.00  0.00    -0.205 A  
HETATM    5  C   UNL     1      -9.619  11.358  67.689  1.00  0.00    -0.176 A  
HETATM    6  C   UNL     1      -8.650  10.459  68.184  1.00  0.00    -0.125 A  
HETATM    7  C   UNL     1      -7.493  10.977  68.788  1.00  0.00    -0.116 A  
HETATM    8  C   UNL     1      -8.874   9.074  68.059  1.00  0.00    -0.129 A  
HETATM    9  C   UNL     1      -7.298  12.358  68.886  1.00  0.00    -0.031 A  
HETATM   10  C   UNL     1     -10.027   8.568  67.435  1.00  0.00    -0.275 A  
HETATM   11  C   UNL     1     -10.777  10.853  67.088  1.00  0.00    -0.320 A  
HETATM   12  C   UNL     1     -10.982   9.478  66.967  1.00  0.00     0.014 A  
BRANCH  10  13
HETATM   13  C   UNL     1     -10.234   7.069  67.356  1.00  0.00    -0.278 C  
BRANCH  13  14
HETATM   14  C   UNL     1      -9.355   6.350  66.331  1.00  0.00    -0.176 C  
BRANCH  14  15
HETATM   15  C   UNL     1      -9.827   4.937  66.056  1.00  0.00    -0.203 C  
HETATM   16  O   UNL     1     -10.812   4.686  65.361  1.00  0.00    -0.252 OA 
HETATM   17  C   UNL     1      -9.020   3.823  66.672  1.00  0.00    -0.147 C  
ENDBRANCH  14  15
ENDBRANCH  13  14
ENDBRANCH  10  13
ENDBRANCH   2   3
TORSDOF 4
ENDMDL
MODEL      177
REMARK 921   NORMALIZED FREE ENERGY PREDICTED BY IDOCK:   -2.17 KCAL/MOL
REMARK 922        TOTAL FREE ENERGY PREDICTED BY IDOCK:   -3.06 KCAL/MOL
REMARK 923 INTER-LIGAND FREE ENERGY PREDICTED BY IDOCK:   -2.55 KCAL/MOL
REMARK 924 INTRA-LIGAND FREE ENERGY PREDICTED BY IDOCK:   -0.51 KCAL/MOL
REMARK 927      BINDING AFFINITY PREDICTED BY RF-SCORE:    0.00 PKD
ROOT
HETATM    1  C   UNL     1      -7.048  14.374  69.443  1.00  0.00    -0.113 C  
HETATM    2  O   UNL     1      -8.095  14.195  68.495  1.00  0.00    -0.137 OA 
ENDROOT
BRANCH   2   3
HETATM    3  C   UNL     1      -8.001  13.104  67.676  1.00  0.00    -0.174 A  
HETATM    4  C   UNL     1      -9.032  12.583  66.893  1.00  0.00    -0.212 A  
HETATM    5  C   UNL     1      -8.818  11.465  66.069  1.00  0.00    -0.177 A  
HETATM    6  C   UNL     1      -7.549  10.848  66.037  1.00  0.00    -0.094 A  
HETATM    7  C   UNL     1      -6.523  11.370  66.840  1.00  0.00    -0.138 A  
HETATM    8  C   UNL     1      -7.354   9.727  65.205  1.00  0.00    -0.120 A  
HETATM    9  C   UNL     1      -6.748  12.490  67.646  1.00  0.00    -0.136 A  
HETATM   10  C   UNL     1      -8.384   9.226  64.392  1.00  0.00    -0.175 A  
HETATM   11  C   UNL     1      -9.850  10.952  65.275  1.00  0.00    -0.318 A  
HETATM   12  C   UNL     1      -9.638   9.844  64.452  1.00  0.00    -0.257 A  
BRANCH  10  13
HETATM   13  C   UNL     1      -8.131   7.999  63.540  1.00  0.00    -0.097 C  
BRANCH  13  14
HETATM   14  C   UNL     1      -7.355   6.879  64.238  1.00  0.00    -0.085 C  
BRANCH  14  15
HETATM   15  C   UNL     1      -8.209   6.121  65.235  1.00  0.00    -0.142 C  
HETATM   16  O   UNL     1      -9.130   5.378  64.895  1.00  0.00    -0.070 OA 
HETATM   17  C   UNL     1      -7.872   6.309  66.692  1.00  0.00    -0.104 C  
ENDBRANCH  14  15
ENDBRANCH  13  14
ENDBRANCH  10  13
ENDBRANCH   2   3
TORSDOF 4
ENDMDL
MODEL      178
REMARK 921   NORMALIZED FREE ENERGY PREDICTED BY IDOCK:   -1.65 KCAL/MOL
REMARK 922        TOTAL FREE ENERGY PREDICTED BY IDOCK:   -2.42 KCAL/MOL
REMARK 923 INTER-LIGAND FREE ENERGY PREDICTED BY IDOCK:   -2.68 KCAL/MOL
REMARK 924 INTRA-LIGAND FREE ENERGY PREDICTED BY IDOCK:    0.27 KCAL/MOL
REMARK 927      BINDING AFFINITY PREDICTED BY RF-SCORE:    0.00 PKD
ROOT
HETATM    1  C   UNL     1      -9.954   4.667  72.063  1.00  0.00    -0.189 C  
HETATM    2  O   UNL     1     -10.414   6.013  72.023  1.00  0.00    -0.198 OA 
ENDROOT
BRANCH   2   3
HETATM    3  C   UNL     1     -10.078   6.744  70.917  1.00  0.00    -0.190 A  
HETATM    4  C   UNL     1      -9.955   6.246  69.620  1.00  0.00    -0.201 A  
HETATM    5  C   UNL     1      -9.624   7.096  68.549  1.00  0.00    -0.139 A  
HETATM    6  C   UNL     1      -9.400   8.469  68.785  1.00  0.00    -0.143 A  
HETATM    7  C   UNL     1      -9.513   8.957  70.096  1.00  0.00    -0.198 A  
HETATM    8  C   UNL     1      -9.069   9.304  67.700  1.00  0.00    -0.136 A  
HETATM    9  C   UNL     1      -9.854   8.102  71.148  1.00  0.00    -0.207 A  
HETATM   10  C   UNL     1      -8.979   8.806  66.388  1.00  0.00    -0.194 A  
HETATM   11  C   UNL     1      -9.513   6.596  67.247  1.00  0.00    -0.151 A  
HETATM   12  C   UNL     1      -9.190   7.438  66.181  1.00  0.00    -0.148 A  
BRANCH  10  13
HETATM   13  C   UNL     1      -8.588   9.742  65.262  1.00  0.00    -0.168 C  
BRANCH  13  14
HETATM   14  C   UNL     1      -7.582  10.828  65.647  1.00  0.00    -0.044 C  
BRANCH  14  15
HETATM   15  C   UNL     1      -8.188  11.882  66.551  1.00  0.00    -0.026 C  
HETATM   16  O   UNL     1      -9.290  12.389  66.340  1.00  0.00    -0.232 OA 
HETATM   17  C   UNL     1      -7.374  12.290  67.753  1.00  0.00    -0.118 C  
ENDBRANCH  14  15
ENDBRANCH  13  14
ENDBRANCH  10  13
ENDBRANCH   2   3
TORSDOF 4
ENDMDL
MODEL      179
REMARK 921   NORMALIZED FREE ENERGY PREDICTED BY IDOCK:   -1.63 KCAL/MOL
REMARK 922        TOTAL FREE ENERGY PREDICTED BY IDOCK:   -2.40 KCAL/MOL
REMARK 923 INTER-LIGAND FREE ENERGY PREDICTED BY IDOCK:   -2.19 KCAL/MOL
REMARK 924 INTRA-LIGAND FREE ENERGY PREDICTED BY IDOCK:   -0.21 KCAL/MOL
REMARK 927      BINDING AFFINITY PREDICTED BY RF-SCORE:    0.00 PKD
ROOT
HETATM    1  C   UNL     1      -6.870  15.142  69.586  1.00  0.00    -0.188 C  
HETATM    2  O   UNL     1      -7.704  14.995  68.442  1.00  0.00    -0.105 OA 
ENDROOT
BRANCH   2   3
HETATM    3  C   UNL     1      -7.807  13.737  67.914  1.00  0.00    -0.159 A  
HETATM    4  C   UNL     1      -6.819  12.754  67.955  1.00  0.00    -0.100 A  
HETATM    5  C   UNL     1      -7.042  11.483  67.397  1.00  0.00    -0.119 A  
HETATM    6  C   UNL     1      -8.275  11.196  66.774  1.00  0.00    -0.154 A  
HETATM    7  C   UNL     1      -9.258  12.197  66.725  1.00  0.00    -0.207 A  
HETATM    8  C   UNL     1      -8.480   9.916  66.220  1.00  0.00    -0.133 A  
HETATM    9  C   UNL     1      -9.025  13.452  67.295  1.00  0.00    -0.221 A  
HETATM   10  C   UNL     1      -7.495   8.916  66.292  1.00  0.00    -0.091 A  
HETATM   11  C   UNL     1      -6.054  10.494  67.450  1.00  0.00    -0.053 A  
HETATM   12  C   UNL     1      -6.274   9.229  66.901  1.00  0.00    -0.065 A  
BRANCH  10  13
HETATM   13  C   UNL     1      -7.754   7.568  65.651  1.00  0.00    -0.100 C  
BRANCH  13  14
HETATM   14  C   UNL     1      -8.534   6.580  66.521  1.00  0.00    -0.120 C  
BRANCH  14  15
HETATM   15  C   UNL     1      -8.457   5.161  65.994  1.00  0.00    -0.118 C  
HETATM   16  O   UNL     1      -7.440   4.472  66.078  1.00  0.00    -0.083 OA 
HETATM   17  C   UNL     1      -9.706   4.610  65.355  1.00  0.00    -0.174 C  
ENDBRANCH  14  15
ENDBRANCH  13  14
ENDBRANCH  10  13
ENDBRANCH   2   3
TORSDOF 4
ENDMDL
MODEL      180
REMARK 921   NORMALIZED FREE ENERGY PREDICTED BY IDOCK:   -0.82 KCAL/MOL
REMARK 922        TOTAL FREE ENERGY PREDICTED BY IDOCK:   -1.40 KCAL/MOL
REMARK 923 INTER-LIGAND FREE ENERGY PREDICTED BY IDOCK:   -2.03 KCAL/MOL
REMARK 924 INTRA-LIGAND FREE ENERGY PREDICTED BY IDOCK:    0.63 KCAL/MOL
REMARK 927      BINDING AFFINITY PREDICTED BY RF-SCORE:    0.00 PKD
ROOT
HETATM    1  C   UNL     1      -8.035   5.582  68.108  1.00  0.00    -0.096 C  
HETATM    2  O   UNL     1      -9.003   6.548  68.504  1.00  0.00    -0.127 OA 
ENDROOT
BRANCH   2   3
HETATM    3  C   UNL     1      -8.614   7.859  68.467  1.00  0.00    -0.128 A  
HETATM    4  C   UNL     1      -8.722   8.710  67.368  1.00  0.00    -0.136 A  
HETATM    5  C   UNL     1      -8.307  10.050  67.450  1.00  0.00    -0.118 A  
HETATM    6  C   UNL     1      -7.762  10.545  68.653  1.00  0.00    -0.106 A  
HETATM    7  C   UNL     1      -7.644   9.677  69.749  1.00  0.00    -0.123 A  
HETATM    8  C   UNL     1      -7.351  11.892  68.715  1.00  0.00    -0.105 A  
HETATM    9  C   UNL     1      -8.071   8.349  69.656  1.00  0.00    -0.115 A  
HETATM   10  C   UNL     1      -7.493  12.757  67.616  1.00  0.00    -0.144 A  
HETATM   11  C   UNL     1      -8.428  10.906  66.349  1.00  0.00    -0.163 A  
HETATM   12  C   UNL     1      -8.022  12.239  66.429  1.00  0.00     0.333 A  
BRANCH  10  13
HETATM   13  C   UNL     1      -7.005  14.187  67.727  1.00  0.00    -0.189 C  
BRANCH  13  14
HETATM   14  C   UNL     1      -8.027  15.174  68.293  1.00  0.00    -0.129 C  
BRANCH  14  15
HETATM   15  C   UNL     1      -9.371  15.075  67.601  1.00  0.00    -0.194 C  
HETATM   16  O   UNL     1     -10.029  14.035  67.568  1.00  0.00    -0.232 OA 
HETATM   17  C   UNL     1      -9.887  16.330  66.945  1.00  0.00    -0.253 C  
ENDBRANCH  14  15
ENDBRANCH  13  14
ENDBRANCH  10  13
ENDBRANCH   2   3
TORSDOF 4
ENDMDL
